MODEL 1
REMARK VINA RESULT:    -3.323      0.000      0.000
REMARK INTER + INTRA:          -8.899
REMARK INTER:                  -6.238
REMARK INTRA:                  -2.661
REMARK UNBOUND:                -2.661
REMARK SMILES CCCCCCCCC=CCCCCCCCC(=O)[O-]
REMARK SMILES IDX 10 1 9 2 11 3 12 4 13 5 14 6 15 7 16 8 17 9 18 10 19 11
REMARK SMILES IDX 20 12 8 13 7 14 6 15 5 16 4 17 3 18 2 19 1 20
REMARK H PARENT
REMARK Flexibility Score: inf
ROOT
ATOM      1  C   UNL     1    -102.710 -30.717 -14.394  1.00  0.00    -0.031 C 
ATOM      2  C   UNL     1    -102.512 -30.373 -13.107  1.00  0.00    -0.031 C 
ENDROOT
BRANCH   1   3
ATOM      3  C   UNL     1    -101.625 -30.951 -15.417  1.00  0.00     0.027 C 
BRANCH   3   4
ATOM      4  C   UNL     1    -101.154 -29.670 -16.130  1.00  0.00     0.004 C 
BRANCH   4   5
ATOM      5  C   UNL     1    -102.277 -28.638 -16.358  1.00  0.00     0.000 C 
BRANCH   5   6
ATOM      6  C   UNL     1    -102.039 -27.326 -15.587  1.00  0.00     0.000 C 
BRANCH   6   7
ATOM      7  C   UNL     1    -103.162 -27.032 -14.569  1.00  0.00     0.000 C 
BRANCH   7   8
ATOM      8  C   UNL     1    -103.893 -25.701 -14.824  1.00  0.00     0.006 C 
BRANCH   8   9
ATOM      9  C   UNL     1    -104.060 -25.387 -16.314  1.00  0.00     0.053 C 
BRANCH   9  10
ATOM     10  C   UNL     1    -105.351 -25.940 -16.825  1.00  0.00     0.041 C 
ATOM     11  O   UNL     1    -106.358 -25.194 -16.952  1.00  0.00    -0.550 OA
ATOM     12  O   UNL     1    -105.457 -27.292 -17.125  1.00  0.00    -0.550 OA
ENDBRANCH   9  10
ENDBRANCH   8   9
ENDBRANCH   7   8
ENDBRANCH   6   7
ENDBRANCH   5   6
ENDBRANCH   4   5
ENDBRANCH   3   4
ENDBRANCH   1   3
BRANCH   2  13
ATOM     13  C   UNL     1    -101.166 -30.206 -12.442  1.00  0.00     0.027 C 
BRANCH  13  14
ATOM     14  C   UNL     1    -100.723 -28.733 -12.403  1.00  0.00     0.004 C 
BRANCH  14  15
ATOM     15  C   UNL     1     -99.391 -28.440 -13.125  1.00  0.00     0.000 C 
BRANCH  15  16
ATOM     16  C   UNL     1     -98.588 -29.687 -13.550  1.00  0.00     0.000 C 
BRANCH  16  17
ATOM     17  C   UNL     1     -97.216 -29.840 -12.867  1.00  0.00    -0.000 C 
BRANCH  17  18
ATOM     18  C   UNL     1     -97.262 -30.763 -11.638  1.00  0.00    -0.000 C 
BRANCH  18  19
ATOM     19  C   UNL     1     -97.426 -29.985 -10.323  1.00  0.00    -0.003 C 
ATOM     20  C   UNL     1     -98.732 -30.314  -9.600  1.00  0.00     0.004 C 
ENDBRANCH  18  19
ENDBRANCH  17  18
ENDBRANCH  16  17
ENDBRANCH  15  16
ENDBRANCH  14  15
ENDBRANCH  13  14
ENDBRANCH   2  13
TORSDOF 15
ENDMDL
MODEL 2
REMARK VINA RESULT:    -3.265      2.084      3.355
REMARK INTER + INTRA:          -8.790
REMARK INTER:                  -5.838
REMARK INTRA:                  -2.951
REMARK UNBOUND:                -2.661
REMARK SMILES CCCCCCCCC=CCCCCCCCC(=O)[O-]
REMARK SMILES IDX 10 1 9 2 11 3 12 4 13 5 14 6 15 7 16 8 17 9 18 10 19 11
REMARK SMILES IDX 20 12 8 13 7 14 6 15 5 16 4 17 3 18 2 19 1 20
REMARK H PARENT
REMARK Flexibility Score: inf
ROOT
ATOM      1  C   UNL     1    -103.666 -30.319 -14.420  1.00  0.00    -0.031 C 
ATOM      2  C   UNL     1    -104.410 -29.621 -13.539  1.00  0.00    -0.031 C 
ENDROOT
BRANCH   1   3
ATOM      3  C   UNL     1    -103.460 -29.962 -15.871  1.00  0.00     0.027 C 
BRANCH   3   4
ATOM      4  C   UNL     1    -102.038 -29.469 -16.196  1.00  0.00     0.004 C 
BRANCH   4   5
ATOM      5  C   UNL     1    -101.938 -27.941 -16.381  1.00  0.00     0.000 C 
BRANCH   5   6
ATOM      6  C   UNL     1    -103.289 -27.302 -16.753  1.00  0.00     0.000 C 
BRANCH   6   7
ATOM      7  C   UNL     1    -103.340 -25.797 -16.412  1.00  0.00     0.000 C 
BRANCH   7   8
ATOM      8  C   UNL     1    -104.746 -25.298 -16.034  1.00  0.00     0.006 C 
BRANCH   8   9
ATOM      9  C   UNL     1    -104.718 -24.095 -15.085  1.00  0.00     0.053 C 
BRANCH   9  10
ATOM     10  C   UNL     1    -105.486 -22.951 -15.666  1.00  0.00     0.041 C 
ATOM     11  O   UNL     1    -106.655 -23.124 -16.100  1.00  0.00    -0.550 OA
ATOM     12  O   UNL     1    -104.894 -21.698 -15.765  1.00  0.00    -0.550 OA
ENDBRANCH   9  10
ENDBRANCH   8   9
ENDBRANCH   7   8
ENDBRANCH   6   7
ENDBRANCH   5   6
ENDBRANCH   4   5
ENDBRANCH   3   4
ENDBRANCH   1   3
BRANCH   2  13
ATOM     13  C   UNL     1    -105.132 -28.327 -13.835  1.00  0.00     0.027 C 
BRANCH  13  14
ATOM     14  C   UNL     1    -104.767 -27.222 -12.829  1.00  0.00     0.004 C 
BRANCH  14  15
ATOM     15  C   UNL     1    -103.270 -26.846 -12.800  1.00  0.00     0.000 C 
BRANCH  15  16
ATOM     16  C   UNL     1    -102.505 -27.300 -11.540  1.00  0.00     0.000 C 
BRANCH  16  17
ATOM     17  C   UNL     1    -101.352 -28.287 -11.801  1.00  0.00    -0.000 C 
BRANCH  17  18
ATOM     18  C   UNL     1    -100.554 -27.948 -13.071  1.00  0.00    -0.000 C 
BRANCH  18  19
ATOM     19  C   UNL     1     -99.374 -28.905 -13.299  1.00  0.00    -0.003 C 
ATOM     20  C   UNL     1     -99.742 -30.367 -13.051  1.00  0.00     0.004 C 
ENDBRANCH  18  19
ENDBRANCH  17  18
ENDBRANCH  16  17
ENDBRANCH  15  16
ENDBRANCH  14  15
ENDBRANCH  13  14
ENDBRANCH   2  13
TORSDOF 15
ENDMDL
MODEL 3
REMARK VINA RESULT:    -3.238      3.790      6.748
REMARK INTER + INTRA:          -8.738
REMARK INTER:                  -6.293
REMARK INTRA:                  -2.445
REMARK UNBOUND:                -2.661
REMARK SMILES CCCCCCCCC=CCCCCCCCC(=O)[O-]
REMARK SMILES IDX 10 1 9 2 11 3 12 4 13 5 14 6 15 7 16 8 17 9 18 10 19 11
REMARK SMILES IDX 20 12 8 13 7 14 6 15 5 16 4 17 3 18 2 19 1 20
REMARK H PARENT
REMARK Flexibility Score: inf
ROOT
ATOM      1  C   UNL     1    -104.774 -25.299 -13.524  1.00  0.00    -0.031 C 
ATOM      2  C   UNL     1    -104.523 -24.630 -14.666  1.00  0.00    -0.031 C 
ENDROOT
BRANCH   1   3
ATOM      3  C   UNL     1    -105.302 -26.710 -13.432  1.00  0.00     0.027 C 
BRANCH   3   4
ATOM      4  C   UNL     1    -104.237 -27.749 -13.035  1.00  0.00     0.004 C 
BRANCH   4   5
ATOM      5  C   UNL     1    -102.804 -27.182 -12.989  1.00  0.00     0.000 C 
BRANCH   5   6
ATOM      6  C   UNL     1    -101.820 -28.121 -12.265  1.00  0.00     0.000 C 
BRANCH   6   7
ATOM      7  C   UNL     1    -100.454 -28.204 -12.979  1.00  0.00     0.000 C 
BRANCH   7   8
ATOM      8  C   UNL     1     -99.545 -29.324 -12.444  1.00  0.00     0.006 C 
BRANCH   8   9
ATOM      9  C   UNL     1     -98.178 -29.364 -13.133  1.00  0.00     0.053 C 
BRANCH   9  10
ATOM     10  C   UNL     1     -97.136 -29.896 -12.202  1.00  0.00     0.041 C 
ATOM     11  O   UNL     1     -96.061 -30.372 -12.654  1.00  0.00    -0.550 OA
ATOM     12  O   UNL     1     -97.368 -29.904 -10.832  1.00  0.00    -0.550 OA
ENDBRANCH   9  10
ENDBRANCH   8   9
ENDBRANCH   7   8
ENDBRANCH   6   7
ENDBRANCH   5   6
ENDBRANCH   4   5
ENDBRANCH   3   4
ENDBRANCH   1   3
BRANCH   2  13
ATOM     13  C   UNL     1    -104.678 -25.189 -16.061  1.00  0.00     0.027 C 
BRANCH  13  14
ATOM     14  C   UNL     1    -103.359 -25.775 -16.595  1.00  0.00     0.004 C 
BRANCH  14  15
ATOM     15  C   UNL     1    -103.344 -27.311 -16.733  1.00  0.00     0.000 C 
BRANCH  15  16
ATOM     16  C   UNL     1    -102.001 -27.988 -16.391  1.00  0.00     0.000 C 
BRANCH  16  17
ATOM     17  C   UNL     1    -102.055 -29.523 -16.282  1.00  0.00    -0.000 C 
BRANCH  17  18
ATOM     18  C   UNL     1    -100.659 -30.163 -16.189  1.00  0.00    -0.000 C 
BRANCH  18  19
ATOM     19  C   UNL     1    -100.619 -31.350 -15.214  1.00  0.00    -0.003 C 
ATOM     20  C   UNL     1    -101.948 -31.565 -14.490  1.00  0.00     0.004 C 
ENDBRANCH  18  19
ENDBRANCH  17  18
ENDBRANCH  16  17
ENDBRANCH  15  16
ENDBRANCH  14  15
ENDBRANCH  13  14
ENDBRANCH   2  13
TORSDOF 15
ENDMDL
MODEL 4
REMARK VINA RESULT:    -3.206      3.468      6.850
REMARK INTER + INTRA:          -8.679
REMARK INTER:                  -6.047
REMARK INTRA:                  -2.632
REMARK UNBOUND:                -2.661
REMARK SMILES CCCCCCCCC=CCCCCCCCC(=O)[O-]
REMARK SMILES IDX 10 1 9 2 11 3 12 4 13 5 14 6 15 7 16 8 17 9 18 10 19 11
REMARK SMILES IDX 20 12 8 13 7 14 6 15 5 16 4 17 3 18 2 19 1 20
REMARK H PARENT
REMARK Flexibility Score: inf
ROOT
ATOM      1  C   UNL     1    -102.793 -30.719 -14.443  1.00  0.00    -0.031 C 
ATOM      2  C   UNL     1    -102.177 -30.446 -15.610  1.00  0.00    -0.031 C 
ENDROOT
BRANCH   1   3
ATOM      3  C   UNL     1    -103.950 -29.945 -13.860  1.00  0.00     0.027 C 
BRANCH   3   4
ATOM      4  C   UNL     1    -103.536 -28.913 -12.796  1.00  0.00     0.004 C 
BRANCH   4   5
ATOM      5  C   UNL     1    -102.110 -29.123 -12.248  1.00  0.00     0.000 C 
BRANCH   5   6
ATOM      6  C   UNL     1    -101.290 -27.820 -12.222  1.00  0.00     0.000 C 
BRANCH   6   7
ATOM      7  C   UNL     1    -100.102 -27.854 -13.207  1.00  0.00     0.000 C 
BRANCH   7   8
ATOM      8  C   UNL     1     -99.486 -29.254 -13.383  1.00  0.00     0.006 C 
BRANCH   8   9
ATOM      9  C   UNL     1     -98.142 -29.410 -12.664  1.00  0.00     0.053 C 
BRANCH   9  10
ATOM     10  C   UNL     1     -98.287 -30.293 -11.466  1.00  0.00     0.041 C 
ATOM     11  O   UNL     1     -97.866 -31.480 -11.496  1.00  0.00    -0.550 OA
ATOM     12  O   UNL     1     -98.925 -29.818 -10.328  1.00  0.00    -0.550 OA
ENDBRANCH   9  10
ENDBRANCH   8   9
ENDBRANCH   7   8
ENDBRANCH   6   7
ENDBRANCH   5   6
ENDBRANCH   4   5
ENDBRANCH   3   4
ENDBRANCH   1   3
BRANCH   2  13
ATOM     13  C   UNL     1    -102.567 -29.345 -16.569  1.00  0.00     0.027 C 
BRANCH  13  14
ATOM     14  C   UNL     1    -101.726 -28.074 -16.358  1.00  0.00     0.004 C 
BRANCH  14  15
ATOM     15  C   UNL     1    -102.484 -26.901 -15.702  1.00  0.00     0.000 C 
BRANCH  15  16
ATOM     16  C   UNL     1    -103.430 -26.125 -16.641  1.00  0.00     0.000 C 
BRANCH  16  17
ATOM     17  C   UNL     1    -104.247 -25.009 -15.964  1.00  0.00    -0.000 C 
BRANCH  17  18
ATOM     18  C   UNL     1    -104.906 -25.467 -14.651  1.00  0.00    -0.000 C 
BRANCH  18  19
ATOM     19  C   UNL     1    -104.515 -24.584 -13.457  1.00  0.00    -0.003 C 
ATOM     20  C   UNL     1    -104.441 -25.363 -12.144  1.00  0.00     0.004 C 
ENDBRANCH  18  19
ENDBRANCH  17  18
ENDBRANCH  16  17
ENDBRANCH  15  16
ENDBRANCH  14  15
ENDBRANCH  13  14
ENDBRANCH   2  13
TORSDOF 15
ENDMDL
MODEL 5
REMARK VINA RESULT:    -3.121      4.037      6.761
REMARK INTER + INTRA:          -8.520
REMARK INTER:                  -5.971
REMARK INTRA:                  -2.549
REMARK UNBOUND:                -2.661
REMARK SMILES CCCCCCCCC=CCCCCCCCC(=O)[O-]
REMARK SMILES IDX 10 1 9 2 11 3 12 4 13 5 14 6 15 7 16 8 17 9 18 10 19 11
REMARK SMILES IDX 20 12 8 13 7 14 6 15 5 16 4 17 3 18 2 19 1 20
REMARK H PARENT
REMARK Flexibility Score: inf
ROOT
ATOM      1  C   UNL     1    -100.873 -27.857 -12.808  1.00  0.00    -0.031 C 
ATOM      2  C   UNL     1    -100.809 -27.642 -14.137  1.00  0.00    -0.031 C 
ENDROOT
BRANCH   1   3
ATOM      3  C   UNL     1    -102.097 -27.664 -11.947  1.00  0.00     0.027 C 
BRANCH   3   4
ATOM      4  C   UNL     1    -102.188 -28.645 -10.764  1.00  0.00     0.004 C 
BRANCH   4   5
ATOM      5  C   UNL     1    -101.179 -29.808 -10.843  1.00  0.00     0.000 C 
BRANCH   5   6
ATOM      6  C   UNL     1    -100.188 -29.812  -9.664  1.00  0.00     0.000 C 
BRANCH   6   7
ATOM      7  C   UNL     1     -98.747 -30.141 -10.109  1.00  0.00     0.000 C 
BRANCH   7   8
ATOM      8  C   UNL     1     -98.643 -30.601 -11.574  1.00  0.00     0.006 C 
BRANCH   8   9
ATOM      9  C   UNL     1     -97.797 -29.660 -12.437  1.00  0.00     0.053 C 
BRANCH   9  10
ATOM     10  C   UNL     1     -96.379 -30.130 -12.490  1.00  0.00     0.041 C 
ATOM     11  O   UNL     1     -95.548 -29.746 -11.625  1.00  0.00    -0.550 OA
ATOM     12  O   UNL     1     -95.962 -30.962 -13.521  1.00  0.00    -0.550 OA
ENDBRANCH   9  10
ENDBRANCH   8   9
ENDBRANCH   7   8
ENDBRANCH   6   7
ENDBRANCH   5   6
ENDBRANCH   4   5
ENDBRANCH   3   4
ENDBRANCH   1   3
BRANCH   2  13
ATOM     13  C   UNL     1    -101.964 -27.215 -15.012  1.00  0.00     0.027 C 
BRANCH  13  14
ATOM     14  C   UNL     1    -101.955 -27.939 -16.370  1.00  0.00     0.004 C 
BRANCH  14  15
ATOM     15  C   UNL     1    -102.728 -29.275 -16.394  1.00  0.00     0.000 C 
BRANCH  15  16
ATOM     16  C   UNL     1    -101.862 -30.529 -16.628  1.00  0.00     0.000 C 
BRANCH  16  17
ATOM     17  C   UNL     1    -100.413 -30.423 -16.117  1.00  0.00    -0.000 C 
BRANCH  17  18
ATOM     18  C   UNL     1    -100.106 -31.422 -14.987  1.00  0.00    -0.000 C 
BRANCH  18  19
ATOM     19  C   UNL     1    -101.290 -31.605 -14.026  1.00  0.00    -0.003 C 
ATOM     20  C   UNL     1    -101.123 -32.815 -13.106  1.00  0.00     0.004 C 
ENDBRANCH  18  19
ENDBRANCH  17  18
ENDBRANCH  16  17
ENDBRANCH  15  16
ENDBRANCH  14  15
ENDBRANCH  13  14
ENDBRANCH   2  13
TORSDOF 15
ENDMDL
MODEL 6
REMARK VINA RESULT:    -3.064      2.244      3.697
REMARK INTER + INTRA:          -8.412
REMARK INTER:                  -5.803
REMARK INTRA:                  -2.609
REMARK UNBOUND:                -2.661
REMARK SMILES CCCCCCCCC=CCCCCCCCC(=O)[O-]
REMARK SMILES IDX 10 1 9 2 11 3 12 4 13 5 14 6 15 7 16 8 17 9 18 10 19 11
REMARK SMILES IDX 20 12 8 13 7 14 6 15 5 16 4 17 3 18 2 19 1 20
REMARK H PARENT
REMARK Flexibility Score: inf
ROOT
ATOM      1  C   UNL     1    -101.423 -30.730 -15.911  1.00  0.00    -0.031 C 
ATOM      2  C   UNL     1    -100.423 -31.522 -15.476  1.00  0.00    -0.031 C 
ENDROOT
BRANCH   1   3
ATOM      3  C   UNL     1    -101.272 -29.303 -16.377  1.00  0.00     0.027 C 
BRANCH   3   4
ATOM      4  C   UNL     1    -102.594 -28.514 -16.408  1.00  0.00     0.004 C 
BRANCH   4   5
ATOM      5  C   UNL     1    -102.435 -27.023 -16.045  1.00  0.00     0.000 C 
BRANCH   5   6
ATOM      6  C   UNL     1    -103.466 -26.129 -16.759  1.00  0.00     0.000 C 
BRANCH   6   7
ATOM      7  C   UNL     1    -104.285 -25.272 -15.771  1.00  0.00     0.000 C 
BRANCH   7   8
ATOM      8  C   UNL     1    -103.952 -25.545 -14.294  1.00  0.00     0.006 C 
BRANCH   8   9
ATOM      9  C   UNL     1    -105.195 -25.601 -13.401  1.00  0.00     0.053 C 
BRANCH   9  10
ATOM     10  C   UNL     1    -105.234 -24.422 -12.482  1.00  0.00     0.041 C 
ATOM     11  O   UNL     1    -105.590 -24.562 -11.282  1.00  0.00    -0.550 OA
ATOM     12  O   UNL     1    -104.916 -23.158 -12.961  1.00  0.00    -0.550 OA
ENDBRANCH   9  10
ENDBRANCH   8   9
ENDBRANCH   7   8
ENDBRANCH   6   7
ENDBRANCH   5   6
ENDBRANCH   4   5
ENDBRANCH   3   4
ENDBRANCH   1   3
BRANCH   2  13
ATOM     13  C   UNL     1     -98.963 -31.138 -15.422  1.00  0.00     0.027 C 
BRANCH  13  14
ATOM     14  C   UNL     1     -98.427 -31.120 -13.980  1.00  0.00     0.004 C 
BRANCH  14  15
ATOM     15  C   UNL     1     -98.193 -29.710 -13.396  1.00  0.00     0.000 C 
BRANCH  15  16
ATOM     16  C   UNL     1     -99.356 -29.150 -12.551  1.00  0.00     0.000 C 
BRANCH  16  17
ATOM     17  C   UNL     1    -100.083 -27.940 -13.167  1.00  0.00    -0.000 C 
BRANCH  17  18
ATOM     18  C   UNL     1    -101.538 -27.812 -12.684  1.00  0.00    -0.000 C 
BRANCH  18  19
ATOM     19  C   UNL     1    -102.215 -29.177 -12.482  1.00  0.00    -0.003 C 
ATOM     20  C   UNL     1    -103.657 -29.202 -12.985  1.00  0.00     0.004 C 
ENDBRANCH  18  19
ENDBRANCH  17  18
ENDBRANCH  16  17
ENDBRANCH  15  16
ENDBRANCH  14  15
ENDBRANCH  13  14
ENDBRANCH   2  13
TORSDOF 15
ENDMDL
MODEL 7
REMARK VINA RESULT:    -3.056      3.503      7.076
REMARK INTER + INTRA:          -8.396
REMARK INTER:                  -5.761
REMARK INTRA:                  -2.635
REMARK UNBOUND:                -2.661
REMARK SMILES CCCCCCCCC=CCCCCCCCC(=O)[O-]
REMARK SMILES IDX 10 1 9 2 11 3 12 4 13 5 14 6 15 7 16 8 17 9 18 10 19 11
REMARK SMILES IDX 20 12 8 13 7 14 6 15 5 16 4 17 3 18 2 19 1 20
REMARK H PARENT
REMARK Flexibility Score: inf
ROOT
ATOM      1  C   UNL     1    -105.135 -28.303 -13.412  1.00  0.00    -0.031 C 
ATOM      2  C   UNL     1    -105.874 -28.353 -14.537  1.00  0.00    -0.031 C 
ENDROOT
BRANCH   1   3
ATOM      3  C   UNL     1    -105.176 -27.198 -12.384  1.00  0.00     0.027 C 
BRANCH   3   4
ATOM      4  C   UNL     1    -103.836 -26.461 -12.207  1.00  0.00     0.004 C 
BRANCH   4   5
ATOM      5  C   UNL     1    -102.762 -27.291 -11.475  1.00  0.00     0.000 C 
BRANCH   5   6
ATOM      6  C   UNL     1    -101.545 -27.601 -12.367  1.00  0.00     0.000 C 
BRANCH   6   7
ATOM      7  C   UNL     1    -101.296 -29.117 -12.514  1.00  0.00     0.000 C 
BRANCH   7   8
ATOM      8  C   UNL     1     -99.863 -29.545 -12.151  1.00  0.00     0.006 C 
BRANCH   8   9
ATOM      9  C   UNL     1     -98.808 -28.973 -13.104  1.00  0.00     0.053 C 
BRANCH   9  10
ATOM     10  C   UNL     1     -97.669 -29.929 -13.259  1.00  0.00     0.041 C 
ATOM     11  O   UNL     1     -96.622 -29.788 -12.573  1.00  0.00    -0.550 OA
ATOM     12  O   UNL     1     -97.746 -30.954 -14.193  1.00  0.00    -0.550 OA
ENDBRANCH   9  10
ENDBRANCH   8   9
ENDBRANCH   7   8
ENDBRANCH   6   7
ENDBRANCH   5   6
ENDBRANCH   4   5
ENDBRANCH   3   4
ENDBRANCH   1   3
BRANCH   2  13
ATOM     13  C   UNL     1    -106.914 -27.336 -14.948  1.00  0.00     0.027 C 
BRANCH  13  14
ATOM     14  C   UNL     1    -106.370 -26.351 -15.997  1.00  0.00     0.004 C 
BRANCH  14  15
ATOM     15  C   UNL     1    -105.730 -25.074 -15.413  1.00  0.00     0.000 C 
BRANCH  15  16
ATOM     16  C   UNL     1    -104.234 -24.884 -15.736  1.00  0.00     0.000 C 
BRANCH  16  17
ATOM     17  C   UNL     1    -103.579 -26.052 -16.497  1.00  0.00    -0.000 C 
BRANCH  17  18
ATOM     18  C   UNL     1    -102.560 -26.823 -15.641  1.00  0.00    -0.000 C 
BRANCH  18  19
ATOM     19  C   UNL     1    -101.932 -28.005 -16.395  1.00  0.00    -0.003 C 
ATOM     20  C   UNL     1    -102.599 -29.340 -16.063  1.00  0.00     0.004 C 
ENDBRANCH  18  19
ENDBRANCH  17  18
ENDBRANCH  16  17
ENDBRANCH  15  16
ENDBRANCH  14  15
ENDBRANCH  13  14
ENDBRANCH   2  13
TORSDOF 15
ENDMDL
MODEL 8
REMARK VINA RESULT:    -3.035      3.214      7.272
REMARK INTER + INTRA:          -8.358
REMARK INTER:                  -6.161
REMARK INTRA:                  -2.196
REMARK UNBOUND:                -2.661
REMARK SMILES CCCCCCCCC=CCCCCCCCC(=O)[O-]
REMARK SMILES IDX 10 1 9 2 11 3 12 4 13 5 14 6 15 7 16 8 17 9 18 10 19 11
REMARK SMILES IDX 20 12 8 13 7 14 6 15 5 16 4 17 3 18 2 19 1 20
REMARK H PARENT
REMARK Flexibility Score: inf
ROOT
ATOM      1  C   UNL     1    -101.145 -27.649 -12.689  1.00  0.00    -0.031 C 
ATOM      2  C   UNL     1    -100.808 -27.895 -13.970  1.00  0.00    -0.031 C 
ENDROOT
BRANCH   1   3
ATOM      3  C   UNL     1    -101.857 -28.610 -11.769  1.00  0.00     0.027 C 
BRANCH   3   4
ATOM      4  C   UNL     1    -100.946 -29.239 -10.699  1.00  0.00     0.004 C 
BRANCH   4   5
ATOM      5  C   UNL     1     -99.961 -30.285 -11.259  1.00  0.00     0.000 C 
BRANCH   5   6
ATOM      6  C   UNL     1     -98.641 -30.337 -10.466  1.00  0.00     0.000 C 
BRANCH   6   7
ATOM      7  C   UNL     1     -97.428 -29.901 -11.316  1.00  0.00     0.000 C 
BRANCH   7   8
ATOM      8  C   UNL     1     -97.754 -29.718 -12.809  1.00  0.00     0.006 C 
BRANCH   8   9
ATOM      9  C   UNL     1     -97.112 -30.789 -13.696  1.00  0.00     0.053 C 
BRANCH   9  10
ATOM     10  C   UNL     1     -98.163 -31.618 -14.362  1.00  0.00     0.041 C 
ATOM     11  O   UNL     1     -98.742 -32.540 -13.731  1.00  0.00    -0.550 OA
ATOM     12  O   UNL     1     -98.476 -31.397 -15.697  1.00  0.00    -0.550 OA
ENDBRANCH   9  10
ENDBRANCH   8   9
ENDBRANCH   7   8
ENDBRANCH   6   7
ENDBRANCH   5   6
ENDBRANCH   4   5
ENDBRANCH   3   4
ENDBRANCH   1   3
BRANCH   2  13
ATOM     13  C   UNL     1    -101.040 -29.196 -14.702  1.00  0.00     0.027 C 
BRANCH  13  14
ATOM     14  C   UNL     1    -101.718 -28.975 -16.066  1.00  0.00     0.004 C 
BRANCH  14  15
ATOM     15  C   UNL     1    -102.221 -27.538 -16.311  1.00  0.00     0.000 C 
BRANCH  15  16
ATOM     16  C   UNL     1    -103.729 -27.413 -16.611  1.00  0.00     0.000 C 
BRANCH  16  17
ATOM     17  C   UNL     1    -104.605 -27.051 -15.397  1.00  0.00    -0.000 C 
BRANCH  17  18
ATOM     18  C   UNL     1    -103.908 -26.081 -14.427  1.00  0.00    -0.000 C 
BRANCH  18  19
ATOM     19  C   UNL     1    -104.689 -24.772 -14.239  1.00  0.00    -0.003 C 
ATOM     20  C   UNL     1    -104.693 -23.900 -15.494  1.00  0.00     0.004 C 
ENDBRANCH  18  19
ENDBRANCH  17  18
ENDBRANCH  16  17
ENDBRANCH  15  16
ENDBRANCH  14  15
ENDBRANCH  13  14
ENDBRANCH   2  13
TORSDOF 15
ENDMDL
MODEL 9
REMARK VINA RESULT:    -3.028      2.675      6.503
REMARK INTER + INTRA:          -8.344
REMARK INTER:                  -5.561
REMARK INTRA:                  -2.782
REMARK UNBOUND:                -2.661
REMARK SMILES CCCCCCCCC=CCCCCCCCC(=O)[O-]
REMARK SMILES IDX 10 1 9 2 11 3 12 4 13 5 14 6 15 7 16 8 17 9 18 10 19 11
REMARK SMILES IDX 20 12 8 13 7 14 6 15 5 16 4 17 3 18 2 19 1 20
REMARK H PARENT
REMARK Flexibility Score: inf
ROOT
ATOM      1  C   UNL     1    -101.060 -27.645 -14.132  1.00  0.00    -0.031 C 
ATOM      2  C   UNL     1    -101.626 -27.587 -15.353  1.00  0.00    -0.031 C 
ENDROOT
BRANCH   1   3
ATOM      3  C   UNL     1    -101.517 -28.524 -12.994  1.00  0.00     0.027 C 
BRANCH   3   4
ATOM      4  C   UNL     1    -100.364 -29.127 -12.171  1.00  0.00     0.004 C 
BRANCH   4   5
ATOM      5  C   UNL     1     -99.035 -29.230 -12.946  1.00  0.00     0.000 C 
BRANCH   5   6
ATOM      6  C   UNL     1     -98.586 -30.688 -13.158  1.00  0.00     0.000 C 
BRANCH   6   7
ATOM      7  C   UNL     1     -98.418 -31.040 -14.651  1.00  0.00     0.000 C 
BRANCH   7   8
ATOM      8  C   UNL     1     -99.654 -30.709 -15.506  1.00  0.00     0.006 C 
BRANCH   8   9
ATOM      9  C   UNL     1    -100.452 -31.952 -15.910  1.00  0.00     0.053 C 
BRANCH   9  10
ATOM     10  C   UNL     1    -101.770 -31.983 -15.203  1.00  0.00     0.041 C 
ATOM     11  O   UNL     1    -102.844 -32.017 -15.859  1.00  0.00    -0.550 OA
ATOM     12  O   UNL     1    -101.814 -31.932 -13.816  1.00  0.00    -0.550 OA
ENDBRANCH   9  10
ENDBRANCH   8   9
ENDBRANCH   7   8
ENDBRANCH   6   7
ENDBRANCH   5   6
ENDBRANCH   4   5
ENDBRANCH   3   4
ENDBRANCH   1   3
BRANCH   2  13
ATOM     13  C   UNL     1    -102.792 -28.428 -15.818  1.00  0.00     0.027 C 
BRANCH  13  14
ATOM     14  C   UNL     1    -103.961 -27.562 -16.320  1.00  0.00     0.004 C 
BRANCH  14  15
ATOM     15  C   UNL     1    -103.568 -26.131 -16.745  1.00  0.00     0.000 C 
BRANCH  15  16
ATOM     16  C   UNL     1    -104.315 -25.001 -16.007  1.00  0.00     0.000 C 
BRANCH  16  17
ATOM     17  C   UNL     1    -105.146 -25.455 -14.793  1.00  0.00    -0.000 C 
BRANCH  17  18
ATOM     18  C   UNL     1    -104.617 -24.889 -13.464  1.00  0.00    -0.000 C 
BRANCH  18  19
ATOM     19  C   UNL     1    -104.273 -25.991 -12.450  1.00  0.00    -0.003 C 
ATOM     20  C   UNL     1    -104.929 -27.330 -12.786  1.00  0.00     0.004 C 
ENDBRANCH  18  19
ENDBRANCH  17  18
ENDBRANCH  16  17
ENDBRANCH  15  16
ENDBRANCH  14  15
ENDBRANCH  13  14
ENDBRANCH   2  13
TORSDOF 15
ENDMDL
