MODEL 1
REMARK VINA RESULT:    -4.376      0.000      0.000
REMARK INTER + INTRA:          -5.227
REMARK INTER:                  -6.167
REMARK INTRA:                   0.940
REMARK UNBOUND:                 0.940
REMARK SMILES CC1=CCC(=C(C)C)C(=O)CC(C)=CCC1
REMARK SMILES IDX 12 1 14 2 13 3 15 4 16 5 2 6 1 7 3 8 11 10 9 11 10 12 5 13
REMARK SMILES IDX 6 14 7 15 8 16 4 17
REMARK H PARENT
REMARK Flexibility Score: 60.00
ROOT
ATOM      1  C   UNL     1     -10.906 -16.837  27.843  1.00  0.00    -0.070 C 
ATOM      2  C   UNL     1     -10.274 -17.874  28.441  1.00  0.00    -0.027 C 
ATOM      3  C   UNL     1     -11.253 -16.965  26.382  1.00  0.00     0.039 C 
ENDROOT
BRANCH   2   4
ATOM      4  C   UNL     1      -9.907 -17.942  29.905  1.00  0.00     0.032 C 
BRANCH   4   5
ATOM      5  C   UNL     1     -10.640 -19.087  30.619  1.00  0.00     0.034 C 
BRANCH   5   6
ATOM      6  C   UNL     1     -12.107 -19.206  30.234  1.00  0.00    -0.077 C 
ATOM      7  C   UNL     1     -12.583 -20.467  29.557  1.00  0.00     0.039 C 
ATOM      8  C   UNL     1     -13.022 -18.240  30.482  1.00  0.00    -0.023 CG0
ATOM      9  G   UNL     1     -12.725 -16.886  31.084  1.00  0.00     0.000 G0
ENDBRANCH   5   6
ENDBRANCH   4   5
ENDBRANCH   2   4
BRANCH   1  10
ATOM     10  C   UNL     1     -11.274 -15.561  28.575  1.00  0.00     0.111 C 
BRANCH  10  11
ATOM     11  C   UNL     1     -12.745 -15.517  28.882  1.00  0.00     0.163 C 
ATOM     12  O   UNL     1     -13.566 -15.330  27.945  1.00  0.00    -0.294 OA
BRANCH  11  13
ATOM     13  C   UNL     1     -13.251 -15.715  30.264  1.00  0.00    -0.002 C 
ATOM     14  C   UNL     1     -14.171 -14.859  30.787  1.00  0.00    -0.069 C 
ATOM     15  C   UNL     1     -14.658 -15.014  32.209  1.00  0.00     0.039 C 
ATOM     16  C   UNL     1     -14.769 -13.748  29.953  1.00  0.00     0.039 C 
BRANCH  13  17
ATOM     17  C   UNL     1     -12.729 -16.889  31.086  1.00  0.00     0.066 CG0
ATOM     18  G   UNL     1     -13.020 -18.238  30.472  1.00  0.00     0.000 G0
ENDBRANCH  13  17
ENDBRANCH  11  13
ENDBRANCH  10  11
ENDBRANCH   1  10
TORSDOF 0
ENDMDL
MODEL 2
REMARK VINA RESULT:    -3.738      1.743      3.376
REMARK INTER + INTRA:          -4.327
REMARK INTER:                  -5.171
REMARK INTRA:                   0.844
REMARK UNBOUND:                 0.940
REMARK SMILES CC1=CCC(=C(C)C)C(=O)CC(C)=CCC1
REMARK SMILES IDX 12 1 14 2 13 3 15 4 16 5 2 6 1 7 3 8 11 10 9 11 10 12 5 13
REMARK SMILES IDX 6 14 7 15 8 16 4 17
REMARK H PARENT
REMARK Flexibility Score: 60.00
ROOT
ATOM      1  C   UNL     1     -11.885 -18.868  30.033  1.00  0.00    -0.070 C 
ATOM      2  C   UNL     1     -12.292 -19.255  28.802  1.00  0.00    -0.027 C 
ATOM      3  C   UNL     1     -10.560 -19.379  30.536  1.00  0.00     0.039 C 
ENDROOT
BRANCH   2   4
ATOM      4  C   UNL     1     -13.558 -18.792  28.117  1.00  0.00     0.032 C 
BRANCH   4   5
ATOM      5  C   UNL     1     -13.263 -17.758  27.021  1.00  0.00     0.034 C 
BRANCH   5   6
ATOM      6  C   UNL     1     -11.999 -16.948  27.272  1.00  0.00    -0.077 C 
ATOM      7  C   UNL     1     -10.695 -17.434  26.690  1.00  0.00     0.039 C 
ATOM      8  C   UNL     1     -11.982 -15.795  27.982  1.00  0.00    -0.023 CG0
ATOM      9  G   UNL     1     -13.167 -15.190  28.697  1.00  0.00     0.000 G0
ENDBRANCH   5   6
ENDBRANCH   4   5
ENDBRANCH   2   4
BRANCH   1  10
ATOM     10  C   UNL     1     -12.703 -17.951  30.922  1.00  0.00     0.111 C 
BRANCH  10  11
ATOM     11  C   UNL     1     -12.288 -16.516  30.749  1.00  0.00     0.163 C 
ATOM     12  O   UNL     1     -11.118 -16.169  31.065  1.00  0.00    -0.294 OA
BRANCH  11  13
ATOM     13  C   UNL     1     -13.221 -15.506  30.190  1.00  0.00    -0.002 C 
ATOM     14  C   UNL     1     -14.114 -14.874  31.000  1.00  0.00    -0.069 C 
ATOM     15  C   UNL     1     -15.107 -13.881  30.440  1.00  0.00     0.039 C 
ATOM     16  C   UNL     1     -14.119 -15.111  32.494  1.00  0.00     0.039 C 
BRANCH  13  17
ATOM     17  C   UNL     1     -13.163 -15.184  28.700  1.00  0.00     0.066 CG0
ATOM     18  G   UNL     1     -11.981 -15.803  27.990  1.00  0.00     0.000 G0
ENDBRANCH  13  17
ENDBRANCH  11  13
ENDBRANCH  10  11
ENDBRANCH   1  10
TORSDOF 0
ENDMDL
MODEL 3
REMARK VINA RESULT:    -3.195      2.135      4.661
REMARK INTER + INTRA:          -3.562
REMARK INTER:                  -4.863
REMARK INTRA:                   1.301
REMARK UNBOUND:                 0.940
REMARK SMILES CC1=CCC(=C(C)C)C(=O)CC(C)=CCC1
REMARK SMILES IDX 12 1 14 2 13 3 15 4 16 5 2 6 1 7 3 8 11 10 9 11 10 12 5 13
REMARK SMILES IDX 6 14 7 15 8 16 4 17
REMARK H PARENT
REMARK Flexibility Score: 60.00
ROOT
ATOM      1  C   UNL     1     -12.775 -16.120  30.878  1.00  0.00    -0.070 C 
ATOM      2  C   UNL     1     -13.621 -15.350  30.154  1.00  0.00    -0.027 C 
ATOM      3  C   UNL     1     -13.325 -16.839  32.083  1.00  0.00     0.039 C 
ENDROOT
BRANCH   2   4
ATOM      4  C   UNL     1     -13.257 -14.610  28.887  1.00  0.00     0.032 C 
BRANCH   4   5
ATOM      5  C   UNL     1     -12.225 -15.386  28.055  1.00  0.00     0.034 C 
BRANCH   5   6
ATOM      6  C   UNL     1     -12.842 -16.433  27.140  1.00  0.00    -0.077 C 
ATOM      7  C   UNL     1     -14.029 -16.050  26.291  1.00  0.00     0.039 C 
ATOM      8  C   UNL     1     -12.372 -17.698  27.032  1.00  0.00    -0.023 CG0
ATOM      9  G   UNL     1     -11.243 -18.285  27.847  1.00  0.00     0.000 G0
ENDBRANCH   5   6
ENDBRANCH   4   5
ENDBRANCH   2   4
BRANCH   1  10
ATOM     10  C   UNL     1     -11.308 -16.284  30.532  1.00  0.00     0.111 C 
BRANCH  10  11
ATOM     11  C   UNL     1     -10.950 -17.734  30.361  1.00  0.00     0.163 C 
ATOM     12  O   UNL     1     -10.115 -18.261  31.145  1.00  0.00    -0.294 OA
BRANCH  11  13
ATOM     13  C   UNL     1     -11.580 -18.564  29.304  1.00  0.00    -0.002 C 
ATOM     14  C   UNL     1     -12.450 -19.556  29.638  1.00  0.00    -0.069 C 
ATOM     15  C   UNL     1     -13.061 -20.445  28.579  1.00  0.00     0.039 C 
ATOM     16  C   UNL     1     -12.869 -19.779  31.074  1.00  0.00     0.039 C 
BRANCH  13  17
ATOM     17  C   UNL     1     -11.242 -18.289  27.843  1.00  0.00     0.066 CG0
ATOM     18  G   UNL     1     -12.383 -17.685  27.058  1.00  0.00     0.000 G0
ENDBRANCH  13  17
ENDBRANCH  11  13
ENDBRANCH  10  11
ENDBRANCH   1  10
TORSDOF 0
ENDMDL
MODEL 4
REMARK VINA RESULT:    -2.701      1.446      4.102
REMARK INTER + INTRA:          -2.866
REMARK INTER:                  -3.922
REMARK INTRA:                   1.056
REMARK UNBOUND:                 0.940
REMARK SMILES CC1=CCC(=C(C)C)C(=O)CC(C)=CCC1
REMARK SMILES IDX 12 1 14 2 13 3 15 4 16 5 2 6 1 7 3 8 11 10 9 11 10 12 5 13
REMARK SMILES IDX 6 14 7 15 8 16 4 17
REMARK H PARENT
REMARK Flexibility Score: 60.00
ROOT
ATOM      1  C   UNL     1     -12.258 -16.161  27.844  1.00  0.00    -0.070 C 
ATOM      2  C   UNL     1     -13.282 -15.398  28.292  1.00  0.00    -0.027 C 
ATOM      3  C   UNL     1     -12.461 -16.947  26.574  1.00  0.00     0.039 C 
ENDROOT
BRANCH   2   4
ATOM      4  C   UNL     1     -13.234 -14.501  29.508  1.00  0.00     0.032 C 
BRANCH   4   5
ATOM      5  C   UNL     1     -14.449 -14.720  30.421  1.00  0.00     0.034 C 
BRANCH   5   6
ATOM      6  C   UNL     1     -14.103 -15.374  31.750  1.00  0.00    -0.077 C 
ATOM      7  C   UNL     1     -14.248 -14.569  33.018  1.00  0.00     0.039 C 
ATOM      8  C   UNL     1     -13.685 -16.657  31.863  1.00  0.00    -0.023 CG0
ATOM      9  G   UNL     1     -13.414 -17.594  30.709  1.00  0.00     0.000 G0
ENDBRANCH   5   6
ENDBRANCH   4   5
ENDBRANCH   2   4
BRANCH   1  10
ATOM     10  C   UNL     1     -10.927 -16.261  28.564  1.00  0.00     0.111 C 
BRANCH  10  11
ATOM     11  C   UNL     1     -11.119 -16.626  30.010  1.00  0.00     0.163 C 
ATOM     12  O   UNL     1     -10.597 -15.906  30.903  1.00  0.00    -0.294 OA
BRANCH  11  13
ATOM     13  C   UNL     1     -11.932 -17.803  30.407  1.00  0.00    -0.002 C 
ATOM     14  C   UNL     1     -11.360 -19.035  30.490  1.00  0.00    -0.069 C 
ATOM     15  C   UNL     1     -12.183 -20.254  30.841  1.00  0.00     0.039 C 
ATOM     16  C   UNL     1      -9.875 -19.225  30.274  1.00  0.00     0.039 C 
BRANCH  13  17
ATOM     17  C   UNL     1     -13.412 -17.612  30.723  1.00  0.00     0.066 CG0
ATOM     18  G   UNL     1     -13.673 -16.636  31.846  1.00  0.00     0.000 G0
ENDBRANCH  13  17
ENDBRANCH  11  13
ENDBRANCH  10  11
ENDBRANCH   1  10
TORSDOF 0
ENDMDL
MODEL 5
REMARK VINA RESULT:    -2.420      1.923      3.471
REMARK INTER + INTRA:          -2.470
REMARK INTER:                  -4.286
REMARK INTRA:                   1.816
REMARK UNBOUND:                 0.940
REMARK SMILES CC1=CCC(=C(C)C)C(=O)CC(C)=CCC1
REMARK SMILES IDX 12 1 14 2 13 3 15 4 16 5 2 6 1 7 3 8 11 10 9 11 10 12 5 13
REMARK SMILES IDX 6 14 7 15 8 16 4 17
REMARK H PARENT
REMARK Flexibility Score: 60.00
ROOT
ATOM      1  C   UNL     1     -12.414 -19.221  28.928  1.00  0.00    -0.070 C 
ATOM      2  C   UNL     1     -11.991 -18.659  27.772  1.00  0.00    -0.027 C 
ATOM      3  C   UNL     1     -13.533 -20.228  28.860  1.00  0.00     0.039 C 
ENDROOT
BRANCH   2   4
ATOM      4  C   UNL     1     -10.844 -17.681  27.648  1.00  0.00     0.032 C 
BRANCH   4   5
ATOM      5  C   UNL     1     -11.324 -16.306  27.160  1.00  0.00     0.034 C 
BRANCH   5   6
ATOM      6  C   UNL     1     -12.791 -16.033  27.454  1.00  0.00    -0.077 C 
ATOM      7  C   UNL     1     -13.753 -15.894  26.300  1.00  0.00     0.039 C 
ATOM      8  C   UNL     1     -13.291 -15.923  28.707  1.00  0.00    -0.023 CG0
ATOM      9  G   UNL     1     -12.479 -15.962  29.981  1.00  0.00     0.000 G0
ENDBRANCH   5   6
ENDBRANCH   4   5
ENDBRANCH   2   4
BRANCH   1  10
ATOM     10  C   UNL     1     -11.816 -18.880  30.279  1.00  0.00     0.111 C 
BRANCH  10  11
ATOM     11  C   UNL     1     -12.836 -18.237  31.177  1.00  0.00     0.163 C 
ATOM     12  O   UNL     1     -13.445 -18.944  32.025  1.00  0.00    -0.294 OA
BRANCH  11  13
ATOM     13  C   UNL     1     -13.123 -16.782  31.102  1.00  0.00    -0.002 C 
ATOM     14  C   UNL     1     -13.945 -16.197  32.015  1.00  0.00    -0.069 C 
ATOM     15  C   UNL     1     -14.290 -14.728  31.923  1.00  0.00     0.039 C 
ATOM     16  C   UNL     1     -14.510 -16.983  33.177  1.00  0.00     0.039 C 
BRANCH  13  17
ATOM     17  C   UNL     1     -12.483 -15.955  29.992  1.00  0.00     0.066 CG0
ATOM     18  G   UNL     1     -13.292 -15.920  28.716  1.00  0.00     0.000 G0
ENDBRANCH  13  17
ENDBRANCH  11  13
ENDBRANCH  10  11
ENDBRANCH   1  10
TORSDOF 0
ENDMDL
MODEL 6
REMARK VINA RESULT:    -2.029      1.438      1.701
REMARK INTER + INTRA:          -1.919
REMARK INTER:                  -4.339
REMARK INTRA:                   2.421
REMARK UNBOUND:                 0.940
REMARK SMILES CC1=CCC(=C(C)C)C(=O)CC(C)=CCC1
REMARK SMILES IDX 12 1 14 2 13 3 15 4 16 5 2 6 1 7 3 8 11 10 9 11 10 12 5 13
REMARK SMILES IDX 6 14 7 15 8 16 4 17
REMARK H PARENT
REMARK Flexibility Score: 60.00
ROOT
ATOM      1  C   UNL     1     -12.867 -16.184  27.571  1.00  0.00    -0.070 C 
ATOM      2  C   UNL     1     -12.080 -17.272  27.400  1.00  0.00    -0.027 C 
ATOM      3  C   UNL     1     -14.051 -16.014  26.655  1.00  0.00     0.039 C 
ENDROOT
BRANCH   2   4
ATOM      4  C   UNL     1     -10.893 -17.631  28.264  1.00  0.00     0.032 C 
BRANCH   4   5
ATOM      5  C   UNL     1     -11.079 -18.996  28.942  1.00  0.00     0.034 C 
BRANCH   5   6
ATOM      6  C   UNL     1     -12.532 -19.331  29.249  1.00  0.00    -0.077 C 
ATOM      7  C   UNL     1     -13.271 -20.274  28.332  1.00  0.00     0.039 C 
ATOM      8  C   UNL     1     -13.199 -18.839  30.319  1.00  0.00    -0.023 CG0
ATOM      9  G   UNL     1     -12.653 -17.832  31.305  1.00  0.00     0.000 G0
ENDBRANCH   5   6
ENDBRANCH   4   5
ENDBRANCH   2   4
BRANCH   1  10
ATOM     10  C   UNL     1     -12.606 -15.135  28.635  1.00  0.00     0.111 C 
BRANCH  10  11
ATOM     11  C   UNL     1     -12.015 -15.753  29.871  1.00  0.00     0.163 C 
ATOM     12  O   UNL     1     -10.766 -15.728  30.037  1.00  0.00    -0.294 OA
BRANCH  11  13
ATOM     13  C   UNL     1     -12.876 -16.368  30.913  1.00  0.00    -0.002 C 
ATOM     14  C   UNL     1     -13.859 -15.639  31.509  1.00  0.00    -0.069 C 
ATOM     15  C   UNL     1     -14.711 -16.232  32.608  1.00  0.00     0.039 C 
ATOM     16  C   UNL     1     -14.163 -14.225  31.065  1.00  0.00     0.039 C 
BRANCH  13  17
ATOM     17  C   UNL     1     -12.645 -17.823  31.303  1.00  0.00     0.066 CG0
ATOM     18  G   UNL     1     -13.214 -18.815  30.315  1.00  0.00     0.000 G0
ENDBRANCH  13  17
ENDBRANCH  11  13
ENDBRANCH  10  11
ENDBRANCH   1  10
TORSDOF 0
ENDMDL
MODEL 7
REMARK VINA RESULT:    -1.756      1.253      3.877
REMARK INTER + INTRA:          -1.534
REMARK INTER:                  -3.489
REMARK INTRA:                   1.954
REMARK UNBOUND:                 0.940
REMARK SMILES CC1=CCC(=C(C)C)C(=O)CC(C)=CCC1
REMARK SMILES IDX 12 1 14 2 13 3 15 4 16 5 2 6 1 7 3 8 11 10 9 11 10 12 5 13
REMARK SMILES IDX 6 14 7 15 8 16 4 17
REMARK H PARENT
REMARK Flexibility Score: 60.00
ROOT
ATOM      1  C   UNL     1     -14.249 -14.315  29.606  1.00  0.00    -0.070 C 
ATOM      2  C   UNL     1     -14.244 -15.032  30.754  1.00  0.00    -0.027 C 
ATOM      3  C   UNL     1     -15.468 -13.485  29.294  1.00  0.00     0.039 C 
ENDROOT
BRANCH   2   4
ATOM      4  C   UNL     1     -13.087 -15.867  31.254  1.00  0.00     0.032 C 
BRANCH   4   5
ATOM      5  C   UNL     1     -13.535 -17.287  31.628  1.00  0.00     0.034 C 
BRANCH   5   6
ATOM      6  C   UNL     1     -12.662 -18.379  31.028  1.00  0.00    -0.077 C 
ATOM      7  C   UNL     1     -12.870 -19.805  31.474  1.00  0.00     0.039 C 
ATOM      8  C   UNL     1     -11.711 -18.144  30.095  1.00  0.00    -0.023 CG0
ATOM      9  G   UNL     1     -11.310 -16.782  29.577  1.00  0.00     0.000 G0
ENDBRANCH   5   6
ENDBRANCH   4   5
ENDBRANCH   2   4
BRANCH   1  10
ATOM     10  C   UNL     1     -13.091 -14.315  28.627  1.00  0.00     0.111 C 
BRANCH  10  11
ATOM     11  C   UNL     1     -12.952 -15.651  27.952  1.00  0.00     0.163 C 
ATOM     12  O   UNL     1     -13.866 -16.052  27.182  1.00  0.00    -0.294 OA
BRANCH  11  13
ATOM     13  C   UNL     1     -11.748 -16.496  28.155  1.00  0.00    -0.002 C 
ATOM     14  C   UNL     1     -11.072 -16.994  27.084  1.00  0.00    -0.069 C 
ATOM     15  C   UNL     1      -9.875 -17.899  27.271  1.00  0.00     0.039 C 
ATOM     16  C   UNL     1     -11.466 -16.629  25.670  1.00  0.00     0.039 C 
BRANCH  13  17
ATOM     17  C   UNL     1     -11.280 -16.794  29.575  1.00  0.00     0.066 CG0
ATOM     18  G   UNL     1     -11.720 -18.145  30.089  1.00  0.00     0.000 G0
ENDBRANCH  13  17
ENDBRANCH  11  13
ENDBRANCH  10  11
ENDBRANCH   1  10
TORSDOF 0
ENDMDL
MODEL 8
REMARK VINA RESULT:    -1.648      1.500      2.101
REMARK INTER + INTRA:          -1.382
REMARK INTER:                  -2.736
REMARK INTRA:                   1.354
REMARK UNBOUND:                 0.940
REMARK SMILES CC1=CCC(=C(C)C)C(=O)CC(C)=CCC1
REMARK SMILES IDX 12 1 14 2 13 3 15 4 16 5 2 6 1 7 3 8 11 10 9 11 10 12 5 13
REMARK SMILES IDX 6 14 7 15 8 16 4 17
REMARK H PARENT
REMARK Flexibility Score: 60.00
ROOT
ATOM      1  C   UNL     1     -12.889 -17.754  27.575  1.00  0.00    -0.070 C 
ATOM      2  C   UNL     1     -13.562 -18.908  27.793  1.00  0.00    -0.027 C 
ATOM      3  C   UNL     1     -13.508 -16.736  26.652  1.00  0.00     0.039 C 
ENDROOT
BRANCH   2   4
ATOM      4  C   UNL     1     -13.122 -20.009  28.731  1.00  0.00     0.032 C 
BRANCH   4   5
ATOM      5  C   UNL     1     -13.343 -19.622  30.200  1.00  0.00     0.034 C 
BRANCH   5   6
ATOM      6  C   UNL     1     -12.075 -19.165  30.907  1.00  0.00    -0.077 C 
ATOM      7  C   UNL     1     -10.981 -20.171  31.165  1.00  0.00     0.039 C 
ATOM      8  C   UNL     1     -11.865 -17.889  31.308  1.00  0.00    -0.023 CG0
ATOM      9  G   UNL     1     -12.866 -16.762  31.201  1.00  0.00     0.000 G0
ENDBRANCH   5   6
ENDBRANCH   4   5
ENDBRANCH   2   4
BRANCH   1  10
ATOM     10  C   UNL     1     -11.548 -17.448  28.211  1.00  0.00     0.111 C 
BRANCH  10  11
ATOM     11  C   UNL     1     -11.606 -16.177  29.014  1.00  0.00     0.163 C 
ATOM     12  O   UNL     1     -10.697 -15.316  28.873  1.00  0.00    -0.294 OA
BRANCH  11  13
ATOM     13  C   UNL     1     -12.727 -15.907  29.949  1.00  0.00    -0.002 C 
ATOM     14  C   UNL     1     -13.621 -14.916  29.681  1.00  0.00    -0.069 C 
ATOM     15  C   UNL     1     -14.737 -14.592  30.647  1.00  0.00     0.039 C 
ATOM     16  C   UNL     1     -13.555 -14.132  28.389  1.00  0.00     0.039 C 
BRANCH  13  17
ATOM     17  C   UNL     1     -12.864 -16.754  31.210  1.00  0.00     0.066 CG0
ATOM     18  G   UNL     1     -11.851 -17.871  31.305  1.00  0.00     0.000 G0
ENDBRANCH  13  17
ENDBRANCH  11  13
ENDBRANCH  10  11
ENDBRANCH   1  10
TORSDOF 0
ENDMDL
MODEL 9
REMARK VINA RESULT:    -1.484      1.598      3.921
REMARK INTER + INTRA:          -1.150
REMARK INTER:                  -2.870
REMARK INTRA:                   1.719
REMARK UNBOUND:                 0.940
REMARK SMILES CC1=CCC(=C(C)C)C(=O)CC(C)=CCC1
REMARK SMILES IDX 12 1 14 2 13 3 15 4 16 5 2 6 1 7 3 8 11 10 9 11 10 12 5 13
REMARK SMILES IDX 6 14 7 15 8 16 4 17
REMARK H PARENT
REMARK Flexibility Score: 60.00
ROOT
ATOM      1  C   UNL     1     -12.925 -19.416  29.408  1.00  0.00    -0.070 C 
ATOM      2  C   UNL     1     -12.540 -19.325  30.702  1.00  0.00    -0.027 C 
ATOM      3  C   UNL     1     -12.535 -20.650  28.637  1.00  0.00     0.039 C 
ENDROOT
BRANCH   2   4
ATOM      4  C   UNL     1     -12.893 -18.191  31.638  1.00  0.00     0.032 C 
BRANCH   4   5
ATOM      5  C   UNL     1     -12.343 -16.849  31.134  1.00  0.00     0.034 C 
BRANCH   5   6
ATOM      6  C   UNL     1     -13.386 -15.741  31.091  1.00  0.00    -0.077 C 
ATOM      7  C   UNL     1     -14.263 -15.520  32.298  1.00  0.00     0.039 C 
ATOM      8  C   UNL     1     -13.561 -14.924  30.026  1.00  0.00    -0.023 CG0
ATOM      9  G   UNL     1     -12.830 -15.035  28.708  1.00  0.00     0.000 G0
ENDBRANCH   5   6
ENDBRANCH   4   5
ENDBRANCH   2   4
BRANCH   1  10
ATOM     10  C   UNL     1     -13.722 -18.334  28.706  1.00  0.00     0.111 C 
BRANCH  10  11
ATOM     11  C   UNL     1     -12.833 -17.469  27.857  1.00  0.00     0.163 C 
ATOM     12  O   UNL     1     -12.733 -17.710  26.624  1.00  0.00    -0.294 OA
BRANCH  11  13
ATOM     13  C   UNL     1     -12.089 -16.322  28.437  1.00  0.00    -0.002 C 
ATOM     14  C   UNL     1     -10.767 -16.444  28.739  1.00  0.00    -0.069 C 
ATOM     15  C   UNL     1     -10.007 -15.305  29.378  1.00  0.00     0.039 C 
ATOM     16  C   UNL     1     -10.002 -17.706  28.408  1.00  0.00     0.039 C 
BRANCH  13  17
ATOM     17  C   UNL     1     -12.824 -15.010  28.687  1.00  0.00     0.066 CG0
ATOM     18  G   UNL     1     -13.542 -14.959  30.016  1.00  0.00     0.000 G0
ENDBRANCH  13  17
ENDBRANCH  11  13
ENDBRANCH  10  11
ENDBRANCH   1  10
TORSDOF 0
ENDMDL
