MODEL 1
REMARK VINA RESULT:    -4.693      0.000      0.000
REMARK INTER + INTRA:          -5.192
REMARK INTER:                  -5.105
REMARK INTRA:                  -0.087
REMARK UNBOUND:                -0.087
REMARK SMILES C[C@H]1[C@H](C)CC[C@]2(C(=O)[O-])CC[C@@]3(C)C(=CC[C@H]4[C@@]5(C)CC[C@@H](O)C(C)(C)[C@@H]5CC[C@]43C)[C@H]12
REMARK SMILES IDX 7 1 6 2 11 3 33 4 5 5 12 6 15 7 2 8 3 9 13 10 16 11 1 12
REMARK SMILES IDX 4 13 14 14 31 15 17 16 18 17 30 18 32 19 19 20 29 21 28 22
REMARK SMILES IDX 21 23 20 24 25 25 22 26 23 27 26 28 27 29 8 30 9 31 10 32
REMARK SMILES IDX 24 33
REMARK H PARENT 24 34
REMARK Flexibility Score: inf
ROOT
ATOM      1  C   UNL     1      11.697  -2.359   6.837  1.00  0.00     0.017 C 
ATOM      2  C   UNL     1      12.899  -1.786   6.014  1.00  0.00     0.014 C 
ATOM      3  C   UNL     1      12.123  -3.737   7.384  1.00  0.00     0.014 C 
ATOM      4  C   UNL     1      10.416  -2.559   5.948  1.00  0.00     0.030 C 
ATOM      5  C   UNL     1      12.446  -1.026   4.770  1.00  0.00     0.004 C 
ATOM      6  C   UNL     1      11.099  -4.385   8.311  1.00  0.00     0.013 C 
ATOM      7  C   UNL     1       9.348  -3.442   6.630  1.00  0.00    -0.063 C 
ATOM      8  C   UNL     1      10.828  -3.040   4.503  1.00  0.00    -0.003 C 
ATOM      9  C   UNL     1      11.716  -1.965   3.783  1.00  0.00    -0.011 C 
ATOM     10  C   UNL     1       9.571  -4.266   7.912  1.00  0.00    -0.006 C 
ATOM     11  C   UNL     1       8.088  -3.337   6.180  1.00  0.00    -0.027 C 
ATOM     12  C   UNL     1       9.645  -3.406   3.583  1.00  0.00     0.008 C 
ATOM     13  C   UNL     1      12.725  -2.627   2.825  1.00  0.00     0.008 C 
ATOM     14  C   UNL     1       8.879  -3.460   9.062  1.00  0.00     0.017 C 
ATOM     15  C   UNL     1       8.869  -5.705   7.760  1.00  0.00    -0.020 C 
ATOM     16  C   UNL     1       7.061  -4.412   6.339  1.00  0.00     0.032 C 
ATOM     17  C   UNL     1       7.322  -5.549   7.384  1.00  0.00     0.006 C 
ATOM     18  C   UNL     1       9.579  -6.521   6.629  1.00  0.00     0.008 C 
ATOM     19  C   UNL     1       9.011  -6.470   9.125  1.00  0.00     0.012 C 
ATOM     20  C   UNL     1       6.581  -6.916   6.976  1.00  0.00    -0.025 C 
ATOM     21  C   UNL     1       8.883  -7.837   6.241  1.00  0.00     0.005 C 
ATOM     22  C   UNL     1       7.409  -7.614   5.828  1.00  0.00     0.003 C 
ATOM     23  C   UNL     1       5.126  -6.634   6.451  1.00  0.00     0.010 C 
ATOM     24  C   UNL     1       6.413  -7.814   8.249  1.00  0.00     0.012 C 
ATOM     25  C   UNL     1       6.719  -8.856   5.130  1.00  0.00    -0.006 C 
ATOM     26  C   UNL     1       4.438  -7.858   5.819  1.00  0.00     0.033 C 
ATOM     27  C   UNL     1       5.275  -8.463   4.680  1.00  0.00     0.120 C 
ATOM     28  C   UNL     1       7.515  -9.258   3.854  1.00  0.00     0.014 C 
ATOM     29  C   UNL     1       6.671 -10.123   6.024  1.00  0.00     0.014 C 
ENDROOT
BRANCH   1  30
ATOM     30  C   UNL     1      11.432  -1.386   7.980  1.00  0.00     0.048 C 
ATOM     31  O   UNL     1      11.949  -1.565   9.115  1.00  0.00    -0.550 OA
ATOM     32  O   UNL     1      10.519  -0.349   7.820  1.00  0.00    -0.550 OA
ENDBRANCH   1  30
BRANCH  27  33
ATOM     33  O   UNL     1       5.333  -7.542   3.615  1.00  0.00    -0.393 OA
ATOM     34  H   UNL     1       5.754  -6.715   3.967  1.00  0.00     0.210 HD
ENDBRANCH  27  33
TORSDOF 2
ENDMDL
