MODEL 1
REMARK VINA RESULT:    -4.495      0.000      0.000
REMARK INTER + INTRA:         -11.475
REMARK INTER:                  -8.436
REMARK INTRA:                  -3.039
REMARK UNBOUND:                -3.039
REMARK SMILES CCCCCCCCC=CCCCCCCCC(=O)[O-]
REMARK SMILES IDX 10 1 9 2 11 3 12 4 13 5 14 6 15 7 16 8 17 9 18 10 19 11
REMARK SMILES IDX 20 12 8 13 7 14 6 15 5 16 4 17 3 18 2 19 1 20
REMARK H PARENT
REMARK Flexibility Score: inf
ROOT
ATOM      1  C   UNL     1       8.381  30.722  21.268  1.00  0.00    -0.031 C 
ATOM      2  C   UNL     1       7.294  31.135  20.590  1.00  0.00    -0.031 C 
ENDROOT
BRANCH   1   3
ATOM      3  C   UNL     1       8.922  31.386  22.511  1.00  0.00     0.027 C 
BRANCH   3   4
ATOM      4  C   UNL     1       8.184  30.923  23.777  1.00  0.00     0.004 C 
BRANCH   4   5
ATOM      5  C   UNL     1       9.154  30.410  24.856  1.00  0.00     0.000 C 
BRANCH   5   6
ATOM      6  C   UNL     1      10.521  29.994  24.284  1.00  0.00     0.000 C 
BRANCH   6   7
ATOM      7  C   UNL     1      10.893  28.515  24.500  1.00  0.00     0.000 C 
BRANCH   7   8
ATOM      8  C   UNL     1      10.733  27.664  23.228  1.00  0.00     0.006 C 
BRANCH   8   9
ATOM      9  C   UNL     1      11.122  28.436  21.960  1.00  0.00     0.053 C 
BRANCH   9  10
ATOM     10  C   UNL     1      12.362  27.882  21.327  1.00  0.00     0.041 C 
ATOM     11  O   UNL     1      12.883  28.464  20.340  1.00  0.00    -0.550 OA
ATOM     12  O   UNL     1      12.957  26.739  21.845  1.00  0.00    -0.550 OA
ENDBRANCH   9  10
ENDBRANCH   8   9
ENDBRANCH   7   8
ENDBRANCH   6   7
ENDBRANCH   5   6
ENDBRANCH   4   5
ENDBRANCH   3   4
ENDBRANCH   1   3
BRANCH   2  13
ATOM     13  C   UNL     1       6.505  32.377  20.911  1.00  0.00     0.027 C 
BRANCH  13  14
ATOM     14  C   UNL     1       5.001  32.086  20.895  1.00  0.00     0.004 C 
BRANCH  14  15
ATOM     15  C   UNL     1       4.721  30.615  21.222  1.00  0.00     0.000 C 
BRANCH  15  16
ATOM     16  C   UNL     1       4.529  30.411  22.730  1.00  0.00     0.000 C 
BRANCH  16  17
ATOM     17  C   UNL     1       5.048  29.049  23.222  1.00  0.00    -0.000 C 
BRANCH  17  18
ATOM     18  C   UNL     1       5.659  28.179  22.102  1.00  0.00    -0.000 C 
BRANCH  18  19
ATOM     19  C   UNL     1       7.003  27.564  22.516  1.00  0.00    -0.003 C 
ATOM     20  C   UNL     1       7.093  27.402  24.031  1.00  0.00     0.004 C 
ENDBRANCH  18  19
ENDBRANCH  17  18
ENDBRANCH  16  17
ENDBRANCH  15  16
ENDBRANCH  14  15
ENDBRANCH  13  14
ENDBRANCH   2  13
TORSDOF 15
ENDMDL
MODEL 2
REMARK VINA RESULT:    -4.422      3.695      6.464
REMARK INTER + INTRA:         -11.340
REMARK INTER:                  -8.699
REMARK INTRA:                  -2.640
REMARK UNBOUND:                -3.039
REMARK SMILES CCCCCCCCC=CCCCCCCCC(=O)[O-]
REMARK SMILES IDX 10 1 9 2 11 3 12 4 13 5 14 6 15 7 16 8 17 9 18 10 19 11
REMARK SMILES IDX 20 12 8 13 7 14 6 15 5 16 4 17 3 18 2 19 1 20
REMARK H PARENT
REMARK Flexibility Score: inf
ROOT
ATOM      1  C   UNL     1       9.129  31.556  21.644  1.00  0.00    -0.031 C 
ATOM      2  C   UNL     1       9.454  31.290  22.923  1.00  0.00    -0.031 C 
ENDROOT
BRANCH   1   3
ATOM      3  C   UNL     1       7.722  31.777  21.143  1.00  0.00     0.027 C 
BRANCH   3   4
ATOM      4  C   UNL     1       6.975  30.453  20.926  1.00  0.00     0.004 C 
BRANCH   4   5
ATOM      5  C   UNL     1       5.455  30.610  21.108  1.00  0.00     0.000 C 
BRANCH   5   6
ATOM      6  C   UNL     1       5.027  30.620  22.587  1.00  0.00     0.000 C 
BRANCH   6   7
ATOM      7  C   UNL     1       4.757  32.017  23.176  1.00  0.00     0.000 C 
BRANCH   7   8
ATOM      8  C   UNL     1       4.070  32.967  22.180  1.00  0.00     0.006 C 
BRANCH   8   9
ATOM      9  C   UNL     1       4.052  34.418  22.679  1.00  0.00     0.053 C 
BRANCH   9  10
ATOM     10  C   UNL     1       4.836  35.327  21.783  1.00  0.00     0.041 C 
ATOM     11  O   UNL     1       5.552  34.848  20.864  1.00  0.00    -0.550 OA
ATOM     12  O   UNL     1       4.754  36.704  21.944  1.00  0.00    -0.550 OA
ENDBRANCH   9  10
ENDBRANCH   8   9
ENDBRANCH   7   8
ENDBRANCH   6   7
ENDBRANCH   5   6
ENDBRANCH   4   5
ENDBRANCH   3   4
ENDBRANCH   1   3
BRANCH   2  13
ATOM     13  C   UNL     1       8.458  31.079  24.034  1.00  0.00     0.027 C 
BRANCH  13  14
ATOM     14  C   UNL     1       8.704  29.740  24.738  1.00  0.00     0.004 C 
BRANCH  14  15
ATOM     15  C   UNL     1       7.607  28.727  24.394  1.00  0.00     0.000 C 
BRANCH  15  16
ATOM     16  C   UNL     1       8.208  27.426  23.848  1.00  0.00     0.000 C 
BRANCH  16  17
ATOM     17  C   UNL     1       8.307  27.409  22.313  1.00  0.00    -0.000 C 
BRANCH  17  18
ATOM     18  C   UNL     1       9.695  26.980  21.788  1.00  0.00    -0.000 C 
BRANCH  18  19
ATOM     19  C   UNL     1      10.653  28.171  21.646  1.00  0.00    -0.003 C 
ATOM     20  C   UNL     1      11.681  28.190  22.773  1.00  0.00     0.004 C 
ENDBRANCH  18  19
ENDBRANCH  17  18
ENDBRANCH  16  17
ENDBRANCH  15  16
ENDBRANCH  14  15
ENDBRANCH  13  14
ENDBRANCH   2  13
TORSDOF 15
ENDMDL
MODEL 3
REMARK VINA RESULT:    -4.402      2.896      4.750
REMARK INTER + INTRA:         -11.301
REMARK INTER:                  -8.241
REMARK INTRA:                  -3.060
REMARK UNBOUND:                -3.039
REMARK SMILES CCCCCCCCC=CCCCCCCCC(=O)[O-]
REMARK SMILES IDX 10 1 9 2 11 3 12 4 13 5 14 6 15 7 16 8 17 9 18 10 19 11
REMARK SMILES IDX 20 12 8 13 7 14 6 15 5 16 4 17 3 18 2 19 1 20
REMARK H PARENT
REMARK Flexibility Score: inf
ROOT
ATOM      1  C   UNL     1       8.924  30.229  24.810  1.00  0.00    -0.031 C 
ATOM      2  C   UNL     1       8.365  30.896  23.784  1.00  0.00    -0.031 C 
ENDROOT
BRANCH   1   3
ATOM      3  C   UNL     1      10.402  29.958  24.956  1.00  0.00     0.027 C 
BRANCH   3   4
ATOM      4  C   UNL     1      10.729  28.464  24.814  1.00  0.00     0.004 C 
BRANCH   4   5
ATOM      5  C   UNL     1      10.962  28.060  23.347  1.00  0.00     0.000 C 
BRANCH   5   6
ATOM      6  C   UNL     1      10.085  26.875  22.906  1.00  0.00     0.000 C 
BRANCH   6   7
ATOM      7  C   UNL     1       8.852  26.613  23.790  1.00  0.00     0.000 C 
BRANCH   7   8
ATOM      8  C   UNL     1       7.544  27.128  23.165  1.00  0.00     0.006 C 
BRANCH   8   9
ATOM      9  C   UNL     1       6.577  27.685  24.218  1.00  0.00     0.053 C 
BRANCH   9  10
ATOM     10  C   UNL     1       5.239  27.013  24.159  1.00  0.00     0.041 C 
ATOM     11  O   UNL     1       4.373  27.247  25.042  1.00  0.00    -0.550 OA
ATOM     12  O   UNL     1       4.939  26.151  23.112  1.00  0.00    -0.550 OA
ENDBRANCH   9  10
ENDBRANCH   8   9
ENDBRANCH   7   8
ENDBRANCH   6   7
ENDBRANCH   5   6
ENDBRANCH   4   5
ENDBRANCH   3   4
ENDBRANCH   1   3
BRANCH   2  13
ATOM     13  C   UNL     1       9.115  31.392  22.575  1.00  0.00     0.027 C 
BRANCH  13  14
ATOM     14  C   UNL     1       9.032  30.378  21.429  1.00  0.00     0.004 C 
BRANCH  14  15
ATOM     15  C   UNL     1       7.573  30.081  21.061  1.00  0.00     0.000 C 
BRANCH  15  16
ATOM     16  C   UNL     1       6.917  31.293  20.389  1.00  0.00     0.000 C 
BRANCH  16  17
ATOM     17  C   UNL     1       5.555  31.657  21.005  1.00  0.00    -0.000 C 
BRANCH  17  18
ATOM     18  C   UNL     1       4.833  30.458  21.659  1.00  0.00    -0.000 C 
BRANCH  18  19
ATOM     19  C   UNL     1       4.612  30.667  23.164  1.00  0.00    -0.003 C 
ATOM     20  C   UNL     1       4.603  32.151  23.520  1.00  0.00     0.004 C 
ENDBRANCH  18  19
ENDBRANCH  17  18
ENDBRANCH  16  17
ENDBRANCH  15  16
ENDBRANCH  14  15
ENDBRANCH  13  14
ENDBRANCH   2  13
TORSDOF 15
ENDMDL
MODEL 4
REMARK VINA RESULT:    -4.390      0.760      1.568
REMARK INTER + INTRA:         -11.279
REMARK INTER:                  -8.218
REMARK INTRA:                  -3.062
REMARK UNBOUND:                -3.039
REMARK SMILES CCCCCCCCC=CCCCCCCCC(=O)[O-]
REMARK SMILES IDX 10 1 9 2 11 3 12 4 13 5 14 6 15 7 16 8 17 9 18 10 19 11
REMARK SMILES IDX 20 12 8 13 7 14 6 15 5 16 4 17 3 18 2 19 1 20
REMARK H PARENT
REMARK Flexibility Score: inf
ROOT
ATOM      1  C   UNL     1       9.307  31.371  22.878  1.00  0.00    -0.031 C 
ATOM      2  C   UNL     1       9.022  31.212  21.572  1.00  0.00    -0.031 C 
ENDROOT
BRANCH   1   3
ATOM      3  C   UNL     1       8.380  31.005  24.011  1.00  0.00     0.027 C 
BRANCH   3   4
ATOM      4  C   UNL     1       8.868  29.764  24.774  1.00  0.00     0.004 C 
BRANCH   4   5
ATOM      5  C   UNL     1      10.404  29.701  24.854  1.00  0.00     0.000 C 
BRANCH   5   6
ATOM      6  C   UNL     1      10.980  28.393  24.281  1.00  0.00     0.000 C 
BRANCH   6   7
ATOM      7  C   UNL     1       9.965  27.507  23.535  1.00  0.00     0.000 C 
BRANCH   7   8
ATOM      8  C   UNL     1      10.097  27.601  22.005  1.00  0.00     0.006 C 
BRANCH   8   9
ATOM      9  C   UNL     1      11.350  28.377  21.577  1.00  0.00     0.053 C 
BRANCH   9  10
ATOM     10  C   UNL     1      12.402  27.472  21.012  1.00  0.00     0.041 C 
ATOM     11  O   UNL     1      12.866  27.681  19.861  1.00  0.00    -0.550 OA
ATOM     12  O   UNL     1      12.888  26.413  21.768  1.00  0.00    -0.550 OA
ENDBRANCH   9  10
ENDBRANCH   8   9
ENDBRANCH   7   8
ENDBRANCH   6   7
ENDBRANCH   5   6
ENDBRANCH   4   5
ENDBRANCH   3   4
ENDBRANCH   1   3
BRANCH   2  13
ATOM     13  C   UNL     1       7.698  30.732  21.037  1.00  0.00     0.027 C 
BRANCH  13  14
ATOM     14  C   UNL     1       6.776  31.915  20.725  1.00  0.00     0.004 C 
BRANCH  14  15
ATOM     15  C   UNL     1       5.311  31.560  21.005  1.00  0.00     0.000 C 
BRANCH  15  16
ATOM     16  C   UNL     1       5.078  31.319  22.501  1.00  0.00     0.000 C 
BRANCH  16  17
ATOM     17  C   UNL     1       4.443  29.949  22.797  1.00  0.00    -0.000 C 
BRANCH  17  18
ATOM     18  C   UNL     1       5.339  29.024  23.649  1.00  0.00    -0.000 C 
BRANCH  18  19
ATOM     19  C   UNL     1       6.153  28.050  22.785  1.00  0.00    -0.003 C 
ATOM     20  C   UNL     1       5.456  27.780  21.454  1.00  0.00     0.004 C 
ENDBRANCH  18  19
ENDBRANCH  17  18
ENDBRANCH  16  17
ENDBRANCH  15  16
ENDBRANCH  14  15
ENDBRANCH  13  14
ENDBRANCH   2  13
TORSDOF 15
ENDMDL
MODEL 5
REMARK VINA RESULT:    -4.373     10.609     15.058
REMARK INTER + INTRA:         -11.246
REMARK INTER:                  -8.517
REMARK INTRA:                  -2.729
REMARK UNBOUND:                -3.039
REMARK SMILES CCCCCCCCC=CCCCCCCCC(=O)[O-]
REMARK SMILES IDX 10 1 9 2 11 3 12 4 13 5 14 6 15 7 16 8 17 9 18 10 19 11
REMARK SMILES IDX 20 12 8 13 7 14 6 15 5 16 4 17 3 18 2 19 1 20
REMARK H PARENT
REMARK Flexibility Score: inf
ROOT
ATOM      1  C   UNL     1      18.918  24.856  11.284  1.00  0.00    -0.031 C 
ATOM      2  C   UNL     1      19.719  25.074  12.344  1.00  0.00    -0.031 C 
ENDROOT
BRANCH   1   3
ATOM      3  C   UNL     1      17.714  25.694  10.930  1.00  0.00     0.027 C 
BRANCH   3   4
ATOM      4  C   UNL     1      16.427  25.148  11.567  1.00  0.00     0.004 C 
BRANCH   4   5
ATOM      5  C   UNL     1      16.594  23.700  12.058  1.00  0.00     0.000 C 
BRANCH   5   6
ATOM      6  C   UNL     1      15.862  23.429  13.385  1.00  0.00     0.000 C 
BRANCH   6   7
ATOM      7  C   UNL     1      16.767  23.393  14.631  1.00  0.00     0.000 C 
BRANCH   7   8
ATOM      8  C   UNL     1      16.353  24.416  15.703  1.00  0.00     0.006 C 
BRANCH   8   9
ATOM      9  C   UNL     1      16.575  25.863  15.240  1.00  0.00     0.053 C 
BRANCH   9  10
ATOM     10  C   UNL     1      15.461  26.766  15.677  1.00  0.00     0.041 C 
ATOM     11  O   UNL     1      15.013  26.696  16.852  1.00  0.00    -0.550 OA
ATOM     12  O   UNL     1      14.938  27.702  14.795  1.00  0.00    -0.550 OA
ENDBRANCH   9  10
ENDBRANCH   8   9
ENDBRANCH   7   8
ENDBRANCH   6   7
ENDBRANCH   5   6
ENDBRANCH   4   5
ENDBRANCH   3   4
ENDBRANCH   1   3
BRANCH   2  13
ATOM     13  C   UNL     1      19.482  26.129  13.394  1.00  0.00     0.027 C 
BRANCH  13  14
ATOM     14  C   UNL     1      20.373  25.891  14.616  1.00  0.00     0.004 C 
BRANCH  14  15
ATOM     15  C   UNL     1      20.095  24.519  15.242  1.00  0.00     0.000 C 
BRANCH  15  16
ATOM     16  C   UNL     1      21.395  23.853  15.711  1.00  0.00     0.000 C 
BRANCH  16  17
ATOM     17  C   UNL     1      21.691  22.533  14.978  1.00  0.00    -0.000 C 
BRANCH  17  18
ATOM     18  C   UNL     1      20.460  21.933  14.264  1.00  0.00    -0.000 C 
BRANCH  18  19
ATOM     19  C   UNL     1      20.769  21.535  12.814  1.00  0.00    -0.003 C 
ATOM     20  C   UNL     1      19.486  21.311  12.018  1.00  0.00     0.004 C 
ENDBRANCH  18  19
ENDBRANCH  17  18
ENDBRANCH  16  17
ENDBRANCH  15  16
ENDBRANCH  14  15
ENDBRANCH  13  14
ENDBRANCH   2  13
TORSDOF 15
ENDMDL
MODEL 6
REMARK VINA RESULT:    -4.340     11.158     15.718
REMARK INTER + INTRA:         -11.184
REMARK INTER:                  -8.497
REMARK INTRA:                  -2.687
REMARK UNBOUND:                -3.039
REMARK SMILES CCCCCCCCC=CCCCCCCCC(=O)[O-]
REMARK SMILES IDX 10 1 9 2 11 3 12 4 13 5 14 6 15 7 16 8 17 9 18 10 19 11
REMARK SMILES IDX 20 12 8 13 7 14 6 15 5 16 4 17 3 18 2 19 1 20
REMARK H PARENT
REMARK Flexibility Score: inf
ROOT
ATOM      1  C   UNL     1      19.636  25.417  13.356  1.00  0.00    -0.031 C 
ATOM      2  C   UNL     1      19.629  25.154  14.676  1.00  0.00    -0.031 C 
ENDROOT
BRANCH   1   3
ATOM      3  C   UNL     1      20.008  24.422  12.284  1.00  0.00     0.027 C 
BRANCH   3   4
ATOM      4  C   UNL     1      18.926  24.316  11.198  1.00  0.00     0.004 C 
BRANCH   4   5
ATOM      5  C   UNL     1      17.973  25.525  11.211  1.00  0.00     0.000 C 
BRANCH   5   6
ATOM      6  C   UNL     1      16.501  25.125  11.415  1.00  0.00     0.000 C 
BRANCH   6   7
ATOM      7  C   UNL     1      16.268  24.000  12.440  1.00  0.00     0.000 C 
BRANCH   7   8
ATOM      8  C   UNL     1      15.990  24.528  13.858  1.00  0.00     0.006 C 
BRANCH   8   9
ATOM      9  C   UNL     1      15.126  25.796  13.845  1.00  0.00     0.053 C 
BRANCH   9  10
ATOM     10  C   UNL     1      15.515  26.748  14.936  1.00  0.00     0.041 C 
ATOM     11  O   UNL     1      16.585  26.575  15.576  1.00  0.00    -0.550 OA
ATOM     12  O   UNL     1      14.708  27.840  15.227  1.00  0.00    -0.550 OA
ENDBRANCH   9  10
ENDBRANCH   8   9
ENDBRANCH   7   8
ENDBRANCH   6   7
ENDBRANCH   5   6
ENDBRANCH   4   5
ENDBRANCH   3   4
ENDBRANCH   1   3
BRANCH   2  13
ATOM     13  C   UNL     1      20.083  23.856  15.293  1.00  0.00     0.027 C 
BRANCH  13  14
ATOM     14  C   UNL     1      21.609  23.826  15.435  1.00  0.00     0.004 C 
BRANCH  14  15
ATOM     15  C   UNL     1      22.152  22.407  15.232  1.00  0.00     0.000 C 
BRANCH  15  16
ATOM     16  C   UNL     1      22.157  22.026  13.746  1.00  0.00     0.000 C 
BRANCH  16  17
ATOM     17  C   UNL     1      21.289  20.793  13.441  1.00  0.00    -0.000 C 
BRANCH  17  18
ATOM     18  C   UNL     1      20.477  20.292  14.655  1.00  0.00    -0.000 C 
BRANCH  18  19
ATOM     19  C   UNL     1      18.985  20.138  14.329  1.00  0.00    -0.003 C 
ATOM     20  C   UNL     1      18.526  21.196  13.330  1.00  0.00     0.004 C 
ENDBRANCH  18  19
ENDBRANCH  17  18
ENDBRANCH  16  17
ENDBRANCH  15  16
ENDBRANCH  14  15
ENDBRANCH  13  14
ENDBRANCH   2  13
TORSDOF 15
ENDMDL
MODEL 7
REMARK VINA RESULT:    -4.318      1.833      2.531
REMARK INTER + INTRA:         -11.144
REMARK INTER:                  -8.368
REMARK INTRA:                  -2.777
REMARK UNBOUND:                -3.039
REMARK SMILES CCCCCCCCC=CCCCCCCCC(=O)[O-]
REMARK SMILES IDX 10 1 9 2 11 3 12 4 13 5 14 6 15 7 16 8 17 9 18 10 19 11
REMARK SMILES IDX 20 12 8 13 7 14 6 15 5 16 4 17 3 18 2 19 1 20
REMARK H PARENT
REMARK Flexibility Score: inf
ROOT
ATOM      1  C   UNL     1       9.238  31.387  22.760  1.00  0.00    -0.031 C 
ATOM      2  C   UNL     1       8.943  31.388  21.447  1.00  0.00    -0.031 C 
ENDROOT
BRANCH   1   3
ATOM      3  C   UNL     1       8.377  30.766  23.834  1.00  0.00     0.027 C 
BRANCH   3   4
ATOM      4  C   UNL     1       9.174  30.481  25.116  1.00  0.00     0.004 C 
BRANCH   4   5
ATOM      5  C   UNL     1      10.588  29.957  24.813  1.00  0.00     0.000 C 
BRANCH   5   6
ATOM      6  C   UNL     1      10.611  28.456  24.473  1.00  0.00     0.000 C 
BRANCH   6   7
ATOM      7  C   UNL     1      11.355  28.094  23.174  1.00  0.00     0.000 C 
BRANCH   7   8
ATOM      8  C   UNL     1      10.418  27.969  21.960  1.00  0.00     0.006 C 
BRANCH   8   9
ATOM      9  C   UNL     1       9.077  27.320  22.327  1.00  0.00     0.053 C 
BRANCH   9  10
ATOM     10  C   UNL     1       8.378  26.763  21.124  1.00  0.00     0.041 C 
ATOM     11  O   UNL     1       7.476  25.896  21.261  1.00  0.00    -0.550 OA
ATOM     12  O   UNL     1       8.705  27.221  19.855  1.00  0.00    -0.550 OA
ENDBRANCH   9  10
ENDBRANCH   8   9
ENDBRANCH   7   8
ENDBRANCH   6   7
ENDBRANCH   5   6
ENDBRANCH   4   5
ENDBRANCH   3   4
ENDBRANCH   1   3
BRANCH   2  13
ATOM     13  C   UNL     1       7.663  30.856  20.856  1.00  0.00     0.027 C 
BRANCH  13  14
ATOM     14  C   UNL     1       6.675  31.995  20.582  1.00  0.00     0.004 C 
BRANCH  14  15
ATOM     15  C   UNL     1       5.503  31.956  21.569  1.00  0.00     0.000 C 
BRANCH  15  16
ATOM     16  C   UNL     1       4.297  31.227  20.964  1.00  0.00     0.000 C 
BRANCH  16  17
ATOM     17  C   UNL     1       4.123  29.800  21.511  1.00  0.00    -0.000 C 
BRANCH  17  18
ATOM     18  C   UNL     1       4.728  29.599  22.918  1.00  0.00    -0.000 C 
BRANCH  18  19
ATOM     19  C   UNL     1       5.497  28.275  23.033  1.00  0.00    -0.003 C 
ATOM     20  C   UNL     1       6.110  28.112  24.421  1.00  0.00     0.004 C 
ENDBRANCH  18  19
ENDBRANCH  17  18
ENDBRANCH  16  17
ENDBRANCH  15  16
ENDBRANCH  14  15
ENDBRANCH  13  14
ENDBRANCH   2  13
TORSDOF 15
ENDMDL
MODEL 8
REMARK VINA RESULT:    -4.301     10.083     13.752
REMARK INTER + INTRA:         -11.113
REMARK INTER:                  -8.406
REMARK INTRA:                  -2.706
REMARK UNBOUND:                -3.039
REMARK SMILES CCCCCCCCC=CCCCCCCCC(=O)[O-]
REMARK SMILES IDX 10 1 9 2 11 3 12 4 13 5 14 6 15 7 16 8 17 9 18 10 19 11
REMARK SMILES IDX 20 12 8 13 7 14 6 15 5 16 4 17 3 18 2 19 1 20
REMARK H PARENT
REMARK Flexibility Score: inf
ROOT
ATOM      1  C   UNL     1      16.672  23.808  11.999  1.00  0.00    -0.031 C 
ATOM      2  C   UNL     1      16.195  23.372  13.180  1.00  0.00    -0.031 C 
ENDROOT
BRANCH   1   3
ATOM      3  C   UNL     1      16.695  25.253  11.562  1.00  0.00     0.027 C 
BRANCH   3   4
ATOM      4  C   UNL     1      18.078  25.673  11.043  1.00  0.00     0.004 C 
BRANCH   4   5
ATOM      5  C   UNL     1      19.218  24.951  11.783  1.00  0.00     0.000 C 
BRANCH   5   6
ATOM      6  C   UNL     1      19.656  25.681  13.066  1.00  0.00     0.000 C 
BRANCH   6   7
ATOM      7  C   UNL     1      20.054  24.760  14.234  1.00  0.00     0.000 C 
BRANCH   7   8
ATOM      8  C   UNL     1      19.845  23.268  13.920  1.00  0.00     0.006 C 
BRANCH   8   9
ATOM      9  C   UNL     1      20.645  22.360  14.864  1.00  0.00     0.053 C 
BRANCH   9  10
ATOM     10  C   UNL     1      22.074  22.226  14.433  1.00  0.00     0.041 C 
ATOM     11  O   UNL     1      22.351  21.780  13.288  1.00  0.00    -0.550 OA
ATOM     12  O   UNL     1      23.098  22.618  15.285  1.00  0.00    -0.550 OA
ENDBRANCH   9  10
ENDBRANCH   8   9
ENDBRANCH   7   8
ENDBRANCH   6   7
ENDBRANCH   5   6
ENDBRANCH   4   5
ENDBRANCH   3   4
ENDBRANCH   1   3
BRANCH   2  13
ATOM     13  C   UNL     1      15.524  24.245  14.208  1.00  0.00     0.027 C 
BRANCH  13  14
ATOM     14  C   UNL     1      16.519  24.672  15.292  1.00  0.00     0.004 C 
BRANCH  14  15
ATOM     15  C   UNL     1      16.786  26.180  15.232  1.00  0.00     0.000 C 
BRANCH  15  16
ATOM     16  C   UNL     1      15.653  26.912  14.502  1.00  0.00     0.000 C 
BRANCH  16  17
ATOM     17  C   UNL     1      14.830  27.821  15.431  1.00  0.00    -0.000 C 
BRANCH  17  18
ATOM     18  C   UNL     1      15.348  27.851  16.885  1.00  0.00    -0.000 C 
BRANCH  18  19
ATOM     19  C   UNL     1      14.275  27.410  17.890  1.00  0.00    -0.003 C 
ATOM     20  C   UNL     1      14.213  25.889  18.000  1.00  0.00     0.004 C 
ENDBRANCH  18  19
ENDBRANCH  17  18
ENDBRANCH  16  17
ENDBRANCH  15  16
ENDBRANCH  14  15
ENDBRANCH  13  14
ENDBRANCH   2  13
TORSDOF 15
ENDMDL
MODEL 9
REMARK VINA RESULT:    -4.281     10.664     15.268
REMARK INTER + INTRA:         -11.075
REMARK INTER:                  -8.228
REMARK INTRA:                  -2.847
REMARK UNBOUND:                -3.039
REMARK SMILES CCCCCCCCC=CCCCCCCCC(=O)[O-]
REMARK SMILES IDX 10 1 9 2 11 3 12 4 13 5 14 6 15 7 16 8 17 9 18 10 19 11
REMARK SMILES IDX 20 12 8 13 7 14 6 15 5 16 4 17 3 18 2 19 1 20
REMARK H PARENT
REMARK Flexibility Score: inf
ROOT
ATOM      1  C   UNL     1      19.704  25.739  13.462  1.00  0.00    -0.031 C 
ATOM      2  C   UNL     1      19.662  25.412  14.767  1.00  0.00    -0.031 C 
ENDROOT
BRANCH   1   3
ATOM      3  C   UNL     1      19.917  24.755  12.337  1.00  0.00     0.027 C 
BRANCH   3   4
ATOM      4  C   UNL     1      19.090  25.117  11.094  1.00  0.00     0.004 C 
BRANCH   4   5
ATOM      5  C   UNL     1      17.862  25.974  11.445  1.00  0.00     0.000 C 
BRANCH   5   6
ATOM      6  C   UNL     1      16.577  25.142  11.609  1.00  0.00     0.000 C 
BRANCH   6   7
ATOM      7  C   UNL     1      16.135  24.909  13.066  1.00  0.00     0.000 C 
BRANCH   7   8
ATOM      8  C   UNL     1      15.869  26.218  13.829  1.00  0.00     0.006 C 
BRANCH   8   9
ATOM      9  C   UNL     1      16.144  26.079  15.333  1.00  0.00     0.053 C 
BRANCH   9  10
ATOM     10  C   UNL     1      14.878  26.098  16.136  1.00  0.00     0.041 C 
ATOM     11  O   UNL     1      14.867  26.604  17.288  1.00  0.00    -0.550 OA
ATOM     12  O   UNL     1      13.706  25.582  15.599  1.00  0.00    -0.550 OA
ENDBRANCH   9  10
ENDBRANCH   8   9
ENDBRANCH   7   8
ENDBRANCH   6   7
ENDBRANCH   5   6
ENDBRANCH   4   5
ENDBRANCH   3   4
ENDBRANCH   1   3
BRANCH   2  13
ATOM     13  C   UNL     1      19.916  24.031  15.313  1.00  0.00     0.027 C 
BRANCH  13  14
ATOM     14  C   UNL     1      18.598  23.281  15.533  1.00  0.00     0.004 C 
BRANCH  14  15
ATOM     15  C   UNL     1      18.379  22.222  14.447  1.00  0.00     0.000 C 
BRANCH  15  16
ATOM     16  C   UNL     1      18.885  20.849  14.906  1.00  0.00     0.000 C 
BRANCH  16  17
ATOM     17  C   UNL     1      20.280  20.508  14.354  1.00  0.00    -0.000 C 
BRANCH  17  18
ATOM     18  C   UNL     1      20.573  21.148  12.979  1.00  0.00    -0.000 C 
BRANCH  18  19
ATOM     19  C   UNL     1      22.027  21.626  12.863  1.00  0.00    -0.003 C 
ATOM     20  C   UNL     1      22.626  21.910  14.238  1.00  0.00     0.004 C 
ENDBRANCH  18  19
ENDBRANCH  17  18
ENDBRANCH  16  17
ENDBRANCH  15  16
ENDBRANCH  14  15
ENDBRANCH  13  14
ENDBRANCH   2  13
TORSDOF 15
ENDMDL
