MODEL 1
REMARK VINA RESULT:    -3.661      0.000      0.000
REMARK INTER + INTRA:          -5.116
REMARK INTER:                  -4.731
REMARK INTRA:                  -0.385
REMARK UNBOUND:                -0.385
REMARK SMILES CCCCCCC(=O)[O-]
REMARK SMILES IDX 5 1 6 2 7 3 8 4 9 5 4 6 3 7 2 8 1 9
REMARK H PARENT
REMARK Flexibility Score: inf
ROOT
ATOM      1  C   UNL     1      -6.713  38.437  22.853  1.00  0.00     0.006 C 
ENDROOT
BRANCH   1   2
ATOM      2  C   UNL     1      -6.271  37.014  22.484  1.00  0.00     0.053 C 
BRANCH   2   3
ATOM      3  C   UNL     1      -4.787  36.923  22.301  1.00  0.00     0.041 C 
ATOM      4  O   UNL     1      -4.213  35.803  22.343  1.00  0.00    -0.550 OA
ATOM      5  O   UNL     1      -4.045  38.069  22.052  1.00  0.00    -0.550 OA
ENDBRANCH   2   3
ENDBRANCH   1   2
BRANCH   1   6
ATOM      6  C   UNL     1      -7.640  39.051  21.789  1.00  0.00     0.000 C 
BRANCH   6   7
ATOM      7  C   UNL     1      -6.876  39.534  20.547  1.00  0.00    -0.000 C 
BRANCH   7   8
ATOM      8  C   UNL     1      -7.060  38.602  19.340  1.00  0.00    -0.003 C 
ATOM      9  C   UNL     1      -5.722  38.043  18.867  1.00  0.00     0.004 C 
ENDBRANCH   7   8
ENDBRANCH   6   7
ENDBRANCH   1   6
TORSDOF 5
ENDMDL
MODEL 2
REMARK VINA RESULT:    -3.511      1.523      2.551
REMARK INTER + INTRA:          -4.922
REMARK INTER:                  -4.490
REMARK INTRA:                  -0.432
REMARK UNBOUND:                -0.385
REMARK SMILES CCCCCCC(=O)[O-]
REMARK SMILES IDX 5 1 6 2 7 3 8 4 9 5 4 6 3 7 2 8 1 9
REMARK H PARENT
REMARK Flexibility Score: inf
ROOT
ATOM      1  C   UNL     1      -6.891  39.502  20.508  1.00  0.00     0.006 C 
ENDROOT
BRANCH   1   2
ATOM      2  C   UNL     1      -7.594  39.080  21.806  1.00  0.00     0.053 C 
BRANCH   2   3
ATOM      3  C   UNL     1      -6.681  38.304  22.705  1.00  0.00     0.041 C 
ATOM      4  O   UNL     1      -6.624  37.049  22.618  1.00  0.00    -0.550 OA
ATOM      5  O   UNL     1      -5.870  38.969  23.615  1.00  0.00    -0.550 OA
ENDBRANCH   2   3
ENDBRANCH   1   2
BRANCH   1   6
ATOM      6  C   UNL     1      -7.124  38.494  19.368  1.00  0.00     0.000 C 
BRANCH   6   7
ATOM      7  C   UNL     1      -5.821  37.842  18.881  1.00  0.00    -0.000 C 
BRANCH   7   8
ATOM      8  C   UNL     1      -4.582  38.374  19.616  1.00  0.00    -0.003 C 
ATOM      9  C   UNL     1      -3.855  37.253  20.352  1.00  0.00     0.004 C 
ENDBRANCH   7   8
ENDBRANCH   6   7
ENDBRANCH   1   6
TORSDOF 5
ENDMDL
MODEL 3
REMARK VINA RESULT:    -3.451      1.492      2.952
REMARK INTER + INTRA:          -4.845
REMARK INTER:                  -4.471
REMARK INTRA:                  -0.374
REMARK UNBOUND:                -0.385
REMARK SMILES CCCCCCC(=O)[O-]
REMARK SMILES IDX 5 1 6 2 7 3 8 4 9 5 4 6 3 7 2 8 1 9
REMARK H PARENT
REMARK Flexibility Score: inf
ROOT
ATOM      1  C   UNL     1      -5.827  37.818  18.834  1.00  0.00     0.006 C 
ENDROOT
BRANCH   1   2
ATOM      2  C   UNL     1      -4.605  38.529  19.432  1.00  0.00     0.053 C 
BRANCH   2   3
ATOM      3  C   UNL     1      -3.632  37.556  20.026  1.00  0.00     0.041 C 
ATOM      4  O   UNL     1      -4.047  36.592  20.722  1.00  0.00    -0.550 OA
ATOM      5  O   UNL     1      -2.273  37.696  19.784  1.00  0.00    -0.550 OA
ENDBRANCH   2   3
ENDBRANCH   1   2
BRANCH   1   6
ATOM      6  C   UNL     1      -7.136  38.229  19.530  1.00  0.00     0.000 C 
BRANCH   6   7
ATOM      7  C   UNL     1      -6.950  39.422  20.481  1.00  0.00    -0.000 C 
BRANCH   7   8
ATOM      8  C   UNL     1      -7.571  39.178  21.864  1.00  0.00    -0.003 C 
ATOM      9  C   UNL     1      -6.895  38.009  22.572  1.00  0.00     0.004 C 
ENDBRANCH   7   8
ENDBRANCH   6   7
ENDBRANCH   1   6
TORSDOF 5
ENDMDL
MODEL 4
REMARK VINA RESULT:    -3.444      0.991      2.514
REMARK INTER + INTRA:          -4.836
REMARK INTER:                  -4.474
REMARK INTRA:                  -0.362
REMARK UNBOUND:                -0.385
REMARK SMILES CCCCCCC(=O)[O-]
REMARK SMILES IDX 5 1 6 2 7 3 8 4 9 5 4 6 3 7 2 8 1 9
REMARK H PARENT
REMARK Flexibility Score: inf
ROOT
ATOM      1  C   UNL     1      -4.561  38.235  19.849  1.00  0.00     0.006 C 
ENDROOT
BRANCH   1   2
ATOM      2  C   UNL     1      -3.832  37.012  20.422  1.00  0.00     0.053 C 
BRANCH   2   3
ATOM      3  C   UNL     1      -4.196  36.770  21.855  1.00  0.00     0.041 C 
ATOM      4  O   UNL     1      -4.190  35.600  22.320  1.00  0.00    -0.550 OA
ATOM      5  O   UNL     1      -4.508  37.839  22.684  1.00  0.00    -0.550 OA
ENDBRANCH   2   3
ENDBRANCH   1   2
BRANCH   1   6
ATOM      6  C   UNL     1      -5.777  37.838  18.994  1.00  0.00     0.000 C 
BRANCH   6   7
ATOM      7  C   UNL     1      -7.097  38.396  19.549  1.00  0.00    -0.000 C 
BRANCH   7   8
ATOM      8  C   UNL     1      -6.880  39.506  20.588  1.00  0.00    -0.003 C 
ATOM      9  C   UNL     1      -7.690  39.240  21.853  1.00  0.00     0.004 C 
ENDBRANCH   7   8
ENDBRANCH   6   7
ENDBRANCH   1   6
TORSDOF 5
ENDMDL
MODEL 5
REMARK VINA RESULT:    -3.341      1.591      2.687
REMARK INTER + INTRA:          -4.703
REMARK INTER:                  -4.325
REMARK INTRA:                  -0.377
REMARK UNBOUND:                -0.385
REMARK SMILES CCCCCCC(=O)[O-]
REMARK SMILES IDX 5 1 6 2 7 3 8 4 9 5 4 6 3 7 2 8 1 9
REMARK H PARENT
REMARK Flexibility Score: inf
ROOT
ATOM      1  C   UNL     1      -3.640  37.281  20.027  1.00  0.00     0.006 C 
ENDROOT
BRANCH   1   2
ATOM      2  C   UNL     1      -3.812  37.540  21.530  1.00  0.00     0.053 C 
BRANCH   2   3
ATOM      3  C   UNL     1      -4.627  36.469  22.188  1.00  0.00     0.041 C 
ATOM      4  O   UNL     1      -4.109  35.352  22.452  1.00  0.00    -0.550 OA
ATOM      5  O   UNL     1      -5.947  36.716  22.541  1.00  0.00    -0.550 OA
ENDBRANCH   2   3
ENDBRANCH   1   2
BRANCH   1   6
ATOM      6  C   UNL     1      -4.312  38.369  19.171  1.00  0.00     0.000 C 
BRANCH   6   7
ATOM      7  C   UNL     1      -5.527  37.840  18.392  1.00  0.00    -0.000 C 
BRANCH   7   8
ATOM      8  C   UNL     1      -6.763  37.649  19.282  1.00  0.00    -0.003 C 
ATOM      9  C   UNL     1      -7.122  38.941  20.010  1.00  0.00     0.004 C 
ENDBRANCH   7   8
ENDBRANCH   6   7
ENDBRANCH   1   6
TORSDOF 5
ENDMDL
MODEL 6
REMARK VINA RESULT:    -3.258      2.045      3.633
REMARK INTER + INTRA:          -4.595
REMARK INTER:                  -4.222
REMARK INTRA:                  -0.373
REMARK UNBOUND:                -0.385
REMARK SMILES CCCCCCC(=O)[O-]
REMARK SMILES IDX 5 1 6 2 7 3 8 4 9 5 4 6 3 7 2 8 1 9
REMARK H PARENT
REMARK Flexibility Score: inf
ROOT
ATOM      1  C   UNL     1      -4.162  36.550  21.086  1.00  0.00     0.006 C 
ENDROOT
BRANCH   1   2
ATOM      2  C   UNL     1      -3.538  37.519  20.072  1.00  0.00     0.053 C 
BRANCH   2   3
ATOM      3  C   UNL     1      -4.572  38.391  19.429  1.00  0.00     0.041 C 
ATOM      4  O   UNL     1      -4.485  39.644  19.517  1.00  0.00    -0.550 OA
ATOM      5  O   UNL     1      -5.610  37.822  18.705  1.00  0.00    -0.550 OA
ENDBRANCH   2   3
ENDBRANCH   1   2
BRANCH   1   6
ATOM      6  C   UNL     1      -4.784  37.287  22.285  1.00  0.00     0.000 C 
BRANCH   6   7
ATOM      7  C   UNL     1      -6.304  37.078  22.383  1.00  0.00    -0.000 C 
BRANCH   7   8
ATOM      8  C   UNL     1      -7.051  38.354  22.794  1.00  0.00    -0.003 C 
ATOM      9  C   UNL     1      -7.556  39.114  21.571  1.00  0.00     0.004 C 
ENDBRANCH   7   8
ENDBRANCH   6   7
ENDBRANCH   1   6
TORSDOF 5
ENDMDL
MODEL 7
REMARK VINA RESULT:    -3.202      2.029      4.005
REMARK INTER + INTRA:          -4.524
REMARK INTER:                  -4.152
REMARK INTRA:                  -0.372
REMARK UNBOUND:                -0.385
REMARK SMILES CCCCCCC(=O)[O-]
REMARK SMILES IDX 5 1 6 2 7 3 8 4 9 5 4 6 3 7 2 8 1 9
REMARK H PARENT
REMARK Flexibility Score: inf
ROOT
ATOM      1  C   UNL     1      -6.120  37.597  19.355  1.00  0.00     0.006 C 
ENDROOT
BRANCH   1   2
ATOM      2  C   UNL     1      -7.098  38.755  19.596  1.00  0.00     0.053 C 
BRANCH   2   3
ATOM      3  C   UNL     1      -7.085  39.204  21.026  1.00  0.00     0.041 C 
ATOM      4  O   UNL     1      -7.014  40.430  21.303  1.00  0.00    -0.550 OA
ATOM      5  O   UNL     1      -7.186  38.271  22.049  1.00  0.00    -0.550 OA
ENDBRANCH   2   3
ENDBRANCH   1   2
BRANCH   1   6
ATOM      6  C   UNL     1      -4.660  38.078  19.271  1.00  0.00     0.000 C 
BRANCH   6   7
ATOM      7  C   UNL     1      -3.693  37.169  20.044  1.00  0.00    -0.000 C 
BRANCH   7   8
ATOM      8  C   UNL     1      -3.816  37.332  21.566  1.00  0.00    -0.003 C 
ATOM      9  C   UNL     1      -4.272  36.034  22.224  1.00  0.00     0.004 C 
ENDBRANCH   7   8
ENDBRANCH   6   7
ENDBRANCH   1   6
TORSDOF 5
ENDMDL
MODEL 8
REMARK VINA RESULT:    -3.201      1.563      2.781
REMARK INTER + INTRA:          -4.522
REMARK INTER:                  -4.114
REMARK INTRA:                  -0.408
REMARK UNBOUND:                -0.385
REMARK SMILES CCCCCCC(=O)[O-]
REMARK SMILES IDX 5 1 6 2 7 3 8 4 9 5 4 6 3 7 2 8 1 9
REMARK H PARENT
REMARK Flexibility Score: inf
ROOT
ATOM      1  C   UNL     1      -4.472  36.648  21.458  1.00  0.00     0.006 C 
ENDROOT
BRANCH   1   2
ATOM      2  C   UNL     1      -3.508  37.824  21.248  1.00  0.00     0.053 C 
BRANCH   2   3
ATOM      3  C   UNL     1      -3.563  38.797  22.386  1.00  0.00     0.041 C 
ATOM      4  O   UNL     1      -4.031  39.952  22.208  1.00  0.00    -0.550 OA
ATOM      5  O   UNL     1      -3.130  38.417  23.649  1.00  0.00    -0.550 OA
ENDBRANCH   2   3
ENDBRANCH   1   2
BRANCH   1   6
ATOM      6  C   UNL     1      -5.945  37.096  21.446  1.00  0.00     0.000 C 
BRANCH   6   7
ATOM      7  C   UNL     1      -6.406  37.572  20.060  1.00  0.00    -0.000 C 
BRANCH   7   8
ATOM      8  C   UNL     1      -7.147  38.915  20.112  1.00  0.00    -0.003 C 
ATOM      9  C   UNL     1      -7.564  39.259  21.539  1.00  0.00     0.004 C 
ENDBRANCH   7   8
ENDBRANCH   6   7
ENDBRANCH   1   6
TORSDOF 5
ENDMDL
MODEL 9
REMARK VINA RESULT:    -3.196     11.840     13.241
REMARK INTER + INTRA:          -4.515
REMARK INTER:                  -4.408
REMARK INTRA:                  -0.107
REMARK UNBOUND:                -0.385
REMARK SMILES CCCCCCC(=O)[O-]
REMARK SMILES IDX 5 1 6 2 7 3 8 4 9 5 4 6 3 7 2 8 1 9
REMARK H PARENT
REMARK Flexibility Score: inf
ROOT
ATOM      1  C   UNL     1      -0.515  25.412  18.683  1.00  0.00     0.006 C 
ENDROOT
BRANCH   1   2
ATOM      2  C   UNL     1      -0.092  25.710  20.128  1.00  0.00     0.053 C 
BRANCH   2   3
ATOM      3  C   UNL     1      -1.093  25.196  21.117  1.00  0.00     0.041 C 
ATOM      4  O   UNL     1      -1.126  23.971  21.405  1.00  0.00    -0.550 OA
ATOM      5  O   UNL     1      -1.966  26.075  21.745  1.00  0.00    -0.550 OA
ENDBRANCH   2   3
ENDBRANCH   1   2
BRANCH   1   6
ATOM      6  C   UNL     1       0.387  26.120  17.657  1.00  0.00     0.000 C 
BRANCH   6   7
ATOM      7  C   UNL     1      -0.299  27.328  17.001  1.00  0.00    -0.000 C 
BRANCH   7   8
ATOM      8  C   UNL     1       0.690  28.443  16.635  1.00  0.00    -0.003 C 
ATOM      9  C   UNL     1       0.135  29.815  17.006  1.00  0.00     0.004 C 
ENDBRANCH   7   8
ENDBRANCH   6   7
ENDBRANCH   1   6
TORSDOF 5
ENDMDL
