MODEL 1
REMARK VINA RESULT:    -5.244      0.000      0.000
REMARK INTER + INTRA:          -6.017
REMARK INTER:                  -5.857
REMARK INTRA:                  -0.160
REMARK UNBOUND:                -0.160
REMARK SMILES COc1cc2ccc(=O)oc2cc1OC
REMARK SMILES IDX 3 1 13 2 12 3 11 4 5 5 4 6 6 7 7 8 8 9 9 10 10 11 2 12 1 13
REMARK SMILES IDX 14 14 15 15
REMARK H PARENT
REMARK Flexibility Score: inf
ROOT
ATOM      1  C   UNL     1      21.356 -21.146 -12.277  1.00  0.00     0.161 A 
ATOM      2  C   UNL     1      22.513 -21.713 -11.717  1.00  0.00     0.164 A 
ATOM      3  C   UNL     1      23.241 -21.001 -10.743  1.00  0.00     0.098 A 
ATOM      4  C   UNL     1      22.821 -19.734 -10.333  1.00  0.00     0.142 A 
ATOM      5  C   UNL     1      21.662 -19.163 -10.895  1.00  0.00     0.022 A 
ATOM      6  C   UNL     1      20.933 -19.867 -11.862  1.00  0.00     0.062 A 
ATOM      7  C   UNL     1      21.267 -17.892 -10.463  1.00  0.00     0.019 A 
ATOM      8  C   UNL     1      22.025 -17.232  -9.497  1.00  0.00     0.094 A 
ATOM      9  C   UNL     1      23.165 -17.860  -8.984  1.00  0.00     0.336 A 
ATOM     10  O   UNL     1      23.863 -17.280  -8.111  1.00  0.00    -0.246 OA
ATOM     11  O   UNL     1      23.517 -19.069  -9.413  1.00  0.00    -0.423 OA
ENDROOT
BRANCH   1  12
ATOM     12  O   UNL     1      20.655 -21.883 -13.244  1.00  0.00    -0.493 OA
ATOM     13  C   UNL     1      20.718 -21.644 -14.646  1.00  0.00     0.278 C 
ENDBRANCH   1  12
BRANCH   2  14
ATOM     14  O   UNL     1      22.905 -22.990 -12.153  1.00  0.00    -0.493 OA
ATOM     15  C   UNL     1      24.063 -23.253 -12.939  1.00  0.00     0.278 C 
ENDBRANCH   2  14
TORSDOF 2
ENDMDL
MODEL 2
REMARK VINA RESULT:    -5.152      2.355      3.102
REMARK INTER + INTRA:          -5.915
REMARK INTER:                  -5.771
REMARK INTRA:                  -0.144
REMARK UNBOUND:                -0.160
REMARK SMILES COc1cc2ccc(=O)oc2cc1OC
REMARK SMILES IDX 3 1 13 2 12 3 11 4 5 5 4 6 6 7 7 8 8 9 9 10 10 11 2 12 1 13
REMARK SMILES IDX 14 14 15 15
REMARK H PARENT
REMARK Flexibility Score: inf
ROOT
ATOM      1  C   UNL     1      20.635 -18.583 -12.967  1.00  0.00     0.161 A 
ATOM      2  C   UNL     1      20.993 -19.150 -11.732  1.00  0.00     0.164 A 
ATOM      3  C   UNL     1      21.457 -18.323 -10.690  1.00  0.00     0.098 A 
ATOM      4  C   UNL     1      21.564 -16.943 -10.878  1.00  0.00     0.142 A 
ATOM      5  C   UNL     1      21.206 -16.373 -12.116  1.00  0.00     0.022 A 
ATOM      6  C   UNL     1      20.742 -17.190 -13.155  1.00  0.00     0.062 A 
ATOM      7  C   UNL     1      21.324 -14.988 -12.271  1.00  0.00     0.019 A 
ATOM      8  C   UNL     1      21.790 -14.216 -11.207  1.00  0.00     0.094 A 
ATOM      9  C   UNL     1      22.127 -14.851 -10.007  1.00  0.00     0.336 A 
ATOM     10  O   UNL     1      22.550 -14.173  -9.035  1.00  0.00    -0.246 OA
ATOM     11  O   UNL     1      22.005 -16.171  -9.887  1.00  0.00    -0.423 OA
ENDROOT
BRANCH   1  12
ATOM     12  O   UNL     1      20.175 -19.436 -13.983  1.00  0.00    -0.493 OA
ATOM     13  C   UNL     1      20.967 -19.890 -15.076  1.00  0.00     0.278 C 
ENDBRANCH   1  12
BRANCH   2  14
ATOM     14  O   UNL     1      20.872 -20.541 -11.580  1.00  0.00    -0.493 OA
ATOM     15  C   UNL     1      21.942 -21.410 -11.222  1.00  0.00     0.278 C 
ENDBRANCH   2  14
TORSDOF 2
ENDMDL
MODEL 3
REMARK VINA RESULT:    -5.010      1.691      3.021
REMARK INTER + INTRA:          -5.755
REMARK INTER:                  -5.592
REMARK INTRA:                  -0.164
REMARK UNBOUND:                -0.160
REMARK SMILES COc1cc2ccc(=O)oc2cc1OC
REMARK SMILES IDX 3 1 13 2 12 3 11 4 5 5 4 6 6 7 7 8 8 9 9 10 10 11 2 12 1 13
REMARK SMILES IDX 14 14 15 15
REMARK H PARENT
REMARK Flexibility Score: inf
ROOT
ATOM      1  C   UNL     1      22.713 -20.329 -11.086  1.00  0.00     0.161 A 
ATOM      2  C   UNL     1      21.543 -19.757 -11.615  1.00  0.00     0.164 A 
ATOM      3  C   UNL     1      21.235 -18.411 -11.337  1.00  0.00     0.098 A 
ATOM      4  C   UNL     1      22.085 -17.642 -10.538  1.00  0.00     0.142 A 
ATOM      5  C   UNL     1      23.258 -18.214 -10.007  1.00  0.00     0.022 A 
ATOM      6  C   UNL     1      23.570 -19.552 -10.281  1.00  0.00     0.062 A 
ATOM      7  C   UNL     1      24.088 -17.417  -9.212  1.00  0.00     0.019 A 
ATOM      8  C   UNL     1      23.735 -16.090  -8.968  1.00  0.00     0.094 A 
ATOM      9  C   UNL     1      22.555 -15.590  -9.529  1.00  0.00     0.336 A 
ATOM     10  O   UNL     1      22.218 -14.395  -9.321  1.00  0.00    -0.246 OA
ATOM     11  O   UNL     1      21.784 -16.371 -10.282  1.00  0.00    -0.423 OA
ENDROOT
BRANCH   1  12
ATOM     12  O   UNL     1      22.990 -21.673 -11.383  1.00  0.00    -0.493 OA
ATOM     13  C   UNL     1      23.926 -22.107 -12.364  1.00  0.00     0.278 C 
ENDBRANCH   1  12
BRANCH   2  14
ATOM     14  O   UNL     1      20.714 -20.561 -12.413  1.00  0.00    -0.493 OA
ATOM     15  C   UNL     1      20.715 -20.558 -13.837  1.00  0.00     0.278 C 
ENDBRANCH   2  14
TORSDOF 2
ENDMDL
MODEL 4
REMARK VINA RESULT:    -5.005      2.555      5.400
REMARK INTER + INTRA:          -5.750
REMARK INTER:                  -5.632
REMARK INTRA:                  -0.119
REMARK UNBOUND:                -0.160
REMARK SMILES COc1cc2ccc(=O)oc2cc1OC
REMARK SMILES IDX 3 1 13 2 12 3 11 4 5 5 4 6 6 7 7 8 8 9 9 10 10 11 2 12 1 13
REMARK SMILES IDX 14 14 15 15
REMARK H PARENT
REMARK Flexibility Score: inf
ROOT
ATOM      1  C   UNL     1      21.733 -15.772 -11.569  1.00  0.00     0.161 A 
ATOM      2  C   UNL     1      22.831 -16.018 -10.728  1.00  0.00     0.164 A 
ATOM      3  C   UNL     1      23.155 -17.341 -10.369  1.00  0.00     0.098 A 
ATOM      4  C   UNL     1      22.391 -18.410 -10.843  1.00  0.00     0.142 A 
ATOM      5  C   UNL     1      21.288 -18.164 -11.686  1.00  0.00     0.022 A 
ATOM      6  C   UNL     1      20.963 -16.851 -12.048  1.00  0.00     0.062 A 
ATOM      7  C   UNL     1      20.543 -19.256 -12.144  1.00  0.00     0.019 A 
ATOM      8  C   UNL     1      20.908 -20.545 -11.757  1.00  0.00     0.094 A 
ATOM      9  C   UNL     1      22.014 -20.712 -10.917  1.00  0.00     0.336 A 
ATOM     10  O   UNL     1      22.360 -21.868 -10.556  1.00  0.00    -0.246 OA
ATOM     11  O   UNL     1      22.705 -19.656 -10.496  1.00  0.00    -0.423 OA
ENDROOT
BRANCH   1  12
ATOM     12  O   UNL     1      21.439 -14.442 -11.908  1.00  0.00    -0.493 OA
ATOM     13  C   UNL     1      20.691 -14.046 -13.052  1.00  0.00     0.278 C 
ENDBRANCH   1  12
BRANCH   2  14
ATOM     14  O   UNL     1      23.577 -14.919 -10.271  1.00  0.00    -0.493 OA
ATOM     15  C   UNL     1      23.613 -14.474  -8.919  1.00  0.00     0.278 C 
ENDBRANCH   2  14
TORSDOF 2
ENDMDL
MODEL 5
REMARK VINA RESULT:    -4.880      2.279      5.941
REMARK INTER + INTRA:          -5.610
REMARK INTER:                  -5.485
REMARK INTRA:                  -0.125
REMARK UNBOUND:                -0.160
REMARK SMILES COc1cc2ccc(=O)oc2cc1OC
REMARK SMILES IDX 3 1 13 2 12 3 11 4 5 5 4 6 6 7 7 8 8 9 9 10 10 11 2 12 1 13
REMARK SMILES IDX 14 14 15 15
REMARK H PARENT
REMARK Flexibility Score: inf
ROOT
ATOM      1  C   UNL     1      23.256 -16.069  -9.611  1.00  0.00     0.161 A 
ATOM      2  C   UNL     1      22.113 -16.173 -10.421  1.00  0.00     0.164 A 
ATOM      3  C   UNL     1      21.741 -17.425 -10.950  1.00  0.00     0.098 A 
ATOM      4  C   UNL     1      22.503 -18.563 -10.674  1.00  0.00     0.142 A 
ATOM      5  C   UNL     1      23.650 -18.460  -9.862  1.00  0.00     0.022 A 
ATOM      6  C   UNL     1      24.023 -17.218  -9.332  1.00  0.00     0.062 A 
ATOM      7  C   UNL     1      24.391 -19.618  -9.604  1.00  0.00     0.019 A 
ATOM      8  C   UNL     1      23.978 -20.832 -10.153  1.00  0.00     0.094 A 
ATOM      9  C   UNL     1      22.828 -20.858 -10.950  1.00  0.00     0.336 A 
ATOM     10  O   UNL     1      22.439 -21.944 -11.455  1.00  0.00    -0.246 OA
ATOM     11  O   UNL     1      22.143 -19.741 -11.179  1.00  0.00    -0.423 OA
ENDROOT
BRANCH   1  12
ATOM     12  O   UNL     1      23.597 -14.807  -9.100  1.00  0.00    -0.493 OA
ATOM     13  C   UNL     1      24.452 -13.875  -9.754  1.00  0.00     0.278 C 
ENDBRANCH   1  12
BRANCH   2  14
ATOM     14  O   UNL     1      21.371 -15.008 -10.677  1.00  0.00    -0.493 OA
ATOM     15  C   UNL     1      21.438 -14.258 -11.885  1.00  0.00     0.278 C 
ENDBRANCH   2  14
TORSDOF 2
ENDMDL
MODEL 6
REMARK VINA RESULT:    -4.851      2.523      6.138
REMARK INTER + INTRA:          -5.578
REMARK INTER:                  -5.414
REMARK INTRA:                  -0.164
REMARK UNBOUND:                -0.160
REMARK SMILES COc1cc2ccc(=O)oc2cc1OC
REMARK SMILES IDX 3 1 13 2 12 3 11 4 5 5 4 6 6 7 7 8 8 9 9 10 10 11 2 12 1 13
REMARK SMILES IDX 14 14 15 15
REMARK H PARENT
REMARK Flexibility Score: inf
ROOT
ATOM      1  C   UNL     1      21.755 -16.648 -10.551  1.00  0.00     0.161 A 
ATOM      2  C   UNL     1      21.499 -15.962 -11.750  1.00  0.00     0.164 A 
ATOM      3  C   UNL     1      21.108 -16.680 -12.897  1.00  0.00     0.098 A 
ATOM      4  C   UNL     1      20.973 -18.070 -12.849  1.00  0.00     0.142 A 
ATOM      5  C   UNL     1      21.229 -18.758 -11.647  1.00  0.00     0.022 A 
ATOM      6  C   UNL     1      21.617 -18.049 -10.503  1.00  0.00     0.062 A 
ATOM      7  C   UNL     1      21.085 -20.150 -11.632  1.00  0.00     0.019 A 
ATOM      8  C   UNL     1      20.695 -20.811 -12.796  1.00  0.00     0.094 A 
ATOM      9  C   UNL     1      20.458 -20.061 -13.953  1.00  0.00     0.336 A 
ATOM     10  O   UNL     1      20.105 -20.639 -15.014  1.00  0.00    -0.246 OA
ATOM     11  O   UNL     1      20.603 -18.739 -13.939  1.00  0.00    -0.423 OA
ENDROOT
BRANCH   1  12
ATOM     12  O   UNL     1      22.142 -15.900  -9.427  1.00  0.00    -0.493 OA
ATOM     13  C   UNL     1      23.487 -15.742  -8.987  1.00  0.00     0.278 C 
ENDBRANCH   1  12
BRANCH   2  14
ATOM     14  O   UNL     1      21.645 -14.565 -11.761  1.00  0.00    -0.493 OA
ATOM     15  C   UNL     1      22.771 -13.875 -12.294  1.00  0.00     0.278 C 
ENDBRANCH   2  14
TORSDOF 2
ENDMDL
MODEL 7
REMARK VINA RESULT:    -4.771      1.330      2.799
REMARK INTER + INTRA:          -5.489
REMARK INTER:                  -5.352
REMARK INTRA:                  -0.137
REMARK UNBOUND:                -0.160
REMARK SMILES COc1cc2ccc(=O)oc2cc1OC
REMARK SMILES IDX 3 1 13 2 12 3 11 4 5 5 4 6 6 7 7 8 8 9 9 10 10 11 2 12 1 13
REMARK SMILES IDX 14 14 15 15
REMARK H PARENT
REMARK Flexibility Score: inf
ROOT
ATOM      1  C   UNL     1      23.460 -22.300 -12.596  1.00  0.00     0.161 A 
ATOM      2  C   UNL     1      22.093 -22.092 -12.346  1.00  0.00     0.164 A 
ATOM      3  C   UNL     1      21.689 -21.055 -11.481  1.00  0.00     0.098 A 
ATOM      4  C   UNL     1      22.640 -20.235 -10.870  1.00  0.00     0.142 A 
ATOM      5  C   UNL     1      24.011 -20.444 -11.119  1.00  0.00     0.022 A 
ATOM      6  C   UNL     1      24.418 -21.471 -11.979  1.00  0.00     0.062 A 
ATOM      7  C   UNL     1      24.938 -19.604 -10.491  1.00  0.00     0.019 A 
ATOM      8  C   UNL     1      24.484 -18.594  -9.644  1.00  0.00     0.094 A 
ATOM      9  C   UNL     1      23.107 -18.447  -9.444  1.00  0.00     0.336 A 
ATOM     10  O   UNL     1      22.676 -17.541  -8.683  1.00  0.00    -0.246 OA
ATOM     11  O   UNL     1      22.248 -19.259 -10.053  1.00  0.00    -0.423 OA
ENDROOT
BRANCH   1  12
ATOM     12  O   UNL     1      23.827 -23.342 -13.463  1.00  0.00    -0.493 OA
ATOM     13  C   UNL     1      24.476 -24.541 -13.056  1.00  0.00     0.278 C 
ENDBRANCH   1  12
BRANCH   2  14
ATOM     14  O   UNL     1      21.166 -22.936 -12.979  1.00  0.00    -0.493 OA
ATOM     15  C   UNL     1      20.320 -22.543 -14.055  1.00  0.00     0.278 C 
ENDBRANCH   2  14
TORSDOF 2
ENDMDL
MODEL 8
REMARK VINA RESULT:    -4.715      2.021      2.974
REMARK INTER + INTRA:          -5.426
REMARK INTER:                  -5.301
REMARK INTRA:                  -0.125
REMARK UNBOUND:                -0.160
REMARK SMILES COc1cc2ccc(=O)oc2cc1OC
REMARK SMILES IDX 3 1 13 2 12 3 11 4 5 5 4 6 6 7 7 8 8 9 9 10 10 11 2 12 1 13
REMARK SMILES IDX 14 14 15 15
REMARK H PARENT
REMARK Flexibility Score: inf
ROOT
ATOM      1  C   UNL     1      23.327 -20.584 -12.356  1.00  0.00     0.161 A 
ATOM      2  C   UNL     1      23.281 -19.447 -13.181  1.00  0.00     0.164 A 
ATOM      3  C   UNL     1      23.343 -18.162 -12.607  1.00  0.00     0.098 A 
ATOM      4  C   UNL     1      23.449 -18.012 -11.222  1.00  0.00     0.142 A 
ATOM      5  C   UNL     1      23.496 -19.151 -10.394  1.00  0.00     0.022 A 
ATOM      6  C   UNL     1      23.436 -20.431 -10.960  1.00  0.00     0.062 A 
ATOM      7  C   UNL     1      23.603 -18.966  -9.011  1.00  0.00     0.019 A 
ATOM      8  C   UNL     1      23.660 -17.672  -8.496  1.00  0.00     0.094 A 
ATOM      9  C   UNL     1      23.609 -16.588  -9.379  1.00  0.00     0.336 A 
ATOM     10  O   UNL     1      23.659 -15.412  -8.933  1.00  0.00    -0.246 OA
ATOM     11  O   UNL     1      23.507 -16.793 -10.690  1.00  0.00    -0.423 OA
ENDROOT
BRANCH   1  12
ATOM     12  O   UNL     1      23.264 -21.849 -12.962  1.00  0.00    -0.493 OA
ATOM     13  C   UNL     1      24.212 -22.890 -12.759  1.00  0.00     0.278 C 
ENDBRANCH   1  12
BRANCH   2  14
ATOM     14  O   UNL     1      23.174 -19.637 -14.569  1.00  0.00    -0.493 OA
ATOM     15  C   UNL     1      22.135 -19.097 -15.380  1.00  0.00     0.278 C 
ENDBRANCH   2  14
TORSDOF 2
ENDMDL
MODEL 9
REMARK VINA RESULT:    -4.687      2.164      2.498
REMARK INTER + INTRA:          -5.395
REMARK INTER:                  -5.290
REMARK INTRA:                  -0.105
REMARK UNBOUND:                -0.160
REMARK SMILES COc1cc2ccc(=O)oc2cc1OC
REMARK SMILES IDX 3 1 13 2 12 3 11 4 5 5 4 6 6 7 7 8 8 9 9 10 10 11 2 12 1 13
REMARK SMILES IDX 14 14 15 15
REMARK H PARENT
REMARK Flexibility Score: inf
ROOT
ATOM      1  C   UNL     1      21.993 -22.653 -11.983  1.00  0.00     0.161 A 
ATOM      2  C   UNL     1      23.310 -22.313 -12.337  1.00  0.00     0.164 A 
ATOM      3  C   UNL     1      23.692 -20.958 -12.391  1.00  0.00     0.098 A 
ATOM      4  C   UNL     1      22.770 -19.951 -12.097  1.00  0.00     0.142 A 
ATOM      5  C   UNL     1      21.449 -20.291 -11.743  1.00  0.00     0.022 A 
ATOM      6  C   UNL     1      21.064 -21.637 -11.686  1.00  0.00     0.062 A 
ATOM      7  C   UNL     1      20.550 -19.259 -11.453  1.00  0.00     0.019 A 
ATOM      8  C   UNL     1      20.981 -17.935 -11.523  1.00  0.00     0.094 A 
ATOM      9  C   UNL     1      22.308 -17.673 -11.882  1.00  0.00     0.336 A 
ATOM     10  O   UNL     1      22.717 -16.485 -11.951  1.00  0.00    -0.246 OA
ATOM     11  O   UNL     1      23.142 -18.674 -12.152  1.00  0.00    -0.423 OA
ENDROOT
BRANCH   1  12
ATOM     12  O   UNL     1      21.646 -24.013 -11.938  1.00  0.00    -0.493 OA
ATOM     13  C   UNL     1      21.229 -24.702 -10.765  1.00  0.00     0.278 C 
ENDBRANCH   1  12
BRANCH   2  14
ATOM     14  O   UNL     1      24.209 -23.352 -12.626  1.00  0.00    -0.493 OA
ATOM     15  C   UNL     1      24.427 -23.893 -13.925  1.00  0.00     0.278 C 
ENDBRANCH   2  14
TORSDOF 2
ENDMDL
