MODEL 1
REMARK VINA RESULT:    -4.789      0.000      0.000
REMARK INTER + INTRA:          -6.100
REMARK INTER:                  -5.769
REMARK INTRA:                  -0.331
REMARK UNBOUND:                -0.331
REMARK SMILES Oc1cc(O)c2cc(O)c(-c3ccc(O)c(O)c3)[o+]c2c1.[Cl-]
REMARK SMILES IDX 10 1 19 2 20 3 21 4 2 5 3 6 4 7 6 8 7 9 8 10 11 11 12 12
REMARK SMILES IDX 13 13 14 14 18 15 16 16 15 17 17 19 9 21 1 23 5 25
REMARK H PARENT 15 18 17 20 9 22 1 24 5 26
REMARK Flexibility Score: inf
ROOT
ATOM      1  C   UNL     1      40.128 -30.601  10.710  1.00  0.00     0.402 A 
ATOM      2  O   UNL     1      39.251 -30.715   9.716  1.00  0.00    -0.202 OA
ATOM      3  C   UNL     1      37.952 -30.477   9.857  1.00  0.00     0.368 A 
ATOM      4  C   UNL     1      37.110 -30.621   8.750  1.00  0.00     0.162 A 
ATOM      5  C   UNL     1      35.739 -30.375   8.872  1.00  0.00     0.128 A 
ATOM      6  C   UNL     1      35.209 -29.981  10.102  1.00  0.00     0.093 A 
ATOM      7  C   UNL     1      36.031 -29.830  11.225  1.00  0.00     0.136 A 
ATOM      8  C   UNL     1      37.422 -30.082  11.109  1.00  0.00     0.125 A 
ATOM      9  C   UNL     1      38.320 -29.969  12.184  1.00  0.00     0.078 A 
ATOM     10  C   UNL     1      39.679 -30.238  11.993  1.00  0.00     0.223 A 
ENDROOT
BRANCH   1  11
ATOM     11  C   UNL     1      41.553 -30.883  10.424  1.00  0.00     0.087 A 
ATOM     12  C   UNL     1      42.437 -29.818  10.206  1.00  0.00     0.022 A 
ATOM     13  C   UNL     1      43.788 -30.060   9.954  1.00  0.00     0.051 A 
ATOM     14  C   UNL     1      44.287 -31.367   9.930  1.00  0.00     0.157 A 
ATOM     15  C   UNL     1      42.054 -32.196  10.423  1.00  0.00     0.068 A 
ATOM     16  C   UNL     1      43.409 -32.450  10.175  1.00  0.00     0.158 A 
BRANCH  14  17
ATOM     17  O   UNL     1      45.647 -31.543   9.665  1.00  0.00    -0.504 OA
ATOM     18  H   UNL     1      46.386 -31.071  10.165  1.00  0.00     0.293 HD
ENDBRANCH  14  17
BRANCH  16  19
ATOM     19  O   UNL     1      43.836 -33.779  10.187  1.00  0.00    -0.504 OA
ATOM     20  H   UNL     1      44.527 -34.144  10.826  1.00  0.00     0.293 HD
ENDBRANCH  16  19
ENDBRANCH   1  11
BRANCH  10  21
ATOM     21  O   UNL     1      40.563 -30.174  13.071  1.00  0.00    -0.500 OA
ATOM     22  H   UNL     1      41.104 -29.339  13.267  1.00  0.00     0.294 HD
ENDBRANCH  10  21
BRANCH   5  23
ATOM     23  O   UNL     1      34.894 -30.516   7.774  1.00  0.00    -0.507 OA
ATOM     24  H   UNL     1      33.923 -30.787   7.883  1.00  0.00     0.293 HD
ENDBRANCH   5  23
BRANCH   7  25
ATOM     25  O   UNL     1      35.423 -29.431  12.420  1.00  0.00    -0.507 OA
ATOM     26  H   UNL     1      35.513 -29.921  13.297  1.00  0.00     0.293 HD
ENDBRANCH   7  25
TORSDOF 6
ENDMDL
MODEL 2
REMARK VINA RESULT:    -4.440      1.889      2.657
REMARK INTER + INTRA:          -5.680
REMARK INTER:                  -5.340
REMARK INTRA:                  -0.340
REMARK UNBOUND:                -0.331
REMARK SMILES Oc1cc(O)c2cc(O)c(-c3ccc(O)c(O)c3)[o+]c2c1.[Cl-]
REMARK SMILES IDX 10 1 19 2 20 3 21 4 2 5 3 6 4 7 6 8 7 9 8 10 11 11 12 12
REMARK SMILES IDX 13 13 14 14 18 15 16 16 15 17 17 19 9 21 1 23 5 25
REMARK H PARENT 15 18 17 20 9 22 1 24 5 26
REMARK Flexibility Score: inf
ROOT
ATOM      1  C   UNL     1      40.809 -30.848  11.200  1.00  0.00     0.402 A 
ATOM      2  O   UNL     1      39.798 -31.297  11.937  1.00  0.00    -0.202 OA
ATOM      3  C   UNL     1      38.528 -30.987  11.701  1.00  0.00     0.368 A 
ATOM      4  C   UNL     1      37.533 -31.512  12.531  1.00  0.00     0.162 A 
ATOM      5  C   UNL     1      36.189 -31.204  12.302  1.00  0.00     0.128 A 
ATOM      6  C   UNL     1      35.838 -30.369  11.239  1.00  0.00     0.093 A 
ATOM      7  C   UNL     1      36.815 -29.831  10.394  1.00  0.00     0.136 A 
ATOM      8  C   UNL     1      38.181 -30.137  10.623  1.00  0.00     0.125 A 
ATOM      9  C   UNL     1      39.229 -29.633   9.834  1.00  0.00     0.078 A 
ATOM     10  C   UNL     1      40.553 -29.977  10.125  1.00  0.00     0.223 A 
ENDROOT
BRANCH   1  11
ATOM     11  C   UNL     1      42.182 -31.274  11.558  1.00  0.00     0.087 A 
ATOM     12  C   UNL     1      42.829 -30.669  12.644  1.00  0.00     0.022 A 
ATOM     13  C   UNL     1      44.115 -31.068  13.012  1.00  0.00     0.051 A 
ATOM     14  C   UNL     1      44.773 -32.087  12.316  1.00  0.00     0.157 A 
ATOM     15  C   UNL     1      42.830 -32.313  10.871  1.00  0.00     0.068 A 
ATOM     16  C   UNL     1      44.119 -32.723  11.234  1.00  0.00     0.158 A 
BRANCH  14  17
ATOM     17  O   UNL     1      46.062 -32.434  12.729  1.00  0.00    -0.504 OA
ATOM     18  H   UNL     1      46.261 -33.135  13.427  1.00  0.00     0.293 HD
ENDBRANCH  14  17
BRANCH  16  19
ATOM     19  O   UNL     1      44.703 -33.760  10.505  1.00  0.00    -0.504 OA
ATOM     20  H   UNL     1      45.065 -33.658   9.568  1.00  0.00     0.293 HD
ENDBRANCH  16  19
ENDBRANCH   1  11
BRANCH  10  21
ATOM     21  O   UNL     1      41.597 -29.436   9.373  1.00  0.00    -0.500 OA
ATOM     22  H   UNL     1      42.355 -28.924   9.808  1.00  0.00     0.294 HD
ENDBRANCH  10  21
BRANCH   5  23
ATOM     23  O   UNL     1      35.192 -31.724  13.125  1.00  0.00    -0.507 OA
ATOM     24  H   UNL     1      35.186 -32.699  13.399  1.00  0.00     0.293 HD
ENDBRANCH   5  23
BRANCH   7  25
ATOM     25  O   UNL     1      36.381 -29.006   9.351  1.00  0.00    -0.507 OA
ATOM     26  H   UNL     1      36.984 -28.620   8.639  1.00  0.00     0.293 HD
ENDBRANCH   7  25
TORSDOF 6
ENDMDL
MODEL 3
REMARK VINA RESULT:    -4.434      1.548      7.164
REMARK INTER + INTRA:          -5.672
REMARK INTER:                  -5.350
REMARK INTRA:                  -0.322
REMARK UNBOUND:                -0.331
REMARK SMILES Oc1cc(O)c2cc(O)c(-c3ccc(O)c(O)c3)[o+]c2c1.[Cl-]
REMARK SMILES IDX 10 1 19 2 20 3 21 4 2 5 3 6 4 7 6 8 7 9 8 10 11 11 12 12
REMARK SMILES IDX 13 13 14 14 18 15 16 16 15 17 17 19 9 21 1 23 5 25
REMARK H PARENT 15 18 17 20 9 22 1 24 5 26
REMARK Flexibility Score: inf
ROOT
ATOM      1  C   UNL     1      40.722 -30.724  10.502  1.00  0.00     0.402 A 
ATOM      2  O   UNL     1      41.117 -31.810  11.161  1.00  0.00    -0.202 OA
ATOM      3  C   UNL     1      42.377 -32.232  11.185  1.00  0.00     0.368 A 
ATOM      4  C   UNL     1      42.695 -33.384  11.909  1.00  0.00     0.162 A 
ATOM      5  C   UNL     1      44.014 -33.847  11.952  1.00  0.00     0.128 A 
ATOM      6  C   UNL     1      45.017 -33.156  11.270  1.00  0.00     0.093 A 
ATOM      7  C   UNL     1      44.724 -31.999  10.538  1.00  0.00     0.136 A 
ATOM      8  C   UNL     1      43.387 -31.526  10.488  1.00  0.00     0.125 A 
ATOM      9  C   UNL     1      42.999 -30.384   9.768  1.00  0.00     0.078 A 
ATOM     10  C   UNL     1      41.660 -29.981   9.763  1.00  0.00     0.223 A 
ENDROOT
BRANCH   1  11
ATOM     11  C   UNL     1      39.290 -30.351  10.561  1.00  0.00     0.087 A 
ATOM     12  C   UNL     1      38.815 -29.606  11.649  1.00  0.00     0.022 A 
ATOM     13  C   UNL     1      37.474 -29.228  11.716  1.00  0.00     0.051 A 
ATOM     14  C   UNL     1      36.584 -29.569  10.692  1.00  0.00     0.157 A 
ATOM     15  C   UNL     1      38.405 -30.677   9.520  1.00  0.00     0.068 A 
ATOM     16  C   UNL     1      37.058 -30.299   9.575  1.00  0.00     0.158 A 
BRANCH  14  17
ATOM     17  O   UNL     1      35.253 -29.167  10.821  1.00  0.00    -0.504 OA
ATOM     18  H   UNL     1      34.813 -28.471  10.237  1.00  0.00     0.293 HD
ENDBRANCH  14  17
BRANCH  16  19
ATOM     19  O   UNL     1      36.234 -30.659   8.506  1.00  0.00    -0.504 OA
ATOM     20  H   UNL     1      36.112 -31.607   8.182  1.00  0.00     0.293 HD
ENDBRANCH  16  19
ENDBRANCH   1  11
BRANCH  10  21
ATOM     21  O   UNL     1      41.265 -28.875   9.008  1.00  0.00    -0.500 OA
ATOM     22  H   UNL     1      40.474 -28.918   8.376  1.00  0.00     0.294 HD
ENDBRANCH  10  21
BRANCH   5  23
ATOM     23  O   UNL     1      44.338 -34.995  12.672  1.00  0.00    -0.507 OA
ATOM     24  H   UNL     1      44.518 -34.962  13.669  1.00  0.00     0.293 HD
ENDBRANCH   5  23
BRANCH   7  25
ATOM     25  O   UNL     1      45.785 -31.364   9.886  1.00  0.00    -0.507 OA
ATOM     26  H   UNL     1      46.449 -30.752  10.338  1.00  0.00     0.293 HD
ENDBRANCH   7  25
TORSDOF 6
ENDMDL
MODEL 4
REMARK VINA RESULT:    -4.412      1.799      7.236
REMARK INTER + INTRA:          -5.646
REMARK INTER:                  -5.306
REMARK INTRA:                  -0.340
REMARK UNBOUND:                -0.331
REMARK SMILES Oc1cc(O)c2cc(O)c(-c3ccc(O)c(O)c3)[o+]c2c1.[Cl-]
REMARK SMILES IDX 10 1 19 2 20 3 21 4 2 5 3 6 4 7 6 8 7 9 8 10 11 11 12 12
REMARK SMILES IDX 13 13 14 14 18 15 16 16 15 17 17 19 9 21 1 23 5 25
REMARK H PARENT 15 18 17 20 9 22 1 24 5 26
REMARK Flexibility Score: inf
ROOT
ATOM      1  C   UNL     1      40.349 -30.695  10.680  1.00  0.00     0.402 A 
ATOM      2  O   UNL     1      41.217 -29.964  11.374  1.00  0.00    -0.202 OA
ATOM      3  C   UNL     1      42.503 -30.276  11.493  1.00  0.00     0.368 A 
ATOM      4  C   UNL     1      43.339 -29.442  12.242  1.00  0.00     0.162 A 
ATOM      5  C   UNL     1      44.696 -29.747  12.380  1.00  0.00     0.128 A 
ATOM      6  C   UNL     1      45.220 -30.887  11.768  1.00  0.00     0.093 A 
ATOM      7  C   UNL     1      44.404 -31.737  11.013  1.00  0.00     0.136 A 
ATOM      8  C   UNL     1      43.025 -31.436  10.871  1.00  0.00     0.125 A 
ATOM      9  C   UNL     1      42.129 -32.238  10.144  1.00  0.00     0.078 A 
ATOM     10  C   UNL     1      40.781 -31.878  10.053  1.00  0.00     0.223 A 
ENDROOT
BRANCH   1  11
ATOM     11  C   UNL     1      38.942 -30.236  10.614  1.00  0.00     0.087 A 
ATOM     12  C   UNL     1      38.555 -29.344   9.605  1.00  0.00     0.022 A 
ATOM     13  C   UNL     1      37.230 -28.913   9.511  1.00  0.00     0.051 A 
ATOM     14  C   UNL     1      36.264 -29.377  10.411  1.00  0.00     0.157 A 
ATOM     15  C   UNL     1      37.970 -30.721  11.505  1.00  0.00     0.068 A 
ATOM     16  C   UNL     1      36.638 -30.299  11.418  1.00  0.00     0.158 A 
BRANCH  14  17
ATOM     17  O   UNL     1      34.958 -28.902  10.269  1.00  0.00    -0.504 OA
ATOM     18  H   UNL     1      34.237 -29.379   9.748  1.00  0.00     0.293 HD
ENDBRANCH  14  17
BRANCH  16  19
ATOM     19  O   UNL     1      35.727 -30.819  12.338  1.00  0.00    -0.504 OA
ATOM     20  H   UNL     1      35.945 -31.552  12.997  1.00  0.00     0.293 HD
ENDBRANCH  16  19
ENDBRANCH   1  11
BRANCH  10  21
ATOM     21  O   UNL     1      39.882 -32.700   9.373  1.00  0.00    -0.500 OA
ATOM     22  H   UNL     1      39.736 -33.666   9.642  1.00  0.00     0.294 HD
ENDBRANCH  10  21
BRANCH   5  23
ATOM     23  O   UNL     1      45.535 -28.921  13.125  1.00  0.00    -0.507 OA
ATOM     24  H   UNL     1      46.543 -29.023  13.095  1.00  0.00     0.293 HD
ENDBRANCH   5  23
BRANCH   7  25
ATOM     25  O   UNL     1      45.006 -32.857  10.429  1.00  0.00    -0.507 OA
ATOM     26  H   UNL     1      44.680 -33.806  10.546  1.00  0.00     0.293 HD
ENDBRANCH   7  25
TORSDOF 6
ENDMDL
MODEL 5
REMARK VINA RESULT:    -4.368      1.516      6.897
REMARK INTER + INTRA:          -5.593
REMARK INTER:                  -5.247
REMARK INTRA:                  -0.346
REMARK UNBOUND:                -0.331
REMARK SMILES Oc1cc(O)c2cc(O)c(-c3ccc(O)c(O)c3)[o+]c2c1.[Cl-]
REMARK SMILES IDX 10 1 19 2 20 3 21 4 2 5 3 6 4 7 6 8 7 9 8 10 11 11 12 12
REMARK SMILES IDX 13 13 14 14 18 15 16 16 15 17 17 19 9 21 1 23 5 25
REMARK H PARENT 15 18 17 20 9 22 1 24 5 26
REMARK Flexibility Score: inf
ROOT
ATOM      1  C   UNL     1      39.792 -30.774  10.427  1.00  0.00     0.402 A 
ATOM      2  O   UNL     1      40.821 -30.135   9.876  1.00  0.00    -0.202 OA
ATOM      3  C   UNL     1      42.089 -30.466  10.097  1.00  0.00     0.368 A 
ATOM      4  C   UNL     1      43.102 -29.737   9.468  1.00  0.00     0.162 A 
ATOM      5  C   UNL     1      44.443 -30.066   9.682  1.00  0.00     0.128 A 
ATOM      6  C   UNL     1      44.773 -31.129  10.525  1.00  0.00     0.093 A 
ATOM      7  C   UNL     1      43.777 -31.875  11.166  1.00  0.00     0.136 A 
ATOM      8  C   UNL     1      42.414 -31.544  10.956  1.00  0.00     0.125 A 
ATOM      9  C   UNL     1      41.350 -32.228  11.567  1.00  0.00     0.078 A 
ATOM     10  C   UNL     1      40.030 -31.840  11.314  1.00  0.00     0.223 A 
ENDROOT
BRANCH   1  11
ATOM     11  C   UNL     1      38.424 -30.316  10.094  1.00  0.00     0.087 A 
ATOM     12  C   UNL     1      37.805 -29.349  10.899  1.00  0.00     0.022 A 
ATOM     13  C   UNL     1      36.523 -28.889  10.593  1.00  0.00     0.051 A 
ATOM     14  C   UNL     1      35.841 -29.371   9.471  1.00  0.00     0.157 A 
ATOM     15  C   UNL     1      37.750 -30.786   8.955  1.00  0.00     0.068 A 
ATOM     16  C   UNL     1      36.466 -30.329   8.636  1.00  0.00     0.158 A 
BRANCH  14  17
ATOM     17  O   UNL     1      34.558 -28.877   9.224  1.00  0.00    -0.504 OA
ATOM     18  H   UNL     1      34.315 -28.312   8.424  1.00  0.00     0.293 HD
ENDBRANCH  14  17
BRANCH  16  19
ATOM     19  O   UNL     1      35.855 -30.841   7.490  1.00  0.00    -0.504 OA
ATOM     20  H   UNL     1      35.581 -31.806   7.380  1.00  0.00     0.293 HD
ENDBRANCH  16  19
ENDBRANCH   1  11
BRANCH  10  21
ATOM     21  O   UNL     1      38.975 -32.487  11.959  1.00  0.00    -0.500 OA
ATOM     22  H   UNL     1      38.009 -32.301  11.715  1.00  0.00     0.294 HD
ENDBRANCH  10  21
BRANCH   5  23
ATOM     23  O   UNL     1      45.458 -29.343   9.059  1.00  0.00    -0.507 OA
ATOM     24  H   UNL     1      45.640 -28.374   9.293  1.00  0.00     0.293 HD
ENDBRANCH   5  23
BRANCH   7  25
ATOM     25  O   UNL     1      44.190 -32.926  11.992  1.00  0.00    -0.507 OA
ATOM     26  H   UNL     1      45.055 -33.434  11.880  1.00  0.00     0.293 HD
ENDBRANCH   7  25
TORSDOF 6
ENDMDL
MODEL 6
REMARK VINA RESULT:    -3.825      2.131      3.203
REMARK INTER + INTRA:          -4.939
REMARK INTER:                  -4.705
REMARK INTRA:                  -0.234
REMARK UNBOUND:                -0.331
REMARK SMILES Oc1cc(O)c2cc(O)c(-c3ccc(O)c(O)c3)[o+]c2c1.[Cl-]
REMARK SMILES IDX 10 1 19 2 20 3 21 4 2 5 3 6 4 7 6 8 7 9 8 10 11 11 12 12
REMARK SMILES IDX 13 13 14 14 18 15 16 16 15 17 17 19 9 21 1 23 5 25
REMARK H PARENT 15 18 17 20 9 22 1 24 5 26
REMARK Flexibility Score: inf
ROOT
ATOM      1  C   UNL     1      41.046 -31.414  11.329  1.00  0.00     0.402 A 
ATOM      2  O   UNL     1      39.976 -31.705  12.064  1.00  0.00    -0.202 OA
ATOM      3  C   UNL     1      38.750 -31.292  11.763  1.00  0.00     0.368 A 
ATOM      4  C   UNL     1      37.687 -31.654  12.595  1.00  0.00     0.162 A 
ATOM      5  C   UNL     1      36.386 -31.234  12.299  1.00  0.00     0.128 A 
ATOM      6  C   UNL     1      36.148 -30.453  11.167  1.00  0.00     0.093 A 
ATOM      7  C   UNL     1      37.195 -30.078  10.318  1.00  0.00     0.136 A 
ATOM      8  C   UNL     1      38.517 -30.497  10.614  1.00  0.00     0.125 A 
ATOM      9  C   UNL     1      39.630 -30.158   9.827  1.00  0.00     0.078 A 
ATOM     10  C   UNL     1      40.905 -30.607  10.185  1.00  0.00     0.223 A 
ENDROOT
BRANCH   1  11
ATOM     11  C   UNL     1      42.360 -31.942  11.764  1.00  0.00     0.087 A 
ATOM     12  C   UNL     1      42.631 -33.311  11.629  1.00  0.00     0.022 A 
ATOM     13  C   UNL     1      43.869 -33.827  12.014  1.00  0.00     0.051 A 
ATOM     14  C   UNL     1      44.865 -32.989  12.526  1.00  0.00     0.157 A 
ATOM     15  C   UNL     1      43.365 -31.093  12.256  1.00  0.00     0.068 A 
ATOM     16  C   UNL     1      44.612 -31.601  12.642  1.00  0.00     0.158 A 
BRANCH  14  17
ATOM     17  O   UNL     1      46.079 -33.568  12.900  1.00  0.00    -0.504 OA
ATOM     18  H   UNL     1      46.407 -34.462  12.563  1.00  0.00     0.293 HD
ENDBRANCH  14  17
BRANCH  16  19
ATOM     19  O   UNL     1      45.562 -30.699  13.125  1.00  0.00    -0.504 OA
ATOM     20  H   UNL     1      45.918 -29.916  12.597  1.00  0.00     0.293 HD
ENDBRANCH  16  19
ENDBRANCH   1  11
BRANCH  10  21
ATOM     21  O   UNL     1      42.018 -30.229   9.432  1.00  0.00    -0.500 OA
ATOM     22  H   UNL     1      42.685 -29.548   9.774  1.00  0.00     0.294 HD
ENDBRANCH  10  21
BRANCH   5  23
ATOM     23  O   UNL     1      35.322 -31.591  13.125  1.00  0.00    -0.507 OA
ATOM     24  H   UNL     1      35.457 -31.787  14.110  1.00  0.00     0.293 HD
ENDBRANCH   5  23
BRANCH   7  25
ATOM     25  O   UNL     1      36.872 -29.297   9.203  1.00  0.00    -0.507 OA
ATOM     26  H   UNL     1      36.990 -29.593   8.245  1.00  0.00     0.293 HD
ENDBRANCH   7  25
TORSDOF 6
ENDMDL
MODEL 7
REMARK VINA RESULT:    -3.401      2.379      7.212
REMARK INTER + INTRA:          -4.428
REMARK INTER:                  -4.328
REMARK INTRA:                  -0.101
REMARK UNBOUND:                -0.331
REMARK SMILES Oc1cc(O)c2cc(O)c(-c3ccc(O)c(O)c3)[o+]c2c1.[Cl-]
REMARK SMILES IDX 10 1 19 2 20 3 21 4 2 5 3 6 4 7 6 8 7 9 8 10 11 11 12 12
REMARK SMILES IDX 13 13 14 14 18 15 16 16 15 17 17 19 9 21 1 23 5 25
REMARK H PARENT 15 18 17 20 9 22 1 24 5 26
REMARK Flexibility Score: inf
ROOT
ATOM      1  C   UNL     1      40.185 -29.984  11.214  1.00  0.00     0.402 A 
ATOM      2  O   UNL     1      41.191 -30.353  12.003  1.00  0.00    -0.202 OA
ATOM      3  C   UNL     1      42.467 -30.275  11.643  1.00  0.00     0.368 A 
ATOM      4  C   UNL     1      43.455 -30.684  12.544  1.00  0.00     0.162 A 
ATOM      5  C   UNL     1      44.805 -30.609  12.190  1.00  0.00     0.128 A 
ATOM      6  C   UNL     1      45.170 -30.122  10.934  1.00  0.00     0.093 A 
ATOM      7  C   UNL     1      44.200 -29.706  10.014  1.00  0.00     0.136 A 
ATOM      8  C   UNL     1      42.828 -29.783  10.365  1.00  0.00     0.125 A 
ATOM      9  C   UNL     1      41.787 -29.400   9.502  1.00  0.00     0.078 A 
ATOM     10  C   UNL     1      40.456 -29.509   9.918  1.00  0.00     0.223 A 
ENDROOT
BRANCH   1  11
ATOM     11  C   UNL     1      38.804 -30.111  11.734  1.00  0.00     0.087 A 
ATOM     12  C   UNL     1      37.964 -28.988  11.740  1.00  0.00     0.022 A 
ATOM     13  C   UNL     1      36.653 -29.089  12.208  1.00  0.00     0.051 A 
ATOM     14  C   UNL     1      36.149 -30.312  12.662  1.00  0.00     0.157 A 
ATOM     15  C   UNL     1      38.294 -31.345  12.168  1.00  0.00     0.068 A 
ATOM     16  C   UNL     1      36.979 -31.458  12.636  1.00  0.00     0.158 A 
BRANCH  14  17
ATOM     17  O   UNL     1      34.831 -30.345  13.125  1.00  0.00    -0.504 OA
ATOM     18  H   UNL     1      34.405 -31.150  13.560  1.00  0.00     0.293 HD
ENDBRANCH  14  17
BRANCH  16  19
ATOM     19  O   UNL     1      36.540 -32.716  13.054  1.00  0.00    -0.504 OA
ATOM     20  H   UNL     1      36.015 -32.878  13.901  1.00  0.00     0.293 HD
ENDBRANCH  16  19
ENDBRANCH   1  11
BRANCH  10  21
ATOM     21  O   UNL     1      39.421 -29.176   9.043  1.00  0.00    -0.500 OA
ATOM     22  H   UNL     1      39.225 -28.215   8.793  1.00  0.00     0.294 HD
ENDBRANCH  10  21
BRANCH   5  23
ATOM     23  O   UNL     1      45.794 -31.015  13.083  1.00  0.00    -0.507 OA
ATOM     24  H   UNL     1      46.619 -30.450  13.253  1.00  0.00     0.293 HD
ENDBRANCH   5  23
BRANCH   7  25
ATOM     25  O   UNL     1      44.648 -29.229   8.778  1.00  0.00    -0.507 OA
ATOM     26  H   UNL     1      45.166 -28.372   8.651  1.00  0.00     0.293 HD
ENDBRANCH   7  25
TORSDOF 6
ENDMDL
MODEL 8
REMARK VINA RESULT:    -2.678      2.374      7.311
REMARK INTER + INTRA:          -3.557
REMARK INTER:                  -3.230
REMARK INTRA:                  -0.327
REMARK UNBOUND:                -0.331
REMARK SMILES Oc1cc(O)c2cc(O)c(-c3ccc(O)c(O)c3)[o+]c2c1.[Cl-]
REMARK SMILES IDX 10 1 19 2 20 3 21 4 2 5 3 6 4 7 6 8 7 9 8 10 11 11 12 12
REMARK SMILES IDX 13 13 14 14 18 15 16 16 15 17 17 19 9 21 1 23 5 25
REMARK H PARENT 15 18 17 20 9 22 1 24 5 26
REMARK Flexibility Score: inf
ROOT
ATOM      1  C   UNL     1      41.114 -31.266  11.904  1.00  0.00     0.402 A 
ATOM      2  O   UNL     1      41.530 -32.515  12.099  1.00  0.00    -0.202 OA
ATOM      3  C   UNL     1      42.783 -32.826  12.409  1.00  0.00     0.368 A 
ATOM      4  C   UNL     1      43.124 -34.169  12.599  1.00  0.00     0.162 A 
ATOM      5  C   UNL     1      44.435 -34.523  12.928  1.00  0.00     0.128 A 
ATOM      6  C   UNL     1      45.409 -33.533  13.070  1.00  0.00     0.093 A 
ATOM      7  C   UNL     1      45.093 -32.182  12.885  1.00  0.00     0.136 A 
ATOM      8  C   UNL     1      43.765 -31.816  12.548  1.00  0.00     0.125 A 
ATOM      9  C   UNL     1      43.361 -30.488  12.331  1.00  0.00     0.078 A 
ATOM     10  C   UNL     1      42.033 -30.205  11.997  1.00  0.00     0.223 A 
ENDROOT
BRANCH   1  11
ATOM     11  C   UNL     1      39.687 -31.047  11.573  1.00  0.00     0.087 A 
ATOM     12  C   UNL     1      38.746 -30.951  12.607  1.00  0.00     0.022 A 
ATOM     13  C   UNL     1      37.399 -30.726  12.319  1.00  0.00     0.051 A 
ATOM     14  C   UNL     1      36.967 -30.574  10.998  1.00  0.00     0.157 A 
ATOM     15  C   UNL     1      39.261 -30.873  10.246  1.00  0.00     0.068 A 
ATOM     16  C   UNL     1      37.912 -30.642   9.946  1.00  0.00     0.158 A 
BRANCH  14  17
ATOM     17  O   UNL     1      35.605 -30.358  10.776  1.00  0.00    -0.504 OA
ATOM     18  H   UNL     1      35.235 -29.853   9.984  1.00  0.00     0.293 HD
ENDBRANCH  14  17
BRANCH  16  19
ATOM     19  O   UNL     1      37.560 -30.481   8.605  1.00  0.00    -0.504 OA
ATOM     20  H   UNL     1      37.999 -30.975   7.842  1.00  0.00     0.293 HD
ENDBRANCH  16  19
ENDBRANCH   1  11
BRANCH  10  21
ATOM     21  O   UNL     1      41.642 -28.892  11.732  1.00  0.00    -0.500 OA
ATOM     22  H   UNL     1      41.967 -28.116  12.297  1.00  0.00     0.294 HD
ENDBRANCH  10  21
BRANCH   5  23
ATOM     23  O   UNL     1      44.782 -35.859  13.119  1.00  0.00    -0.507 OA
ATOM     24  H   UNL     1      44.285 -36.447  13.779  1.00  0.00     0.293 HD
ENDBRANCH   5  23
BRANCH   7  25
ATOM     25  O   UNL     1      46.125 -31.251  13.047  1.00  0.00    -0.507 OA
ATOM     26  H   UNL     1      46.275 -30.454  12.446  1.00  0.00     0.293 HD
ENDBRANCH   7  25
TORSDOF 6
ENDMDL
MODEL 9
REMARK VINA RESULT:    -2.470     16.634     18.524
REMARK INTER + INTRA:          -3.307
REMARK INTER:                  -3.802
REMARK INTRA:                   0.495
REMARK UNBOUND:                -0.331
REMARK SMILES Oc1cc(O)c2cc(O)c(-c3ccc(O)c(O)c3)[o+]c2c1.[Cl-]
REMARK SMILES IDX 10 1 19 2 20 3 21 4 2 5 3 6 4 7 6 8 7 9 8 10 11 11 12 12
REMARK SMILES IDX 13 13 14 14 18 15 16 16 15 17 17 19 9 21 1 23 5 25
REMARK H PARENT 15 18 17 20 9 22 1 24 5 26
REMARK Flexibility Score: inf
ROOT
ATOM      1  C   UNL     1      25.930 -39.992   3.741  1.00  0.00     0.402 A 
ATOM      2  O   UNL     1      26.011 -38.771   3.218  1.00  0.00    -0.202 OA
ATOM      3  C   UNL     1      26.032 -38.538   1.910  1.00  0.00     0.368 A 
ATOM      4  C   UNL     1      26.114 -37.219   1.456  1.00  0.00     0.162 A 
ATOM      5  C   UNL     1      26.136 -36.946   0.085  1.00  0.00     0.128 A 
ATOM      6  C   UNL     1      26.074 -37.995  -0.835  1.00  0.00     0.093 A 
ATOM      7  C   UNL     1      25.991 -39.324  -0.405  1.00  0.00     0.136 A 
ATOM      8  C   UNL     1      25.972 -39.608   0.985  1.00  0.00     0.125 A 
ATOM      9  C   UNL     1      25.903 -40.911   1.506  1.00  0.00     0.078 A 
ATOM     10  C   UNL     1      25.893 -41.112   2.890  1.00  0.00     0.223 A 
ENDROOT
BRANCH   1  11
ATOM     11  C   UNL     1      25.904 -40.122   5.216  1.00  0.00     0.087 A 
ATOM     12  C   UNL     1      25.885 -41.398   5.796  1.00  0.00     0.022 A 
ATOM     13  C   UNL     1      25.879 -41.543   7.184  1.00  0.00     0.051 A 
ATOM     14  C   UNL     1      25.909 -40.422   8.020  1.00  0.00     0.157 A 
ATOM     15  C   UNL     1      25.957 -38.994   6.052  1.00  0.00     0.068 A 
ATOM     16  C   UNL     1      25.956 -39.129   7.446  1.00  0.00     0.158 A 
BRANCH  14  17
ATOM     17  O   UNL     1      25.894 -40.635   9.400  1.00  0.00    -0.504 OA
ATOM     18  H   UNL     1      25.758 -41.538   9.831  1.00  0.00     0.293 HD
ENDBRANCH  14  17
BRANCH  16  19
ATOM     19  O   UNL     1      26.007 -37.965   8.215  1.00  0.00    -0.504 OA
ATOM     20  H   UNL     1      25.753 -37.921   9.191  1.00  0.00     0.293 HD
ENDBRANCH  16  19
ENDBRANCH   1  11
BRANCH  10  21
ATOM     21  O   UNL     1      25.875 -42.407   3.409  1.00  0.00    -0.500 OA
ATOM     22  H   UNL     1      26.723 -42.868   3.716  1.00  0.00     0.294 HD
ENDBRANCH  10  21
BRANCH   5  23
ATOM     23  O   UNL     1      26.218 -35.633  -0.375  1.00  0.00    -0.507 OA
ATOM     24  H   UNL     1      27.108 -35.208  -0.609  1.00  0.00     0.293 HD
ENDBRANCH   5  23
BRANCH   7  25
ATOM     25  O   UNL     1      25.929 -40.316  -1.389  1.00  0.00    -0.507 OA
ATOM     26  H   UNL     1      26.209 -40.186  -2.350  1.00  0.00     0.293 HD
ENDBRANCH   7  25
TORSDOF 6
ENDMDL
