MODEL 1
REMARK VINA RESULT:    -6.998      0.000      0.000
REMARK INTER + INTRA:          -9.860
REMARK INTER:                  -9.452
REMARK INTRA:                  -0.408
REMARK UNBOUND:                -0.408
REMARK SMILES O=c1c(-c2ccc(O)cc2)coc2c([C@@H]3O[C@H](CO)[C@@H](O)[C@@H](O)[C@@H]3O)c(O)ccc12
REMARK SMILES IDX 3 1 11 2 12 3 13 4 30 5 2 6 1 7 29 8 28 9 26 10 14 11 4 12
REMARK SMILES IDX 5 13 6 14 7 15 10 16 9 17 8 18 15 20 24 21 16 22 22 23 17 24
REMARK SMILES IDX 20 25 25 26 23 28 18 30 19 31 21 33 27 35
REMARK H PARENT 8 19 25 27 23 29 19 32 21 34 27 36
REMARK Flexibility Score: inf
ROOT
ATOM      1  C   UNL     1      27.518  39.135   2.405  1.00  0.00     0.065 A 
ATOM      2  C   UNL     1      27.061  40.386   2.839  1.00  0.00     0.208 A 
ATOM      3  O   UNL     1      27.543  41.507   2.315  1.00  0.00    -0.463 OA
ATOM      4  C   UNL     1      28.478  41.524   1.367  1.00  0.00     0.147 A 
ATOM      5  C   UNL     1      28.994  40.305   0.868  1.00  0.00     0.066 A 
ATOM      6  C   UNL     1      28.500  39.099   1.397  1.00  0.00     0.200 A 
ATOM      7  O   UNL     1      28.955  37.991   0.995  1.00  0.00    -0.288 OA
ATOM      8  C   UNL     1      30.003  40.328  -0.105  1.00  0.00     0.020 A 
ATOM      9  C   UNL     1      30.512  41.543  -0.559  1.00  0.00     0.047 A 
ATOM     10  C   UNL     1      30.021  42.757  -0.060  1.00  0.00     0.125 A 
ATOM     11  C   UNL     1      28.966  42.761   0.883  1.00  0.00     0.069 A 
ENDROOT
BRANCH   1  12
ATOM     12  C   UNL     1      26.984  37.902   3.030  1.00  0.00    -0.011 A 
ATOM     13  C   UNL     1      25.909  37.210   2.445  1.00  0.00     0.013 A 
ATOM     14  C   UNL     1      25.386  36.070   3.065  1.00  0.00     0.047 A 
ATOM     15  C   UNL     1      25.935  35.602   4.264  1.00  0.00     0.115 A 
ATOM     16  C   UNL     1      27.538  37.423   4.232  1.00  0.00     0.013 A 
ATOM     17  C   UNL     1      27.023  36.271   4.837  1.00  0.00     0.047 A 
BRANCH  15  18
ATOM     18  O   UNL     1      25.391  34.476   4.877  1.00  0.00    -0.508 OA
ATOM     19  H   UNL     1      24.844  33.801   4.351  1.00  0.00     0.293 HD
ENDBRANCH  15  18
ENDBRANCH   1  12
BRANCH  11  20
ATOM     20  C   UNL     1      28.426  44.053   1.493  1.00  0.00     0.188 C 
ATOM     21  C   UNL     1      27.069  44.470   0.850  1.00  0.00     0.179 C 
ATOM     22  O   UNL     1      28.284  43.953   2.900  1.00  0.00    -0.362 OA
ATOM     23  C   UNL     1      26.239  45.350   1.817  1.00  0.00     0.177 C 
ATOM     24  C   UNL     1      28.148  45.239   3.498  1.00  0.00     0.176 C 
ATOM     25  C   UNL     1      27.162  46.180   2.726  1.00  0.00     0.177 C 
BRANCH  21  26
ATOM     26  O   UNL     1      26.306  43.362   0.436  1.00  0.00    -0.387 OA
ATOM     27  H   UNL     1      25.456  43.708   0.057  1.00  0.00     0.211 HD
ENDBRANCH  21  26
BRANCH  23  28
ATOM     28  O   UNL     1      25.389  46.188   1.076  1.00  0.00    -0.387 OA
ATOM     29  H   UNL     1      25.572  46.006   0.119  1.00  0.00     0.211 HD
ENDBRANCH  23  28
BRANCH  24  30
ATOM     30  C   UNL     1      27.674  45.041   4.949  1.00  0.00     0.191 C 
BRANCH  30  31
ATOM     31  O   UNL     1      26.899  43.878   5.071  1.00  0.00    -0.394 OA
ATOM     32  H   UNL     1      26.290  44.017   5.840  1.00  0.00     0.210 HD
ENDBRANCH  30  31
ENDBRANCH  24  30
BRANCH  25  33
ATOM     33  O   UNL     1      27.887  47.096   1.942  1.00  0.00    -0.388 OA
ATOM     34  H   UNL     1      27.401  47.959   1.988  1.00  0.00     0.211 HD
ENDBRANCH  25  33
ENDBRANCH  11  20
BRANCH  10  35
ATOM     35  O   UNL     1      30.598  43.950  -0.496  1.00  0.00    -0.507 OA
ATOM     36  H   UNL     1      31.233  43.979  -1.286  1.00  0.00     0.293 HD
ENDBRANCH  10  35
TORSDOF 9
ENDMDL
MODEL 2
REMARK VINA RESULT:    -6.847      7.316     10.118
REMARK INTER + INTRA:          -9.657
REMARK INTER:                  -8.615
REMARK INTRA:                  -1.042
REMARK UNBOUND:                -0.408
REMARK SMILES O=c1c(-c2ccc(O)cc2)coc2c([C@@H]3O[C@H](CO)[C@@H](O)[C@@H](O)[C@@H]3O)c(O)ccc12
REMARK SMILES IDX 3 1 11 2 12 3 13 4 30 5 2 6 1 7 29 8 28 9 26 10 14 11 4 12
REMARK SMILES IDX 5 13 6 14 7 15 10 16 9 17 8 18 15 20 24 21 16 22 22 23 17 24
REMARK SMILES IDX 20 25 25 26 23 28 18 30 19 31 21 33 27 35
REMARK H PARENT 8 19 25 27 23 29 19 32 21 34 27 36
REMARK Flexibility Score: inf
ROOT
ATOM      1  C   UNL     1      27.720  41.702  10.012  1.00  0.00     0.065 A 
ATOM      2  C   UNL     1      26.796  41.797  11.061  1.00  0.00     0.208 A 
ATOM      3  O   UNL     1      25.858  42.737  11.060  1.00  0.00    -0.463 OA
ATOM      4  C   UNL     1      25.735  43.641  10.090  1.00  0.00     0.147 A 
ATOM      5  C   UNL     1      26.626  43.616   8.990  1.00  0.00     0.066 A 
ATOM      6  C   UNL     1      27.627  42.628   8.957  1.00  0.00     0.200 A 
ATOM      7  O   UNL     1      28.456  42.590   8.005  1.00  0.00    -0.288 OA
ATOM      8  C   UNL     1      26.514  44.591   7.989  1.00  0.00     0.020 A 
ATOM      9  C   UNL     1      25.550  45.591   8.088  1.00  0.00     0.047 A 
ATOM     10  C   UNL     1      24.673  45.635   9.180  1.00  0.00     0.125 A 
ATOM     11  C   UNL     1      24.731  44.633  10.177  1.00  0.00     0.069 A 
ENDROOT
BRANCH   1  12
ATOM     12  C   UNL     1      28.776  40.662  10.057  1.00  0.00    -0.011 A 
ATOM     13  C   UNL     1      30.050  40.956  10.573  1.00  0.00     0.013 A 
ATOM     14  C   UNL     1      31.052  39.979  10.573  1.00  0.00     0.047 A 
ATOM     15  C   UNL     1      30.791  38.699  10.072  1.00  0.00     0.115 A 
ATOM     16  C   UNL     1      28.516  39.371   9.561  1.00  0.00     0.013 A 
ATOM     17  C   UNL     1      29.516  38.391   9.582  1.00  0.00     0.047 A 
BRANCH  15  18
ATOM     18  O   UNL     1      31.804  37.744  10.064  1.00  0.00    -0.508 OA
ATOM     19  H   UNL     1      32.611  37.834   9.454  1.00  0.00     0.293 HD
ENDBRANCH  15  18
ENDBRANCH   1  12
BRANCH  11  20
ATOM     20  C   UNL     1      23.831  44.661  11.410  1.00  0.00     0.188 C 
ATOM     21  C   UNL     1      24.427  45.557  12.538  1.00  0.00     0.179 C 
ATOM     22  O   UNL     1      22.517  45.090  11.096  1.00  0.00    -0.362 OA
ATOM     23  C   UNL     1      23.316  46.084  13.479  1.00  0.00     0.177 C 
ATOM     24  C   UNL     1      21.603  44.762  12.138  1.00  0.00     0.176 C 
ATOM     25  C   UNL     1      22.155  45.078  13.569  1.00  0.00     0.177 C 
BRANCH  21  26
ATOM     26  O   UNL     1      25.177  46.634  12.030  1.00  0.00    -0.387 OA
ATOM     27  H   UNL     1      26.075  46.599  12.453  1.00  0.00     0.211 HD
ENDBRANCH  21  26
BRANCH  23  28
ATOM     28  O   UNL     1      23.857  46.332  14.752  1.00  0.00    -0.387 OA
ATOM     29  H   UNL     1      24.245  45.477  15.068  1.00  0.00     0.211 HD
ENDBRANCH  23  28
BRANCH  24  30
ATOM     30  C   UNL     1      20.295  45.534  11.886  1.00  0.00     0.191 C 
BRANCH  30  31
ATOM     31  O   UNL     1      20.413  46.366  10.763  1.00  0.00    -0.394 OA
ATOM     32  H   UNL     1      20.404  45.777   9.966  1.00  0.00     0.210 HD
ENDBRANCH  30  31
ENDBRANCH  24  30
BRANCH  25  33
ATOM     33  O   UNL     1      22.610  43.896  14.181  1.00  0.00    -0.388 OA
ATOM     34  H   UNL     1      23.601  43.910  14.128  1.00  0.00     0.211 HD
ENDBRANCH  25  33
ENDBRANCH  11  20
BRANCH  10  35
ATOM     35  O   UNL     1      23.761  46.688   9.273  1.00  0.00    -0.507 OA
ATOM     36  H   UNL     1      24.047  47.654   9.155  1.00  0.00     0.293 HD
ENDBRANCH  10  35
TORSDOF 9
ENDMDL
MODEL 3
REMARK VINA RESULT:    -6.786      2.052      3.691
REMARK INTER + INTRA:          -9.575
REMARK INTER:                  -8.736
REMARK INTRA:                  -0.839
REMARK UNBOUND:                -0.408
REMARK SMILES O=c1c(-c2ccc(O)cc2)coc2c([C@@H]3O[C@H](CO)[C@@H](O)[C@@H](O)[C@@H]3O)c(O)ccc12
REMARK SMILES IDX 3 1 11 2 12 3 13 4 30 5 2 6 1 7 29 8 28 9 26 10 14 11 4 12
REMARK SMILES IDX 5 13 6 14 7 15 10 16 9 17 8 18 15 20 24 21 16 22 22 23 17 24
REMARK SMILES IDX 20 25 25 26 23 28 18 30 19 31 21 33 27 35
REMARK H PARENT 8 19 25 27 23 29 19 32 21 34 27 36
REMARK Flexibility Score: inf
ROOT
ATOM      1  C   UNL     1      27.282  39.490   4.182  1.00  0.00     0.065 A 
ATOM      2  C   UNL     1      27.303  40.128   2.935  1.00  0.00     0.208 A 
ATOM      3  O   UNL     1      27.752  41.371   2.814  1.00  0.00    -0.463 OA
ATOM      4  C   UNL     1      28.197  42.088   3.844  1.00  0.00     0.147 A 
ATOM      5  C   UNL     1      28.214  41.519   5.139  1.00  0.00     0.066 A 
ATOM      6  C   UNL     1      27.752  40.201   5.301  1.00  0.00     0.200 A 
ATOM      7  O   UNL     1      27.726  39.669   6.447  1.00  0.00    -0.288 OA
ATOM      8  C   UNL     1      28.651  42.290   6.226  1.00  0.00     0.020 A 
ATOM      9  C   UNL     1      29.043  43.613   6.036  1.00  0.00     0.047 A 
ATOM     10  C   UNL     1      29.015  44.192   4.761  1.00  0.00     0.125 A 
ATOM     11  C   UNL     1      28.628  43.420   3.639  1.00  0.00     0.069 A 
ENDROOT
BRANCH   1  12
ATOM     12  C   UNL     1      26.745  38.112   4.291  1.00  0.00    -0.011 A 
ATOM     13  C   UNL     1      27.571  37.052   4.707  1.00  0.00     0.013 A 
ATOM     14  C   UNL     1      27.067  35.749   4.768  1.00  0.00     0.047 A 
ATOM     15  C   UNL     1      25.734  35.491   4.428  1.00  0.00     0.115 A 
ATOM     16  C   UNL     1      25.404  37.848   3.958  1.00  0.00     0.013 A 
ATOM     17  C   UNL     1      24.899  36.545   4.040  1.00  0.00     0.047 A 
BRANCH  15  18
ATOM     18  O   UNL     1      25.252  34.185   4.478  1.00  0.00    -0.508 OA
ATOM     19  H   UNL     1      25.430  33.586   5.278  1.00  0.00     0.293 HD
ENDBRANCH  15  18
ENDBRANCH   1  12
BRANCH  11  20
ATOM     20  C   UNL     1      28.536  44.014   2.236  1.00  0.00     0.188 C 
ATOM     21  C   UNL     1      27.141  44.660   1.974  1.00  0.00     0.179 C 
ATOM     22  O   UNL     1      29.561  44.965   1.996  1.00  0.00    -0.362 OA
ATOM     23  C   UNL     1      27.228  45.755   0.883  1.00  0.00     0.177 C 
ATOM     24  C   UNL     1      29.704  45.231   0.604  1.00  0.00     0.176 C 
ATOM     25  C   UNL     1      28.336  45.426  -0.133  1.00  0.00     0.177 C 
BRANCH  21  26
ATOM     26  O   UNL     1      26.566  45.192   3.144  1.00  0.00    -0.387 OA
ATOM     27  H   UNL     1      26.295  44.429   3.718  1.00  0.00     0.211 HD
ENDBRANCH  21  26
BRANCH  23  28
ATOM     28  O   UNL     1      25.985  45.876   0.239  1.00  0.00    -0.387 OA
ATOM     29  H   UNL     1      25.895  46.826  -0.030  1.00  0.00     0.211 HD
ENDBRANCH  23  28
BRANCH  24  30
ATOM     30  C   UNL     1      30.581  46.486   0.447  1.00  0.00     0.191 C 
BRANCH  30  31
ATOM     31  O   UNL     1      30.102  47.307  -0.585  1.00  0.00    -0.394 OA
ATOM     32  H   UNL     1      30.016  48.220  -0.209  1.00  0.00     0.210 HD
ENDBRANCH  30  31
ENDBRANCH  24  30
BRANCH  25  33
ATOM     33  O   UNL     1      27.994  44.252  -0.830  1.00  0.00    -0.388 OA
ATOM     34  H   UNL     1      27.434  43.709  -0.218  1.00  0.00     0.211 HD
ENDBRANCH  25  33
ENDBRANCH  11  20
BRANCH  10  35
ATOM     35  O   UNL     1      29.358  45.537   4.621  1.00  0.00    -0.507 OA
ATOM     36  H   UNL     1      28.665  46.244   4.398  1.00  0.00     0.293 HD
ENDBRANCH  10  35
TORSDOF 9
ENDMDL
MODEL 4
REMARK VINA RESULT:    -6.734      1.969      3.813
REMARK INTER + INTRA:          -9.505
REMARK INTER:                  -8.551
REMARK INTRA:                  -0.954
REMARK UNBOUND:                -0.408
REMARK SMILES O=c1c(-c2ccc(O)cc2)coc2c([C@@H]3O[C@H](CO)[C@@H](O)[C@@H](O)[C@@H]3O)c(O)ccc12
REMARK SMILES IDX 3 1 11 2 12 3 13 4 30 5 2 6 1 7 29 8 28 9 26 10 14 11 4 12
REMARK SMILES IDX 5 13 6 14 7 15 10 16 9 17 8 18 15 20 24 21 16 22 22 23 17 24
REMARK SMILES IDX 20 25 25 26 23 28 18 30 19 31 21 33 27 35
REMARK H PARENT 8 19 25 27 23 29 19 32 21 34 27 36
REMARK Flexibility Score: inf
ROOT
ATOM      1  C   UNL     1      26.324  37.852   3.282  1.00  0.00     0.065 A 
ATOM      2  C   UNL     1      27.381  38.329   2.495  1.00  0.00     0.208 A 
ATOM      3  O   UNL     1      27.578  39.632   2.336  1.00  0.00    -0.463 OA
ATOM      4  C   UNL     1      26.801  40.559   2.893  1.00  0.00     0.147 A 
ATOM      5  C   UNL     1      25.712  40.166   3.705  1.00  0.00     0.066 A 
ATOM      6  C   UNL     1      25.479  38.792   3.901  1.00  0.00     0.200 A 
ATOM      7  O   UNL     1      24.501  38.402   4.598  1.00  0.00    -0.288 OA
ATOM      8  C   UNL     1      24.875  41.144   4.261  1.00  0.00     0.020 A 
ATOM      9  C   UNL     1      25.100  42.493   3.995  1.00  0.00     0.047 A 
ATOM     10  C   UNL     1      26.166  42.894   3.178  1.00  0.00     0.125 A 
ATOM     11  C   UNL     1      27.055  41.929   2.648  1.00  0.00     0.069 A 
ENDROOT
BRANCH   1  12
ATOM     12  C   UNL     1      26.110  36.391   3.415  1.00  0.00    -0.011 A 
ATOM     13  C   UNL     1      25.401  35.679   2.432  1.00  0.00     0.013 A 
ATOM     14  C   UNL     1      25.169  34.308   2.587  1.00  0.00     0.047 A 
ATOM     15  C   UNL     1      25.651  33.632   3.714  1.00  0.00     0.115 A 
ATOM     16  C   UNL     1      26.599  35.706   4.543  1.00  0.00     0.013 A 
ATOM     17  C   UNL     1      26.381  34.331   4.683  1.00  0.00     0.047 A 
BRANCH  15  18
ATOM     18  O   UNL     1      25.396  32.271   3.861  1.00  0.00    -0.508 OA
ATOM     19  H   UNL     1      26.021  31.671   4.391  1.00  0.00     0.293 HD
ENDBRANCH  15  18
ENDBRANCH   1  12
BRANCH  11  20
ATOM     20  C   UNL     1      28.203  42.308   1.715  1.00  0.00     0.188 C 
ATOM     21  C   UNL     1      27.701  42.578   0.264  1.00  0.00     0.179 C 
ATOM     22  O   UNL     1      28.925  43.431   2.194  1.00  0.00    -0.362 OA
ATOM     23  C   UNL     1      28.667  43.520  -0.495  1.00  0.00     0.177 C 
ATOM     24  C   UNL     1      30.188  43.548   1.546  1.00  0.00     0.176 C 
ATOM     25  C   UNL     1      30.113  43.330  -0.003  1.00  0.00     0.177 C 
BRANCH  21  26
ATOM     26  O   UNL     1      26.396  43.105   0.235  1.00  0.00    -0.387 OA
ATOM     27  H   UNL     1      25.871  42.642   0.939  1.00  0.00     0.211 HD
ENDBRANCH  21  26
BRANCH  23  28
ATOM     28  O   UNL     1      28.578  43.271  -1.875  1.00  0.00    -0.387 OA
ATOM     29  H   UNL     1      29.479  43.439  -2.254  1.00  0.00     0.211 HD
ENDBRANCH  23  28
BRANCH  24  30
ATOM     30  C   UNL     1      30.759  44.941   1.865  1.00  0.00     0.191 C 
BRANCH  30  31
ATOM     31  O   UNL     1      29.729  45.872   2.064  1.00  0.00    -0.394 OA
ATOM     32  H   UNL     1      28.917  45.499   1.635  1.00  0.00     0.210 HD
ENDBRANCH  30  31
ENDBRANCH  24  30
BRANCH  25  33
ATOM     33  O   UNL     1      30.549  42.032  -0.328  1.00  0.00    -0.388 OA
ATOM     34  H   UNL     1      31.421  42.132  -0.790  1.00  0.00     0.211 HD
ENDBRANCH  25  33
ENDBRANCH  11  20
BRANCH  10  35
ATOM     35  O   UNL     1      26.321  44.249   2.886  1.00  0.00    -0.507 OA
ATOM     36  H   UNL     1      25.677  44.741   2.276  1.00  0.00     0.293 HD
ENDBRANCH  10  35
TORSDOF 9
ENDMDL
MODEL 5
REMARK VINA RESULT:    -6.636      1.012      2.075
REMARK INTER + INTRA:          -9.372
REMARK INTER:                  -9.066
REMARK INTRA:                  -0.306
REMARK UNBOUND:                -0.408
REMARK SMILES O=c1c(-c2ccc(O)cc2)coc2c([C@@H]3O[C@H](CO)[C@@H](O)[C@@H](O)[C@@H]3O)c(O)ccc12
REMARK SMILES IDX 3 1 11 2 12 3 13 4 30 5 2 6 1 7 29 8 28 9 26 10 14 11 4 12
REMARK SMILES IDX 5 13 6 14 7 15 10 16 9 17 8 18 15 20 24 21 16 22 22 23 17 24
REMARK SMILES IDX 20 25 25 26 23 28 18 30 19 31 21 33 27 35
REMARK H PARENT 8 19 25 27 23 29 19 32 21 34 27 36
REMARK Flexibility Score: inf
ROOT
ATOM      1  C   UNL     1      27.320  39.012   2.264  1.00  0.00     0.065 A 
ATOM      2  C   UNL     1      26.679  40.219   2.569  1.00  0.00     0.208 A 
ATOM      3  O   UNL     1      27.097  41.365   2.045  1.00  0.00    -0.463 OA
ATOM      4  C   UNL     1      28.137  41.450   1.217  1.00  0.00     0.147 A 
ATOM      5  C   UNL     1      28.841  40.278   0.853  1.00  0.00     0.066 A 
ATOM      6  C   UNL     1      28.419  39.046   1.385  1.00  0.00     0.200 A 
ATOM      7  O   UNL     1      29.039  37.982   1.103  1.00  0.00    -0.288 OA
ATOM      8  C   UNL     1      29.956  40.377   0.008  1.00  0.00     0.020 A 
ATOM      9  C   UNL     1      30.382  41.622  -0.449  1.00  0.00     0.047 A 
ATOM     10  C   UNL     1      29.703  42.790  -0.081  1.00  0.00     0.125 A 
ATOM     11  C   UNL     1      28.544  42.713   0.727  1.00  0.00     0.069 A 
ENDROOT
BRANCH   1  12
ATOM     12  C   UNL     1      26.850  37.753   2.889  1.00  0.00    -0.011 A 
ATOM     13  C   UNL     1      25.880  36.957   2.253  1.00  0.00     0.013 A 
ATOM     14  C   UNL     1      25.412  35.792   2.870  1.00  0.00     0.047 A 
ATOM     15  C   UNL     1      25.914  35.402   4.117  1.00  0.00     0.115 A 
ATOM     16  C   UNL     1      27.356  37.352   4.139  1.00  0.00     0.013 A 
ATOM     17  C   UNL     1      26.899  36.175   4.742  1.00  0.00     0.047 A 
BRANCH  15  18
ATOM     18  O   UNL     1      25.425  34.248   4.725  1.00  0.00    -0.508 OA
ATOM     19  H   UNL     1      24.607  33.767   4.365  1.00  0.00     0.293 HD
ENDBRANCH  15  18
ENDBRANCH   1  12
BRANCH  11  20
ATOM     20  C   UNL     1      27.794  43.959   1.194  1.00  0.00     0.188 C 
ATOM     21  C   UNL     1      27.782  44.074   2.749  1.00  0.00     0.179 C 
ATOM     22  O   UNL     1      28.330  45.142   0.626  1.00  0.00    -0.362 OA
ATOM     23  C   UNL     1      27.606  45.545   3.199  1.00  0.00     0.177 C 
ATOM     24  C   UNL     1      27.423  46.233   0.754  1.00  0.00     0.176 C 
ATOM     25  C   UNL     1      26.770  46.332   2.174  1.00  0.00     0.177 C 
BRANCH  21  26
ATOM     26  O   UNL     1      28.937  43.527   3.339  1.00  0.00    -0.387 OA
ATOM     27  H   UNL     1      28.915  43.752   4.306  1.00  0.00     0.211 HD
ENDBRANCH  21  26
BRANCH  23  28
ATOM     28  O   UNL     1      26.998  45.580   4.465  1.00  0.00    -0.387 OA
ATOM     29  H   UNL     1      27.712  45.397   5.129  1.00  0.00     0.211 HD
ENDBRANCH  23  28
BRANCH  24  30
ATOM     30  C   UNL     1      28.187  47.528   0.425  1.00  0.00     0.191 C 
BRANCH  30  31
ATOM     31  O   UNL     1      27.683  48.610   1.162  1.00  0.00    -0.394 OA
ATOM     32  H   UNL     1      26.889  48.946   0.674  1.00  0.00     0.210 HD
ENDBRANCH  30  31
ENDBRANCH  24  30
BRANCH  25  33
ATOM     33  O   UNL     1      25.463  45.810   2.140  1.00  0.00    -0.388 OA
ATOM     34  H   UNL     1      25.493  45.004   1.562  1.00  0.00     0.211 HD
ENDBRANCH  25  33
ENDBRANCH  11  20
BRANCH  10  35
ATOM     35  O   UNL     1      30.196  44.023  -0.510  1.00  0.00    -0.507 OA
ATOM     36  H   UNL     1      31.191  44.193  -0.614  1.00  0.00     0.293 HD
ENDBRANCH  10  35
TORSDOF 9
ENDMDL
MODEL 6
REMARK VINA RESULT:    -6.470      6.815     10.320
REMARK INTER + INTRA:          -9.148
REMARK INTER:                  -8.378
REMARK INTRA:                  -0.770
REMARK UNBOUND:                -0.408
REMARK SMILES O=c1c(-c2ccc(O)cc2)coc2c([C@@H]3O[C@H](CO)[C@@H](O)[C@@H](O)[C@@H]3O)c(O)ccc12
REMARK SMILES IDX 3 1 11 2 12 3 13 4 30 5 2 6 1 7 29 8 28 9 26 10 14 11 4 12
REMARK SMILES IDX 5 13 6 14 7 15 10 16 9 17 8 18 15 20 24 21 16 22 22 23 17 24
REMARK SMILES IDX 20 25 25 26 23 28 18 30 19 31 21 33 27 35
REMARK H PARENT 8 19 25 27 23 29 19 32 21 34 27 36
REMARK Flexibility Score: inf
ROOT
ATOM      1  C   UNL     1      23.800  44.688  10.181  1.00  0.00     0.065 A 
ATOM      2  C   UNL     1      24.386  43.499  10.635  1.00  0.00     0.208 A 
ATOM      3  O   UNL     1      25.630  43.180  10.297  1.00  0.00    -0.463 OA
ATOM      4  C   UNL     1      26.390  43.943   9.514  1.00  0.00     0.147 A 
ATOM      5  C   UNL     1      25.878  45.163   9.013  1.00  0.00     0.066 A 
ATOM      6  C   UNL     1      24.566  45.535   9.359  1.00  0.00     0.200 A 
ATOM      7  O   UNL     1      24.065  46.604   8.909  1.00  0.00    -0.288 OA
ATOM      8  C   UNL     1      26.669  45.947   8.161  1.00  0.00     0.020 A 
ATOM      9  C   UNL     1      27.941  45.515   7.791  1.00  0.00     0.047 A 
ATOM     10  C   UNL     1      28.452  44.301   8.268  1.00  0.00     0.125 A 
ATOM     11  C   UNL     1      27.695  43.517   9.171  1.00  0.00     0.069 A 
ENDROOT
BRANCH   1  12
ATOM     12  C   UNL     1      22.399  45.003  10.550  1.00  0.00    -0.011 A 
ATOM     13  C   UNL     1      21.440  45.269   9.557  1.00  0.00     0.013 A 
ATOM     14  C   UNL     1      20.131  45.605   9.916  1.00  0.00     0.047 A 
ATOM     15  C   UNL     1      19.761  45.666  11.264  1.00  0.00     0.115 A 
ATOM     16  C   UNL     1      22.020  45.058  11.904  1.00  0.00     0.013 A 
ATOM     17  C   UNL     1      20.704  45.375  12.257  1.00  0.00     0.047 A 
BRANCH  15  18
ATOM     18  O   UNL     1      18.457  46.019  11.605  1.00  0.00    -0.508 OA
ATOM     19  H   UNL     1      17.672  45.785  11.005  1.00  0.00     0.293 HD
ENDBRANCH  15  18
ENDBRANCH   1  12
BRANCH  11  20
ATOM     20  C   UNL     1      28.185  42.165   9.683  1.00  0.00     0.188 C 
ATOM     21  C   UNL     1      27.841  41.014   8.690  1.00  0.00     0.179 C 
ATOM     22  O   UNL     1      29.577  42.175   9.949  1.00  0.00    -0.362 OA
ATOM     23  C   UNL     1      28.816  39.822   8.857  1.00  0.00     0.177 C 
ATOM     24  C   UNL     1      29.955  41.068  10.763  1.00  0.00     0.176 C 
ATOM     25  C   UNL     1      29.304  39.717  10.313  1.00  0.00     0.177 C 
BRANCH  21  26
ATOM     26  O   UNL     1      27.833  41.443   7.350  1.00  0.00    -0.387 OA
ATOM     27  H   UNL     1      27.843  40.633   6.776  1.00  0.00     0.211 HD
ENDBRANCH  21  26
BRANCH  23  28
ATOM     28  O   UNL     1      28.178  38.635   8.461  1.00  0.00    -0.387 OA
ATOM     29  H   UNL     1      28.507  37.920   9.064  1.00  0.00     0.211 HD
ENDBRANCH  23  28
BRANCH  24  30
ATOM     30  C   UNL     1      31.490  40.958  10.734  1.00  0.00     0.191 C 
BRANCH  30  31
ATOM     31  O   UNL     1      31.998  41.338   9.482  1.00  0.00    -0.394 OA
ATOM     32  H   UNL     1      31.574  42.204   9.251  1.00  0.00     0.210 HD
ENDBRANCH  30  31
ENDBRANCH  24  30
BRANCH  25  33
ATOM     33  O   UNL     1      28.214  39.407  11.147  1.00  0.00    -0.388 OA
ATOM     34  H   UNL     1      27.466  39.996  10.870  1.00  0.00     0.211 HD
ENDBRANCH  25  33
ENDBRANCH  11  20
BRANCH  10  35
ATOM     35  O   UNL     1      29.705  43.875   7.827  1.00  0.00    -0.507 OA
ATOM     36  H   UNL     1      29.921  43.784   6.840  1.00  0.00     0.293 HD
ENDBRANCH  10  35
TORSDOF 9
ENDMDL
MODEL 7
REMARK VINA RESULT:    -6.456      1.825      3.880
REMARK INTER + INTRA:          -9.129
REMARK INTER:                  -8.097
REMARK INTRA:                  -1.032
REMARK UNBOUND:                -0.408
REMARK SMILES O=c1c(-c2ccc(O)cc2)coc2c([C@@H]3O[C@H](CO)[C@@H](O)[C@@H](O)[C@@H]3O)c(O)ccc12
REMARK SMILES IDX 3 1 11 2 12 3 13 4 30 5 2 6 1 7 29 8 28 9 26 10 14 11 4 12
REMARK SMILES IDX 5 13 6 14 7 15 10 16 9 17 8 18 15 20 24 21 16 22 22 23 17 24
REMARK SMILES IDX 20 25 25 26 23 28 18 30 19 31 21 33 27 35
REMARK H PARENT 8 19 25 27 23 29 19 32 21 34 27 36
REMARK Flexibility Score: inf
ROOT
ATOM      1  C   UNL     1      26.756  38.566   2.867  1.00  0.00     0.065 A 
ATOM      2  C   UNL     1      27.922  38.803   2.128  1.00  0.00     0.208 A 
ATOM      3  O   UNL     1      28.305  40.041   1.839  1.00  0.00    -0.463 OA
ATOM      4  C   UNL     1      27.622  41.121   2.214  1.00  0.00     0.147 A 
ATOM      5  C   UNL     1      26.433  40.972   2.966  1.00  0.00     0.066 A 
ATOM      6  C   UNL     1      26.003  39.674   3.297  1.00  0.00     0.200 A 
ATOM      7  O   UNL     1      24.933  39.501   3.945  1.00  0.00    -0.288 OA
ATOM      8  C   UNL     1      25.699  42.110   3.330  1.00  0.00     0.020 A 
ATOM      9  C   UNL     1      26.123  43.376   2.931  1.00  0.00     0.047 A 
ATOM     10  C   UNL     1      27.289  43.534   2.172  1.00  0.00     0.125 A 
ATOM     11  C   UNL     1      28.077  42.407   1.837  1.00  0.00     0.069 A 
ENDROOT
BRANCH   1  12
ATOM     12  C   UNL     1      26.337  37.171   3.148  1.00  0.00    -0.011 A 
ATOM     13  C   UNL     1      25.565  36.454   2.217  1.00  0.00     0.013 A 
ATOM     14  C   UNL     1      25.140  35.154   2.509  1.00  0.00     0.047 A 
ATOM     15  C   UNL     1      25.490  34.551   3.722  1.00  0.00     0.115 A 
ATOM     16  C   UNL     1      26.693  36.558   4.363  1.00  0.00     0.013 A 
ATOM     17  C   UNL     1      26.282  35.250   4.642  1.00  0.00     0.047 A 
BRANCH  15  18
ATOM     18  O   UNL     1      25.045  33.262   4.004  1.00  0.00    -0.508 OA
ATOM     19  H   UNL     1      25.028  32.541   3.290  1.00  0.00     0.293 HD
ENDBRANCH  15  18
ENDBRANCH   1  12
BRANCH  11  20
ATOM     20  C   UNL     1      29.330  42.518   0.973  1.00  0.00     0.188 C 
ATOM     21  C   UNL     1      28.981  42.571  -0.545  1.00  0.00     0.179 C 
ATOM     22  O   UNL     1      30.118  43.642   1.327  1.00  0.00    -0.362 OA
ATOM     23  C   UNL     1      30.096  43.281  -1.352  1.00  0.00     0.177 C 
ATOM     24  C   UNL     1      31.436  43.538   0.798  1.00  0.00     0.176 C 
ATOM     25  C   UNL     1      31.469  43.059  -0.693  1.00  0.00     0.177 C 
BRANCH  21  26
ATOM     26  O   UNL     1      27.742  43.192  -0.791  1.00  0.00    -0.387 OA
ATOM     27  H   UNL     1      27.066  42.751  -0.213  1.00  0.00     0.211 HD
ENDBRANCH  21  26
BRANCH  23  28
ATOM     28  O   UNL     1      30.097  42.803  -2.673  1.00  0.00    -0.387 OA
ATOM     29  H   UNL     1      29.160  42.562  -2.890  1.00  0.00     0.211 HD
ENDBRANCH  23  28
BRANCH  24  30
ATOM     30  C   UNL     1      32.115  44.912   0.935  1.00  0.00     0.191 C 
BRANCH  30  31
ATOM     31  O   UNL     1      31.163  45.928   1.105  1.00  0.00    -0.394 OA
ATOM     32  H   UNL     1      31.546  46.751   0.707  1.00  0.00     0.210 HD
ENDBRANCH  30  31
ENDBRANCH  24  30
BRANCH  25  33
ATOM     33  O   UNL     1      31.799  41.693  -0.753  1.00  0.00    -0.388 OA
ATOM     34  H   UNL     1      32.349  41.567  -1.569  1.00  0.00     0.211 HD
ENDBRANCH  25  33
ENDBRANCH  11  20
BRANCH  10  35
ATOM     35  O   UNL     1      27.648  44.812   1.741  1.00  0.00    -0.507 OA
ATOM     36  H   UNL     1      27.597  45.080   0.764  1.00  0.00     0.293 HD
ENDBRANCH  10  35
TORSDOF 9
ENDMDL
MODEL 8
REMARK VINA RESULT:    -6.427      2.026      4.911
REMARK INTER + INTRA:          -9.090
REMARK INTER:                  -9.086
REMARK INTRA:                  -0.004
REMARK UNBOUND:                -0.408
REMARK SMILES O=c1c(-c2ccc(O)cc2)coc2c([C@@H]3O[C@H](CO)[C@@H](O)[C@@H](O)[C@@H]3O)c(O)ccc12
REMARK SMILES IDX 3 1 11 2 12 3 13 4 30 5 2 6 1 7 29 8 28 9 26 10 14 11 4 12
REMARK SMILES IDX 5 13 6 14 7 15 10 16 9 17 8 18 15 20 24 21 16 22 22 23 17 24
REMARK SMILES IDX 20 25 25 26 23 28 18 30 19 31 21 33 27 35
REMARK H PARENT 8 19 25 27 23 29 19 32 21 34 27 36
REMARK Flexibility Score: inf
ROOT
ATOM      1  C   UNL     1      26.519  38.277   3.431  1.00  0.00     0.065 A 
ATOM      2  C   UNL     1      27.700  38.335   2.680  1.00  0.00     0.208 A 
ATOM      3  O   UNL     1      28.149  39.491   2.205  1.00  0.00    -0.463 OA
ATOM      4  C   UNL     1      27.520  40.649   2.395  1.00  0.00     0.147 A 
ATOM      5  C   UNL     1      26.321  40.682   3.144  1.00  0.00     0.066 A 
ATOM      6  C   UNL     1      25.822  39.476   3.669  1.00  0.00     0.200 A 
ATOM      7  O   UNL     1      24.740  39.461   4.320  1.00  0.00    -0.288 OA
ATOM      8  C   UNL     1      25.644  41.898   3.312  1.00  0.00     0.020 A 
ATOM      9  C   UNL     1      26.136  43.062   2.725  1.00  0.00     0.047 A 
ATOM     10  C   UNL     1      27.314  43.039   1.967  1.00  0.00     0.125 A 
ATOM     11  C   UNL     1      28.044  41.834   1.826  1.00  0.00     0.069 A 
ENDROOT
BRANCH   1  12
ATOM     12  C   UNL     1      26.026  36.967   3.922  1.00  0.00    -0.011 A 
ATOM     13  C   UNL     1      26.862  36.124   4.675  1.00  0.00     0.013 A 
ATOM     14  C   UNL     1      26.402  34.874   5.099  1.00  0.00     0.047 A 
ATOM     15  C   UNL     1      25.103  34.456   4.789  1.00  0.00     0.115 A 
ATOM     16  C   UNL     1      24.718  36.546   3.619  1.00  0.00     0.013 A 
ATOM     17  C   UNL     1      24.256  35.302   4.063  1.00  0.00     0.047 A 
BRANCH  15  18
ATOM     18  O   UNL     1      24.666  33.201   5.204  1.00  0.00    -0.508 OA
ATOM     19  H   UNL     1      23.678  32.970   5.241  1.00  0.00     0.293 HD
ENDBRANCH  15  18
ENDBRANCH   1  12
BRANCH  11  20
ATOM     20  C   UNL     1      29.307  41.744   0.974  1.00  0.00     0.188 C 
ATOM     21  C   UNL     1      30.597  41.834   1.844  1.00  0.00     0.179 C 
ATOM     22  O   UNL     1      29.333  40.561   0.192  1.00  0.00    -0.362 OA
ATOM     23  C   UNL     1      31.795  41.149   1.141  1.00  0.00     0.177 C 
ATOM     24  C   UNL     1      30.294  40.655  -0.855  1.00  0.00     0.176 C 
ATOM     25  C   UNL     1      31.663  41.256  -0.388  1.00  0.00     0.177 C 
BRANCH  21  26
ATOM     26  O   UNL     1      30.419  41.289   3.129  1.00  0.00    -0.387 OA
ATOM     27  H   UNL     1      30.687  40.333   3.089  1.00  0.00     0.211 HD
ENDBRANCH  21  26
BRANCH  23  28
ATOM     28  O   UNL     1      32.994  41.736   1.577  1.00  0.00    -0.387 OA
ATOM     29  H   UNL     1      32.985  41.701   2.568  1.00  0.00     0.211 HD
ENDBRANCH  23  28
BRANCH  24  30
ATOM     30  C   UNL     1      30.499  39.246  -1.441  1.00  0.00     0.191 C 
BRANCH  30  31
ATOM     31  O   UNL     1      30.594  39.293  -2.840  1.00  0.00    -0.394 OA
ATOM     32  H   UNL     1      30.060  40.072  -3.138  1.00  0.00     0.210 HD
ENDBRANCH  30  31
ENDBRANCH  24  30
BRANCH  25  33
ATOM     33  O   UNL     1      31.750  42.607  -0.770  1.00  0.00    -0.388 OA
ATOM     34  H   UNL     1      31.199  43.122  -0.125  1.00  0.00     0.211 HD
ENDBRANCH  25  33
ENDBRANCH  11  20
BRANCH  10  35
ATOM     35  O   UNL     1      27.742  44.212   1.345  1.00  0.00    -0.507 OA
ATOM     36  H   UNL     1      27.090  44.940   1.073  1.00  0.00     0.293 HD
ENDBRANCH  10  35
TORSDOF 9
ENDMDL
MODEL 9
REMARK VINA RESULT:    -6.345      5.367      7.869
REMARK INTER + INTRA:          -8.979
REMARK INTER:                  -7.991
REMARK INTRA:                  -0.987
REMARK UNBOUND:                -0.408
REMARK SMILES O=c1c(-c2ccc(O)cc2)coc2c([C@@H]3O[C@H](CO)[C@@H](O)[C@@H](O)[C@@H]3O)c(O)ccc12
REMARK SMILES IDX 3 1 11 2 12 3 13 4 30 5 2 6 1 7 29 8 28 9 26 10 14 11 4 12
REMARK SMILES IDX 5 13 6 14 7 15 10 16 9 17 8 18 15 20 24 21 16 22 22 23 17 24
REMARK SMILES IDX 20 25 25 26 23 28 18 30 19 31 21 33 27 35
REMARK H PARENT 8 19 25 27 23 29 19 32 21 34 27 36
REMARK Flexibility Score: inf
ROOT
ATOM      1  C   UNL     1      28.704  40.085   9.767  1.00  0.00     0.065 A 
ATOM      2  C   UNL     1      28.786  39.265   8.634  1.00  0.00     0.208 A 
ATOM      3  O   UNL     1      28.362  39.694   7.450  1.00  0.00    -0.463 OA
ATOM      4  C   UNL     1      27.833  40.901   7.260  1.00  0.00     0.147 A 
ATOM      5  C   UNL     1      27.715  41.795   8.351  1.00  0.00     0.066 A 
ATOM      6  C   UNL     1      28.162  41.375   9.617  1.00  0.00     0.200 A 
ATOM      7  O   UNL     1      28.049  42.136  10.619  1.00  0.00    -0.288 OA
ATOM      8  C   UNL     1      27.126  43.052   8.153  1.00  0.00     0.020 A 
ATOM      9  C   UNL     1      26.639  43.409   6.897  1.00  0.00     0.047 A 
ATOM     10  C   UNL     1      26.735  42.526   5.814  1.00  0.00     0.125 A 
ATOM     11  C   UNL     1      27.372  41.272   5.975  1.00  0.00     0.069 A 
ENDROOT
BRANCH   1  12
ATOM     12  C   UNL     1      29.157  39.568  11.080  1.00  0.00    -0.011 A 
ATOM     13  C   UNL     1      30.527  39.483  11.383  1.00  0.00     0.013 A 
ATOM     14  C   UNL     1      30.945  38.956  12.609  1.00  0.00     0.047 A 
ATOM     15  C   UNL     1      30.005  38.520  13.549  1.00  0.00     0.115 A 
ATOM     16  C   UNL     1      28.214  39.136  12.032  1.00  0.00     0.013 A 
ATOM     17  C   UNL     1      28.638  38.627  13.265  1.00  0.00     0.047 A 
BRANCH  15  18
ATOM     18  O   UNL     1      30.438  37.982  14.758  1.00  0.00    -0.508 OA
ATOM     19  H   UNL     1      30.500  36.978  14.898  1.00  0.00     0.293 HD
ENDBRANCH  15  18
ENDBRANCH   1  12
BRANCH  11  20
ATOM     20  C   UNL     1      27.463  40.254   4.841  1.00  0.00     0.188 C 
ATOM     21  C   UNL     1      26.200  39.341   4.784  1.00  0.00     0.179 C 
ATOM     22  O   UNL     1      27.664  40.880   3.584  1.00  0.00    -0.362 OA
ATOM     23  C   UNL     1      25.984  38.774   3.359  1.00  0.00     0.177 C 
ATOM     24  C   UNL     1      28.116  39.946   2.608  1.00  0.00     0.176 C 
ATOM     25  C   UNL     1      27.330  38.592   2.636  1.00  0.00     0.177 C 
BRANCH  21  26
ATOM     26  O   UNL     1      25.036  40.004   5.217  1.00  0.00    -0.387 OA
ATOM     27  H   UNL     1      25.104  40.951   4.925  1.00  0.00     0.211 HD
ENDBRANCH  21  26
BRANCH  23  28
ATOM     28  O   UNL     1      25.296  37.552   3.440  1.00  0.00    -0.387 OA
ATOM     29  H   UNL     1      24.623  37.651   4.161  1.00  0.00     0.211 HD
ENDBRANCH  23  28
BRANCH  24  30
ATOM     30  C   UNL     1      27.995  40.608   1.224  1.00  0.00     0.191 C 
BRANCH  30  31
ATOM     31  O   UNL     1      26.851  41.417   1.152  1.00  0.00    -0.394 OA
ATOM     32  H   UNL     1      26.526  41.538   2.081  1.00  0.00     0.210 HD
ENDBRANCH  30  31
ENDBRANCH  24  30
BRANCH  25  33
ATOM     33  O   UNL     1      28.087  37.610   3.301  1.00  0.00    -0.388 OA
ATOM     34  H   UNL     1      29.039  37.787   3.084  1.00  0.00     0.211 HD
ENDBRANCH  25  33
ENDBRANCH  11  20
BRANCH  10  35
ATOM     35  O   UNL     1      26.181  42.895   4.588  1.00  0.00    -0.507 OA
ATOM     36  H   UNL     1      25.579  43.706   4.498  1.00  0.00     0.293 HD
ENDBRANCH  10  35
TORSDOF 9
ENDMDL
