MODEL 1
REMARK VINA RESULT:    -4.619      0.000      0.000
REMARK INTER + INTRA:          -7.399
REMARK INTER:                  -6.645
REMARK INTRA:                  -0.754
REMARK UNBOUND:                -0.754
REMARK SMILES CCCCCCCCCO
REMARK SMILES IDX 6 1 5 2 4 3 3 4 2 5 1 6 7 7 8 8 9 9 10 10
REMARK H PARENT 10 11
REMARK Flexibility Score: inf
ROOT
ATOM      1  C   UNL     1      11.059   5.131  -1.305  1.00  0.00     0.000 C 
ENDROOT
BRANCH   1   2
ATOM      2  C   UNL     1      11.842   4.736  -2.564  1.00  0.00     0.000 C 
BRANCH   2   3
ATOM      3  C   UNL     1      11.593   5.736  -3.703  1.00  0.00    -0.000 C 
BRANCH   3   4
ATOM      4  C   UNL     1      10.755   5.138  -4.844  1.00  0.00    -0.000 C 
BRANCH   4   5
ATOM      5  C   UNL     1       9.246   5.332  -4.633  1.00  0.00    -0.003 C 
ATOM      6  C   UNL     1       8.561   4.004  -4.319  1.00  0.00     0.004 C 
ENDBRANCH   4   5
ENDBRANCH   3   4
ENDBRANCH   2   3
ENDBRANCH   1   2
BRANCH   1   7
ATOM      7  C   UNL     1      10.071   4.026  -0.903  1.00  0.00     0.002 C 
BRANCH   7   8
ATOM      8  C   UNL     1       8.676   4.575  -0.562  1.00  0.00     0.028 C 
BRANCH   8   9
ATOM      9  C   UNL     1       8.442   5.984  -1.111  1.00  0.00     0.156 C 
BRANCH   9  10
ATOM     10  O   UNL     1       8.192   6.861  -0.049  1.00  0.00    -0.396 OA
ATOM     11  H   UNL     1       7.613   6.365   0.587  1.00  0.00     0.210 HD
ENDBRANCH   9  10
ENDBRANCH   8   9
ENDBRANCH   7   8
ENDBRANCH   1   7
TORSDOF 8
ENDMDL
MODEL 2
REMARK VINA RESULT:    -4.590      1.110      1.977
REMARK INTER + INTRA:          -7.356
REMARK INTER:                  -6.627
REMARK INTRA:                  -0.729
REMARK UNBOUND:                -0.754
REMARK SMILES CCCCCCCCCO
REMARK SMILES IDX 6 1 5 2 4 3 3 4 2 5 1 6 7 7 8 8 9 9 10 10
REMARK H PARENT 10 11
REMARK Flexibility Score: inf
ROOT
ATOM      1  C   UNL     1      10.300   3.946  -0.696  1.00  0.00     0.000 C 
ENDROOT
BRANCH   1   2
ATOM      2  C   UNL     1      10.269   3.004  -1.906  1.00  0.00     0.000 C 
BRANCH   2   3
ATOM      3  C   UNL     1      11.335   3.398  -2.939  1.00  0.00    -0.000 C 
BRANCH   3   4
ATOM      4  C   UNL     1      11.925   4.794  -2.677  1.00  0.00    -0.000 C 
BRANCH   4   5
ATOM      5  C   UNL     1      11.806   5.722  -3.894  1.00  0.00    -0.003 C 
ATOM      6  C   UNL     1      10.663   5.288  -4.807  1.00  0.00     0.004 C 
ENDBRANCH   4   5
ENDBRANCH   3   4
ENDBRANCH   2   3
ENDBRANCH   1   2
BRANCH   1   7
ATOM      7  C   UNL     1       8.899   4.500  -0.394  1.00  0.00     0.002 C 
BRANCH   7   8
ATOM      8  C   UNL     1       8.291   5.255  -1.586  1.00  0.00     0.028 C 
BRANCH   8   9
ATOM      9  C   UNL     1       8.733   6.719  -1.648  1.00  0.00     0.156 C 
BRANCH   9  10
ATOM     10  O   UNL     1       8.248   7.399  -0.524  1.00  0.00    -0.396 OA
ATOM     11  H   UNL     1       8.971   8.020  -0.244  1.00  0.00     0.210 HD
ENDBRANCH   9  10
ENDBRANCH   8   9
ENDBRANCH   7   8
ENDBRANCH   1   7
TORSDOF 8
ENDMDL
MODEL 3
REMARK VINA RESULT:    -4.575      1.872      3.803
REMARK INTER + INTRA:          -7.335
REMARK INTER:                  -6.673
REMARK INTRA:                  -0.661
REMARK UNBOUND:                -0.754
REMARK SMILES CCCCCCCCCO
REMARK SMILES IDX 6 1 5 2 4 3 3 4 2 5 1 6 7 7 8 8 9 9 10 10
REMARK H PARENT 10 11
REMARK Flexibility Score: inf
ROOT
ATOM      1  C   UNL     1      11.874   5.075  -2.607  1.00  0.00     0.000 C 
ENDROOT
BRANCH   1   2
ATOM      2  C   UNL     1      11.522   3.582  -2.607  1.00  0.00     0.000 C 
BRANCH   2   3
ATOM      3  C   UNL     1      10.518   3.254  -1.492  1.00  0.00    -0.000 C 
BRANCH   3   4
ATOM      4  C   UNL     1      10.081   4.498  -0.703  1.00  0.00    -0.000 C 
BRANCH   4   5
ATOM      5  C   UNL     1       8.582   4.794  -0.848  1.00  0.00    -0.003 C 
ATOM      6  C   UNL     1       8.337   6.278  -1.108  1.00  0.00     0.004 C 
ENDBRANCH   4   5
ENDBRANCH   3   4
ENDBRANCH   2   3
ENDBRANCH   1   2
BRANCH   1   7
ATOM      7  C   UNL     1      11.345   5.765  -3.873  1.00  0.00     0.002 C 
BRANCH   7   8
ATOM      8  C   UNL     1      10.582   4.803  -4.797  1.00  0.00     0.028 C 
BRANCH   8   9
ATOM      9  C   UNL     1       9.065   4.867  -4.598  1.00  0.00     0.156 C 
BRANCH   9  10
ATOM     10  O   UNL     1       8.548   3.567  -4.540  1.00  0.00    -0.396 OA
ATOM     11  H   UNL     1       8.674   3.263  -3.603  1.00  0.00     0.210 HD
ENDBRANCH   9  10
ENDBRANCH   8   9
ENDBRANCH   7   8
ENDBRANCH   1   7
TORSDOF 8
ENDMDL
MODEL 4
REMARK VINA RESULT:    -4.535      1.031      1.521
REMARK INTER + INTRA:          -7.277
REMARK INTER:                  -6.633
REMARK INTRA:                  -0.644
REMARK UNBOUND:                -0.754
REMARK SMILES CCCCCCCCCO
REMARK SMILES IDX 6 1 5 2 4 3 3 4 2 5 1 6 7 7 8 8 9 9 10 10
REMARK H PARENT 10 11
REMARK Flexibility Score: inf
ROOT
ATOM      1  C   UNL     1      10.164   2.987  -1.711  1.00  0.00     0.000 C 
ENDROOT
BRANCH   1   2
ATOM      2  C   UNL     1      11.162   3.305  -2.831  1.00  0.00     0.000 C 
BRANCH   2   3
ATOM      3  C   UNL     1      11.885   4.634  -2.563  1.00  0.00    -0.000 C 
BRANCH   3   4
ATOM      4  C   UNL     1      11.851   5.581  -3.773  1.00  0.00    -0.000 C 
BRANCH   4   5
ATOM      5  C   UNL     1      10.808   5.167  -4.820  1.00  0.00    -0.003 C 
ATOM      6  C   UNL     1       9.586   6.080  -4.769  1.00  0.00     0.004 C 
ENDBRANCH   4   5
ENDBRANCH   3   4
ENDBRANCH   2   3
ENDBRANCH   1   2
BRANCH   1   7
ATOM      7  C   UNL     1       9.823   4.248  -0.903  1.00  0.00     0.002 C 
BRANCH   7   8
ATOM      8  C   UNL     1       8.492   4.885  -1.334  1.00  0.00     0.028 C 
BRANCH   8   9
ATOM      9  C   UNL     1       8.320   6.313  -0.808  1.00  0.00     0.156 C 
BRANCH   9  10
ATOM     10  O   UNL     1       8.336   6.298   0.591  1.00  0.00    -0.396 OA
ATOM     11  H   UNL     1       7.672   6.976   0.883  1.00  0.00     0.210 HD
ENDBRANCH   9  10
ENDBRANCH   8   9
ENDBRANCH   7   8
ENDBRANCH   1   7
TORSDOF 8
ENDMDL
MODEL 5
REMARK VINA RESULT:    -4.531      2.035      3.726
REMARK INTER + INTRA:          -7.271
REMARK INTER:                  -6.491
REMARK INTRA:                  -0.781
REMARK UNBOUND:                -0.754
REMARK SMILES CCCCCCCCCO
REMARK SMILES IDX 6 1 5 2 4 3 3 4 2 5 1 6 7 7 8 8 9 9 10 10
REMARK H PARENT 10 11
REMARK Flexibility Score: inf
ROOT
ATOM      1  C   UNL     1       9.998   2.992  -2.157  1.00  0.00     0.000 C 
ENDROOT
BRANCH   1   2
ATOM      2  C   UNL     1      10.165   3.431  -0.696  1.00  0.00     0.000 C 
BRANCH   2   3
ATOM      3  C   UNL     1       8.987   4.309  -0.248  1.00  0.00    -0.000 C 
BRANCH   3   4
ATOM      4  C   UNL     1       8.285   5.004  -1.425  1.00  0.00    -0.000 C 
BRANCH   4   5
ATOM      5  C   UNL     1       8.478   6.527  -1.413  1.00  0.00    -0.003 C 
ATOM      6  C   UNL     1       8.677   7.067  -2.826  1.00  0.00     0.004 C 
ENDBRANCH   4   5
ENDBRANCH   3   4
ENDBRANCH   2   3
ENDBRANCH   1   2
BRANCH   1   7
ATOM      7  C   UNL     1      11.290   3.231  -2.954  1.00  0.00     0.002 C 
BRANCH   7   8
ATOM      8  C   UNL     1      11.282   4.572  -3.705  1.00  0.00     0.028 C 
BRANCH   8   9
ATOM      9  C   UNL     1      12.364   5.535  -3.211  1.00  0.00     0.156 C 
BRANCH   9  10
ATOM     10  O   UNL     1      12.004   6.030  -1.951  1.00  0.00    -0.396 OA
ATOM     11  H   UNL     1      12.737   6.640  -1.675  1.00  0.00     0.210 HD
ENDBRANCH   9  10
ENDBRANCH   8   9
ENDBRANCH   7   8
ENDBRANCH   1   7
TORSDOF 8
ENDMDL
MODEL 6
REMARK VINA RESULT:    -4.443      1.796      3.609
REMARK INTER + INTRA:          -7.145
REMARK INTER:                  -6.389
REMARK INTRA:                  -0.756
REMARK UNBOUND:                -0.754
REMARK SMILES CCCCCCCCCO
REMARK SMILES IDX 6 1 5 2 4 3 3 4 2 5 1 6 7 7 8 8 9 9 10 10
REMARK H PARENT 10 11
REMARK Flexibility Score: inf
ROOT
ATOM      1  C   UNL     1      11.979   4.428  -2.579  1.00  0.00     0.000 C 
ENDROOT
BRANCH   1   2
ATOM      2  C   UNL     1      10.981   3.320  -2.940  1.00  0.00     0.000 C 
BRANCH   2   3
ATOM      3  C   UNL     1      10.127   2.930  -1.723  1.00  0.00    -0.000 C 
BRANCH   3   4
ATOM      4  C   UNL     1       9.657   4.150  -0.915  1.00  0.00    -0.000 C 
BRANCH   4   5
ATOM      5  C   UNL     1       8.457   4.859  -1.560  1.00  0.00    -0.003 C 
ATOM      6  C   UNL     1       8.281   6.265  -0.993  1.00  0.00     0.004 C 
ENDBRANCH   4   5
ENDBRANCH   3   4
ENDBRANCH   2   3
ENDBRANCH   1   2
BRANCH   1   7
ATOM      7  C   UNL     1      12.004   5.519  -3.659  1.00  0.00     0.002 C 
BRANCH   7   8
ATOM      8  C   UNL     1      10.766   5.481  -4.568  1.00  0.00     0.028 C 
BRANCH   8   9
ATOM      9  C   UNL     1       9.884   6.724  -4.423  1.00  0.00     0.156 C 
BRANCH   9  10
ATOM     10  O   UNL     1      10.483   7.616  -3.525  1.00  0.00    -0.396 OA
ATOM     11  H   UNL     1      11.422   7.311  -3.418  1.00  0.00     0.210 HD
ENDBRANCH   9  10
ENDBRANCH   8   9
ENDBRANCH   7   8
ENDBRANCH   1   7
TORSDOF 8
ENDMDL
MODEL 7
REMARK VINA RESULT:    -4.394      1.880      2.716
REMARK INTER + INTRA:          -7.075
REMARK INTER:                  -6.227
REMARK INTRA:                  -0.848
REMARK UNBOUND:                -0.754
REMARK SMILES CCCCCCCCCO
REMARK SMILES IDX 6 1 5 2 4 3 3 4 2 5 1 6 7 7 8 8 9 9 10 10
REMARK H PARENT 10 11
REMARK Flexibility Score: inf
ROOT
ATOM      1  C   UNL     1       9.205   4.011  -2.851  1.00  0.00     0.000 C 
ENDROOT
BRANCH   1   2
ATOM      2  C   UNL     1       9.183   4.471  -4.315  1.00  0.00     0.000 C 
BRANCH   2   3
ATOM      3  C   UNL     1      10.608   4.694  -4.843  1.00  0.00    -0.000 C 
BRANCH   3   4
ATOM      4  C   UNL     1      10.842   6.134  -5.328  1.00  0.00    -0.000 C 
BRANCH   4   5
ATOM      5  C   UNL     1       9.615   7.033  -5.122  1.00  0.00    -0.003 C 
ATOM      6  C   UNL     1       9.931   8.183  -4.169  1.00  0.00     0.004 C 
ENDBRANCH   4   5
ENDBRANCH   3   4
ENDBRANCH   2   3
ENDBRANCH   1   2
BRANCH   1   7
ATOM      7  C   UNL     1       8.453   5.003  -1.951  1.00  0.00     0.002 C 
BRANCH   7   8
ATOM      8  C   UNL     1       9.397   5.971  -1.220  1.00  0.00     0.028 C 
BRANCH   8   9
ATOM      9  C   UNL     1      10.783   5.371  -0.969  1.00  0.00     0.156 C 
BRANCH   9  10
ATOM     10  O   UNL     1      11.744   6.114  -1.665  1.00  0.00    -0.396 OA
ATOM     11  H   UNL     1      12.015   6.852  -1.059  1.00  0.00     0.210 HD
ENDBRANCH   9  10
ENDBRANCH   8   9
ENDBRANCH   7   8
ENDBRANCH   1   7
TORSDOF 8
ENDMDL
MODEL 8
REMARK VINA RESULT:    -4.359      2.329      3.241
REMARK INTER + INTRA:          -7.025
REMARK INTER:                  -6.503
REMARK INTRA:                  -0.522
REMARK UNBOUND:                -0.754
REMARK SMILES CCCCCCCCCO
REMARK SMILES IDX 6 1 5 2 4 3 3 4 2 5 1 6 7 7 8 8 9 9 10 10
REMARK H PARENT 10 11
REMARK Flexibility Score: inf
ROOT
ATOM      1  C   UNL     1       8.375   5.074  -1.398  1.00  0.00     0.000 C 
ENDROOT
BRANCH   1   2
ATOM      2  C   UNL     1       8.544   6.594  -1.524  1.00  0.00     0.000 C 
BRANCH   2   3
ATOM      3  C   UNL     1       9.557   6.945  -2.624  1.00  0.00    -0.000 C 
BRANCH   3   4
ATOM      4  C   UNL     1       9.218   6.291  -3.972  1.00  0.00    -0.000 C 
BRANCH   4   5
ATOM      5  C   UNL     1      10.055   6.854  -5.129  1.00  0.00    -0.003 C 
ATOM      6  C   UNL     1      11.173   5.890  -5.518  1.00  0.00     0.004 C 
ENDBRANCH   4   5
ENDBRANCH   3   4
ENDBRANCH   2   3
ENDBRANCH   1   2
BRANCH   1   7
ATOM      7  C   UNL     1       9.574   4.445  -0.673  1.00  0.00     0.002 C 
BRANCH   7   8
ATOM      8  C   UNL     1      10.128   3.213  -1.404  1.00  0.00     0.028 C 
BRANCH   8   9
ATOM      9  C   UNL     1      11.220   3.565  -2.418  1.00  0.00     0.156 C 
BRANCH   9  10
ATOM     10  O   UNL     1      10.933   2.951  -3.643  1.00  0.00    -0.396 OA
ATOM     11  H   UNL     1       9.949   3.015  -3.760  1.00  0.00     0.210 HD
ENDBRANCH   9  10
ENDBRANCH   8   9
ENDBRANCH   7   8
ENDBRANCH   1   7
TORSDOF 8
ENDMDL
MODEL 9
REMARK VINA RESULT:    -4.343      1.999      3.291
REMARK INTER + INTRA:          -7.001
REMARK INTER:                  -6.466
REMARK INTRA:                  -0.535
REMARK UNBOUND:                -0.754
REMARK SMILES CCCCCCCCCO
REMARK SMILES IDX 6 1 5 2 4 3 3 4 2 5 1 6 7 7 8 8 9 9 10 10
REMARK H PARENT 10 11
REMARK Flexibility Score: inf
ROOT
ATOM      1  C   UNL     1       8.439   5.081  -1.496  1.00  0.00     0.000 C 
ENDROOT
BRANCH   1   2
ATOM      2  C   UNL     1       9.084   4.074  -0.534  1.00  0.00     0.000 C 
BRANCH   2   3
ATOM      3  C   UNL     1      10.443   3.597  -1.067  1.00  0.00    -0.000 C 
BRANCH   3   4
ATOM      4  C   UNL     1      10.381   3.157  -2.538  1.00  0.00    -0.000 C 
BRANCH   4   5
ATOM      5  C   UNL     1      11.275   4.010  -3.448  1.00  0.00    -0.003 C 
ATOM      6  C   UNL     1      12.158   4.947  -2.629  1.00  0.00     0.004 C 
ENDBRANCH   4   5
ENDBRANCH   3   4
ENDBRANCH   2   3
ENDBRANCH   1   2
BRANCH   1   7
ATOM      7  C   UNL     1       8.348   6.474  -0.854  1.00  0.00     0.002 C 
BRANCH   7   8
ATOM      8  C   UNL     1       8.410   7.608  -1.889  1.00  0.00     0.028 C 
BRANCH   8   9
ATOM      9  C   UNL     1       9.367   7.305  -3.045  1.00  0.00     0.156 C 
BRANCH   9  10
ATOM     10  O   UNL     1      10.201   8.409  -3.259  1.00  0.00    -0.396 OA
ATOM     11  H   UNL     1       9.600   9.177  -3.443  1.00  0.00     0.210 HD
ENDBRANCH   9  10
ENDBRANCH   8   9
ENDBRANCH   7   8
ENDBRANCH   1   7
TORSDOF 8
ENDMDL
