MODEL 1
REMARK VINA RESULT:    -3.430      0.000      0.000
REMARK INTER + INTRA:          -4.171
REMARK INTER:                  -4.132
REMARK INTRA:                  -0.039
REMARK UNBOUND:                -0.039
REMARK SMILES CC[C@H](C)[C@@H]([NH3+])C(=O)[O-]
REMARK SMILES IDX 3 1 4 2 5 3 6 4 7 8 8 9 9 10 2 11 1 12
REMARK H PARENT 6 5 6 6 6 7
REMARK Flexibility Score: inf
ROOT
ATOM      1  C   UNL     1      25.840  20.222 -16.523  1.00  0.00     0.050 C 
ATOM      2  C   UNL     1      25.039  21.392 -17.124  1.00  0.00     0.014 C 
ENDROOT
BRANCH   1   3
ATOM      3  C   UNL     1      24.882  19.214 -15.815  1.00  0.00     0.230 C 
BRANCH   3   4
ATOM      4  N   UNL     1      23.527  19.244 -16.388  1.00  0.00    -0.350 N 
ATOM      5  H   UNL     1      22.885  19.751 -15.734  1.00  0.00     0.345 HD
ATOM      6  H   UNL     1      23.148  18.283 -16.539  1.00  0.00     0.345 HD
ATOM      7  H   UNL     1      23.532  19.760 -17.297  1.00  0.00     0.345 HD
ENDBRANCH   3   4
BRANCH   3   8
ATOM      8  C   UNL     1      25.429  17.806 -15.798  1.00  0.00     0.099 C 
ATOM      9  O   UNL     1      26.440  17.499 -16.484  1.00  0.00    -0.544 OA
ATOM     10  O   UNL     1      24.835  16.844 -14.991  1.00  0.00    -0.544 OA
ENDBRANCH   3   8
ENDBRANCH   1   3
BRANCH   1  11
ATOM     11  C   UNL     1      26.974  20.737 -15.598  1.00  0.00     0.006 C 
ATOM     12  C   UNL     1      26.518  21.865 -14.670  1.00  0.00     0.004 C 
ENDBRANCH   1  11
TORSDOF 4
ENDMDL
MODEL 2
REMARK VINA RESULT:    -3.268      1.740      2.329
REMARK INTER + INTRA:          -3.975
REMARK INTER:                  -3.916
REMARK INTRA:                  -0.059
REMARK UNBOUND:                -0.039
REMARK SMILES CC[C@H](C)[C@@H]([NH3+])C(=O)[O-]
REMARK SMILES IDX 3 1 4 2 5 3 6 4 7 8 8 9 9 10 2 11 1 12
REMARK H PARENT 6 5 6 6 6 7
REMARK Flexibility Score: inf
ROOT
ATOM      1  C   UNL     1      25.720  19.730 -15.989  1.00  0.00     0.050 C 
ATOM      2  C   UNL     1      27.119  20.332 -15.767  1.00  0.00     0.014 C 
ENDROOT
BRANCH   1   3
ATOM      3  C   UNL     1      25.823  18.391 -16.784  1.00  0.00     0.230 C 
BRANCH   3   4
ATOM      4  N   UNL     1      27.196  17.864 -16.805  1.00  0.00    -0.350 N 
ATOM      5  H   UNL     1      27.637  18.080 -17.729  1.00  0.00     0.345 HD
ATOM      6  H   UNL     1      27.218  16.831 -16.664  1.00  0.00     0.345 HD
ATOM      7  H   UNL     1      27.769  18.326 -16.061  1.00  0.00     0.345 HD
ENDBRANCH   3   4
BRANCH   3   8
ATOM      8  C   UNL     1      24.852  17.345 -16.289  1.00  0.00     0.099 C 
ATOM      9  O   UNL     1      24.930  16.898 -15.114  1.00  0.00    -0.544 OA
ATOM     10  O   UNL     1      23.838  16.894 -17.125  1.00  0.00    -0.544 OA
ENDBRANCH   3   8
ENDBRANCH   1   3
BRANCH   1  11
ATOM     11  C   UNL     1      24.766  20.760 -16.651  1.00  0.00     0.006 C 
ATOM     12  C   UNL     1      25.423  22.125 -16.867  1.00  0.00     0.004 C 
ENDBRANCH   1  11
TORSDOF 4
ENDMDL
MODEL 3
REMARK VINA RESULT:    -2.833     23.131     23.712
REMARK INTER + INTRA:          -3.451
REMARK INTER:                  -3.386
REMARK INTRA:                  -0.065
REMARK UNBOUND:                -0.039
REMARK SMILES CC[C@H](C)[C@@H]([NH3+])C(=O)[O-]
REMARK SMILES IDX 3 1 4 2 5 3 6 4 7 8 8 9 9 10 2 11 1 12
REMARK H PARENT 6 5 6 6 6 7
REMARK Flexibility Score: inf
ROOT
ATOM      1  C   UNL     1      11.428   3.626  -7.950  1.00  0.00     0.050 C 
ATOM      2  C   UNL     1      10.930   2.748  -9.112  1.00  0.00     0.014 C 
ENDROOT
BRANCH   1   3
ATOM      3  C   UNL     1      11.937   2.735  -6.774  1.00  0.00     0.230 C 
BRANCH   3   4
ATOM      4  N   UNL     1      13.233   3.196  -6.251  1.00  0.00    -0.350 N 
ATOM      5  H   UNL     1      13.948   2.444  -6.384  1.00  0.00     0.345 HD
ATOM      6  H   UNL     1      13.181   3.424  -5.234  1.00  0.00     0.345 HD
ATOM      7  H   UNL     1      13.553   4.041  -6.779  1.00  0.00     0.345 HD
ENDBRANCH   3   4
BRANCH   3   8
ATOM      8  C   UNL     1      10.922   2.605  -5.663  1.00  0.00     0.099 C 
ATOM      9  O   UNL     1       9.904   1.876  -5.802  1.00  0.00    -0.544 OA
ATOM     10  O   UNL     1      11.128   3.267  -4.459  1.00  0.00    -0.544 OA
ENDBRANCH   3   8
ENDBRANCH   1   3
BRANCH   1  11
ATOM     11  C   UNL     1      10.343   4.647  -7.516  1.00  0.00     0.006 C 
ATOM     12  C   UNL     1       9.053   4.526  -8.329  1.00  0.00     0.004 C 
ENDBRANCH   1  11
TORSDOF 4
ENDMDL
MODEL 4
REMARK VINA RESULT:    -2.797     18.095     18.805
REMARK INTER + INTRA:          -3.409
REMARK INTER:                  -3.330
REMARK INTRA:                  -0.078
REMARK UNBOUND:                -0.039
REMARK SMILES CC[C@H](C)[C@@H]([NH3+])C(=O)[O-]
REMARK SMILES IDX 3 1 4 2 5 3 6 4 7 8 8 9 9 10 2 11 1 12
REMARK H PARENT 6 5 6 6 6 7
REMARK Flexibility Score: inf
ROOT
ATOM      1  C   UNL     1      28.465   5.245  -4.177  1.00  0.00     0.050 C 
ATOM      2  C   UNL     1      26.929   5.229  -4.069  1.00  0.00     0.014 C 
ENDROOT
BRANCH   1   3
ATOM      3  C   UNL     1      28.950   4.163  -5.192  1.00  0.00     0.230 C 
BRANCH   3   4
ATOM      4  N   UNL     1      28.524   2.810  -4.805  1.00  0.00    -0.350 N 
ATOM      5  H   UNL     1      27.861   2.873  -3.997  1.00  0.00     0.345 HD
ATOM      6  H   UNL     1      29.332   2.215  -4.520  1.00  0.00     0.345 HD
ATOM      7  H   UNL     1      28.019   2.351  -5.598  1.00  0.00     0.345 HD
ENDBRANCH   3   4
BRANCH   3   8
ATOM      8  C   UNL     1      28.538   4.473  -6.612  1.00  0.00     0.099 C 
ATOM      9  O   UNL     1      29.124   5.371  -7.272  1.00  0.00    -0.544 OA
ATOM     10  O   UNL     1      27.524   3.737  -7.213  1.00  0.00    -0.544 OA
ENDBRANCH   3   8
ENDBRANCH   1   3
BRANCH   1  11
ATOM     11  C   UNL     1      29.125   5.107  -2.779  1.00  0.00     0.006 C 
ATOM     12  C   UNL     1      28.712   6.220  -1.814  1.00  0.00     0.004 C 
ENDBRANCH   1  11
TORSDOF 4
ENDMDL
MODEL 5
REMARK VINA RESULT:    -2.742      2.108      2.428
REMARK INTER + INTRA:          -3.342
REMARK INTER:                  -3.256
REMARK INTRA:                  -0.086
REMARK UNBOUND:                -0.039
REMARK SMILES CC[C@H](C)[C@@H]([NH3+])C(=O)[O-]
REMARK SMILES IDX 3 1 4 2 5 3 6 4 7 8 8 9 9 10 2 11 1 12
REMARK H PARENT 6 5 6 6 6 7
REMARK Flexibility Score: inf
ROOT
ATOM      1  C   UNL     1      26.219  21.042 -16.367  1.00  0.00     0.050 C 
ATOM      2  C   UNL     1      26.305  21.398 -14.871  1.00  0.00     0.014 C 
ENDROOT
BRANCH   1   3
ATOM      3  C   UNL     1      25.910  19.522 -16.547  1.00  0.00     0.230 C 
BRANCH   3   4
ATOM      4  N   UNL     1      26.573  18.698 -15.524  1.00  0.00    -0.350 N 
ATOM      5  H   UNL     1      25.940  18.598 -14.696  1.00  0.00     0.345 HD
ATOM      6  H   UNL     1      27.469  19.125 -15.202  1.00  0.00     0.345 HD
ATOM      7  H   UNL     1      26.763  17.741 -15.901  1.00  0.00     0.345 HD
ENDBRANCH   3   4
BRANCH   3   8
ATOM      8  C   UNL     1      24.428  19.233 -16.595  1.00  0.00     0.099 C 
ATOM      9  O   UNL     1      23.591  20.171 -16.679  1.00  0.00    -0.544 OA
ATOM     10  O   UNL     1      23.980  17.918 -16.584  1.00  0.00    -0.544 OA
ENDBRANCH   3   8
ENDBRANCH   1   3
BRANCH   1  11
ATOM     11  C   UNL     1      27.494  21.497 -17.125  1.00  0.00     0.006 C 
ATOM     12  C   UNL     1      28.672  21.784 -16.190  1.00  0.00     0.004 C 
ENDBRANCH   1  11
TORSDOF 4
ENDMDL
MODEL 6
REMARK VINA RESULT:    -2.638     22.617     23.453
REMARK INTER + INTRA:          -3.217
REMARK INTER:                  -3.180
REMARK INTRA:                  -0.036
REMARK UNBOUND:                -0.039
REMARK SMILES CC[C@H](C)[C@@H]([NH3+])C(=O)[O-]
REMARK SMILES IDX 3 1 4 2 5 3 6 4 7 8 8 9 9 10 2 11 1 12
REMARK H PARENT 6 5 6 6 6 7
REMARK Flexibility Score: inf
ROOT
ATOM      1  C   UNL     1      11.234   2.883  -6.779  1.00  0.00     0.050 C 
ATOM      2  C   UNL     1      12.555   3.057  -7.552  1.00  0.00     0.014 C 
ENDROOT
BRANCH   1   3
ATOM      3  C   UNL     1      10.043   3.470  -7.600  1.00  0.00     0.230 C 
BRANCH   3   4
ATOM      4  N   UNL     1       9.900   4.921  -7.407  1.00  0.00    -0.350 N 
ATOM      5  H   UNL     1       8.941   5.218  -7.701  1.00  0.00     0.345 HD
ATOM      6  H   UNL     1      10.596   5.458  -7.970  1.00  0.00     0.345 HD
ATOM      7  H   UNL     1      10.015   5.162  -6.395  1.00  0.00     0.345 HD
ENDBRANCH   3   4
BRANCH   3   8
ATOM      8  C   UNL     1      10.125   3.127  -9.069  1.00  0.00     0.099 C 
ATOM      9  O   UNL     1      10.028   1.933  -9.458  1.00  0.00    -0.544 OA
ATOM     10  O   UNL     1      10.272   4.140 -10.008  1.00  0.00    -0.544 OA
ENDBRANCH   3   8
ENDBRANCH   1   3
BRANCH   1  11
ATOM     11  C   UNL     1      11.340   3.477  -5.350  1.00  0.00     0.006 C 
ATOM     12  C   UNL     1      12.606   3.034  -4.613  1.00  0.00     0.004 C 
ENDBRANCH   1  11
TORSDOF 4
ENDMDL
MODEL 7
REMARK VINA RESULT:    -2.577     26.512     26.874
REMARK INTER + INTRA:          -3.143
REMARK INTER:                  -3.089
REMARK INTRA:                  -0.054
REMARK UNBOUND:                -0.039
REMARK SMILES CC[C@H](C)[C@@H]([NH3+])C(=O)[O-]
REMARK SMILES IDX 3 1 4 2 5 3 6 4 7 8 8 9 9 10 2 11 1 12
REMARK H PARENT 6 5 6 6 6 7
REMARK Flexibility Score: inf
ROOT
ATOM      1  C   UNL     1      12.591   2.924   0.069  1.00  0.00     0.050 C 
ATOM      2  C   UNL     1      12.445   4.153   0.985  1.00  0.00     0.014 C 
ENDROOT
BRANCH   1   3
ATOM      3  C   UNL     1      11.189   2.329  -0.272  1.00  0.00     0.230 C 
BRANCH   3   4
ATOM      4  N   UNL     1      10.278   2.364   0.883  1.00  0.00    -0.350 N 
ATOM      5  H   UNL     1      10.839   2.416   1.765  1.00  0.00     0.345 HD
ATOM      6  H   UNL     1       9.675   1.514   0.927  1.00  0.00     0.345 HD
ATOM      7  H   UNL     1       9.672   3.215   0.837  1.00  0.00     0.345 HD
ENDBRANCH   3   4
BRANCH   3   8
ATOM      8  C   UNL     1      10.557   2.985  -1.477  1.00  0.00     0.099 C 
ATOM      9  O   UNL     1       9.910   4.059  -1.360  1.00  0.00    -0.544 OA
ATOM     10  O   UNL     1      10.719   2.419  -2.735  1.00  0.00    -0.544 OA
ENDBRANCH   3   8
ENDBRANCH   1   3
BRANCH   1  11
ATOM     11  C   UNL     1      13.563   1.881   0.683  1.00  0.00     0.006 C 
ATOM     12  C   UNL     1      14.248   2.384   1.955  1.00  0.00     0.004 C 
ENDBRANCH   1  11
TORSDOF 4
ENDMDL
