MODEL 1
REMARK VINA RESULT:    -3.739      0.000      0.000
REMARK INTER + INTRA:          -5.558
REMARK INTER:                  -5.268
REMARK INTRA:                  -0.289
REMARK UNBOUND:                -0.289
REMARK SMILES CCCCCCCCC(=O)[O-]
REMARK SMILES IDX 6 1 7 2 8 3 9 4 10 5 11 6 5 7 4 8 3 9 2 10 1 11
REMARK H PARENT
REMARK Flexibility Score: inf
ROOT
ATOM      1  C   UNL     1      -1.949   7.162  -4.384  1.00  0.00     0.000 C 
ENDROOT
BRANCH   1   2
ATOM      2  C   UNL     1      -2.989   8.287  -4.288  1.00  0.00     0.006 C 
BRANCH   2   3
ATOM      3  C   UNL     1      -4.373   7.728  -3.947  1.00  0.00     0.053 C 
BRANCH   3   4
ATOM      4  C   UNL     1      -4.876   8.317  -2.667  1.00  0.00     0.041 C 
ATOM      5  O   UNL     1      -5.372   9.474  -2.654  1.00  0.00    -0.550 OA
ATOM      6  O   UNL     1      -4.750   7.609  -1.479  1.00  0.00    -0.550 OA
ENDBRANCH   3   4
ENDBRANCH   2   3
ENDBRANCH   1   2
BRANCH   1   7
ATOM      7  C   UNL     1      -2.324   6.085  -5.421  1.00  0.00     0.000 C 
BRANCH   7   8
ATOM      8  C   UNL     1      -1.150   5.574  -6.276  1.00  0.00    -0.000 C 
BRANCH   8   9
ATOM      9  C   UNL     1      -1.271   4.081  -6.626  1.00  0.00    -0.000 C 
BRANCH   9  10
ATOM     10  C   UNL     1      -1.979   3.273  -5.528  1.00  0.00    -0.003 C 
ATOM     11  C   UNL     1      -1.054   2.265  -4.848  1.00  0.00     0.004 C 
ENDBRANCH   9  10
ENDBRANCH   8   9
ENDBRANCH   7   8
ENDBRANCH   1   7
TORSDOF 7
ENDMDL
MODEL 2
REMARK VINA RESULT:    -3.599      1.577      2.471
REMARK INTER + INTRA:          -5.361
REMARK INTER:                  -5.022
REMARK INTRA:                  -0.338
REMARK UNBOUND:                -0.289
REMARK SMILES CCCCCCCCC(=O)[O-]
REMARK SMILES IDX 6 1 7 2 8 3 9 4 10 5 11 6 5 7 4 8 3 9 2 10 1 11
REMARK H PARENT
REMARK Flexibility Score: inf
ROOT
ATOM      1  C   UNL     1      -4.648   7.673  -3.998  1.00  0.00     0.000 C 
ENDROOT
BRANCH   1   2
ATOM      2  C   UNL     1      -4.063   8.612  -2.934  1.00  0.00     0.006 C 
BRANCH   2   3
ATOM      3  C   UNL     1      -4.792   8.446  -1.597  1.00  0.00     0.053 C 
BRANCH   3   4
ATOM      4  C   UNL     1      -3.886   8.796  -0.458  1.00  0.00     0.041 C 
ATOM      5  O   UNL     1      -4.253   9.632   0.409  1.00  0.00    -0.550 OA
ATOM      6  O   UNL     1      -2.616   8.239  -0.383  1.00  0.00    -0.550 OA
ENDBRANCH   3   4
ENDBRANCH   2   3
ENDBRANCH   1   2
BRANCH   1   7
ATOM      7  C   UNL     1      -3.568   7.026  -4.887  1.00  0.00     0.000 C 
BRANCH   7   8
ATOM      8  C   UNL     1      -2.121   7.249  -4.412  1.00  0.00    -0.000 C 
BRANCH   8   9
ATOM      9  C   UNL     1      -1.152   6.165  -4.917  1.00  0.00    -0.000 C 
BRANCH   9  10
ATOM     10  C   UNL     1      -1.660   5.467  -6.187  1.00  0.00    -0.003 C 
ATOM     11  C   UNL     1      -1.739   3.949  -6.033  1.00  0.00     0.004 C 
ENDBRANCH   9  10
ENDBRANCH   8   9
ENDBRANCH   7   8
ENDBRANCH   1   7
TORSDOF 7
ENDMDL
MODEL 3
REMARK VINA RESULT:    -3.526      3.118      5.762
REMARK INTER + INTRA:          -5.258
REMARK INTER:                  -4.741
REMARK INTRA:                  -0.516
REMARK UNBOUND:                -0.289
REMARK SMILES CCCCCCCCC(=O)[O-]
REMARK SMILES IDX 6 1 7 2 8 3 9 4 10 5 11 6 5 7 4 8 3 9 2 10 1 11
REMARK H PARENT
REMARK Flexibility Score: inf
ROOT
ATOM      1  C   UNL     1      -4.572   7.686  -3.899  1.00  0.00     0.000 C 
ENDROOT
BRANCH   1   2
ATOM      2  C   UNL     1      -3.299   8.148  -4.622  1.00  0.00     0.006 C 
BRANCH   2   3
ATOM      3  C   UNL     1      -2.116   7.236  -4.285  1.00  0.00     0.053 C 
BRANCH   3   4
ATOM      4  C   UNL     1      -1.698   6.452  -5.488  1.00  0.00     0.041 C 
ATOM      5  O   UNL     1      -0.991   6.989  -6.381  1.00  0.00    -0.550 OA
ATOM      6  O   UNL     1      -2.133   5.143  -5.651  1.00  0.00    -0.550 OA
ENDBRANCH   3   4
ENDBRANCH   2   3
ENDBRANCH   1   2
BRANCH   1   7
ATOM      7  C   UNL     1      -5.046   8.681  -2.822  1.00  0.00     0.000 C 
BRANCH   7   8
ATOM      8  C   UNL     1      -4.805   8.227  -1.371  1.00  0.00    -0.000 C 
BRANCH   8   9
ATOM      9  C   UNL     1      -4.304   9.364  -0.463  1.00  0.00    -0.000 C 
BRANCH   9  10
ATOM     10  C   UNL     1      -2.981   9.019   0.237  1.00  0.00    -0.003 C 
ATOM     11  C   UNL     1      -2.084   8.117  -0.610  1.00  0.00     0.004 C 
ENDBRANCH   9  10
ENDBRANCH   8   9
ENDBRANCH   7   8
ENDBRANCH   1   7
TORSDOF 7
ENDMDL
MODEL 4
REMARK VINA RESULT:    -3.454      3.956      6.891
REMARK INTER + INTRA:          -5.156
REMARK INTER:                  -4.741
REMARK INTRA:                  -0.415
REMARK UNBOUND:                -0.289
REMARK SMILES CCCCCCCCC(=O)[O-]
REMARK SMILES IDX 6 1 7 2 8 3 9 4 10 5 11 6 5 7 4 8 3 9 2 10 1 11
REMARK H PARENT
REMARK Flexibility Score: inf
ROOT
ATOM      1  C   UNL     1      -4.234   8.899  -0.407  1.00  0.00     0.000 C 
ENDROOT
BRANCH   1   2
ATOM      2  C   UNL     1      -4.817   8.095  -1.577  1.00  0.00     0.006 C 
BRANCH   2   3
ATOM      3  C   UNL     1      -4.503   8.769  -2.915  1.00  0.00     0.053 C 
BRANCH   3   4
ATOM      4  C   UNL     1      -3.673   7.869  -3.775  1.00  0.00     0.041 C 
ATOM      5  O   UNL     1      -4.213   7.187  -4.685  1.00  0.00    -0.550 OA
ATOM      6  O   UNL     1      -2.310   7.744  -3.538  1.00  0.00    -0.550 OA
ENDBRANCH   3   4
ENDBRANCH   2   3
ENDBRANCH   1   2
BRANCH   1   7
ATOM      7  C   UNL     1      -2.757   8.563  -0.123  1.00  0.00     0.000 C 
BRANCH   7   8
ATOM      8  C   UNL     1      -1.912   9.743   0.391  1.00  0.00    -0.000 C 
BRANCH   8   9
ATOM      9  C   UNL     1      -1.593   9.641   1.892  1.00  0.00    -0.000 C 
BRANCH   9  10
ATOM     10  C   UNL     1      -2.199  10.797   2.703  1.00  0.00    -0.003 C 
ATOM     11  C   UNL     1      -3.726  10.748   2.748  1.00  0.00     0.004 C 
ENDBRANCH   9  10
ENDBRANCH   8   9
ENDBRANCH   7   8
ENDBRANCH   1   7
TORSDOF 7
ENDMDL
MODEL 5
REMARK VINA RESULT:    -3.372      4.042      6.651
REMARK INTER + INTRA:          -5.041
REMARK INTER:                  -4.594
REMARK INTRA:                  -0.447
REMARK UNBOUND:                -0.289
REMARK SMILES CCCCCCCCC(=O)[O-]
REMARK SMILES IDX 6 1 7 2 8 3 9 4 10 5 11 6 5 7 4 8 3 9 2 10 1 11
REMARK H PARENT
REMARK Flexibility Score: inf
ROOT
ATOM      1  C   UNL     1      -1.249   7.537  -0.719  1.00  0.00     0.000 C 
ENDROOT
BRANCH   1   2
ATOM      2  C   UNL     1      -1.879   7.753  -2.102  1.00  0.00     0.006 C 
BRANCH   2   3
ATOM      3  C   UNL     1      -2.967   8.829  -2.046  1.00  0.00     0.053 C 
BRANCH   3   4
ATOM      4  C   UNL     1      -4.320   8.219  -2.239  1.00  0.00     0.041 C 
ATOM      5  O   UNL     1      -5.108   8.104  -1.264  1.00  0.00    -0.550 OA
ATOM      6  O   UNL     1      -4.690   7.730  -3.485  1.00  0.00    -0.550 OA
ENDBRANCH   3   4
ENDBRANCH   2   3
ENDBRANCH   1   2
BRANCH   1   7
ATOM      7  C   UNL     1      -0.878   8.856  -0.015  1.00  0.00     0.000 C 
BRANCH   7   8
ATOM      8  C   UNL     1      -1.108   8.865   1.507  1.00  0.00    -0.000 C 
BRANCH   8   9
ATOM      9  C   UNL     1      -1.345  10.277   2.068  1.00  0.00    -0.000 C 
BRANCH   9  10
ATOM     10  C   UNL     1      -2.798  10.498   2.515  1.00  0.00    -0.003 C 
ATOM     11  C   UNL     1      -3.810  10.145   1.425  1.00  0.00     0.004 C 
ENDBRANCH   9  10
ENDBRANCH   8   9
ENDBRANCH   7   8
ENDBRANCH   1   7
TORSDOF 7
ENDMDL
MODEL 6
REMARK VINA RESULT:    -3.318      1.589      2.283
REMARK INTER + INTRA:          -4.965
REMARK INTER:                  -4.599
REMARK INTRA:                  -0.365
REMARK UNBOUND:                -0.289
REMARK SMILES CCCCCCCCC(=O)[O-]
REMARK SMILES IDX 6 1 7 2 8 3 9 4 10 5 11 6 5 7 4 8 3 9 2 10 1 11
REMARK H PARENT
REMARK Flexibility Score: inf
ROOT
ATOM      1  C   UNL     1      -1.169   7.223  -2.888  1.00  0.00     0.000 C 
ENDROOT
BRANCH   1   2
ATOM      2  C   UNL     1      -1.872   7.718  -1.617  1.00  0.00     0.006 C 
BRANCH   2   3
ATOM      3  C   UNL     1      -2.904   8.800  -1.947  1.00  0.00     0.053 C 
BRANCH   3   4
ATOM      4  C   UNL     1      -4.149   8.603  -1.142  1.00  0.00     0.041 C 
ATOM      5  O   UNL     1      -5.014   7.763  -1.508  1.00  0.00    -0.550 OA
ATOM      6  O   UNL     1      -4.380   9.382  -0.016  1.00  0.00    -0.550 OA
ENDBRANCH   3   4
ENDBRANCH   2   3
ENDBRANCH   1   2
BRANCH   1   7
ATOM      7  C   UNL     1      -1.360   8.170  -4.088  1.00  0.00     0.000 C 
BRANCH   7   8
ATOM      8  C   UNL     1      -1.435   7.472  -5.458  1.00  0.00    -0.000 C 
BRANCH   8   9
ATOM      9  C   UNL     1      -2.106   6.090  -5.390  1.00  0.00    -0.000 C 
BRANCH   9  10
ATOM     10  C   UNL     1      -1.533   5.105  -6.420  1.00  0.00    -0.003 C 
ATOM     11  C   UNL     1      -1.734   3.645  -6.015  1.00  0.00     0.004 C 
ENDBRANCH   9  10
ENDBRANCH   8   9
ENDBRANCH   7   8
ENDBRANCH   1   7
TORSDOF 7
ENDMDL
MODEL 7
REMARK VINA RESULT:    -3.099      2.780      5.442
REMARK INTER + INTRA:          -4.657
REMARK INTER:                  -4.000
REMARK INTRA:                  -0.657
REMARK UNBOUND:                -0.289
REMARK SMILES CCCCCCCCC(=O)[O-]
REMARK SMILES IDX 6 1 7 2 8 3 9 4 10 5 11 6 5 7 4 8 3 9 2 10 1 11
REMARK H PARENT
REMARK Flexibility Score: inf
ROOT
ATOM      1  C   UNL     1      -1.593   9.321  -2.560  1.00  0.00     0.000 C 
ENDROOT
BRANCH   1   2
ATOM      2  C   UNL     1      -1.653   8.853  -4.021  1.00  0.00     0.006 C 
BRANCH   2   3
ATOM      3  C   UNL     1      -1.411   7.344  -4.123  1.00  0.00     0.053 C 
BRANCH   3   4
ATOM      4  C   UNL     1      -2.452   6.703  -4.985  1.00  0.00     0.041 C 
ATOM      5  O   UNL     1      -3.661   7.036  -4.872  1.00  0.00    -0.550 OA
ATOM      6  O   UNL     1      -2.096   5.699  -5.876  1.00  0.00    -0.550 OA
ENDBRANCH   3   4
ENDBRANCH   2   3
ENDBRANCH   1   2
BRANCH   1   7
ATOM      7  C   UNL     1      -1.359   8.165  -1.568  1.00  0.00     0.000 C 
BRANCH   7   8
ATOM      8  C   UNL     1      -2.314   8.144  -0.362  1.00  0.00    -0.000 C 
BRANCH   8   9
ATOM      9  C   UNL     1      -3.566   9.013  -0.574  1.00  0.00    -0.000 C 
BRANCH   9  10
ATOM     10  C   UNL     1      -4.689   8.260  -1.303  1.00  0.00    -0.003 C 
ATOM     11  C   UNL     1      -5.273   9.056  -2.469  1.00  0.00     0.004 C 
ENDBRANCH   9  10
ENDBRANCH   8   9
ENDBRANCH   7   8
ENDBRANCH   1   7
TORSDOF 7
ENDMDL
MODEL 8
REMARK VINA RESULT:    -3.029      3.943      5.612
REMARK INTER + INTRA:          -4.558
REMARK INTER:                  -3.970
REMARK INTRA:                  -0.587
REMARK UNBOUND:                -0.289
REMARK SMILES CCCCCCCCC(=O)[O-]
REMARK SMILES IDX 6 1 7 2 8 3 9 4 10 5 11 6 5 7 4 8 3 9 2 10 1 11
REMARK H PARENT
REMARK Flexibility Score: inf
ROOT
ATOM      1  C   UNL     1      -1.515   7.727  -0.474  1.00  0.00     0.000 C 
ENDROOT
BRANCH   1   2
ATOM      2  C   UNL     1      -1.358   9.167   0.036  1.00  0.00     0.006 C 
BRANCH   2   3
ATOM      3  C   UNL     1      -1.410   9.215   1.565  1.00  0.00     0.053 C 
BRANCH   3   4
ATOM      4  C   UNL     1      -2.554  10.063   2.026  1.00  0.00     0.041 C 
ATOM      5  O   UNL     1      -2.408  10.849   2.999  1.00  0.00    -0.550 OA
ATOM      6  O   UNL     1      -3.795   9.948   1.414  1.00  0.00    -0.550 OA
ENDBRANCH   3   4
ENDBRANCH   2   3
ENDBRANCH   1   2
BRANCH   1   7
ATOM      7  C   UNL     1      -1.189   7.582  -1.973  1.00  0.00     0.000 C 
BRANCH   7   8
ATOM      8  C   UNL     1      -1.899   8.595  -2.890  1.00  0.00    -0.000 C 
BRANCH   8   9
ATOM      9  C   UNL     1      -3.320   8.155  -3.281  1.00  0.00    -0.000 C 
BRANCH   9  10
ATOM     10  C   UNL     1      -4.407   8.987  -2.585  1.00  0.00    -0.003 C 
ATOM     11  C   UNL     1      -5.064   8.243  -1.423  1.00  0.00     0.004 C 
ENDBRANCH   9  10
ENDBRANCH   8   9
ENDBRANCH   7   8
ENDBRANCH   1   7
TORSDOF 7
ENDMDL
