MODEL 1
REMARK VINA RESULT:    -4.347      0.000      0.000
REMARK INTER + INTRA:          -4.870
REMARK INTER:                  -4.729
REMARK INTRA:                  -0.141
REMARK UNBOUND:                -0.141
REMARK SMILES C[C@@H]1[C@@H](C)CC[C@@]2(C(=O)[O-])CC[C@@]3(C)C(=CC[C@H]4[C@]5(C)CC[C@@H](O)C(C)(C)[C@@H]5CC[C@@]43C)[C@@H]12
REMARK SMILES IDX 7 1 6 2 11 3 33 4 5 5 12 6 15 7 2 8 3 9 13 10 16 11 1 12
REMARK SMILES IDX 4 13 14 14 31 15 17 16 18 17 30 18 32 19 19 20 29 21 28 22
REMARK SMILES IDX 21 23 20 24 25 25 22 26 23 27 26 28 27 29 8 30 9 31 10 32
REMARK SMILES IDX 24 33
REMARK H PARENT 24 34
REMARK Flexibility Score: inf
ROOT
ATOM      1  C   UNL     1      -3.292   8.098  10.964  1.00  0.00     0.017 C 
ATOM      2  C   UNL     1      -4.527   9.042  10.967  1.00  0.00     0.014 C 
ATOM      3  C   UNL     1      -3.638   6.726  11.649  1.00  0.00     0.014 C 
ATOM      4  C   UNL     1      -2.784   7.902   9.500  1.00  0.00     0.030 C 
ATOM      5  C   UNL     1      -5.620   8.626   9.979  1.00  0.00     0.004 C 
ATOM      6  C   UNL     1      -3.113   5.433  10.974  1.00  0.00     0.013 C 
ATOM      7  C   UNL     1      -1.626   6.902   9.506  1.00  0.00    -0.063 C 
ATOM      8  C   UNL     1      -3.903   7.529   8.474  1.00  0.00    -0.003 C 
ATOM      9  C   UNL     1      -5.075   8.548   8.546  1.00  0.00    -0.011 C 
ATOM     10  C   UNL     1      -1.795   5.506  10.104  1.00  0.00    -0.006 C 
ATOM     11  C   UNL     1      -0.431   7.290   9.009  1.00  0.00    -0.027 C 
ATOM     12  C   UNL     1      -3.323   7.465   7.044  1.00  0.00     0.008 C 
ATOM     13  C   UNL     1      -6.226   8.190   7.589  1.00  0.00     0.008 C 
ATOM     14  C   UNL     1      -2.025   4.554   8.876  1.00  0.00     0.017 C 
ATOM     15  C   UNL     1      -0.453   5.127  10.928  1.00  0.00    -0.020 C 
ATOM     16  C   UNL     1       0.845   6.492   9.115  1.00  0.00     0.032 C 
ATOM     17  C   UNL     1       0.762   5.154   9.922  1.00  0.00     0.006 C 
ATOM     18  C   UNL     1      -0.541   3.708  11.575  1.00  0.00     0.008 C 
ATOM     19  C   UNL     1      -0.246   6.161  12.075  1.00  0.00     0.012 C 
ATOM     20  C   UNL     1       2.163   4.613  10.441  1.00  0.00    -0.025 C 
ATOM     21  C   UNL     1       0.790   3.145  12.106  1.00  0.00     0.005 C 
ATOM     22  C   UNL     1       1.986   3.179  11.109  1.00  0.00     0.003 C 
ATOM     23  C   UNL     1       3.158   4.568   9.222  1.00  0.00     0.010 C 
ATOM     24  C   UNL     1       2.828   5.556  11.501  1.00  0.00     0.012 C 
ATOM     25  C   UNL     1       2.138   1.873  10.194  1.00  0.00    -0.006 C 
ATOM     26  C   UNL     1       4.033   3.324   9.195  1.00  0.00     0.033 C 
ATOM     27  C   UNL     1       3.125   2.107   8.986  1.00  0.00     0.120 C 
ATOM     28  C   UNL     1       0.788   1.389   9.611  1.00  0.00     0.014 C 
ATOM     29  C   UNL     1       2.679   0.712  11.085  1.00  0.00     0.014 C 
ENDROOT
BRANCH   1  30
ATOM     30  C   UNL     1      -2.230   8.819  11.797  1.00  0.00     0.048 C 
ATOM     31  O   UNL     1      -2.165   8.633  13.042  1.00  0.00    -0.550 OA
ATOM     32  O   UNL     1      -1.391   9.772  11.229  1.00  0.00    -0.550 OA
ENDBRANCH   1  30
BRANCH  27  33
ATOM     33  O   UNL     1       3.879   0.963   8.658  1.00  0.00    -0.393 OA
ATOM     34  H   UNL     1       3.289   0.168   8.728  1.00  0.00     0.210 HD
ENDBRANCH  27  33
TORSDOF 2
ENDMDL
MODEL 2
REMARK VINA RESULT:    -4.193      8.817     12.876
REMARK INTER + INTRA:          -4.703
REMARK INTER:                  -4.564
REMARK INTRA:                  -0.139
REMARK UNBOUND:                -0.141
REMARK SMILES C[C@@H]1[C@@H](C)CC[C@@]2(C(=O)[O-])CC[C@@]3(C)C(=CC[C@H]4[C@]5(C)CC[C@@H](O)C(C)(C)[C@@H]5CC[C@@]43C)[C@@H]12
REMARK SMILES IDX 7 1 6 2 11 3 33 4 5 5 12 6 15 7 2 8 3 9 13 10 16 11 1 12
REMARK SMILES IDX 4 13 14 14 31 15 17 16 18 17 30 18 32 19 19 20 29 21 28 22
REMARK SMILES IDX 21 23 20 24 25 25 22 26 23 27 26 28 27 29 8 30 9 31 10 32
REMARK SMILES IDX 24 33
REMARK H PARENT 24 34
REMARK Flexibility Score: inf
ROOT
ATOM      1  C   UNL     1      -4.297  -6.358  11.386  1.00  0.00     0.017 C 
ATOM      2  C   UNL     1      -3.308  -7.449  11.882  1.00  0.00     0.014 C 
ATOM      3  C   UNL     1      -4.865  -5.529  12.595  1.00  0.00     0.014 C 
ATOM      4  C   UNL     1      -3.588  -5.443  10.338  1.00  0.00     0.030 C 
ATOM      5  C   UNL     1      -1.963  -6.890  12.354  1.00  0.00     0.004 C 
ATOM      6  C   UNL     1      -4.975  -3.992  12.423  1.00  0.00     0.013 C 
ATOM      7  C   UNL     1      -4.547  -4.324   9.927  1.00  0.00    -0.063 C 
ATOM      8  C   UNL     1      -2.190  -4.910  10.791  1.00  0.00    -0.003 C 
ATOM      9  C   UNL     1      -1.275  -6.083  11.243  1.00  0.00    -0.011 C 
ATOM     10  C   UNL     1      -5.169  -3.397  10.971  1.00  0.00    -0.006 C 
ATOM     11  C   UNL     1      -4.869  -4.193   8.622  1.00  0.00    -0.027 C 
ATOM     12  C   UNL     1      -1.524  -4.109   9.650  1.00  0.00     0.008 C 
ATOM     13  C   UNL     1       0.096  -5.599  11.749  1.00  0.00     0.008 C 
ATOM     14  C   UNL     1      -4.315  -2.080  10.919  1.00  0.00     0.017 C 
ATOM     15  C   UNL     1      -6.718  -3.138  10.579  1.00  0.00    -0.020 C 
ATOM     16  C   UNL     1      -5.936  -3.268   8.088  1.00  0.00     0.032 C 
ATOM     17  C   UNL     1      -6.755  -2.465   9.152  1.00  0.00     0.006 C 
ATOM     18  C   UNL     1      -7.434  -2.195  11.599  1.00  0.00     0.008 C 
ATOM     19  C   UNL     1      -7.481  -4.497  10.571  1.00  0.00     0.012 C 
ATOM     20  C   UNL     1      -8.151  -1.919   8.629  1.00  0.00    -0.025 C 
ATOM     21  C   UNL     1      -8.799  -1.649  11.143  1.00  0.00     0.005 C 
ATOM     22  C   UNL     1      -8.828  -0.992   9.732  1.00  0.00     0.003 C 
ATOM     23  C   UNL     1      -7.905  -1.138   7.284  1.00  0.00     0.010 C 
ATOM     24  C   UNL     1      -9.164  -3.062   8.278  1.00  0.00     0.012 C 
ATOM     25  C   UNL     1      -8.525   0.582   9.715  1.00  0.00    -0.006 C 
ATOM     26  C   UNL     1      -8.708   0.150   7.170  1.00  0.00     0.033 C 
ATOM     27  C   UNL     1      -8.223   1.111   8.261  1.00  0.00     0.120 C 
ATOM     28  C   UNL     1      -7.327   0.971  10.615  1.00  0.00     0.014 C 
ATOM     29  C   UNL     1      -9.771   1.326  10.287  1.00  0.00     0.014 C 
ENDROOT
BRANCH   1  30
ATOM     30  C   UNL     1      -5.445  -7.125  10.724  1.00  0.00     0.048 C 
ATOM     31  O   UNL     1      -6.443  -7.486  11.403  1.00  0.00    -0.550 OA
ATOM     32  O   UNL     1      -5.367  -7.536   9.397  1.00  0.00    -0.550 OA
ENDBRANCH   1  30
BRANCH  27  33
ATOM     33  O   UNL     1      -8.706   2.416   8.036  1.00  0.00    -0.393 OA
ATOM     34  H   UNL     1      -8.852   2.852   8.916  1.00  0.00     0.210 HD
ENDBRANCH  27  33
TORSDOF 2
ENDMDL
MODEL 3
REMARK VINA RESULT:    -4.192      9.232     10.927
REMARK INTER + INTRA:          -4.701
REMARK INTER:                  -4.562
REMARK INTRA:                  -0.139
REMARK UNBOUND:                -0.141
REMARK SMILES C[C@@H]1[C@@H](C)CC[C@@]2(C(=O)[O-])CC[C@@]3(C)C(=CC[C@H]4[C@]5(C)CC[C@@H](O)C(C)(C)[C@@H]5CC[C@@]43C)[C@@H]12
REMARK SMILES IDX 7 1 6 2 11 3 33 4 5 5 12 6 15 7 2 8 3 9 13 10 16 11 1 12
REMARK SMILES IDX 4 13 14 14 31 15 17 16 18 17 30 18 32 19 19 20 29 21 28 22
REMARK SMILES IDX 21 23 20 24 25 25 22 26 23 27 26 28 27 29 8 30 9 31 10 32
REMARK SMILES IDX 24 33
REMARK H PARENT 24 34
REMARK Flexibility Score: inf
ROOT
ATOM      1  C   UNL     1      -9.485  -3.040  10.483  1.00  0.00     0.017 C 
ATOM      2  C   UNL     1     -10.972  -2.595  10.409  1.00  0.00     0.014 C 
ATOM      3  C   UNL     1      -9.311  -4.497   9.919  1.00  0.00     0.014 C 
ATOM      4  C   UNL     1      -8.590  -2.013   9.720  1.00  0.00     0.030 C 
ATOM      5  C   UNL     1     -11.452  -2.288   8.987  1.00  0.00     0.004 C 
ATOM      6  C   UNL     1      -8.090  -4.773   9.005  1.00  0.00     0.013 C 
ATOM      7  C   UNL     1      -7.145  -2.513   9.728  1.00  0.00    -0.063 C 
ATOM      8  C   UNL     1      -9.102  -1.654   8.287  1.00  0.00    -0.003 C 
ATOM      9  C   UNL     1     -10.588  -1.200   8.332  1.00  0.00    -0.011 C 
ATOM     10  C   UNL     1      -6.786  -3.896   9.185  1.00  0.00    -0.006 C 
ATOM     11  C   UNL     1      -6.187  -1.723  10.262  1.00  0.00    -0.027 C 
ATOM     12  C   UNL     1      -8.215  -0.555   7.659  1.00  0.00     0.008 C 
ATOM     13  C   UNL     1     -11.151  -0.888   6.934  1.00  0.00     0.008 C 
ATOM     14  C   UNL     1      -6.223  -3.644   7.741  1.00  0.00     0.017 C 
ATOM     15  C   UNL     1      -5.684  -4.569  10.162  1.00  0.00    -0.020 C 
ATOM     16  C   UNL     1      -4.761  -2.148  10.512  1.00  0.00     0.032 C 
ATOM     17  C   UNL     1      -4.412  -3.636  10.179  1.00  0.00     0.006 C 
ATOM     18  C   UNL     1      -5.260  -5.992   9.680  1.00  0.00     0.008 C 
ATOM     19  C   UNL     1      -6.285  -4.711  11.593  1.00  0.00     0.012 C 
ATOM     20  C   UNL     1      -3.106  -4.180  10.901  1.00  0.00    -0.025 C 
ATOM     21  C   UNL     1      -4.006  -6.571  10.360  1.00  0.00     0.005 C 
ATOM     22  C   UNL     1      -2.756  -5.642  10.376  1.00  0.00     0.003 C 
ATOM     23  C   UNL     1      -1.931  -3.168  10.629  1.00  0.00     0.010 C 
ATOM     24  C   UNL     1      -3.254  -4.254  12.459  1.00  0.00     0.012 C 
ATOM     25  C   UNL     1      -1.782  -5.800   9.113  1.00  0.00    -0.006 C 
ATOM     26  C   UNL     1      -0.602  -3.843  10.326  1.00  0.00     0.033 C 
ATOM     27  C   UNL     1      -0.749  -4.614   9.009  1.00  0.00     0.120 C 
ATOM     28  C   UNL     1      -2.550  -5.874   7.771  1.00  0.00     0.014 C 
ATOM     29  C   UNL     1      -1.009  -7.148   9.258  1.00  0.00     0.014 C 
ENDROOT
BRANCH   1  30
ATOM     30  C   UNL     1      -9.136  -3.036  11.974  1.00  0.00     0.048 C 
ATOM     31  O   UNL     1      -9.310  -4.073  12.669  1.00  0.00    -0.550 OA
ATOM     32  O   UNL     1      -8.727  -1.872  12.616  1.00  0.00    -0.550 OA
ENDBRANCH   1  30
BRANCH  27  33
ATOM     33  O   UNL     1       0.508  -5.017   8.516  1.00  0.00    -0.393 OA
ATOM     34  H   UNL     1       1.067  -5.310   9.283  1.00  0.00     0.210 HD
ENDBRANCH  27  33
TORSDOF 2
ENDMDL
MODEL 4
REMARK VINA RESULT:    -4.061      2.482      7.129
REMARK INTER + INTRA:          -4.559
REMARK INTER:                  -4.417
REMARK INTRA:                  -0.142
REMARK UNBOUND:                -0.141
REMARK SMILES C[C@@H]1[C@@H](C)CC[C@@]2(C(=O)[O-])CC[C@@]3(C)C(=CC[C@H]4[C@]5(C)CC[C@@H](O)C(C)(C)[C@@H]5CC[C@@]43C)[C@@H]12
REMARK SMILES IDX 7 1 6 2 11 3 33 4 5 5 12 6 15 7 2 8 3 9 13 10 16 11 1 12
REMARK SMILES IDX 4 13 14 14 31 15 17 16 18 17 30 18 32 19 19 20 29 21 28 22
REMARK SMILES IDX 21 23 20 24 25 25 22 26 23 27 26 28 27 29 8 30 9 31 10 32
REMARK SMILES IDX 24 33
REMARK H PARENT 24 34
REMARK Flexibility Score: inf
ROOT
ATOM      1  C   UNL     1      -1.172   3.630  12.715  1.00  0.00     0.017 C 
ATOM      2  C   UNL     1      -0.801   2.477  13.688  1.00  0.00     0.014 C 
ATOM      3  C   UNL     1      -0.459   4.966  13.137  1.00  0.00     0.014 C 
ATOM      4  C   UNL     1      -0.813   3.220  11.252  1.00  0.00     0.030 C 
ATOM      5  C   UNL     1       0.633   1.967  13.519  1.00  0.00     0.004 C 
ATOM      6  C   UNL     1       0.158   5.838  12.013  1.00  0.00     0.013 C 
ATOM      7  C   UNL     1      -1.102   4.398  10.321  1.00  0.00    -0.063 C 
ATOM      8  C   UNL     1       0.632   2.649  11.079  1.00  0.00    -0.003 C 
ATOM      9  C   UNL     1       0.887   1.489  12.082  1.00  0.00    -0.011 C 
ATOM     10  C   UNL     1      -0.466   5.767  10.562  1.00  0.00    -0.006 C 
ATOM     11  C   UNL     1      -1.967   4.220   9.298  1.00  0.00    -0.027 C 
ATOM     12  C   UNL     1       0.852   2.172   9.627  1.00  0.00     0.008 C 
ATOM     13  C   UNL     1       2.319   0.931  11.985  1.00  0.00     0.008 C 
ATOM     14  C   UNL     1       0.741   5.846   9.560  1.00  0.00     0.017 C 
ATOM     15  C   UNL     1      -1.574   6.913  10.276  1.00  0.00    -0.020 C 
ATOM     16  C   UNL     1      -2.494   5.324   8.415  1.00  0.00     0.032 C 
ATOM     17  C   UNL     1      -2.041   6.778   8.775  1.00  0.00     0.006 C 
ATOM     18  C   UNL     1      -1.005   8.351  10.500  1.00  0.00     0.008 C 
ATOM     19  C   UNL     1      -2.775   6.720  11.250  1.00  0.00     0.012 C 
ATOM     20  C   UNL     1      -2.973   7.921   8.185  1.00  0.00    -0.025 C 
ATOM     21  C   UNL     1      -1.880   9.495   9.958  1.00  0.00     0.005 C 
ATOM     22  C   UNL     1      -2.340   9.353   8.477  1.00  0.00     0.003 C 
ATOM     23  C   UNL     1      -3.152   7.667   6.642  1.00  0.00     0.010 C 
ATOM     24  C   UNL     1      -4.418   7.905   8.791  1.00  0.00     0.012 C 
ATOM     25  C   UNL     1      -1.346   9.996   7.397  1.00  0.00    -0.006 C 
ATOM     26  C   UNL     1      -3.088   8.936   5.804  1.00  0.00     0.033 C 
ATOM     27  C   UNL     1      -1.677   9.519   5.930  1.00  0.00     0.120 C 
ATOM     28  C   UNL     1       0.139   9.662   7.676  1.00  0.00     0.014 C 
ATOM     29  C   UNL     1      -1.475  11.548   7.478  1.00  0.00     0.014 C 
ENDROOT
BRANCH   1  30
ATOM     30  C   UNL     1      -2.686   3.806  12.856  1.00  0.00     0.048 C 
ATOM     31  O   UNL     1      -3.156   4.603  13.712  1.00  0.00    -0.550 OA
ATOM     32  O   UNL     1      -3.575   3.021  12.129  1.00  0.00    -0.550 OA
ENDBRANCH   1  30
BRANCH  27  33
ATOM     33  O   UNL     1      -1.454  10.519   4.962  1.00  0.00    -0.393 OA
ATOM     34  H   UNL     1      -0.618  10.301   4.473  1.00  0.00     0.210 HD
ENDBRANCH  27  33
TORSDOF 2
ENDMDL
MODEL 5
REMARK VINA RESULT:    -4.016      9.119     10.714
REMARK INTER + INTRA:          -4.510
REMARK INTER:                  -4.371
REMARK INTRA:                  -0.139
REMARK UNBOUND:                -0.141
REMARK SMILES C[C@@H]1[C@@H](C)CC[C@@]2(C(=O)[O-])CC[C@@]3(C)C(=CC[C@H]4[C@]5(C)CC[C@@H](O)C(C)(C)[C@@H]5CC[C@@]43C)[C@@H]12
REMARK SMILES IDX 7 1 6 2 11 3 33 4 5 5 12 6 15 7 2 8 3 9 13 10 16 11 1 12
REMARK SMILES IDX 4 13 14 14 31 15 17 16 18 17 30 18 32 19 19 20 29 21 28 22
REMARK SMILES IDX 21 23 20 24 25 25 22 26 23 27 26 28 27 29 8 30 9 31 10 32
REMARK SMILES IDX 24 33
REMARK H PARENT 24 34
REMARK Flexibility Score: inf
ROOT
ATOM      1  C   UNL     1     -10.288  -0.881  10.821  1.00  0.00     0.017 C 
ATOM      2  C   UNL     1     -11.499   0.077  11.004  1.00  0.00     0.014 C 
ATOM      3  C   UNL     1     -10.679  -2.106   9.917  1.00  0.00     0.014 C 
ATOM      4  C   UNL     1      -9.077  -0.090  10.232  1.00  0.00     0.030 C 
ATOM      5  C   UNL     1     -11.836   0.888   9.749  1.00  0.00     0.004 C 
ATOM      6  C   UNL     1      -9.656  -2.563   8.845  1.00  0.00     0.013 C 
ATOM      7  C   UNL     1      -7.926  -1.064   9.977  1.00  0.00    -0.063 C 
ATOM      8  C   UNL     1      -9.424   0.783   8.982  1.00  0.00    -0.003 C 
ATOM      9  C   UNL     1     -10.630   1.716   9.282  1.00  0.00    -0.011 C 
ATOM     10  C   UNL     1      -8.118  -2.296   9.093  1.00  0.00    -0.006 C 
ATOM     11  C   UNL     1      -6.739  -0.839  10.582  1.00  0.00    -0.027 C 
ATOM     12  C   UNL     1      -8.193   1.606   8.543  1.00  0.00     0.008 C 
ATOM     13  C   UNL     1     -11.042   2.556   8.060  1.00  0.00     0.008 C 
ATOM     14  C   UNL     1      -7.509  -1.906   7.699  1.00  0.00     0.017 C 
ATOM     15  C   UNL     1      -7.344  -3.547   9.770  1.00  0.00    -0.020 C 
ATOM     16  C   UNL     1      -5.576  -1.800  10.580  1.00  0.00     0.032 C 
ATOM     17  C   UNL     1      -5.814  -3.177   9.875  1.00  0.00     0.006 C 
ATOM     18  C   UNL     1      -7.489  -4.855   8.927  1.00  0.00     0.008 C 
ATOM     19  C   UNL     1      -7.946  -3.821  11.180  1.00  0.00     0.012 C 
ATOM     20  C   UNL     1      -4.805  -4.322  10.314  1.00  0.00    -0.025 C 
ATOM     21  C   UNL     1      -6.541  -6.001   9.324  1.00  0.00     0.005 C 
ATOM     22  C   UNL     1      -5.033  -5.626   9.430  1.00  0.00     0.003 C 
ATOM     23  C   UNL     1      -3.337  -3.770  10.169  1.00  0.00     0.010 C 
ATOM     24  C   UNL     1      -4.960  -4.731  11.818  1.00  0.00     0.012 C 
ATOM     25  C   UNL     1      -4.198  -5.799   8.073  1.00  0.00    -0.006 C 
ATOM     26  C   UNL     1      -2.361  -4.780   9.584  1.00  0.00     0.033 C 
ATOM     27  C   UNL     1      -2.795  -5.083   8.146  1.00  0.00     0.120 C 
ATOM     28  C   UNL     1      -4.945  -5.245   6.835  1.00  0.00     0.014 C 
ATOM     29  C   UNL     1      -3.988  -7.324   7.820  1.00  0.00     0.014 C 
ENDROOT
BRANCH   1  30
ATOM     30  C   UNL     1      -9.955  -1.383  12.228  1.00  0.00     0.048 C 
ATOM     31  O   UNL     1     -10.502  -2.426  12.676  1.00  0.00    -0.550 OA
ATOM     32  O   UNL     1      -9.135  -0.651  13.080  1.00  0.00    -0.550 OA
ENDBRANCH   1  30
BRANCH  27  33
ATOM     33  O   UNL     1      -1.785  -5.775   7.448  1.00  0.00    -0.393 OA
ATOM     34  H   UNL     1      -1.322  -6.380   8.084  1.00  0.00     0.210 HD
ENDBRANCH  27  33
TORSDOF 2
ENDMDL
MODEL 6
REMARK VINA RESULT:    -3.931      2.494      7.228
REMARK INTER + INTRA:          -4.418
REMARK INTER:                  -4.280
REMARK INTRA:                  -0.138
REMARK UNBOUND:                -0.141
REMARK SMILES C[C@@H]1[C@@H](C)CC[C@@]2(C(=O)[O-])CC[C@@]3(C)C(=CC[C@H]4[C@]5(C)CC[C@@H](O)C(C)(C)[C@@H]5CC[C@@]43C)[C@@H]12
REMARK SMILES IDX 7 1 6 2 11 3 33 4 5 5 12 6 15 7 2 8 3 9 13 10 16 11 1 12
REMARK SMILES IDX 4 13 14 14 31 15 17 16 18 17 30 18 32 19 19 20 29 21 28 22
REMARK SMILES IDX 21 23 20 24 25 25 22 26 23 27 26 28 27 29 8 30 9 31 10 32
REMARK SMILES IDX 24 33
REMARK H PARENT 24 34
REMARK Flexibility Score: inf
ROOT
ATOM      1  C   UNL     1      -0.026   3.146  12.243  1.00  0.00     0.017 C 
ATOM      2  C   UNL     1       0.378   1.792  12.892  1.00  0.00     0.014 C 
ATOM      3  C   UNL     1       0.278   3.138  10.701  1.00  0.00     0.014 C 
ATOM      4  C   UNL     1      -1.531   3.440  12.535  1.00  0.00     0.030 C 
ATOM      5  C   UNL     1      -0.562   0.637  12.536  1.00  0.00     0.004 C 
ATOM      6  C   UNL     1      -0.788   3.750   9.755  1.00  0.00     0.013 C 
ATOM      7  C   UNL     1      -1.933   4.729  11.817  1.00  0.00    -0.063 C 
ATOM      8  C   UNL     1      -2.492   2.246  12.225  1.00  0.00    -0.003 C 
ATOM      9  C   UNL     1      -2.009   0.953  12.940  1.00  0.00    -0.011 C 
ATOM     10  C   UNL     1      -1.740   4.884  10.309  1.00  0.00    -0.006 C 
ATOM     11  C   UNL     1      -2.429   5.752  12.548  1.00  0.00    -0.027 C 
ATOM     12  C   UNL     1      -3.937   2.595  12.647  1.00  0.00     0.008 C 
ATOM     13  C   UNL     1      -2.896  -0.263  12.619  1.00  0.00     0.008 C 
ATOM     14  C   UNL     1      -3.153   4.617   9.679  1.00  0.00     0.017 C 
ATOM     15  C   UNL     1      -1.207   6.382  10.004  1.00  0.00    -0.020 C 
ATOM     16  C   UNL     1      -2.692   7.140  12.018  1.00  0.00     0.032 C 
ATOM     17  C   UNL     1      -2.291   7.402  10.528  1.00  0.00     0.006 C 
ATOM     18  C   UNL     1      -0.981   6.628   8.478  1.00  0.00     0.008 C 
ATOM     19  C   UNL     1       0.155   6.600  10.727  1.00  0.00     0.012 C 
ATOM     20  C   UNL     1      -2.102   8.936  10.160  1.00  0.00    -0.025 C 
ATOM     21  C   UNL     1      -0.779   8.099   8.071  1.00  0.00     0.005 C 
ATOM     22  C   UNL     1      -1.850   9.099   8.597  1.00  0.00     0.003 C 
ATOM     23  C   UNL     1      -3.385   9.719  10.628  1.00  0.00     0.010 C 
ATOM     24  C   UNL     1      -0.898   9.601  10.911  1.00  0.00     0.012 C 
ATOM     25  C   UNL     1      -3.108   9.312   7.627  1.00  0.00    -0.006 C 
ATOM     26  C   UNL     1      -3.857  10.767   9.631  1.00  0.00     0.033 C 
ATOM     27  C   UNL     1      -4.300  10.044   8.355  1.00  0.00     0.120 C 
ATOM     28  C   UNL     1      -3.653   7.982   7.052  1.00  0.00     0.014 C 
ATOM     29  C   UNL     1      -2.645  10.167   6.406  1.00  0.00     0.014 C 
ENDROOT
BRANCH   1  30
ATOM     30  C   UNL     1       0.857   4.197  12.921  1.00  0.00     0.048 C 
ATOM     31  O   UNL     1       1.991   4.476  12.447  1.00  0.00    -0.550 OA
ATOM     32  O   UNL     1       0.483   4.786  14.125  1.00  0.00    -0.550 OA
ENDBRANCH   1  30
BRANCH  27  33
ATOM     33  O   UNL     1      -5.018  10.910   7.505  1.00  0.00    -0.393 OA
ATOM     34  H   UNL     1      -5.293  11.707   8.030  1.00  0.00     0.210 HD
ENDBRANCH  27  33
TORSDOF 2
ENDMDL
MODEL 7
REMARK VINA RESULT:    -3.892      8.993     10.854
REMARK INTER + INTRA:          -4.375
REMARK INTER:                  -4.233
REMARK INTRA:                  -0.142
REMARK UNBOUND:                -0.141
REMARK SMILES C[C@@H]1[C@@H](C)CC[C@@]2(C(=O)[O-])CC[C@@]3(C)C(=CC[C@H]4[C@]5(C)CC[C@@H](O)C(C)(C)[C@@H]5CC[C@@]43C)[C@@H]12
REMARK SMILES IDX 7 1 6 2 11 3 33 4 5 5 12 6 15 7 2 8 3 9 13 10 16 11 1 12
REMARK SMILES IDX 4 13 14 14 31 15 17 16 18 17 30 18 32 19 19 20 29 21 28 22
REMARK SMILES IDX 21 23 20 24 25 25 22 26 23 27 26 28 27 29 8 30 9 31 10 32
REMARK SMILES IDX 24 33
REMARK H PARENT 24 34
REMARK Flexibility Score: inf
ROOT
ATOM      1  C   UNL     1      -8.762  -4.012  10.781  1.00  0.00     0.017 C 
ATOM      2  C   UNL     1     -10.307  -3.951  10.624  1.00  0.00     0.014 C 
ATOM      3  C   UNL     1      -8.220  -5.439  10.406  1.00  0.00     0.014 C 
ATOM      4  C   UNL     1      -8.101  -2.894   9.914  1.00  0.00     0.030 C 
ATOM      5  C   UNL     1     -10.776  -3.935   9.166  1.00  0.00     0.004 C 
ATOM      6  C   UNL     1      -6.926  -5.515   9.556  1.00  0.00     0.013 C 
ATOM      7  C   UNL     1      -6.580  -3.026  10.011  1.00  0.00    -0.063 C 
ATOM      8  C   UNL     1      -8.613  -2.837   8.438  1.00  0.00    -0.003 C 
ATOM      9  C   UNL     1     -10.165  -2.755   8.398  1.00  0.00    -0.011 C 
ATOM     10  C   UNL     1      -5.878  -4.335   9.651  1.00  0.00    -0.006 C 
ATOM     11  C   UNL     1      -5.865  -1.971  10.462  1.00  0.00    -0.027 C 
ATOM     12  C   UNL     1      -7.984  -1.637   7.696  1.00  0.00     0.008 C 
ATOM     13  C   UNL     1     -10.718  -2.751   6.961  1.00  0.00     0.008 C 
ATOM     14  C   UNL     1      -5.322  -4.122   8.198  1.00  0.00     0.017 C 
ATOM     15  C   UNL     1      -4.696  -4.603  10.725  1.00  0.00    -0.020 C 
ATOM     16  C   UNL     1      -4.393  -2.007  10.790  1.00  0.00     0.032 C 
ATOM     17  C   UNL     1      -3.684  -3.396  10.651  1.00  0.00     0.006 C 
ATOM     18  C   UNL     1      -3.923  -5.928  10.431  1.00  0.00     0.008 C 
ATOM     19  C   UNL     1      -5.315  -4.721  12.151  1.00  0.00     0.012 C 
ATOM     20  C   UNL     1      -2.323  -3.521  11.459  1.00  0.00    -0.025 C 
ATOM     21  C   UNL     1      -2.602  -6.104  11.202  1.00  0.00     0.005 C 
ATOM     22  C   UNL     1      -1.611  -4.906  11.127  1.00  0.00     0.003 C 
ATOM     23  C   UNL     1      -1.411  -2.293  11.087  1.00  0.00     0.010 C 
ATOM     24  C   UNL     1      -2.524  -3.448  13.011  1.00  0.00     0.012 C 
ATOM     25  C   UNL     1      -0.567  -4.968   9.911  1.00  0.00    -0.006 C 
ATOM     26  C   UNL     1       0.054  -2.657  10.895  1.00  0.00     0.033 C 
ATOM     27  C   UNL     1       0.158  -3.588   9.682  1.00  0.00     0.120 C 
ATOM     28  C   UNL     1      -1.229  -5.381   8.574  1.00  0.00     0.014 C 
ATOM     29  C   UNL     1       0.496  -6.063  10.237  1.00  0.00     0.014 C 
ENDROOT
BRANCH   1  30
ATOM     30  C   UNL     1      -8.497  -3.752  12.266  1.00  0.00     0.048 C 
ATOM     31  O   UNL     1      -8.454  -4.712  13.081  1.00  0.00    -0.550 OA
ATOM     32  O   UNL     1      -8.408  -2.457  12.767  1.00  0.00    -0.550 OA
ENDBRANCH   1  30
BRANCH  27  33
ATOM     33  O   UNL     1       1.498  -3.730   9.267  1.00  0.00    -0.393 OA
ATOM     34  H   UNL     1       1.978  -4.281   9.939  1.00  0.00     0.210 HD
ENDBRANCH  27  33
TORSDOF 2
ENDMDL
MODEL 8
REMARK VINA RESULT:    -3.859      7.561     11.670
REMARK INTER + INTRA:          -4.339
REMARK INTER:                  -4.220
REMARK INTRA:                  -0.118
REMARK UNBOUND:                -0.141
REMARK SMILES C[C@@H]1[C@@H](C)CC[C@@]2(C(=O)[O-])CC[C@@]3(C)C(=CC[C@H]4[C@]5(C)CC[C@@H](O)C(C)(C)[C@@H]5CC[C@@]43C)[C@@H]12
REMARK SMILES IDX 7 1 6 2 11 3 33 4 5 5 12 6 15 7 2 8 3 9 13 10 16 11 1 12
REMARK SMILES IDX 4 13 14 14 31 15 17 16 18 17 30 18 32 19 19 20 29 21 28 22
REMARK SMILES IDX 21 23 20 24 25 25 22 26 23 27 26 28 27 29 8 30 9 31 10 32
REMARK SMILES IDX 24 33
REMARK H PARENT 24 34
REMARK Flexibility Score: inf
ROOT
ATOM      1  C   UNL     1      -3.559   9.477   4.758  1.00  0.00     0.017 C 
ATOM      2  C   UNL     1      -2.901  10.017   6.059  1.00  0.00     0.014 C 
ATOM      3  C   UNL     1      -4.496  10.564   4.116  1.00  0.00     0.014 C 
ATOM      4  C   UNL     1      -2.450   9.007   3.765  1.00  0.00     0.030 C 
ATOM      5  C   UNL     1      -1.808  11.060   5.808  1.00  0.00     0.004 C 
ATOM      6  C   UNL     1      -4.441  10.740   2.576  1.00  0.00     0.013 C 
ATOM      7  C   UNL     1      -3.111   8.563   2.459  1.00  0.00    -0.063 C 
ATOM      8  C   UNL     1      -1.302  10.046   3.543  1.00  0.00    -0.003 C 
ATOM      9  C   UNL     1      -0.702  10.499   4.903  1.00  0.00    -0.011 C 
ATOM     10  C   UNL     1      -4.029   9.505   1.680  1.00  0.00    -0.006 C 
ATOM     11  C   UNL     1      -2.901   7.302   2.022  1.00  0.00    -0.027 C 
ATOM     12  C   UNL     1      -0.205   9.449   2.634  1.00  0.00     0.008 C 
ATOM     13  C   UNL     1       0.397  11.564   4.736  1.00  0.00     0.008 C 
ATOM     14  C   UNL     1      -3.144  10.081   0.518  1.00  0.00     0.017 C 
ATOM     15  C   UNL     1      -5.292   8.658   1.124  1.00  0.00    -0.020 C 
ATOM     16  C   UNL     1      -3.625   6.661   0.863  1.00  0.00     0.032 C 
ATOM     17  C   UNL     1      -4.741   7.520   0.180  1.00  0.00     0.006 C 
ATOM     18  C   UNL     1      -6.286   9.548   0.312  1.00  0.00     0.008 C 
ATOM     19  C   UNL     1      -6.072   8.050   2.327  1.00  0.00     0.012 C 
ATOM     20  C   UNL     1      -5.795   6.679  -0.658  1.00  0.00    -0.025 C 
ATOM     21  C   UNL     1      -7.338   8.779  -0.508  1.00  0.00     0.005 C 
ATOM     22  C   UNL     1      -6.786   7.655  -1.433  1.00  0.00     0.003 C 
ATOM     23  C   UNL     1      -5.007   5.743  -1.649  1.00  0.00     0.010 C 
ATOM     24  C   UNL     1      -6.663   5.725   0.232  1.00  0.00     0.012 C 
ATOM     25  C   UNL     1      -6.407   8.128  -2.916  1.00  0.00    -0.006 C 
ATOM     26  C   UNL     1      -5.628   5.663  -3.036  1.00  0.00     0.033 C 
ATOM     27  C   UNL     1      -5.540   7.052  -3.677  1.00  0.00     0.120 C 
ATOM     28  C   UNL     1      -5.624   9.463  -2.937  1.00  0.00     0.014 C 
ATOM     29  C   UNL     1      -7.731   8.376  -3.703  1.00  0.00     0.014 C 
ENDROOT
BRANCH   1  30
ATOM     30  C   UNL     1      -4.409   8.284   5.201  1.00  0.00     0.048 C 
ATOM     31  O   UNL     1      -5.637   8.434   5.444  1.00  0.00    -0.550 OA
ATOM     32  O   UNL     1      -3.835   7.042   5.452  1.00  0.00    -0.550 OA
ENDBRANCH   1  30
BRANCH  27  33
ATOM     33  O   UNL     1      -5.823   6.991  -5.057  1.00  0.00    -0.393 OA
ATOM     34  H   UNL     1      -6.518   6.298  -5.204  1.00  0.00     0.210 HD
ENDBRANCH  27  33
TORSDOF 2
ENDMDL
MODEL 9
REMARK VINA RESULT:    -3.762      9.394     10.999
REMARK INTER + INTRA:          -4.233
REMARK INTER:                  -4.098
REMARK INTRA:                  -0.135
REMARK UNBOUND:                -0.141
REMARK SMILES C[C@@H]1[C@@H](C)CC[C@@]2(C(=O)[O-])CC[C@@]3(C)C(=CC[C@H]4[C@]5(C)CC[C@@H](O)C(C)(C)[C@@H]5CC[C@@]43C)[C@@H]12
REMARK SMILES IDX 7 1 6 2 11 3 33 4 5 5 12 6 15 7 2 8 3 9 13 10 16 11 1 12
REMARK SMILES IDX 4 13 14 14 31 15 17 16 18 17 30 18 32 19 19 20 29 21 28 22
REMARK SMILES IDX 21 23 20 24 25 25 22 26 23 27 26 28 27 29 8 30 9 31 10 32
REMARK SMILES IDX 24 33
REMARK H PARENT 24 34
REMARK Flexibility Score: inf
ROOT
ATOM      1  C   UNL     1     -10.009   2.372   8.803  1.00  0.00     0.017 C 
ATOM      2  C   UNL     1     -10.644   3.773   8.578  1.00  0.00     0.014 C 
ATOM      3  C   UNL     1     -10.838   1.548   9.854  1.00  0.00     0.014 C 
ATOM      4  C   UNL     1      -9.893   1.622   7.439  1.00  0.00     0.030 C 
ATOM      5  C   UNL     1     -11.948   3.735   7.776  1.00  0.00     0.004 C 
ATOM      6  C   UNL     1     -11.091   0.048   9.552  1.00  0.00     0.013 C 
ATOM      7  C   UNL     1      -9.349   0.215   7.691  1.00  0.00    -0.063 C 
ATOM      8  C   UNL     1     -11.206   1.623   6.590  1.00  0.00    -0.003 C 
ATOM      9  C   UNL     1     -11.740   3.072   6.407  1.00  0.00    -0.011 C 
ATOM     10  C   UNL     1     -10.050  -0.738   8.659  1.00  0.00    -0.006 C 
ATOM     11  C   UNL     1      -8.209  -0.161   7.072  1.00  0.00    -0.027 C 
ATOM     12  C   UNL     1     -10.960   0.956   5.219  1.00  0.00     0.008 C 
ATOM     13  C   UNL     1     -13.063   3.117   5.622  1.00  0.00     0.008 C 
ATOM     14  C   UNL     1     -10.891  -1.707   7.753  1.00  0.00     0.017 C 
ATOM     15  C   UNL     1      -8.926  -1.526   9.518  1.00  0.00    -0.020 C 
ATOM     16  C   UNL     1      -7.452  -1.434   7.360  1.00  0.00     0.032 C 
ATOM     17  C   UNL     1      -8.017  -2.332   8.511  1.00  0.00     0.006 C 
ATOM     18  C   UNL     1      -9.558  -2.527  10.537  1.00  0.00     0.008 C 
ATOM     19  C   UNL     1      -8.080  -0.496  10.325  1.00  0.00     0.012 C 
ATOM     20  C   UNL     1      -6.966  -3.355   9.120  1.00  0.00    -0.025 C 
ATOM     21  C   UNL     1      -8.576  -3.532  11.167  1.00  0.00     0.005 C 
ATOM     22  C   UNL     1      -7.680  -4.320  10.167  1.00  0.00     0.003 C 
ATOM     23  C   UNL     1      -6.316  -4.162   7.934  1.00  0.00     0.010 C 
ATOM     24  C   UNL     1      -5.778  -2.647   9.855  1.00  0.00     0.012 C 
ATOM     25  C   UNL     1      -8.302  -5.702   9.648  1.00  0.00    -0.006 C 
ATOM     26  C   UNL     1      -6.138  -5.644   8.231  1.00  0.00     0.033 C 
ATOM     27  C   UNL     1      -7.528  -6.267   8.395  1.00  0.00     0.120 C 
ATOM     28  C   UNL     1      -9.796  -5.579   9.262  1.00  0.00     0.014 C 
ATOM     29  C   UNL     1      -8.228  -6.739  10.812  1.00  0.00     0.014 C 
ENDROOT
BRANCH   1  30
ATOM     30  C   UNL     1      -8.615   2.648   9.373  1.00  0.00     0.048 C 
ATOM     31  O   UNL     1      -8.451   2.781  10.615  1.00  0.00    -0.550 OA
ATOM     32  O   UNL     1      -7.524   2.866   8.537  1.00  0.00    -0.550 OA
ENDBRANCH   1  30
BRANCH  27  33
ATOM     33  O   UNL     1      -7.457  -7.675   8.379  1.00  0.00    -0.393 OA
ATOM     34  H   UNL     1      -8.261  -8.035   8.836  1.00  0.00     0.210 HD
ENDBRANCH  27  33
TORSDOF 2
ENDMDL
