MODEL 1
REMARK VINA RESULT:    -0.825      0.000      0.000
REMARK INTER + INTRA:          -0.992
REMARK INTER:                  -0.970
REMARK INTRA:                  -0.022
REMARK UNBOUND:                -0.022
REMARK SMILES O=c1c(O)c(-c2ccc(O)cc2)oc2cc(O)cc(O)c12
REMARK SMILES IDX 5 1 3 2 2 3 1 4 21 5 19 6 18 7 16 8 15 9 14 10 13 11 6 12
REMARK SMILES IDX 7 13 8 14 9 15 12 16 11 17 10 18 4 20 20 22 17 24
REMARK H PARENT 10 19 4 21 20 23 17 25
REMARK Flexibility Score: inf
ROOT
ATOM      1  C   UNL     1      20.087  -3.105  14.744  1.00  0.00     0.180 A 
ATOM      2  C   UNL     1      19.380  -4.244  14.325  1.00  0.00     0.208 A 
ATOM      3  C   UNL     1      18.810  -4.259  13.042  1.00  0.00     0.238 A 
ATOM      4  O   UNL     1      18.116  -5.253  12.702  1.00  0.00    -0.285 OA
ATOM      5  C   UNL     1      19.001  -3.158  12.174  1.00  0.00     0.111 A 
ATOM      6  C   UNL     1      18.508  -3.083  10.836  1.00  0.00     0.134 A 
ATOM      7  C   UNL     1      18.667  -1.899  10.106  1.00  0.00     0.093 A 
ATOM      8  C   UNL     1      19.356  -0.811  10.638  1.00  0.00     0.123 A 
ATOM      9  C   UNL     1      19.890  -0.892  11.925  1.00  0.00     0.094 A 
ATOM     10  C   UNL     1      19.715  -2.047  12.693  1.00  0.00     0.146 A 
ATOM     11  O   UNL     1      20.221  -2.074  13.919  1.00  0.00    -0.452 OA
ENDROOT
BRANCH   1  12
ATOM     12  C   UNL     1      20.703  -3.007  16.088  1.00  0.00     0.021 A 
ATOM     13  C   UNL     1      19.957  -3.247  17.256  1.00  0.00     0.016 A 
ATOM     14  C   UNL     1      20.555  -3.125  18.514  1.00  0.00     0.047 A 
ATOM     15  C   UNL     1      21.898  -2.751  18.622  1.00  0.00     0.115 A 
ATOM     16  C   UNL     1      22.045  -2.612  16.205  1.00  0.00     0.016 A 
ATOM     17  C   UNL     1      22.641  -2.491  17.464  1.00  0.00     0.047 A 
BRANCH  15  18
ATOM     18  O   UNL     1      22.481  -2.636  19.882  1.00  0.00    -0.508 OA
ATOM     19  H   UNL     1      23.403  -2.234  20.003  1.00  0.00     0.293 HD
ENDBRANCH  15  18
ENDBRANCH   1  12
BRANCH   2  20
ATOM     20  O   UNL     1      19.268  -5.353  15.170  1.00  0.00    -0.502 OA
ATOM     21  H   UNL     1      19.625  -5.353  16.117  1.00  0.00     0.293 HD
ENDBRANCH   2  20
BRANCH   6  22
ATOM     22  O   UNL     1      17.881  -4.143  10.171  1.00  0.00    -0.507 OA
ATOM     23  H   UNL     1      18.311  -5.032   9.968  1.00  0.00     0.293 HD
ENDBRANCH   6  22
BRANCH   8  24
ATOM     24  O   UNL     1      19.510   0.345   9.877  1.00  0.00    -0.508 OA
ATOM     25  H   UNL     1      19.794   0.306   8.905  1.00  0.00     0.293 HD
ENDBRANCH   8  24
TORSDOF 5
ENDMDL
MODEL 2
REMARK VINA RESULT:     1.826     10.118     12.958
REMARK INTER + INTRA:           2.125
REMARK INTER:                   1.631
REMARK INTRA:                   0.494
REMARK UNBOUND:                -0.022
REMARK SMILES O=c1c(O)c(-c2ccc(O)cc2)oc2cc(O)cc(O)c12
REMARK SMILES IDX 5 1 3 2 2 3 1 4 21 5 19 6 18 7 16 8 15 9 14 10 13 11 6 12
REMARK SMILES IDX 7 13 8 14 9 15 12 16 11 17 10 18 4 20 20 22 17 24
REMARK H PARENT 10 19 4 21 20 23 17 25
REMARK Flexibility Score: inf
ROOT
ATOM      1  C   UNL     1      20.454   9.174  11.181  1.00  0.00     0.180 A 
ATOM      2  C   UNL     1      19.697   8.015  10.938  1.00  0.00     0.208 A 
ATOM      3  C   UNL     1      20.355   6.845  10.526  1.00  0.00     0.238 A 
ATOM      4  O   UNL     1      19.664   5.834  10.238  1.00  0.00    -0.285 OA
ATOM      5  C   UNL     1      21.767   6.832  10.418  1.00  0.00     0.111 A 
ATOM      6  C   UNL     1      22.543   5.690  10.054  1.00  0.00     0.134 A 
ATOM      7  C   UNL     1      23.925   5.822   9.876  1.00  0.00     0.093 A 
ATOM      8  C   UNL     1      24.569   7.036  10.110  1.00  0.00     0.123 A 
ATOM      9  C   UNL     1      23.828   8.146  10.519  1.00  0.00     0.094 A 
ATOM     10  C   UNL     1      22.442   8.055  10.669  1.00  0.00     0.146 A 
ATOM     11  O   UNL     1      21.773   9.139  11.040  1.00  0.00    -0.452 OA
ENDROOT
BRANCH   1  12
ATOM     12  C   UNL     1      19.831  10.450  11.603  1.00  0.00     0.021 A 
ATOM     13  C   UNL     1      18.443  10.558  11.802  1.00  0.00     0.016 A 
ATOM     14  C   UNL     1      17.875  11.779  12.176  1.00  0.00     0.047 A 
ATOM     15  C   UNL     1      18.682  12.908  12.343  1.00  0.00     0.115 A 
ATOM     16  C   UNL     1      20.633  11.593  11.752  1.00  0.00     0.016 A 
ATOM     17  C   UNL     1      20.063  12.814  12.128  1.00  0.00     0.047 A 
BRANCH  15  18
ATOM     18  O   UNL     1      18.103  14.119  12.719  1.00  0.00    -0.508 OA
ATOM     19  H   UNL     1      17.731  14.763  12.031  1.00  0.00     0.293 HD
ENDBRANCH  15  18
ENDBRANCH   1  12
BRANCH   2  20
ATOM     20  O   UNL     1      18.312   8.028  11.124  1.00  0.00    -0.502 OA
ATOM     21  H   UNL     1      17.752   8.861  10.990  1.00  0.00     0.293 HD
ENDBRANCH   2  20
BRANCH   6  22
ATOM     22  O   UNL     1      22.015   4.406   9.881  1.00  0.00    -0.507 OA
ATOM     23  H   UNL     1      21.142   4.083  10.270  1.00  0.00     0.293 HD
ENDBRANCH   6  22
BRANCH   8  24
ATOM     24  O   UNL     1      25.949   7.127   9.939  1.00  0.00    -0.508 OA
ATOM     25  H   UNL     1      26.471   6.410   9.449  1.00  0.00     0.293 HD
ENDBRANCH   8  24
TORSDOF 5
ENDMDL
