MODEL 1
REMARK VINA RESULT:    -4.839      0.000      0.000
REMARK INTER + INTRA:          -5.105
REMARK INTER:                  -6.112
REMARK INTRA:                   1.007
REMARK UNBOUND:                 1.007
REMARK SMILES Oc1ccc(CCc2cc(O)cc(O)c2)cc1
REMARK SMILES IDX 6 1 5 2 4 3 3 4 2 5 16 6 17 7 1 8 7 10 8 11 15 12 9 13 13 14
REMARK SMILES IDX 10 15 12 16 14 17 11 19
REMARK H PARENT 1 9 14 18 11 20
REMARK Flexibility Score: inf
ROOT
ATOM      1  C   UNL     1      11.448 -12.003 -29.316  1.00  0.00     0.040 C 
ENDROOT
BRANCH   1   2
ATOM      2  C   UNL     1      12.645 -11.751 -28.440  1.00  0.00    -0.047 A 
ATOM      3  C   UNL     1      13.437 -12.823 -27.997  1.00  0.00     0.007 A 
ATOM      4  C   UNL     1      14.530 -12.592 -27.156  1.00  0.00     0.046 A 
ATOM      5  C   UNL     1      14.837 -11.288 -26.742  1.00  0.00     0.115 A 
ATOM      6  C   UNL     1      12.949 -10.449 -28.011  1.00  0.00     0.007 A 
ATOM      7  C   UNL     1      14.042 -10.219 -27.171  1.00  0.00     0.046 A 
BRANCH   5   8
ATOM      8  O   UNL     1      15.923 -11.046 -25.905  1.00  0.00    -0.508 OA
ATOM      9  H   UNL     1      16.489 -10.210 -26.000  1.00  0.00     0.293 HD
ENDBRANCH   5   8
ENDBRANCH   1   2
BRANCH   1  10
ATOM     10  C   UNL     1      10.358 -12.745 -28.538  1.00  0.00     0.040 C 
BRANCH  10  11
ATOM     11  C   UNL     1      10.572 -12.595 -27.055  1.00  0.00    -0.040 A 
ATOM     12  C   UNL     1      10.853 -13.719 -26.263  1.00  0.00     0.050 A 
ATOM     13  C   UNL     1      10.548 -11.322 -26.462  1.00  0.00     0.050 A 
ATOM     14  C   UNL     1      11.084 -13.578 -24.891  1.00  0.00     0.119 A 
ATOM     15  C   UNL     1      10.780 -11.176 -25.091  1.00  0.00     0.119 A 
ATOM     16  C   UNL     1      11.045 -12.305 -24.304  1.00  0.00     0.092 A 
BRANCH  14  17
ATOM     17  O   UNL     1      11.356 -14.706 -24.120  1.00  0.00    -0.508 OA
ATOM     18  H   UNL     1      11.026 -14.788 -23.165  1.00  0.00     0.293 HD
ENDBRANCH  14  17
BRANCH  15  19
ATOM     19  O   UNL     1      10.745  -9.906 -24.519  1.00  0.00    -0.508 OA
ATOM     20  H   UNL     1       9.925  -9.566 -24.032  1.00  0.00     0.293 HD
ENDBRANCH  15  19
ENDBRANCH  10  11
ENDBRANCH   1  10
TORSDOF 6
ENDMDL
MODEL 2
REMARK VINA RESULT:    -4.821      2.084      3.916
REMARK INTER + INTRA:          -5.082
REMARK INTER:                  -6.237
REMARK INTRA:                   1.155
REMARK UNBOUND:                 1.007
REMARK SMILES Oc1ccc(CCc2cc(O)cc(O)c2)cc1
REMARK SMILES IDX 6 1 5 2 4 3 3 4 2 5 16 6 17 7 1 8 7 10 8 11 15 12 9 13 13 14
REMARK SMILES IDX 10 15 12 16 14 17 11 19
REMARK H PARENT 1 9 14 18 11 20
REMARK Flexibility Score: inf
ROOT
ATOM      1  C   UNL     1      10.681 -10.558 -25.202  1.00  0.00     0.040 C 
ENDROOT
BRANCH   1   2
ATOM      2  C   UNL     1      10.952 -10.775 -26.667  1.00  0.00    -0.047 A 
ATOM      3  C   UNL     1      10.365 -11.857 -27.343  1.00  0.00     0.007 A 
ATOM      4  C   UNL     1      10.643 -12.077 -28.695  1.00  0.00     0.046 A 
ATOM      5  C   UNL     1      11.518 -11.225 -29.383  1.00  0.00     0.115 A 
ATOM      6  C   UNL     1      11.838  -9.932 -27.357  1.00  0.00     0.007 A 
ATOM      7  C   UNL     1      12.115 -10.154 -28.709  1.00  0.00     0.046 A 
BRANCH   5   8
ATOM      8  O   UNL     1      11.802 -11.435 -30.730  1.00  0.00    -0.508 OA
ATOM      9  H   UNL     1      11.151 -11.162 -31.457  1.00  0.00     0.293 HD
ENDBRANCH   5   8
ENDBRANCH   1   2
BRANCH   1  10
ATOM     10  C   UNL     1      11.661 -11.367 -24.348  1.00  0.00     0.040 C 
BRANCH  10  11
ATOM     11  C   UNL     1      12.688 -12.041 -25.217  1.00  0.00    -0.040 A 
ATOM     12  C   UNL     1      12.406 -13.280 -25.815  1.00  0.00     0.050 A 
ATOM     13  C   UNL     1      13.915 -11.411 -25.482  1.00  0.00     0.050 A 
ATOM     14  C   UNL     1      13.347 -13.892 -26.649  1.00  0.00     0.119 A 
ATOM     15  C   UNL     1      14.858 -12.020 -26.316  1.00  0.00     0.119 A 
ATOM     16  C   UNL     1      14.575 -13.263 -26.898  1.00  0.00     0.092 A 
BRANCH  14  17
ATOM     17  O   UNL     1      13.052 -15.125 -27.229  1.00  0.00    -0.508 OA
ATOM     18  H   UNL     1      13.740 -15.635 -27.770  1.00  0.00     0.293 HD
ENDBRANCH  14  17
BRANCH  15  19
ATOM     19  O   UNL     1      16.071 -11.382 -26.562  1.00  0.00    -0.508 OA
ATOM     20  H   UNL     1      16.898 -11.902 -26.833  1.00  0.00     0.293 HD
ENDBRANCH  15  19
ENDBRANCH  10  11
ENDBRANCH   1  10
TORSDOF 6
ENDMDL
MODEL 3
REMARK VINA RESULT:    -4.701      0.053      2.040
REMARK INTER + INTRA:          -4.930
REMARK INTER:                  -5.896
REMARK INTRA:                   0.965
REMARK UNBOUND:                 1.007
REMARK SMILES Oc1ccc(CCc2cc(O)cc(O)c2)cc1
REMARK SMILES IDX 6 1 5 2 4 3 3 4 2 5 16 6 17 7 1 8 7 10 8 11 15 12 9 13 13 14
REMARK SMILES IDX 10 15 12 16 14 17 11 19
REMARK H PARENT 1 9 14 18 11 20
REMARK Flexibility Score: inf
ROOT
ATOM      1  C   UNL     1      11.479 -12.080 -29.317  1.00  0.00     0.040 C 
ENDROOT
BRANCH   1   2
ATOM      2  C   UNL     1      12.667 -11.802 -28.436  1.00  0.00    -0.047 A 
ATOM      3  C   UNL     1      13.480 -12.858 -27.989  1.00  0.00     0.007 A 
ATOM      4  C   UNL     1      14.565 -12.603 -27.145  1.00  0.00     0.046 A 
ATOM      5  C   UNL     1      14.842 -11.294 -26.729  1.00  0.00     0.115 A 
ATOM      6  C   UNL     1      12.941 -10.494 -28.006  1.00  0.00     0.007 A 
ATOM      7  C   UNL     1      14.026 -10.242 -27.162  1.00  0.00     0.046 A 
BRANCH   5   8
ATOM      8  O   UNL     1      15.919 -11.028 -25.889  1.00  0.00    -0.508 OA
ATOM      9  H   UNL     1      16.850 -11.372 -26.096  1.00  0.00     0.293 HD
ENDBRANCH   5   8
ENDBRANCH   1   2
BRANCH   1  10
ATOM     10  C   UNL     1      10.339 -12.699 -28.503  1.00  0.00     0.040 C 
BRANCH  10  11
ATOM     11  C   UNL     1      10.611 -12.569 -27.028  1.00  0.00    -0.040 A 
ATOM     12  C   UNL     1      10.547 -11.312 -26.405  1.00  0.00     0.050 A 
ATOM     13  C   UNL     1      10.874 -13.710 -26.254  1.00  0.00     0.050 A 
ATOM     14  C   UNL     1      10.768 -11.193 -25.029  1.00  0.00     0.119 A 
ATOM     15  C   UNL     1      11.095 -13.596 -24.877  1.00  0.00     0.119 A 
ATOM     16  C   UNL     1      11.044 -12.336 -24.265  1.00  0.00     0.092 A 
BRANCH  14  17
ATOM     17  O   UNL     1      10.707  -9.937 -24.429  1.00  0.00    -0.508 OA
ATOM     18  H   UNL     1      10.967  -9.799 -23.460  1.00  0.00     0.293 HD
ENDBRANCH  14  17
BRANCH  15  19
ATOM     19  O   UNL     1      11.361 -14.738 -24.127  1.00  0.00    -0.508 OA
ATOM     20  H   UNL     1      12.266 -15.194 -24.158  1.00  0.00     0.293 HD
ENDBRANCH  15  19
ENDBRANCH  10  11
ENDBRANCH   1  10
TORSDOF 6
ENDMDL
MODEL 4
REMARK VINA RESULT:    -4.470      2.081      3.854
REMARK INTER + INTRA:          -4.639
REMARK INTER:                  -5.736
REMARK INTRA:                   1.097
REMARK UNBOUND:                 1.007
REMARK SMILES Oc1ccc(CCc2cc(O)cc(O)c2)cc1
REMARK SMILES IDX 6 1 5 2 4 3 3 4 2 5 16 6 17 7 1 8 7 10 8 11 15 12 9 13 13 14
REMARK SMILES IDX 10 15 12 16 14 17 11 19
REMARK H PARENT 1 9 14 18 11 20
REMARK Flexibility Score: inf
ROOT
ATOM      1  C   UNL     1      14.803 -11.899 -26.389  1.00  0.00     0.040 C 
ENDROOT
BRANCH   1   2
ATOM      2  C   UNL     1      13.489 -11.262 -26.027  1.00  0.00    -0.047 A 
ATOM      3  C   UNL     1      12.727 -11.768 -24.961  1.00  0.00     0.007 A 
ATOM      4  C   UNL     1      11.490 -11.197 -24.645  1.00  0.00     0.046 A 
ATOM      5  C   UNL     1      10.998 -10.121 -25.397  1.00  0.00     0.115 A 
ATOM      6  C   UNL     1      12.985 -10.193 -26.785  1.00  0.00     0.007 A 
ATOM      7  C   UNL     1      11.749  -9.623 -26.468  1.00  0.00     0.046 A 
BRANCH   5   8
ATOM      8  O   UNL     1       9.768  -9.545 -25.091  1.00  0.00    -0.508 OA
ATOM      9  H   UNL     1       9.040  -9.449 -25.789  1.00  0.00     0.293 HD
ENDBRANCH   5   8
ENDBRANCH   1   2
BRANCH   1  10
ATOM     10  C   UNL     1      14.576 -13.176 -27.202  1.00  0.00     0.040 C 
BRANCH  10  11
ATOM     11  C   UNL     1      13.161 -13.235 -27.711  1.00  0.00    -0.040 A 
ATOM     12  C   UNL     1      12.252 -14.159 -27.171  1.00  0.00     0.050 A 
ATOM     13  C   UNL     1      12.722 -12.328 -28.689  1.00  0.00     0.050 A 
ATOM     14  C   UNL     1      10.928 -14.193 -27.619  1.00  0.00     0.119 A 
ATOM     15  C   UNL     1      11.399 -12.358 -29.140  1.00  0.00     0.119 A 
ATOM     16  C   UNL     1      10.502 -13.293 -28.606  1.00  0.00     0.092 A 
BRANCH  14  17
ATOM     17  O   UNL     1      10.042 -15.121 -27.076  1.00  0.00    -0.508 OA
ATOM     18  H   UNL     1       9.599 -14.969 -26.178  1.00  0.00     0.293 HD
ENDBRANCH  14  17
BRANCH  15  19
ATOM     19  O   UNL     1      10.984 -11.455 -30.116  1.00  0.00    -0.508 OA
ATOM     20  H   UNL     1      10.682 -10.518 -29.877  1.00  0.00     0.293 HD
ENDBRANCH  15  19
ENDBRANCH  10  11
ENDBRANCH   1  10
TORSDOF 6
ENDMDL
MODEL 5
REMARK VINA RESULT:    -4.356      2.072      4.227
REMARK INTER + INTRA:          -4.495
REMARK INTER:                  -5.493
REMARK INTRA:                   0.998
REMARK UNBOUND:                 1.007
REMARK SMILES Oc1ccc(CCc2cc(O)cc(O)c2)cc1
REMARK SMILES IDX 6 1 5 2 4 3 3 4 2 5 16 6 17 7 1 8 7 10 8 11 15 12 9 13 13 14
REMARK SMILES IDX 10 15 12 16 14 17 11 19
REMARK H PARENT 1 9 14 18 11 20
REMARK Flexibility Score: inf
ROOT
ATOM      1  C   UNL     1      14.741 -12.038 -26.536  1.00  0.00     0.040 C 
ENDROOT
BRANCH   1   2
ATOM      2  C   UNL     1      13.452 -11.366 -26.147  1.00  0.00    -0.047 A 
ATOM      3  C   UNL     1      12.698 -11.853 -25.067  1.00  0.00     0.007 A 
ATOM      4  C   UNL     1      11.484 -11.248 -24.725  1.00  0.00     0.046 A 
ATOM      5  C   UNL     1      11.007 -10.158 -25.466  1.00  0.00     0.115 A 
ATOM      6  C   UNL     1      12.963 -10.282 -26.893  1.00  0.00     0.007 A 
ATOM      7  C   UNL     1      11.750  -9.679 -26.550  1.00  0.00     0.046 A 
BRANCH   5   8
ATOM      8  O   UNL     1       9.800  -9.548 -25.135  1.00  0.00    -0.508 OA
ATOM      9  H   UNL     1       9.545  -9.367 -24.171  1.00  0.00     0.293 HD
ENDBRANCH   5   8
ENDBRANCH   1   2
BRANCH   1  10
ATOM     10  C   UNL     1      14.476 -13.182 -27.519  1.00  0.00     0.040 C 
BRANCH  10  11
ATOM     11  C   UNL     1      13.019 -13.228 -27.896  1.00  0.00    -0.040 A 
ATOM     12  C   UNL     1      12.524 -12.393 -28.911  1.00  0.00     0.050 A 
ATOM     13  C   UNL     1      12.156 -14.146 -27.275  1.00  0.00     0.050 A 
ATOM     14  C   UNL     1      11.178 -12.458 -29.284  1.00  0.00     0.119 A 
ATOM     15  C   UNL     1      10.810 -14.213 -27.646  1.00  0.00     0.119 A 
ATOM     16  C   UNL     1      10.320 -13.367 -28.650  1.00  0.00     0.092 A 
BRANCH  14  17
ATOM     17  O   UNL     1      10.702 -11.618 -30.289  1.00  0.00    -0.508 OA
ATOM     18  H   UNL     1       9.877 -11.045 -30.156  1.00  0.00     0.293 HD
ENDBRANCH  14  17
BRANCH  15  19
ATOM     19  O   UNL     1       9.968 -15.125 -27.014  1.00  0.00    -0.508 OA
ATOM     20  H   UNL     1       9.114 -15.450 -27.452  1.00  0.00     0.293 HD
ENDBRANCH  15  19
ENDBRANCH  10  11
ENDBRANCH   1  10
TORSDOF 6
ENDMDL
MODEL 6
REMARK VINA RESULT:    -4.180      2.301      3.974
REMARK INTER + INTRA:          -4.272
REMARK INTER:                  -4.744
REMARK INTRA:                   0.472
REMARK UNBOUND:                 1.007
REMARK SMILES Oc1ccc(CCc2cc(O)cc(O)c2)cc1
REMARK SMILES IDX 6 1 5 2 4 3 3 4 2 5 16 6 17 7 1 8 7 10 8 11 15 12 9 13 13 14
REMARK SMILES IDX 10 15 12 16 14 17 11 19
REMARK H PARENT 1 9 14 18 11 20
REMARK Flexibility Score: inf
ROOT
ATOM      1  C   UNL     1      11.950 -11.399 -24.716  1.00  0.00     0.040 C 
ENDROOT
BRANCH   1   2
ATOM      2  C   UNL     1      13.126 -12.005 -25.435  1.00  0.00    -0.047 A 
ATOM      3  C   UNL     1      14.117 -11.180 -25.992  1.00  0.00     0.007 A 
ATOM      4  C   UNL     1      15.192 -11.742 -26.688  1.00  0.00     0.046 A 
ATOM      5  C   UNL     1      15.281 -13.132 -26.843  1.00  0.00     0.115 A 
ATOM      6  C   UNL     1      13.213 -13.396 -25.605  1.00  0.00     0.007 A 
ATOM      7  C   UNL     1      14.288 -13.956 -26.301  1.00  0.00     0.046 A 
BRANCH   5   8
ATOM      8  O   UNL     1      16.347 -13.703 -27.534  1.00  0.00    -0.508 OA
ATOM      9  H   UNL     1      16.488 -13.533 -28.523  1.00  0.00     0.293 HD
ENDBRANCH   5   8
ENDBRANCH   1   2
BRANCH   1  10
ATOM     10  C   UNL     1      10.944 -10.826 -25.718  1.00  0.00     0.040 C 
BRANCH  10  11
ATOM     11  C   UNL     1      10.933 -11.643 -26.982  1.00  0.00    -0.040 A 
ATOM     12  C   UNL     1      11.310 -11.061 -28.203  1.00  0.00     0.050 A 
ATOM     13  C   UNL     1      10.601 -13.007 -26.941  1.00  0.00     0.050 A 
ATOM     14  C   UNL     1      11.332 -11.827 -29.373  1.00  0.00     0.119 A 
ATOM     15  C   UNL     1      10.622 -13.776 -28.108  1.00  0.00     0.119 A 
ATOM     16  C   UNL     1      10.985 -13.185 -29.326  1.00  0.00     0.092 A 
BRANCH  14  17
ATOM     17  O   UNL     1      11.702 -11.231 -30.578  1.00  0.00    -0.508 OA
ATOM     18  H   UNL     1      11.283 -10.364 -30.892  1.00  0.00     0.293 HD
ENDBRANCH  14  17
BRANCH  15  19
ATOM     19  O   UNL     1      10.283 -15.125 -28.049  1.00  0.00    -0.508 OA
ATOM     20  H   UNL     1       9.773 -15.509 -27.262  1.00  0.00     0.293 HD
ENDBRANCH  15  19
ENDBRANCH  10  11
ENDBRANCH   1  10
TORSDOF 6
ENDMDL
MODEL 7
REMARK VINA RESULT:    -4.126      3.522      6.161
REMARK INTER + INTRA:          -4.204
REMARK INTER:                  -3.767
REMARK INTRA:                  -0.437
REMARK UNBOUND:                 1.007
REMARK SMILES Oc1ccc(CCc2cc(O)cc(O)c2)cc1
REMARK SMILES IDX 6 1 5 2 4 3 3 4 2 5 16 6 17 7 1 8 7 10 8 11 15 12 9 13 13 14
REMARK SMILES IDX 10 15 12 16 14 17 11 19
REMARK H PARENT 1 9 14 18 11 20
REMARK Flexibility Score: inf
ROOT
ATOM      1  C   UNL     1      13.604 -10.259 -27.492  1.00  0.00     0.040 C 
ENDROOT
BRANCH   1   2
ATOM      2  C   UNL     1      12.827 -11.548 -27.519  1.00  0.00    -0.047 A 
ATOM      3  C   UNL     1      11.614 -11.629 -28.223  1.00  0.00     0.007 A 
ATOM      4  C   UNL     1      10.876 -12.816 -28.221  1.00  0.00     0.046 A 
ATOM      5  C   UNL     1      11.336 -13.931 -27.507  1.00  0.00     0.115 A 
ATOM      6  C   UNL     1      13.277 -12.663 -26.795  1.00  0.00     0.007 A 
ATOM      7  C   UNL     1      12.538 -13.850 -26.794  1.00  0.00     0.046 A 
BRANCH   5   8
ATOM      8  O   UNL     1      10.610 -15.119 -27.497  1.00  0.00    -0.508 OA
ATOM      9  H   UNL     1      10.916 -15.923 -26.961  1.00  0.00     0.293 HD
ENDBRANCH   5   8
ENDBRANCH   1   2
BRANCH   1  10
ATOM     10  C   UNL     1      12.659  -9.059 -27.587  1.00  0.00     0.040 C 
BRANCH  10  11
ATOM     11  C   UNL     1      13.346  -7.896 -28.253  1.00  0.00    -0.040 A 
ATOM     12  C   UNL     1      14.489  -8.106 -29.041  1.00  0.00     0.050 A 
ATOM     13  C   UNL     1      12.816  -6.601 -28.137  1.00  0.00     0.050 A 
ATOM     14  C   UNL     1      15.109  -7.032 -29.687  1.00  0.00     0.119 A 
ATOM     15  C   UNL     1      13.434  -5.524 -28.781  1.00  0.00     0.119 A 
ATOM     16  C   UNL     1      14.582  -5.740 -29.554  1.00  0.00     0.092 A 
BRANCH  14  17
ATOM     17  O   UNL     1      16.246  -7.258 -30.460  1.00  0.00    -0.508 OA
ATOM     18  H   UNL     1      17.027  -6.613 -30.457  1.00  0.00     0.293 HD
ENDBRANCH  14  17
BRANCH  15  19
ATOM     19  O   UNL     1      12.898  -4.245 -28.649  1.00  0.00    -0.508 OA
ATOM     20  H   UNL     1      12.197  -4.034 -27.948  1.00  0.00     0.293 HD
ENDBRANCH  15  19
ENDBRANCH  10  11
ENDBRANCH   1  10
TORSDOF 6
ENDMDL
MODEL 8
REMARK VINA RESULT:    -4.112      3.523      6.385
REMARK INTER + INTRA:          -4.187
REMARK INTER:                  -3.746
REMARK INTRA:                  -0.441
REMARK UNBOUND:                 1.007
REMARK SMILES Oc1ccc(CCc2cc(O)cc(O)c2)cc1
REMARK SMILES IDX 6 1 5 2 4 3 3 4 2 5 16 6 17 7 1 8 7 10 8 11 15 12 9 13 13 14
REMARK SMILES IDX 10 15 12 16 14 17 11 19
REMARK H PARENT 1 9 14 18 11 20
REMARK Flexibility Score: inf
ROOT
ATOM      1  C   UNL     1      13.561 -10.244 -27.513  1.00  0.00     0.040 C 
ENDROOT
BRANCH   1   2
ATOM      2  C   UNL     1      12.779 -11.530 -27.531  1.00  0.00    -0.047 A 
ATOM      3  C   UNL     1      11.592 -11.626 -28.276  1.00  0.00     0.007 A 
ATOM      4  C   UNL     1      10.848 -12.810 -28.266  1.00  0.00     0.046 A 
ATOM      5  C   UNL     1      11.276 -13.905 -27.503  1.00  0.00     0.115 A 
ATOM      6  C   UNL     1      13.196 -12.625 -26.758  1.00  0.00     0.007 A 
ATOM      7  C   UNL     1      12.451 -13.808 -26.749  1.00  0.00     0.046 A 
BRANCH   5   8
ATOM      8  O   UNL     1      10.544 -15.089 -27.485  1.00  0.00    -0.508 OA
ATOM      9  H   UNL     1       9.779 -15.248 -28.131  1.00  0.00     0.293 HD
ENDBRANCH   5   8
ENDBRANCH   1   2
BRANCH   1  10
ATOM     10  C   UNL     1      12.619  -9.040 -27.586  1.00  0.00     0.040 C 
BRANCH  10  11
ATOM     11  C   UNL     1      13.282  -7.892 -28.300  1.00  0.00    -0.040 A 
ATOM     12  C   UNL     1      12.776  -6.589 -28.167  1.00  0.00     0.050 A 
ATOM     13  C   UNL     1      14.444  -8.107 -29.058  1.00  0.00     0.050 A 
ATOM     14  C   UNL     1      13.410  -5.517 -28.803  1.00  0.00     0.119 A 
ATOM     15  C   UNL     1      15.081  -7.038 -29.696  1.00  0.00     0.119 A 
ATOM     16  C   UNL     1      14.562  -5.742 -29.570  1.00  0.00     0.092 A 
BRANCH  14  17
ATOM     17  O   UNL     1      12.891  -4.231 -28.666  1.00  0.00    -0.508 OA
ATOM     18  H   UNL     1      12.678  -3.840 -27.756  1.00  0.00     0.293 HD
ENDBRANCH  14  17
BRANCH  15  19
ATOM     19  O   UNL     1      16.229  -7.271 -30.449  1.00  0.00    -0.508 OA
ATOM     20  H   UNL     1      17.139  -6.946 -30.143  1.00  0.00     0.293 HD
ENDBRANCH  15  19
ENDBRANCH  10  11
ENDBRANCH   1  10
TORSDOF 6
ENDMDL
MODEL 9
REMARK VINA RESULT:    -4.060      2.287      3.518
REMARK INTER + INTRA:          -4.121
REMARK INTER:                  -4.634
REMARK INTRA:                   0.513
REMARK UNBOUND:                 1.007
REMARK SMILES Oc1ccc(CCc2cc(O)cc(O)c2)cc1
REMARK SMILES IDX 6 1 5 2 4 3 3 4 2 5 16 6 17 7 1 8 7 10 8 11 15 12 9 13 13 14
REMARK SMILES IDX 10 15 12 16 14 17 11 19
REMARK H PARENT 1 9 14 18 11 20
REMARK Flexibility Score: inf
ROOT
ATOM      1  C   UNL     1      11.984 -11.359 -24.696  1.00  0.00     0.040 C 
ENDROOT
BRANCH   1   2
ATOM      2  C   UNL     1      13.160 -11.948 -25.428  1.00  0.00    -0.047 A 
ATOM      3  C   UNL     1      14.167 -11.112 -25.939  1.00  0.00     0.007 A 
ATOM      4  C   UNL     1      15.242 -11.656 -26.647  1.00  0.00     0.046 A 
ATOM      5  C   UNL     1      15.317 -13.039 -26.862  1.00  0.00     0.115 A 
ATOM      6  C   UNL     1      13.232 -13.331 -25.658  1.00  0.00     0.007 A 
ATOM      7  C   UNL     1      14.308 -13.873 -26.367  1.00  0.00     0.046 A 
BRANCH   5   8
ATOM      8  O   UNL     1      16.383 -13.592 -27.566  1.00  0.00    -0.508 OA
ATOM      9  H   UNL     1      16.509 -13.422 -28.557  1.00  0.00     0.293 HD
ENDBRANCH   5   8
ENDBRANCH   1   2
BRANCH   1  10
ATOM     10  C   UNL     1      10.931 -10.855 -25.687  1.00  0.00     0.040 C 
BRANCH  10  11
ATOM     11  C   UNL     1      10.959 -11.672 -26.950  1.00  0.00    -0.040 A 
ATOM     12  C   UNL     1      10.592 -13.027 -26.926  1.00  0.00     0.050 A 
ATOM     13  C   UNL     1      11.300 -11.072 -28.174  1.00  0.00     0.050 A 
ATOM     14  C   UNL     1      10.587 -13.779 -28.105  1.00  0.00     0.119 A 
ATOM     15  C   UNL     1      11.296 -11.820 -29.355  1.00  0.00     0.119 A 
ATOM     16  C   UNL     1      10.941 -13.176 -29.320  1.00  0.00     0.092 A 
BRANCH  14  17
ATOM     17  O   UNL     1      10.226 -15.124 -28.061  1.00  0.00    -0.508 OA
ATOM     18  H   UNL     1      10.684 -15.777 -27.436  1.00  0.00     0.293 HD
ENDBRANCH  14  17
BRANCH  15  19
ATOM     19  O   UNL     1      11.642 -11.209 -30.557  1.00  0.00    -0.508 OA
ATOM     20  H   UNL     1      11.794 -10.209 -30.619  1.00  0.00     0.293 HD
ENDBRANCH  15  19
ENDBRANCH  10  11
ENDBRANCH   1  10
TORSDOF 6
ENDMDL
