MODEL 1
REMARK VINA RESULT:    -2.969      0.000      0.000
REMARK INTER + INTRA:          -3.274
REMARK INTER:                  -3.143
REMARK INTRA:                  -0.132
REMARK UNBOUND:                -0.132
REMARK SMILES C=C(C)[C@H]1CC=C(C)CC1
REMARK SMILES IDX 8 1 7 2 6 3 5 4 4 5 10 6 9 7 2 8 1 9 3 10
REMARK H PARENT
REMARK Flexibility Score: inf
ROOT
ATOM      1  C   UNL     1     134.936 141.264 163.373  1.00  0.00     0.039 C 
ATOM      2  C   UNL     1     135.349 139.855 163.048  1.00  0.00    -0.077 C 
ATOM      3  C   UNL     1     134.885 139.280 161.915  1.00  0.00    -0.027 C 
ATOM      4  C   UNL     1     135.199 137.856 161.529  1.00  0.00     0.035 C 
ATOM      5  C   UNL     1     136.479 137.337 162.208  1.00  0.00     0.018 C 
ATOM      6  C   UNL     1     136.437 137.654 163.711  1.00  0.00     0.013 C 
ATOM      7  C   UNL     1     136.375 139.170 163.930  1.00  0.00     0.031 C 
ENDROOT
BRANCH   5   8
ATOM      8  C   UNL     1     136.676 135.849 161.955  1.00  0.00    -0.077 C 
ATOM      9  C   UNL     1     135.663 135.107 161.480  1.00  0.00     0.008 C 
ATOM     10  C   UNL     1     137.994 135.170 162.238  1.00  0.00     0.039 C 
ENDBRANCH   5   8
TORSDOF 1
ENDMDL
MODEL 2
REMARK VINA RESULT:    -2.458      0.383      1.631
REMARK INTER + INTRA:          -2.733
REMARK INTER:                  -2.606
REMARK INTRA:                  -0.127
REMARK UNBOUND:                -0.132
REMARK SMILES C=C(C)[C@H]1CC=C(C)CC1
REMARK SMILES IDX 8 1 7 2 6 3 5 4 4 5 10 6 9 7 2 8 1 9 3 10
REMARK H PARENT
REMARK Flexibility Score: inf
ROOT
ATOM      1  C   UNL     1     134.955 141.154 163.402  1.00  0.00     0.039 C 
ATOM      2  C   UNL     1     135.407 139.785 162.974  1.00  0.00    -0.077 C 
ATOM      3  C   UNL     1     136.179 139.058 163.813  1.00  0.00    -0.027 C 
ATOM      4  C   UNL     1     136.726 137.699 163.455  1.00  0.00     0.035 C 
ATOM      5  C   UNL     1     135.904 137.014 162.347  1.00  0.00     0.018 C 
ATOM      6  C   UNL     1     135.672 137.995 161.188  1.00  0.00     0.013 C 
ATOM      7  C   UNL     1     134.875 139.210 161.676  1.00  0.00     0.031 C 
ENDROOT
BRANCH   5   8
ATOM      8  C   UNL     1     136.575 135.733 161.872  1.00  0.00    -0.077 C 
ATOM      9  C   UNL     1     135.907 134.877 161.082  1.00  0.00     0.008 C 
ATOM     10  C   UNL     1     137.986 135.386 162.278  1.00  0.00     0.039 C 
ENDBRANCH   5   8
TORSDOF 1
ENDMDL
MODEL 3
REMARK VINA RESULT:    -2.054      1.254      4.402
REMARK INTER + INTRA:          -2.306
REMARK INTER:                  -2.186
REMARK INTRA:                  -0.120
REMARK UNBOUND:                -0.132
REMARK SMILES C=C(C)[C@H]1CC=C(C)CC1
REMARK SMILES IDX 8 1 7 2 6 3 5 4 4 5 10 6 9 7 2 8 1 9 3 10
REMARK H PARENT
REMARK Flexibility Score: inf
ROOT
ATOM      1  C   UNL     1     136.226 134.895 160.757  1.00  0.00     0.039 C 
ATOM      2  C   UNL     1     136.165 136.205 161.493  1.00  0.00    -0.077 C 
ATOM      3  C   UNL     1     135.055 136.507 162.203  1.00  0.00    -0.027 C 
ATOM      4  C   UNL     1     134.876 137.816 162.931  1.00  0.00     0.035 C 
ATOM      5  C   UNL     1     136.222 138.496 163.245  1.00  0.00     0.018 C 
ATOM      6  C   UNL     1     137.101 138.517 161.985  1.00  0.00     0.013 C 
ATOM      7  C   UNL     1     137.399 137.086 161.524  1.00  0.00     0.031 C 
ENDROOT
BRANCH   5   8
ATOM      8  C   UNL     1     136.017 139.894 163.809  1.00  0.00    -0.077 C 
ATOM      9  C   UNL     1     136.395 140.175 165.067  1.00  0.00     0.008 C 
ATOM     10  C   UNL     1     135.381 140.989 162.988  1.00  0.00     0.039 C 
ENDBRANCH   5   8
TORSDOF 1
ENDMDL
MODEL 4
REMARK VINA RESULT:    -0.342     12.487     14.481
REMARK INTER + INTRA:          -0.493
REMARK INTER:                  -0.364
REMARK INTRA:                  -0.130
REMARK UNBOUND:                -0.132
REMARK SMILES C=C(C)[C@H]1CC=C(C)CC1
REMARK SMILES IDX 8 1 7 2 6 3 5 4 4 5 10 6 9 7 2 8 1 9 3 10
REMARK H PARENT
REMARK Flexibility Score: inf
ROOT
ATOM      1  C   UNL     1     147.622 135.300 158.033  1.00  0.00     0.039 C 
ATOM      2  C   UNL     1     148.490 135.190 159.256  1.00  0.00    -0.077 C 
ATOM      3  C   UNL     1     149.827 135.061 159.100  1.00  0.00    -0.027 C 
ATOM      4  C   UNL     1     150.776 134.891 160.261  1.00  0.00     0.035 C 
ATOM      5  C   UNL     1     150.183 135.419 161.580  1.00  0.00     0.018 C 
ATOM      6  C   UNL     1     148.758 134.876 161.765  1.00  0.00     0.013 C 
ATOM      7  C   UNL     1     147.856 135.359 160.623  1.00  0.00     0.031 C 
ENDROOT
BRANCH   5   8
ATOM      8  C   UNL     1     151.073 135.072 162.765  1.00  0.00    -0.077 C 
ATOM      9  C   UNL     1     150.541 134.944 163.991  1.00  0.00     0.008 C 
ATOM     10  C   UNL     1     152.560 134.878 162.602  1.00  0.00     0.039 C 
ENDBRANCH   5   8
TORSDOF 1
ENDMDL
