MODEL 1
REMARK VINA RESULT:    -4.477      0.000      0.000
REMARK INTER + INTRA:          -7.297
REMARK INTER:                  -6.832
REMARK INTRA:                  -0.464
REMARK UNBOUND:                -0.464
REMARK SMILES CCCCCCCCCC=CC(=O)[O-]
REMARK SMILES IDX 7 1 8 2 9 3 10 4 11 5 12 6 13 7 14 8 6 9 5 10 4 11 3 12 2 13
REMARK SMILES IDX 1 14
REMARK H PARENT
REMARK Flexibility Score: inf
ROOT
ATOM      1  C   UNL     1      -8.768  -2.148 -39.777  1.00  0.00     0.000 C 
ENDROOT
BRANCH   1   2
ATOM      2  C   UNL     1      -9.436  -1.486 -38.559  1.00  0.00     0.004 C 
BRANCH   2   3
ATOM      3  C   UNL     1      -8.752  -0.167 -38.169  1.00  0.00     0.027 C 
BRANCH   3   4
ATOM      4  C   UNL     1      -9.300   0.409 -36.894  1.00  0.00    -0.025 C 
ATOM      5  C   UNL     1     -10.314   1.282 -36.900  1.00  0.00     0.020 C 
BRANCH   5   6
ATOM      6  C   UNL     1     -10.864   1.847 -35.660  1.00  0.00     0.064 C 
ATOM      7  O   UNL     1     -12.107   2.013 -35.551  1.00  0.00    -0.545 OA
ATOM      8  O   UNL     1     -10.032   2.202 -34.604  1.00  0.00    -0.545 OA
ENDBRANCH   5   6
ENDBRANCH   3   4
ENDBRANCH   2   3
ENDBRANCH   1   2
BRANCH   1   9
ATOM      9  C   UNL     1      -7.594  -3.060 -39.388  1.00  0.00     0.000 C 
BRANCH   9  10
ATOM     10  C   UNL     1      -7.440  -4.262 -40.336  1.00  0.00     0.000 C 
BRANCH  10  11
ATOM     11  C   UNL     1      -5.971  -4.564 -40.672  1.00  0.00    -0.000 C 
BRANCH  11  12
ATOM     12  C   UNL     1      -4.989  -3.906 -39.690  1.00  0.00    -0.000 C 
BRANCH  12  13
ATOM     13  C   UNL     1      -4.331  -4.957 -38.787  1.00  0.00    -0.003 C 
ATOM     14  C   UNL     1      -5.159  -5.197 -37.528  1.00  0.00     0.004 C 
ENDBRANCH  12  13
ENDBRANCH  11  12
ENDBRANCH  10  11
ENDBRANCH   9  10
ENDBRANCH   1   9
TORSDOF 9
ENDMDL
MODEL 2
REMARK VINA RESULT:    -4.402      3.800      7.480
REMARK INTER + INTRA:          -7.182
REMARK INTER:                  -6.524
REMARK INTRA:                  -0.658
REMARK UNBOUND:                -0.464
REMARK SMILES CCCCCCCCCC=CC(=O)[O-]
REMARK SMILES IDX 7 1 8 2 9 3 10 4 11 5 12 6 13 7 14 8 6 9 5 10 4 11 3 12 2 13
REMARK SMILES IDX 1 14
REMARK H PARENT
REMARK Flexibility Score: inf
ROOT
ATOM      1  C   UNL     1      -8.368  -0.438 -38.729  1.00  0.00     0.000 C 
ENDROOT
BRANCH   1   2
ATOM      2  C   UNL     1      -9.215  -1.171 -39.784  1.00  0.00     0.004 C 
BRANCH   2   3
ATOM      3  C   UNL     1      -8.823  -2.650 -39.916  1.00  0.00     0.027 C 
BRANCH   3   4
ATOM      4  C   UNL     1      -7.410  -2.911 -39.476  1.00  0.00    -0.025 C 
ATOM      5  C   UNL     1      -6.544  -3.566 -40.257  1.00  0.00     0.020 C 
BRANCH   5   6
ATOM      6  C   UNL     1      -5.157  -3.821 -39.841  1.00  0.00     0.064 C 
ATOM      7  O   UNL     1      -4.229  -3.732 -40.687  1.00  0.00    -0.545 OA
ATOM      8  O   UNL     1      -4.853  -4.161 -38.528  1.00  0.00    -0.545 OA
ENDBRANCH   5   6
ENDBRANCH   3   4
ENDBRANCH   2   3
ENDBRANCH   1   2
BRANCH   1   9
ATOM      9  C   UNL     1      -9.178  -0.054 -37.480  1.00  0.00     0.000 C 
BRANCH   9  10
ATOM     10  C   UNL     1     -10.640  -0.529 -37.555  1.00  0.00     0.000 C 
BRANCH  10  11
ATOM     11  C   UNL     1     -11.642   0.600 -37.263  1.00  0.00    -0.000 C 
BRANCH  11  12
ATOM     12  C   UNL     1     -10.975   1.848 -36.666  1.00  0.00    -0.000 C 
BRANCH  12  13
ATOM     13  C   UNL     1     -11.569   2.183 -35.293  1.00  0.00    -0.003 C 
ATOM     14  C   UNL     1     -10.489   2.663 -34.327  1.00  0.00     0.004 C 
ENDBRANCH  12  13
ENDBRANCH  11  12
ENDBRANCH  10  11
ENDBRANCH   9  10
ENDBRANCH   1   9
TORSDOF 9
ENDMDL
MODEL 3
REMARK VINA RESULT:    -4.229      3.719      7.778
REMARK INTER + INTRA:          -6.918
REMARK INTER:                  -6.223
REMARK INTRA:                  -0.696
REMARK UNBOUND:                -0.464
REMARK SMILES CCCCCCCCCC=CC(=O)[O-]
REMARK SMILES IDX 7 1 8 2 9 3 10 4 11 5 12 6 13 7 14 8 6 9 5 10 4 11 3 12 2 13
REMARK SMILES IDX 1 14
REMARK H PARENT
REMARK Flexibility Score: inf
ROOT
ATOM      1  C   UNL     1     -12.035   0.851 -37.365  1.00  0.00     0.000 C 
ENDROOT
BRANCH   1   2
ATOM      2  C   UNL     1     -10.937  -0.225 -37.439  1.00  0.00     0.004 C 
BRANCH   2   3
ATOM      3  C   UNL     1      -9.529   0.377 -37.318  1.00  0.00     0.027 C 
BRANCH   3   4
ATOM      4  C   UNL     1      -8.535  -0.302 -38.218  1.00  0.00    -0.025 C 
ATOM      5  C   UNL     1      -8.792  -1.491 -38.774  1.00  0.00     0.020 C 
BRANCH   5   6
ATOM      6  C   UNL     1      -7.832  -2.162 -39.662  1.00  0.00     0.064 C 
ATOM      7  O   UNL     1      -8.024  -2.152 -40.905  1.00  0.00    -0.545 OA
ATOM      8  O   UNL     1      -6.714  -2.809 -39.149  1.00  0.00    -0.545 OA
ENDBRANCH   5   6
ENDBRANCH   3   4
ENDBRANCH   2   3
ENDBRANCH   1   2
BRANCH   1   9
ATOM      9  C   UNL     1     -11.468   2.279 -37.382  1.00  0.00     0.000 C 
BRANCH   9  10
ATOM     10  C   UNL     1     -11.936   3.115 -36.177  1.00  0.00     0.000 C 
BRANCH  10  11
ATOM     11  C   UNL     1     -11.796   2.360 -34.846  1.00  0.00    -0.000 C 
BRANCH  11  12
ATOM     12  C   UNL     1     -10.476   2.669 -34.123  1.00  0.00    -0.000 C 
BRANCH  12  13
ATOM     13  C   UNL     1     -10.732   3.092 -32.672  1.00  0.00    -0.003 C 
ATOM     14  C   UNL     1      -9.671   4.078 -32.190  1.00  0.00     0.004 C 
ENDBRANCH  12  13
ENDBRANCH  11  12
ENDBRANCH  10  11
ENDBRANCH   9  10
ENDBRANCH   1   9
TORSDOF 9
ENDMDL
MODEL 4
REMARK VINA RESULT:    -4.206      1.184      2.121
REMARK INTER + INTRA:          -6.883
REMARK INTER:                  -6.157
REMARK INTRA:                  -0.726
REMARK UNBOUND:                -0.464
REMARK SMILES CCCCCCCCCC=CC(=O)[O-]
REMARK SMILES IDX 7 1 8 2 9 3 10 4 11 5 12 6 13 7 14 8 6 9 5 10 4 11 3 12 2 13
REMARK SMILES IDX 1 14
REMARK H PARENT
REMARK Flexibility Score: inf
ROOT
ATOM      1  C   UNL     1      -7.338  -3.148 -39.628  1.00  0.00     0.000 C 
ENDROOT
BRANCH   1   2
ATOM      2  C   UNL     1      -8.049  -1.880 -40.131  1.00  0.00     0.004 C 
BRANCH   2   3
ATOM      3  C   UNL     1      -9.576  -1.983 -40.002  1.00  0.00     0.027 C 
BRANCH   3   4
ATOM      4  C   UNL     1     -10.111  -1.183 -38.848  1.00  0.00    -0.025 C 
ATOM      5  C   UNL     1      -9.323  -0.366 -38.139  1.00  0.00     0.020 C 
BRANCH   5   6
ATOM      6  C   UNL     1      -9.835   0.428 -37.013  1.00  0.00     0.064 C 
ATOM      7  O   UNL     1      -9.060   0.746 -36.074  1.00  0.00    -0.545 OA
ATOM      8  O   UNL     1     -11.164   0.832 -36.967  1.00  0.00    -0.545 OA
ENDBRANCH   5   6
ENDBRANCH   3   4
ENDBRANCH   2   3
ENDBRANCH   1   2
BRANCH   1   9
ATOM      9  C   UNL     1      -7.442  -4.319 -40.618  1.00  0.00     0.000 C 
BRANCH   9  10
ATOM     10  C   UNL     1      -6.068  -4.771 -41.145  1.00  0.00     0.000 C 
BRANCH  10  11
ATOM     11  C   UNL     1      -4.909  -3.964 -40.539  1.00  0.00    -0.000 C 
BRANCH  11  12
ATOM     12  C   UNL     1      -3.766  -4.855 -40.029  1.00  0.00    -0.000 C 
BRANCH  12  13
ATOM     13  C   UNL     1      -4.279  -5.865 -38.995  1.00  0.00    -0.003 C 
ATOM     14  C   UNL     1      -4.873  -5.157 -37.781  1.00  0.00     0.004 C 
ENDBRANCH  12  13
ENDBRANCH  11  12
ENDBRANCH  10  11
ENDBRANCH   9  10
ENDBRANCH   1   9
TORSDOF 9
ENDMDL
MODEL 5
REMARK VINA RESULT:    -4.194      2.601      4.879
REMARK INTER + INTRA:          -6.864
REMARK INTER:                  -6.528
REMARK INTRA:                  -0.336
REMARK UNBOUND:                -0.464
REMARK SMILES CCCCCCCCCC=CC(=O)[O-]
REMARK SMILES IDX 7 1 8 2 9 3 10 4 11 5 12 6 13 7 14 8 6 9 5 10 4 11 3 12 2 13
REMARK SMILES IDX 1 14
REMARK H PARENT
REMARK Flexibility Score: inf
ROOT
ATOM      1  C   UNL     1     -11.211   1.418 -36.902  1.00  0.00     0.000 C 
ENDROOT
BRANCH   1   2
ATOM      2  C   UNL     1     -11.526   2.479 -35.833  1.00  0.00     0.004 C 
BRANCH   2   3
ATOM      3  C   UNL     1     -10.644   2.322 -34.585  1.00  0.00     0.027 C 
BRANCH   3   4
ATOM      4  C   UNL     1     -10.279   3.644 -33.970  1.00  0.00    -0.025 C 
ATOM      5  C   UNL     1      -9.936   3.744 -32.681  1.00  0.00     0.020 C 
BRANCH   5   6
ATOM      6  C   UNL     1      -9.569   5.030 -32.069  1.00  0.00     0.064 C 
ATOM      7  O   UNL     1      -9.377   6.034 -32.803  1.00  0.00    -0.545 OA
ATOM      8  O   UNL     1      -9.429   5.153 -30.692  1.00  0.00    -0.545 OA
ENDBRANCH   5   6
ENDBRANCH   3   4
ENDBRANCH   2   3
ENDBRANCH   1   2
BRANCH   1   9
ATOM      9  C   UNL     1      -9.830   0.772 -36.709  1.00  0.00     0.000 C 
BRANCH   9  10
ATOM     10  C   UNL     1      -9.617  -0.452 -37.616  1.00  0.00     0.000 C 
BRANCH  10  11
ATOM     11  C   UNL     1      -8.360  -0.326 -38.491  1.00  0.00    -0.000 C 
BRANCH  11  12
ATOM     12  C   UNL     1      -8.373  -1.286 -39.691  1.00  0.00    -0.000 C 
BRANCH  12  13
ATOM     13  C   UNL     1      -7.868  -2.676 -39.286  1.00  0.00    -0.003 C 
ATOM     14  C   UNL     1      -6.724  -3.132 -40.188  1.00  0.00     0.004 C 
ENDBRANCH  12  13
ENDBRANCH  11  12
ENDBRANCH  10  11
ENDBRANCH   9  10
ENDBRANCH   1   9
TORSDOF 9
ENDMDL
MODEL 6
REMARK VINA RESULT:    -4.142      3.645      5.540
REMARK INTER + INTRA:          -6.786
REMARK INTER:                  -6.107
REMARK INTRA:                  -0.679
REMARK UNBOUND:                -0.464
REMARK SMILES CCCCCCCCCC=CC(=O)[O-]
REMARK SMILES IDX 7 1 8 2 9 3 10 4 11 5 12 6 13 7 14 8 6 9 5 10 4 11 3 12 2 13
REMARK SMILES IDX 1 14
REMARK H PARENT
REMARK Flexibility Score: inf
ROOT
ATOM      1  C   UNL     1     -11.341   2.233 -37.245  1.00  0.00     0.000 C 
ENDROOT
BRANCH   1   2
ATOM      2  C   UNL     1     -11.505   3.121 -35.998  1.00  0.00     0.004 C 
BRANCH   2   3
ATOM      3  C   UNL     1     -11.645   2.292 -34.712  1.00  0.00     0.027 C 
BRANCH   3   4
ATOM      4  C   UNL     1     -10.793   2.821 -33.593  1.00  0.00    -0.025 C 
ATOM      5  C   UNL     1     -10.441   4.109 -33.531  1.00  0.00     0.020 C 
BRANCH   5   6
ATOM      6  C   UNL     1      -9.615   4.641 -32.437  1.00  0.00     0.064 C 
ATOM      7  O   UNL     1      -9.312   3.896 -31.469  1.00  0.00    -0.545 OA
ATOM      8  O   UNL     1      -9.163   5.955 -32.454  1.00  0.00    -0.545 OA
ENDBRANCH   5   6
ENDBRANCH   3   4
ENDBRANCH   2   3
ENDBRANCH   1   2
BRANCH   1   9
ATOM      9  C   UNL     1     -10.884   0.806 -36.901  1.00  0.00     0.000 C 
BRANCH   9  10
ATOM     10  C   UNL     1      -9.352   0.676 -36.833  1.00  0.00     0.000 C 
BRANCH  10  11
ATOM     11  C   UNL     1      -8.768  -0.062 -38.048  1.00  0.00    -0.000 C 
BRANCH  11  12
ATOM     12  C   UNL     1      -9.372  -1.462 -38.240  1.00  0.00    -0.000 C 
BRANCH  12  13
ATOM     13  C   UNL     1      -9.804  -1.678 -39.695  1.00  0.00    -0.003 C 
ATOM     14  C   UNL     1     -11.299  -1.424 -39.869  1.00  0.00     0.004 C 
ENDBRANCH  12  13
ENDBRANCH  11  12
ENDBRANCH  10  11
ENDBRANCH   9  10
ENDBRANCH   1   9
TORSDOF 9
ENDMDL
MODEL 7
REMARK VINA RESULT:    -4.091      3.934      8.690
REMARK INTER + INTRA:          -6.707
REMARK INTER:                  -6.351
REMARK INTRA:                  -0.356
REMARK UNBOUND:                -0.464
REMARK SMILES CCCCCCCCCC=CC(=O)[O-]
REMARK SMILES IDX 7 1 8 2 9 3 10 4 11 5 12 6 13 7 14 8 6 9 5 10 4 11 3 12 2 13
REMARK SMILES IDX 1 14
REMARK H PARENT
REMARK Flexibility Score: inf
ROOT
ATOM      1  C   UNL     1     -11.381   2.445 -36.173  1.00  0.00     0.000 C 
ENDROOT
BRANCH   1   2
ATOM      2  C   UNL     1     -11.054   1.298 -37.146  1.00  0.00     0.004 C 
BRANCH   2   3
ATOM      3  C   UNL     1      -9.646   0.728 -36.916  1.00  0.00     0.027 C 
BRANCH   3   4
ATOM      4  C   UNL     1      -9.422  -0.562 -37.653  1.00  0.00    -0.025 C 
ATOM      5  C   UNL     1      -8.415  -0.704 -38.522  1.00  0.00     0.020 C 
BRANCH   5   6
ATOM      6  C   UNL     1      -8.179  -1.963 -39.244  1.00  0.00     0.064 C 
ATOM      7  O   UNL     1      -9.112  -2.478 -39.914  1.00  0.00    -0.545 OA
ATOM      8  O   UNL     1      -6.943  -2.595 -39.197  1.00  0.00    -0.545 OA
ENDBRANCH   5   6
ENDBRANCH   3   4
ENDBRANCH   2   3
ENDBRANCH   1   2
BRANCH   1   9
ATOM      9  C   UNL     1     -10.725   2.261 -34.796  1.00  0.00     0.000 C 
BRANCH   9  10
ATOM     10  C   UNL     1     -11.063   3.403 -33.822  1.00  0.00     0.000 C 
BRANCH  10  11
ATOM     11  C   UNL     1      -9.832   3.907 -33.053  1.00  0.00    -0.000 C 
BRANCH  11  12
ATOM     12  C   UNL     1     -10.131   4.193 -31.573  1.00  0.00    -0.000 C 
BRANCH  12  13
ATOM     13  C   UNL     1      -9.869   5.666 -31.237  1.00  0.00    -0.003 C 
ATOM     14  C   UNL     1      -9.114   6.364 -32.365  1.00  0.00     0.004 C 
ENDBRANCH  12  13
ENDBRANCH  11  12
ENDBRANCH  10  11
ENDBRANCH   9  10
ENDBRANCH   1   9
TORSDOF 9
ENDMDL
MODEL 8
REMARK VINA RESULT:    -4.087     11.647     13.591
REMARK INTER + INTRA:          -6.702
REMARK INTER:                  -5.320
REMARK INTRA:                  -1.382
REMARK UNBOUND:                -0.464
REMARK SMILES CCCCCCCCCC=CC(=O)[O-]
REMARK SMILES IDX 7 1 8 2 9 3 10 4 11 5 12 6 13 7 14 8 6 9 5 10 4 11 3 12 2 13
REMARK SMILES IDX 1 14
REMARK H PARENT
REMARK Flexibility Score: inf
ROOT
ATOM      1  C   UNL     1       1.162  -9.443 -31.379  1.00  0.00     0.000 C 
ENDROOT
BRANCH   1   2
ATOM      2  C   UNL     1       1.750  -8.483 -30.330  1.00  0.00     0.004 C 
BRANCH   2   3
ATOM      3  C   UNL     1       2.240  -7.169 -30.957  1.00  0.00     0.027 C 
BRANCH   3   4
ATOM      4  C   UNL     1       2.686  -7.345 -32.382  1.00  0.00    -0.025 C 
ATOM      5  C   UNL     1       2.106  -6.676 -33.384  1.00  0.00     0.020 C 
BRANCH   5   6
ATOM      6  C   UNL     1       2.537  -6.833 -34.780  1.00  0.00     0.064 C 
ATOM      7  O   UNL     1       2.451  -7.960 -35.334  1.00  0.00    -0.545 OA
ATOM      8  O   UNL     1       3.041  -5.756 -35.499  1.00  0.00    -0.545 OA
ENDBRANCH   5   6
ENDBRANCH   3   4
ENDBRANCH   2   3
ENDBRANCH   1   2
BRANCH   1   9
ATOM      9  C   UNL     1      -0.372  -9.377 -31.450  1.00  0.00     0.000 C 
BRANCH   9  10
ATOM     10  C   UNL     1      -0.873  -8.526 -32.630  1.00  0.00     0.000 C 
BRANCH  10  11
ATOM     11  C   UNL     1      -1.889  -7.457 -32.196  1.00  0.00    -0.000 C 
BRANCH  11  12
ATOM     12  C   UNL     1      -1.258  -6.349 -31.340  1.00  0.00    -0.000 C 
BRANCH  12  13
ATOM     13  C   UNL     1      -1.884  -6.315 -29.940  1.00  0.00    -0.003 C 
ATOM     14  C   UNL     1      -0.810  -6.295 -28.856  1.00  0.00     0.004 C 
ENDBRANCH  12  13
ENDBRANCH  11  12
ENDBRANCH  10  11
ENDBRANCH   9  10
ENDBRANCH   1   9
TORSDOF 9
ENDMDL
MODEL 9
REMARK VINA RESULT:    -4.057      4.233      6.904
REMARK INTER + INTRA:          -6.655
REMARK INTER:                  -6.159
REMARK INTRA:                  -0.496
REMARK UNBOUND:                -0.464
REMARK SMILES CCCCCCCCCC=CC(=O)[O-]
REMARK SMILES IDX 7 1 8 2 9 3 10 4 11 5 12 6 13 7 14 8 6 9 5 10 4 11 3 12 2 13
REMARK SMILES IDX 1 14
REMARK H PARENT
REMARK Flexibility Score: inf
ROOT
ATOM      1  C   UNL     1     -10.510   2.236 -34.664  1.00  0.00     0.000 C 
ENDROOT
BRANCH   1   2
ATOM      2  C   UNL     1     -10.557   3.334 -33.588  1.00  0.00     0.004 C 
BRANCH   2   3
ATOM      3  C   UNL     1     -10.736   4.733 -34.197  1.00  0.00     0.027 C 
BRANCH   3   4
ATOM      4  C   UNL     1      -9.867   5.764 -33.533  1.00  0.00    -0.025 C 
ATOM      5  C   UNL     1      -9.413   5.598 -32.286  1.00  0.00     0.020 C 
BRANCH   5   6
ATOM      6  C   UNL     1      -8.556   6.595 -31.628  1.00  0.00     0.064 C 
ATOM      7  O   UNL     1      -8.367   6.528 -30.385  1.00  0.00    -0.545 OA
ATOM      8  O   UNL     1      -7.952   7.613 -32.357  1.00  0.00    -0.545 OA
ENDBRANCH   5   6
ENDBRANCH   3   4
ENDBRANCH   2   3
ENDBRANCH   1   2
BRANCH   1   9
ATOM      9  C   UNL     1     -11.617   2.391 -35.719  1.00  0.00     0.000 C 
BRANCH   9  10
ATOM     10  C   UNL     1     -11.220   1.802 -37.084  1.00  0.00     0.000 C 
BRANCH  10  11
ATOM     11  C   UNL     1     -10.142   0.712 -36.965  1.00  0.00    -0.000 C 
BRANCH  11  12
ATOM     12  C   UNL     1     -10.611  -0.648 -37.504  1.00  0.00    -0.000 C 
BRANCH  12  13
ATOM     13  C   UNL     1      -9.462  -1.385 -38.204  1.00  0.00    -0.003 C 
ATOM     14  C   UNL     1      -8.390  -0.409 -38.680  1.00  0.00     0.004 C 
ENDBRANCH  12  13
ENDBRANCH  11  12
ENDBRANCH  10  11
ENDBRANCH   9  10
ENDBRANCH   1   9
TORSDOF 9
ENDMDL
