MODEL 1
REMARK VINA RESULT:   126.625      0.000      0.000
REMARK INTER + INTRA:         137.214
REMARK INTER:                 137.728
REMARK INTRA:                  -0.515
REMARK UNBOUND:                -0.515
REMARK SMILES C=C(C)[C@@H]1CC[C@]2(C)CC[C@]3(C)[C@H](CC[C@@H]4[C@@]5(C)CC[C@H](O)C(C)(C)[C@@H]5CC[C@]43C)[C@@H]12
REMARK SMILES IDX 4 1 5 2 6 3 7 4 31 5 13 6 14 7 15 8 16 9 17 10 19 11 20 12
REMARK SMILES IDX 21 13 23 14 26 15 27 16 28 17 29 18 11 19 10 20 9 21 12 22
REMARK SMILES IDX 30 23 24 24 25 25 18 26 8 27 2 28 3 29 1 30 22 31
REMARK H PARENT 22 32
REMARK Flexibility Score: inf
ROOT
ATOM      1  C   UNL     1      23.732  41.215   7.270  1.00  0.00     0.018 C 
ATOM      2  C   UNL     1      25.125  40.537   7.254  1.00  0.00     0.009 C 
ATOM      3  C   UNL     1      25.047  39.339   8.218  1.00  0.00     0.008 C 
ATOM      4  C   UNL     1      23.836  39.637   9.110  1.00  0.00    -0.029 C 
ATOM      5  C   UNL     1      22.859  40.247   8.091  1.00  0.00     0.006 C 
ATOM      6  C   UNL     1      21.566  40.748   8.790  1.00  0.00    -0.000 C 
ATOM      7  C   UNL     1      20.617  41.508   7.844  1.00  0.00     0.005 C 
ATOM      8  C   UNL     1      19.397  42.072   8.587  1.00  0.00     0.005 C 
ATOM      9  C   UNL     1      18.627  40.994   9.409  1.00  0.00     0.002 C 
ATOM     10  C   UNL     1      17.227  41.477  10.010  1.00  0.00    -0.026 C 
ATOM     11  C   UNL     1      16.310  41.952   8.833  1.00  0.00     0.010 C 
ATOM     12  C   UNL     1      14.839  42.157   9.223  1.00  0.00     0.033 C 
ATOM     13  C   UNL     1      14.221  40.901   9.844  1.00  0.00     0.120 C 
ATOM     14  C   UNL     1      15.021  40.377  11.079  1.00  0.00    -0.006 C 
ATOM     15  C   UNL     1      16.542  40.215  10.667  1.00  0.00     0.003 C 
ATOM     16  C   UNL     1      17.450  39.567  11.742  1.00  0.00     0.005 C 
ATOM     17  C   UNL     1      18.775  39.086  11.125  1.00  0.00     0.008 C 
ATOM     18  C   UNL     1      19.592  40.201  10.395  1.00  0.00    -0.024 C 
ATOM     19  C   UNL     1      20.815  39.561   9.534  1.00  0.00    -0.024 C 
ATOM     20  C   UNL     1      21.836  38.753  10.434  1.00  0.00     0.008 C 
ATOM     21  C   UNL     1      23.178  38.390   9.737  1.00  0.00     0.007 C 
ATOM     22  C   UNL     1      20.290  38.503   8.484  1.00  0.00     0.012 C 
ATOM     23  C   UNL     1      20.141  41.157  11.514  1.00  0.00     0.012 C 
ATOM     24  C   UNL     1      14.427  38.989  11.451  1.00  0.00     0.014 C 
ATOM     25  C   UNL     1      14.816  41.301  12.309  1.00  0.00     0.014 C 
ATOM     26  C   UNL     1      17.402  42.675  11.002  1.00  0.00     0.012 C 
ATOM     27  C   UNL     1      24.308  40.612  10.238  1.00  0.00     0.011 C 
ENDROOT
BRANCH   1  28
ATOM     28  C   UNL     1      23.219  41.476   5.856  1.00  0.00    -0.077 C 
ATOM     29  C   UNL     1      22.886  42.869   5.378  1.00  0.00     0.039 C 
ATOM     30  C   UNL     1      23.001  40.447   5.022  1.00  0.00     0.008 C 
ENDBRANCH   1  28
BRANCH  13  31
ATOM     31  O   UNL     1      12.889  41.191  10.196  1.00  0.00    -0.393 OA
ATOM     32  H   UNL     1      12.489  40.363  10.570  1.00  0.00     0.210 HD
ENDBRANCH  13  31
TORSDOF 2
ENDMDL
MODEL 2
REMARK VINA RESULT:   129.091      2.764      4.560
REMARK INTER + INTRA:         139.897
REMARK INTER:                 140.209
REMARK INTRA:                  -0.313
REMARK UNBOUND:                -0.515
REMARK SMILES C=C(C)[C@@H]1CC[C@]2(C)CC[C@]3(C)[C@H](CC[C@@H]4[C@@]5(C)CC[C@H](O)C(C)(C)[C@@H]5CC[C@]43C)[C@@H]12
REMARK SMILES IDX 4 1 5 2 6 3 7 4 31 5 13 6 14 7 15 8 16 9 17 10 19 11 20 12
REMARK SMILES IDX 21 13 23 14 26 15 27 16 28 17 29 18 11 19 10 20 9 21 12 22
REMARK SMILES IDX 30 23 24 24 25 25 18 26 8 27 2 28 3 29 1 30 22 31
REMARK H PARENT 22 32
REMARK Flexibility Score: inf
ROOT
ATOM      1  C   UNL     1      20.682  42.950  12.379  1.00  0.00     0.018 C 
ATOM      2  C   UNL     1      22.204  42.705  12.227  1.00  0.00     0.009 C 
ATOM      3  C   UNL     1      22.369  41.522  11.255  1.00  0.00     0.008 C 
ATOM      4  C   UNL     1      21.006  40.819  11.266  1.00  0.00    -0.029 C 
ATOM      5  C   UNL     1      20.050  42.023  11.324  1.00  0.00     0.006 C 
ATOM      6  C   UNL     1      18.575  41.558  11.461  1.00  0.00    -0.000 C 
ATOM      7  C   UNL     1      17.588  42.720  11.679  1.00  0.00     0.005 C 
ATOM      8  C   UNL     1      16.154  42.218  11.907  1.00  0.00     0.005 C 
ATOM      9  C   UNL     1      15.654  41.258  10.785  1.00  0.00     0.002 C 
ATOM     10  C   UNL     1      14.099  40.893  10.854  1.00  0.00    -0.026 C 
ATOM     11  C   UNL     1      13.267  42.218  10.780  1.00  0.00     0.010 C 
ATOM     12  C   UNL     1      11.766  42.006  10.531  1.00  0.00     0.033 C 
ATOM     13  C   UNL     1      11.496  41.191   9.263  1.00  0.00     0.120 C 
ATOM     14  C   UNL     1      12.226  39.810   9.261  1.00  0.00    -0.006 C 
ATOM     15  C   UNL     1      13.762  40.048   9.562  1.00  0.00     0.003 C 
ATOM     16  C   UNL     1      14.657  38.787   9.455  1.00  0.00     0.005 C 
ATOM     17  C   UNL     1      16.143  39.175   9.361  1.00  0.00     0.008 C 
ATOM     18  C   UNL     1      16.662  40.048  10.549  1.00  0.00    -0.024 C 
ATOM     19  C   UNL     1      18.139  40.649  10.231  1.00  0.00    -0.024 C 
ATOM     20  C   UNL     1      19.217  39.517   9.986  1.00  0.00     0.008 C 
ATOM     21  C   UNL     1      20.694  40.004   9.993  1.00  0.00     0.007 C 
ATOM     22  C   UNL     1      18.145  41.496   8.897  1.00  0.00     0.012 C 
ATOM     23  C   UNL     1      16.701  39.111  11.810  1.00  0.00     0.012 C 
ATOM     24  C   UNL     1      12.057  39.209   7.837  1.00  0.00     0.014 C 
ATOM     25  C   UNL     1      11.553  38.824  10.251  1.00  0.00     0.014 C 
ATOM     26  C   UNL     1      13.731  40.162  12.187  1.00  0.00     0.012 C 
ATOM     27  C   UNL     1      20.966  39.884  12.518  1.00  0.00     0.011 C 
ENDROOT
BRANCH   1  28
ATOM     28  C   UNL     1      20.332  44.427  12.207  1.00  0.00    -0.077 C 
ATOM     29  C   UNL     1      19.356  45.122  13.125  1.00  0.00     0.039 C 
ATOM     30  C   UNL     1      20.854  45.124  11.186  1.00  0.00     0.008 C 
ENDBRANCH   1  28
BRANCH  13  31
ATOM     31  O   UNL     1      10.104  41.024   9.133  1.00  0.00    -0.393 OA
ATOM     32  H   UNL     1       9.944  40.129   8.735  1.00  0.00     0.210 HD
ENDBRANCH  13  31
TORSDOF 2
ENDMDL
