MODEL 1
REMARK VINA RESULT:    -4.037      0.000      0.000
REMARK INTER + INTRA:          -5.203
REMARK INTER:                  -4.981
REMARK INTRA:                  -0.222
REMARK UNBOUND:                -0.222
REMARK SMILES CCCCC=CC(C)=O
REMARK SMILES IDX 4 1 3 2 2 3 1 4 5 5 6 6 7 7 9 8 8 9
REMARK H PARENT
REMARK Flexibility Score: inf
ROOT
ATOM      1  C   UNL     1      73.658  33.878  53.475  1.00  0.00     0.027 C 
ENDROOT
BRANCH   1   2
ATOM      2  C   UNL     1      73.939  35.381  53.616  1.00  0.00     0.004 C 
BRANCH   2   3
ATOM      3  C   UNL     1      74.075  36.086  52.258  1.00  0.00    -0.003 C 
ATOM      4  C   UNL     1      72.762  36.121  51.477  1.00  0.00     0.004 C 
ENDBRANCH   2   3
ENDBRANCH   1   2
BRANCH   1   5
ATOM      5  C   UNL     1      72.768  33.386  54.580  1.00  0.00    -0.023 C 
ATOM      6  C   UNL     1      72.434  34.175  55.609  1.00  0.00     0.042 C 
BRANCH   6   7
ATOM      7  C   UNL     1      71.572  33.733  56.724  1.00  0.00     0.152 C 
ATOM      8  O   UNL     1      70.425  34.241  56.838  1.00  0.00    -0.295 OA
ATOM      9  C   UNL     1      72.012  32.704  57.722  1.00  0.00     0.093 C 
ENDBRANCH   6   7
ENDBRANCH   1   5
TORSDOF 4
ENDMDL
MODEL 2
REMARK VINA RESULT:    -3.902      0.958      1.152
REMARK INTER + INTRA:          -5.037
REMARK INTER:                  -4.814
REMARK INTRA:                  -0.223
REMARK UNBOUND:                -0.222
REMARK SMILES CCCCC=CC(C)=O
REMARK SMILES IDX 4 1 3 2 2 3 1 4 5 5 6 6 7 7 9 8 8 9
REMARK H PARENT
REMARK Flexibility Score: inf
ROOT
ATOM      1  C   UNL     1      73.598  33.849  53.411  1.00  0.00     0.027 C 
ENDROOT
BRANCH   1   2
ATOM      2  C   UNL     1      74.154  35.260  53.653  1.00  0.00     0.004 C 
BRANCH   2   3
ATOM      3  C   UNL     1      74.141  36.125  52.383  1.00  0.00    -0.003 C 
ATOM      4  C   UNL     1      72.814  36.045  51.628  1.00  0.00     0.004 C 
ENDBRANCH   2   3
ENDBRANCH   1   2
BRANCH   1   5
ATOM      5  C   UNL     1      72.570  33.488  54.446  1.00  0.00    -0.023 C 
ATOM      6  C   UNL     1      72.747  33.789  55.738  1.00  0.00     0.042 C 
BRANCH   6   7
ATOM      7  C   UNL     1      71.771  33.444  56.792  1.00  0.00     0.152 C 
ATOM      8  O   UNL     1      72.076  32.555  57.630  1.00  0.00    -0.295 OA
ATOM      9  C   UNL     1      70.433  34.113  56.899  1.00  0.00     0.093 C 
ENDBRANCH   6   7
ENDBRANCH   1   5
TORSDOF 4
ENDMDL
MODEL 3
REMARK VINA RESULT:    -3.794      2.242      5.149
REMARK INTER + INTRA:          -4.902
REMARK INTER:                  -4.771
REMARK INTRA:                  -0.131
REMARK UNBOUND:                -0.222
REMARK SMILES CCCCC=CC(C)=O
REMARK SMILES IDX 4 1 3 2 2 3 1 4 5 5 6 6 7 7 9 8 8 9
REMARK H PARENT
REMARK Flexibility Score: inf
ROOT
ATOM      1  C   UNL     1      72.330  33.150  54.976  1.00  0.00     0.027 C 
ENDROOT
BRANCH   1   2
ATOM      2  C   UNL     1      71.856  34.127  56.062  1.00  0.00     0.004 C 
BRANCH   2   3
ATOM      3  C   UNL     1      71.261  33.407  57.282  1.00  0.00    -0.003 C 
ATOM      4  C   UNL     1      72.287  32.544  58.016  1.00  0.00     0.004 C 
ENDBRANCH   2   3
ENDBRANCH   1   2
BRANCH   1   5
ATOM      5  C   UNL     1      72.743  33.883  53.731  1.00  0.00    -0.023 C 
ATOM      6  C   UNL     1      73.886  34.577  53.677  1.00  0.00     0.042 C 
BRANCH   6   7
ATOM      7  C   UNL     1      74.328  35.322  52.480  1.00  0.00     0.152 C 
ATOM      8  O   UNL     1      73.461  35.908  51.780  1.00  0.00    -0.295 OA
ATOM      9  C   UNL     1      75.769  35.406  52.072  1.00  0.00     0.093 C 
ENDBRANCH   6   7
ENDBRANCH   1   5
TORSDOF 4
ENDMDL
MODEL 4
REMARK VINA RESULT:    -3.733      3.032      5.502
REMARK INTER + INTRA:          -4.828
REMARK INTER:                  -4.711
REMARK INTRA:                  -0.117
REMARK UNBOUND:                -0.222
REMARK SMILES CCCCC=CC(C)=O
REMARK SMILES IDX 4 1 3 2 2 3 1 4 5 5 6 6 7 7 9 8 8 9
REMARK H PARENT
REMARK Flexibility Score: inf
ROOT
ATOM      1  C   UNL     1      72.671  33.804  53.847  1.00  0.00     0.027 C 
ENDROOT
BRANCH   1   2
ATOM      2  C   UNL     1      72.807  34.152  55.337  1.00  0.00     0.004 C 
BRANCH   2   3
ATOM      3  C   UNL     1      71.522  33.867  56.128  1.00  0.00    -0.003 C 
ATOM      4  C   UNL     1      71.765  32.980  57.348  1.00  0.00     0.004 C 
ENDBRANCH   2   3
ENDBRANCH   1   2
BRANCH   1   5
ATOM      5  C   UNL     1      73.710  34.516  53.027  1.00  0.00    -0.023 C 
ATOM      6  C   UNL     1      74.930  33.998  52.847  1.00  0.00     0.042 C 
BRANCH   6   7
ATOM      7  C   UNL     1      75.988  34.665  52.060  1.00  0.00     0.152 C 
ATOM      8  O   UNL     1      77.045  34.030  51.808  1.00  0.00    -0.295 OA
ATOM      9  C   UNL     1      75.846  36.070  51.551  1.00  0.00     0.093 C 
ENDBRANCH   6   7
ENDBRANCH   1   5
TORSDOF 4
ENDMDL
MODEL 5
REMARK VINA RESULT:    -3.453      3.592      5.848
REMARK INTER + INTRA:          -4.483
REMARK INTER:                  -4.326
REMARK INTRA:                  -0.157
REMARK UNBOUND:                -0.222
REMARK SMILES CCCCC=CC(C)=O
REMARK SMILES IDX 4 1 3 2 2 3 1 4 5 5 6 6 7 7 9 8 8 9
REMARK H PARENT
REMARK Flexibility Score: inf
ROOT
ATOM      1  C   UNL     1      73.667  34.960  53.094  1.00  0.00     0.027 C 
ENDROOT
BRANCH   1   2
ATOM      2  C   UNL     1      72.597  33.863  53.207  1.00  0.00     0.004 C 
BRANCH   2   3
ATOM      3  C   UNL     1      72.667  33.108  54.543  1.00  0.00    -0.003 C 
ATOM      4  C   UNL     1      72.476  34.025  55.750  1.00  0.00     0.004 C 
ENDBRANCH   2   3
ENDBRANCH   1   2
BRANCH   1   5
ATOM      5  C   UNL     1      74.982  34.391  52.644  1.00  0.00    -0.023 C 
ATOM      6  C   UNL     1      75.917  35.161  52.075  1.00  0.00     0.042 C 
BRANCH   6   7
ATOM      7  C   UNL     1      77.219  34.645  51.606  1.00  0.00     0.152 C 
ATOM      8  O   UNL     1      77.542  33.465  51.901  1.00  0.00    -0.295 OA
ATOM      9  C   UNL     1      78.168  35.476  50.793  1.00  0.00     0.093 C 
ENDBRANCH   6   7
ENDBRANCH   1   5
TORSDOF 4
ENDMDL
MODEL 6
REMARK VINA RESULT:    -3.311      4.808      6.817
REMARK INTER + INTRA:          -4.307
REMARK INTER:                  -4.156
REMARK INTRA:                  -0.151
REMARK UNBOUND:                -0.222
REMARK SMILES CCCCC=CC(C)=O
REMARK SMILES IDX 4 1 3 2 2 3 1 4 5 5 6 6 7 7 9 8 8 9
REMARK H PARENT
REMARK Flexibility Score: inf
ROOT
ATOM      1  C   UNL     1      75.502  35.670  52.010  1.00  0.00     0.027 C 
ENDROOT
BRANCH   1   2
ATOM      2  C   UNL     1      75.004  34.326  52.563  1.00  0.00     0.004 C 
BRANCH   2   3
ATOM      3  C   UNL     1      73.478  34.181  52.474  1.00  0.00    -0.003 C 
ATOM      4  C   UNL     1      72.859  33.654  53.768  1.00  0.00     0.004 C 
ENDBRANCH   2   3
ENDBRANCH   1   2
BRANCH   1   5
ATOM      5  C   UNL     1      76.965  35.611  51.675  1.00  0.00    -0.023 C 
ATOM      6  C   UNL     1      77.633  34.451  51.678  1.00  0.00     0.042 C 
BRANCH   6   7
ATOM      7  C   UNL     1      79.074  34.344  51.366  1.00  0.00     0.152 C 
ATOM      8  O   UNL     1      79.782  33.557  52.047  1.00  0.00    -0.295 OA
ATOM      9  C   UNL     1      79.720  35.138  50.270  1.00  0.00     0.093 C 
ENDBRANCH   6   7
ENDBRANCH   1   5
TORSDOF 4
ENDMDL
MODEL 7
REMARK VINA RESULT:    -3.247      4.268      5.336
REMARK INTER + INTRA:          -4.229
REMARK INTER:                  -4.099
REMARK INTRA:                  -0.130
REMARK UNBOUND:                -0.222
REMARK SMILES CCCCC=CC(C)=O
REMARK SMILES IDX 4 1 3 2 2 3 1 4 5 5 6 6 7 7 9 8 8 9
REMARK H PARENT
REMARK Flexibility Score: inf
ROOT
ATOM      1  C   UNL     1      77.568  34.204  51.757  1.00  0.00     0.027 C 
ENDROOT
BRANCH   1   2
ATOM      2  C   UNL     1      78.363  35.168  50.864  1.00  0.00     0.004 C 
BRANCH   2   3
ATOM      3  C   UNL     1      79.798  34.684  50.605  1.00  0.00    -0.003 C 
ATOM      4  C   UNL     1      80.232  33.582  51.571  1.00  0.00     0.004 C 
ENDBRANCH   2   3
ENDBRANCH   1   2
BRANCH   1   5
ATOM      5  C   UNL     1      76.174  34.710  51.995  1.00  0.00    -0.023 C 
ATOM      6  C   UNL     1      75.204  33.900  52.434  1.00  0.00     0.042 C 
BRANCH   6   7
ATOM      7  C   UNL     1      73.816  34.349  52.671  1.00  0.00     0.152 C 
ATOM      8  O   UNL     1      73.359  35.292  51.972  1.00  0.00    -0.295 OA
ATOM      9  C   UNL     1      72.936  33.724  53.713  1.00  0.00     0.093 C 
ENDBRANCH   6   7
ENDBRANCH   1   5
TORSDOF 4
ENDMDL
MODEL 8
REMARK VINA RESULT:    -3.227     16.192     17.712
REMARK INTER + INTRA:          -4.203
REMARK INTER:                  -3.919
REMARK INTRA:                  -0.284
REMARK UNBOUND:                -0.222
REMARK SMILES CCCCC=CC(C)=O
REMARK SMILES IDX 4 1 3 2 2 3 1 4 5 5 6 6 7 7 9 8 8 9
REMARK H PARENT
REMARK Flexibility Score: inf
ROOT
ATOM      1  C   UNL     1      83.620  31.541  66.028  1.00  0.00     0.027 C 
ENDROOT
BRANCH   1   2
ATOM      2  C   UNL     1      83.624  31.064  64.568  1.00  0.00     0.004 C 
BRANCH   2   3
ATOM      3  C   UNL     1      82.850  29.751  64.375  1.00  0.00    -0.003 C 
ATOM      4  C   UNL     1      83.758  28.522  64.400  1.00  0.00     0.004 C 
ENDBRANCH   2   3
ENDBRANCH   1   2
BRANCH   1   5
ATOM      5  C   UNL     1      85.019  31.705  66.549  1.00  0.00    -0.023 C 
ATOM      6  C   UNL     1      86.048  31.049  65.999  1.00  0.00     0.042 C 
BRANCH   6   7
ATOM      7  C   UNL     1      87.439  31.169  66.484  1.00  0.00     0.152 C 
ATOM      8  O   UNL     1      88.124  30.121  66.618  1.00  0.00    -0.295 OA
ATOM      9  C   UNL     1      88.062  32.492  66.820  1.00  0.00     0.093 C 
ENDBRANCH   6   7
ENDBRANCH   1   5
TORSDOF 4
ENDMDL
MODEL 9
REMARK VINA RESULT:    -1.997     16.100     17.493
REMARK INTER + INTRA:          -2.686
REMARK INTER:                  -2.436
REMARK INTRA:                  -0.250
REMARK UNBOUND:                -0.222
REMARK SMILES CCCCC=CC(C)=O
REMARK SMILES IDX 4 1 3 2 2 3 1 4 5 5 6 6 7 7 9 8 8 9
REMARK H PARENT
REMARK Flexibility Score: inf
ROOT
ATOM      1  C   UNL     1      86.041  31.981  67.752  1.00  0.00     0.027 C 
ENDROOT
BRANCH   1   2
ATOM      2  C   UNL     1      87.299  31.557  66.980  1.00  0.00     0.004 C 
BRANCH   2   3
ATOM      3  C   UNL     1      88.125  32.756  66.494  1.00  0.00    -0.003 C 
ATOM      4  C   UNL     1      87.681  33.261  65.121  1.00  0.00     0.004 C 
ENDBRANCH   2   3
ENDBRANCH   1   2
BRANCH   1   5
ATOM      5  C   UNL     1      84.803  31.777  66.926  1.00  0.00    -0.023 C 
ATOM      6  C   UNL     1      84.830  31.060  65.796  1.00  0.00     0.042 C 
BRANCH   6   7
ATOM      7  C   UNL     1      83.642  30.841  64.945  1.00  0.00     0.152 C 
ATOM      8  O   UNL     1      82.884  31.817  64.704  1.00  0.00    -0.295 OA
ATOM      9  C   UNL     1      83.308  29.501  64.360  1.00  0.00     0.093 C 
ENDBRANCH   6   7
ENDBRANCH   1   5
TORSDOF 4
ENDMDL
