MODEL 1
REMARK VINA RESULT:    -4.726      0.000      0.000
REMARK INTER + INTRA:         -17.086
REMARK INTER:                 -12.462
REMARK INTRA:                  -4.623
REMARK UNBOUND:                -4.623
REMARK SMILES CCCCCCCCCCCCCCCCCCCCCCCCCCCCCC(=O)[O-]
REMARK SMILES IDX 16 1 17 2 18 3 19 4 20 5 21 6 22 7 23 8 24 9 25 10 26 11
REMARK SMILES IDX 27 12 28 13 29 14 30 15 31 16 32 17 15 18 14 19 13 20 12 21
REMARK SMILES IDX 11 22 10 23 9 24 8 25 7 26 6 27 5 28 4 29 3 30 2 31 1 32
REMARK H PARENT
REMARK Flexibility Score: inf
ROOT
ATOM      1  C   UNL     1     -44.776 -31.595  38.615  1.00  0.00     0.000 C 
ENDROOT
BRANCH   1   2
ATOM      2  C   UNL     1     -45.002 -31.796  40.121  1.00  0.00     0.000 C 
BRANCH   2   3
ATOM      3  C   UNL     1     -44.430 -33.134  40.623  1.00  0.00     0.000 C 
BRANCH   3   4
ATOM      4  C   UNL     1     -43.314 -33.667  39.708  1.00  0.00     0.000 C 
BRANCH   4   5
ATOM      5  C   UNL     1     -41.905 -33.359  40.247  1.00  0.00     0.000 C 
BRANCH   5   6
ATOM      6  C   UNL     1     -40.817 -33.567  39.178  1.00  0.00     0.000 C 
BRANCH   6   7
ATOM      7  C   UNL     1     -39.964 -34.824  39.446  1.00  0.00     0.000 C 
BRANCH   7   8
ATOM      8  C   UNL     1     -39.678 -35.664  38.185  1.00  0.00     0.000 C 
BRANCH   8   9
ATOM      9  C   UNL     1     -40.016 -34.905  36.883  1.00  0.00     0.000 C 
BRANCH   9  10
ATOM     10  C   UNL     1     -41.098 -35.612  36.041  1.00  0.00     0.000 C 
BRANCH  10  11
ATOM     11  C   UNL     1     -42.372 -35.980  36.827  1.00  0.00     0.000 C 
BRANCH  11  12
ATOM     12  C   UNL     1     -43.659 -35.355  36.250  1.00  0.00     0.000 C 
BRANCH  12  13
ATOM     13  C   UNL     1     -44.957 -35.876  36.901  1.00  0.00     0.006 C 
BRANCH  13  14
ATOM     14  C   UNL     1     -45.963 -34.770  37.255  1.00  0.00     0.053 C 
BRANCH  14  15
ATOM     15  C   UNL     1     -46.653 -35.032  38.562  1.00  0.00     0.041 C 
ATOM     16  O   UNL     1     -46.455 -36.118  39.173  1.00  0.00    -0.550 OA
ATOM     17  O   UNL     1     -47.504 -34.076  39.102  1.00  0.00    -0.550 OA
ENDBRANCH  14  15
ENDBRANCH  13  14
ENDBRANCH  12  13
ENDBRANCH  11  12
ENDBRANCH  10  11
ENDBRANCH   9  10
ENDBRANCH   8   9
ENDBRANCH   7   8
ENDBRANCH   6   7
ENDBRANCH   5   6
ENDBRANCH   4   5
ENDBRANCH   3   4
ENDBRANCH   2   3
ENDBRANCH   1   2
BRANCH   1  18
ATOM     18  C   UNL     1     -44.882 -30.109  38.231  1.00  0.00     0.000 C 
BRANCH  18  19
ATOM     19  C   UNL     1     -43.566 -29.540  37.662  1.00  0.00     0.000 C 
BRANCH  19  20
ATOM     20  C   UNL     1     -42.284 -30.287  38.090  1.00  0.00     0.000 C 
BRANCH  20  21
ATOM     21  C   UNL     1     -41.666 -29.785  39.407  1.00  0.00     0.000 C 
BRANCH  21  22
ATOM     22  C   UNL     1     -42.114 -28.355  39.766  1.00  0.00     0.000 C 
BRANCH  22  23
ATOM     23  C   UNL     1     -42.944 -28.315  41.061  1.00  0.00     0.000 C 
BRANCH  23  24
ATOM     24  C   UNL     1     -43.268 -26.890  41.563  1.00  0.00    -0.000 C 
BRANCH  24  25
ATOM     25  C   UNL     1     -43.686 -25.884  40.472  1.00  0.00    -0.000 C 
BRANCH  25  26
ATOM     26  C   UNL     1     -43.394 -24.421  40.858  1.00  0.00    -0.000 C 
BRANCH  26  27
ATOM     27  C   UNL     1     -41.946 -23.998  40.533  1.00  0.00    -0.000 C 
BRANCH  27  28
ATOM     28  C   UNL     1     -40.990 -23.952  41.745  1.00  0.00    -0.000 C 
BRANCH  28  29
ATOM     29  C   UNL     1     -40.078 -25.183  41.886  1.00  0.00    -0.000 C 
BRANCH  29  30
ATOM     30  C   UNL     1     -39.053 -25.293  40.743  1.00  0.00    -0.000 C 
BRANCH  30  31
ATOM     31  C   UNL     1     -38.817 -26.752  40.300  1.00  0.00    -0.003 C 
ATOM     32  C   UNL     1     -39.058 -27.746  41.440  1.00  0.00     0.004 C 
ENDBRANCH  30  31
ENDBRANCH  29  30
ENDBRANCH  28  29
ENDBRANCH  27  28
ENDBRANCH  26  27
ENDBRANCH  25  26
ENDBRANCH  24  25
ENDBRANCH  23  24
ENDBRANCH  22  23
ENDBRANCH  21  22
ENDBRANCH  20  21
ENDBRANCH  19  20
ENDBRANCH  18  19
ENDBRANCH   1  18
TORSDOF 28
ENDMDL
MODEL 2
REMARK VINA RESULT:    -4.611      3.199      9.035
REMARK INTER + INTRA:         -16.782
REMARK INTER:                 -12.064
REMARK INTRA:                  -4.718
REMARK UNBOUND:                -4.623
REMARK SMILES CCCCCCCCCCCCCCCCCCCCCCCCCCCCCC(=O)[O-]
REMARK SMILES IDX 16 1 17 2 18 3 19 4 20 5 21 6 22 7 23 8 24 9 25 10 26 11
REMARK SMILES IDX 27 12 28 13 29 14 30 15 31 16 32 17 15 18 14 19 13 20 12 21
REMARK SMILES IDX 11 22 10 23 9 24 8 25 7 26 6 27 5 28 4 29 3 30 2 31 1 32
REMARK H PARENT
REMARK Flexibility Score: inf
ROOT
ATOM      1  C   UNL     1     -44.710 -33.300  40.519  1.00  0.00     0.000 C 
ENDROOT
BRANCH   1   2
ATOM      2  C   UNL     1     -45.557 -32.475  39.538  1.00  0.00     0.000 C 
BRANCH   2   3
ATOM      3  C   UNL     1     -44.955 -32.455  38.122  1.00  0.00     0.000 C 
BRANCH   3   4
ATOM      4  C   UNL     1     -45.993 -32.064  37.056  1.00  0.00     0.000 C 
BRANCH   4   5
ATOM      5  C   UNL     1     -47.438 -32.128  37.583  1.00  0.00     0.000 C 
BRANCH   5   6
ATOM      6  C   UNL     1     -48.439 -31.474  36.612  1.00  0.00     0.000 C 
BRANCH   6   7
ATOM      7  C   UNL     1     -47.769 -31.016  35.300  1.00  0.00     0.000 C 
BRANCH   7   8
ATOM      8  C   UNL     1     -48.060 -29.548  34.931  1.00  0.00     0.000 C 
BRANCH   8   9
ATOM      9  C   UNL     1     -46.792 -28.793  34.476  1.00  0.00     0.000 C 
BRANCH   9  10
ATOM     10  C   UNL     1     -46.137 -27.980  35.612  1.00  0.00     0.000 C 
BRANCH  10  11
ATOM     11  C   UNL     1     -46.943 -27.966  36.926  1.00  0.00     0.000 C 
BRANCH  11  12
ATOM     12  C   UNL     1     -46.079 -27.715  38.179  1.00  0.00     0.000 C 
BRANCH  12  13
ATOM     13  C   UNL     1     -45.088 -28.854  38.498  1.00  0.00     0.006 C 
BRANCH  13  14
ATOM     14  C   UNL     1     -44.147 -28.548  39.672  1.00  0.00     0.053 C 
BRANCH  14  15
ATOM     15  C   UNL     1     -42.924 -29.418  39.657  1.00  0.00     0.041 C 
ATOM     16  O   UNL     1     -42.494 -29.883  38.566  1.00  0.00    -0.550 OA
ATOM     17  O   UNL     1     -42.260 -29.705  40.844  1.00  0.00    -0.550 OA
ENDBRANCH  14  15
ENDBRANCH  13  14
ENDBRANCH  12  13
ENDBRANCH  11  12
ENDBRANCH  10  11
ENDBRANCH   9  10
ENDBRANCH   8   9
ENDBRANCH   7   8
ENDBRANCH   6   7
ENDBRANCH   5   6
ENDBRANCH   4   5
ENDBRANCH   3   4
ENDBRANCH   2   3
ENDBRANCH   1   2
BRANCH   1  18
ATOM     18  C   UNL     1     -43.530 -33.977  39.800  1.00  0.00     0.000 C 
BRANCH  18  19
ATOM     19  C   UNL     1     -42.180 -33.283  40.076  1.00  0.00     0.000 C 
BRANCH  19  20
ATOM     20  C   UNL     1     -41.297 -33.039  38.833  1.00  0.00     0.000 C 
BRANCH  20  21
ATOM     21  C   UNL     1     -39.965 -33.810  38.840  1.00  0.00     0.000 C 
BRANCH  21  22
ATOM     22  C   UNL     1     -40.135 -35.291  38.448  1.00  0.00     0.000 C 
BRANCH  22  23
ATOM     23  C   UNL     1     -39.794 -35.543  36.969  1.00  0.00     0.000 C 
BRANCH  23  24
ATOM     24  C   UNL     1     -41.021 -35.824  36.074  1.00  0.00    -0.000 C 
BRANCH  24  25
ATOM     25  C   UNL     1     -42.377 -35.864  36.805  1.00  0.00    -0.000 C 
BRANCH  25  26
ATOM     26  C   UNL     1     -43.527 -35.260  35.975  1.00  0.00    -0.000 C 
BRANCH  26  27
ATOM     27  C   UNL     1     -44.914 -35.529  36.596  1.00  0.00    -0.000 C 
BRANCH  27  28
ATOM     28  C   UNL     1     -45.234 -37.017  36.862  1.00  0.00    -0.000 C 
BRANCH  28  29
ATOM     29  C   UNL     1     -46.363 -37.255  37.880  1.00  0.00    -0.000 C 
BRANCH  29  30
ATOM     30  C   UNL     1     -46.702 -35.992  38.692  1.00  0.00    -0.000 C 
BRANCH  30  31
ATOM     31  C   UNL     1     -47.886 -36.211  39.656  1.00  0.00    -0.003 C 
ATOM     32  C   UNL     1     -48.589 -37.550  39.410  1.00  0.00     0.004 C 
ENDBRANCH  30  31
ENDBRANCH  29  30
ENDBRANCH  28  29
ENDBRANCH  27  28
ENDBRANCH  26  27
ENDBRANCH  25  26
ENDBRANCH  24  25
ENDBRANCH  23  24
ENDBRANCH  22  23
ENDBRANCH  21  22
ENDBRANCH  20  21
ENDBRANCH  19  20
ENDBRANCH  18  19
ENDBRANCH   1  18
TORSDOF 28
ENDMDL
MODEL 3
REMARK VINA RESULT:    -4.560      1.806      3.270
REMARK INTER + INTRA:         -16.646
REMARK INTER:                 -11.787
REMARK INTRA:                  -4.859
REMARK UNBOUND:                -4.623
REMARK SMILES CCCCCCCCCCCCCCCCCCCCCCCCCCCCCC(=O)[O-]
REMARK SMILES IDX 16 1 17 2 18 3 19 4 20 5 21 6 22 7 23 8 24 9 25 10 26 11
REMARK SMILES IDX 27 12 28 13 29 14 30 15 31 16 32 17 15 18 14 19 13 20 12 21
REMARK SMILES IDX 11 22 10 23 9 24 8 25 7 26 6 27 5 28 4 29 3 30 2 31 1 32
REMARK H PARENT
REMARK Flexibility Score: inf
ROOT
ATOM      1  C   UNL     1     -42.990 -28.963  39.970  1.00  0.00     0.000 C 
ENDROOT
BRANCH   1   2
ATOM      2  C   UNL     1     -42.426 -29.668  38.728  1.00  0.00     0.000 C 
BRANCH   2   3
ATOM      3  C   UNL     1     -43.136 -31.004  38.444  1.00  0.00     0.000 C 
BRANCH   3   4
ATOM      4  C   UNL     1     -42.653 -32.128  39.376  1.00  0.00     0.000 C 
BRANCH   4   5
ATOM      5  C   UNL     1     -41.332 -32.763  38.906  1.00  0.00     0.000 C 
BRANCH   5   6
ATOM      6  C   UNL     1     -41.038 -34.092  39.627  1.00  0.00     0.000 C 
BRANCH   6   7
ATOM      7  C   UNL     1     -40.033 -34.969  38.854  1.00  0.00     0.000 C 
BRANCH   7   8
ATOM      8  C   UNL     1     -40.002 -34.693  37.338  1.00  0.00     0.000 C 
BRANCH   8   9
ATOM      9  C   UNL     1     -40.603 -35.853  36.515  1.00  0.00     0.000 C 
BRANCH   9  10
ATOM     10  C   UNL     1     -41.878 -35.447  35.748  1.00  0.00     0.000 C 
BRANCH  10  11
ATOM     11  C   UNL     1     -43.184 -35.991  36.360  1.00  0.00     0.000 C 
BRANCH  11  12
ATOM     12  C   UNL     1     -43.815 -35.052  37.409  1.00  0.00     0.000 C 
BRANCH  12  13
ATOM     13  C   UNL     1     -45.047 -34.276  36.898  1.00  0.00     0.006 C 
BRANCH  13  14
ATOM     14  C   UNL     1     -45.958 -33.749  38.017  1.00  0.00     0.053 C 
BRANCH  14  15
ATOM     15  C   UNL     1     -46.513 -32.391  37.702  1.00  0.00     0.041 C 
ATOM     16  O   UNL     1     -46.766 -32.075  36.507  1.00  0.00    -0.550 OA
ATOM     17  O   UNL     1     -46.757 -31.485  38.727  1.00  0.00    -0.550 OA
ENDBRANCH  14  15
ENDBRANCH  13  14
ENDBRANCH  12  13
ENDBRANCH  11  12
ENDBRANCH  10  11
ENDBRANCH   9  10
ENDBRANCH   8   9
ENDBRANCH   7   8
ENDBRANCH   6   7
ENDBRANCH   5   6
ENDBRANCH   4   5
ENDBRANCH   3   4
ENDBRANCH   2   3
ENDBRANCH   1   2
BRANCH   1  18
ATOM     18  C   UNL     1     -41.884 -28.692  41.005  1.00  0.00     0.000 C 
BRANCH  18  19
ATOM     19  C   UNL     1     -40.554 -28.251  40.362  1.00  0.00     0.000 C 
BRANCH  19  20
ATOM     20  C   UNL     1     -39.621 -27.425  41.274  1.00  0.00     0.000 C 
BRANCH  20  21
ATOM     21  C   UNL     1     -38.877 -26.285  40.556  1.00  0.00     0.000 C 
BRANCH  21  22
ATOM     22  C   UNL     1     -39.247 -24.894  41.108  1.00  0.00     0.000 C 
BRANCH  22  23
ATOM     23  C   UNL     1     -40.548 -24.923  41.928  1.00  0.00     0.000 C 
BRANCH  23  24
ATOM     24  C   UNL     1     -41.801 -24.470  41.147  1.00  0.00    -0.000 C 
BRANCH  24  25
ATOM     25  C   UNL     1     -43.054 -25.346  41.342  1.00  0.00    -0.000 C 
BRANCH  25  26
ATOM     26  C   UNL     1     -43.994 -25.332  40.120  1.00  0.00    -0.000 C 
BRANCH  26  27
ATOM     27  C   UNL     1     -43.566 -24.306  39.051  1.00  0.00    -0.000 C 
BRANCH  27  28
ATOM     28  C   UNL     1     -43.182 -24.908  37.682  1.00  0.00    -0.000 C 
BRANCH  28  29
ATOM     29  C   UNL     1     -42.175 -26.069  37.754  1.00  0.00    -0.000 C 
BRANCH  29  30
ATOM     30  C   UNL     1     -40.714 -25.591  37.664  1.00  0.00    -0.000 C 
BRANCH  30  31
ATOM     31  C   UNL     1     -40.591 -24.194  37.022  1.00  0.00    -0.003 C 
ATOM     32  C   UNL     1     -39.941 -23.180  37.968  1.00  0.00     0.004 C 
ENDBRANCH  30  31
ENDBRANCH  29  30
ENDBRANCH  28  29
ENDBRANCH  27  28
ENDBRANCH  26  27
ENDBRANCH  25  26
ENDBRANCH  24  25
ENDBRANCH  23  24
ENDBRANCH  22  23
ENDBRANCH  21  22
ENDBRANCH  20  21
ENDBRANCH  19  20
ENDBRANCH  18  19
ENDBRANCH   1  18
TORSDOF 28
ENDMDL
MODEL 4
REMARK VINA RESULT:    -4.556      3.179      7.026
REMARK INTER + INTRA:         -16.638
REMARK INTER:                 -11.921
REMARK INTRA:                  -4.717
REMARK UNBOUND:                -4.623
REMARK SMILES CCCCCCCCCCCCCCCCCCCCCCCCCCCCCC(=O)[O-]
REMARK SMILES IDX 16 1 17 2 18 3 19 4 20 5 21 6 22 7 23 8 24 9 25 10 26 11
REMARK SMILES IDX 27 12 28 13 29 14 30 15 31 16 32 17 15 18 14 19 13 20 12 21
REMARK SMILES IDX 11 22 10 23 9 24 8 25 7 26 6 27 5 28 4 29 3 30 2 31 1 32
REMARK H PARENT
REMARK Flexibility Score: inf
ROOT
ATOM      1  C   UNL     1     -45.999 -35.525  37.667  1.00  0.00     0.000 C 
ENDROOT
BRANCH   1   2
ATOM      2  C   UNL     1     -45.935 -37.059  37.629  1.00  0.00     0.000 C 
BRANCH   2   3
ATOM      3  C   UNL     1     -46.640 -37.702  38.837  1.00  0.00     0.000 C 
BRANCH   3   4
ATOM      4  C   UNL     1     -46.778 -36.724  40.015  1.00  0.00     0.000 C 
BRANCH   4   5
ATOM      5  C   UNL     1     -48.246 -36.433  40.377  1.00  0.00     0.000 C 
BRANCH   5   6
ATOM      6  C   UNL     1     -48.540 -34.922  40.435  1.00  0.00     0.000 C 
BRANCH   6   7
ATOM      7  C   UNL     1     -47.442 -34.139  41.184  1.00  0.00     0.000 C 
BRANCH   7   8
ATOM      8  C   UNL     1     -46.604 -33.217  40.277  1.00  0.00     0.000 C 
BRANCH   8   9
ATOM      9  C   UNL     1     -47.020 -31.735  40.399  1.00  0.00     0.000 C 
BRANCH   9  10
ATOM     10  C   UNL     1     -47.308 -31.078  39.033  1.00  0.00     0.000 C 
BRANCH  10  11
ATOM     11  C   UNL     1     -47.347 -32.067  37.851  1.00  0.00     0.000 C 
BRANCH  11  12
ATOM     12  C   UNL     1     -46.783 -31.485  36.538  1.00  0.00     0.000 C 
BRANCH  12  13
ATOM     13  C   UNL     1     -47.864 -30.980  35.559  1.00  0.00     0.006 C 
BRANCH  13  14
ATOM     14  C   UNL     1     -48.049 -29.455  35.570  1.00  0.00     0.053 C 
BRANCH  14  15
ATOM     15  C   UNL     1     -47.313 -28.789  34.444  1.00  0.00     0.041 C 
ATOM     16  O   UNL     1     -46.054 -28.712  34.472  1.00  0.00    -0.550 OA
ATOM     17  O   UNL     1     -48.017 -28.265  33.367  1.00  0.00    -0.550 OA
ENDBRANCH  14  15
ENDBRANCH  13  14
ENDBRANCH  12  13
ENDBRANCH  11  12
ENDBRANCH  10  11
ENDBRANCH   9  10
ENDBRANCH   8   9
ENDBRANCH   7   8
ENDBRANCH   6   7
ENDBRANCH   5   6
ENDBRANCH   4   5
ENDBRANCH   3   4
ENDBRANCH   2   3
ENDBRANCH   1   2
BRANCH   1  18
ATOM     18  C   UNL     1     -45.010 -34.903  36.665  1.00  0.00     0.000 C 
BRANCH  18  19
ATOM     19  C   UNL     1     -43.857 -35.856  36.289  1.00  0.00     0.000 C 
BRANCH  19  20
ATOM     20  C   UNL     1     -42.489 -35.520  36.923  1.00  0.00     0.000 C 
BRANCH  20  21
ATOM     21  C   UNL     1     -41.281 -35.813  36.016  1.00  0.00     0.000 C 
BRANCH  21  22
ATOM     22  C   UNL     1     -39.934 -35.603  36.735  1.00  0.00     0.000 C 
BRANCH  22  23
ATOM     23  C   UNL     1     -40.119 -35.221  38.214  1.00  0.00     0.000 C 
BRANCH  23  24
ATOM     24  C   UNL     1     -39.720 -33.767  38.549  1.00  0.00    -0.000 C 
BRANCH  24  25
ATOM     25  C   UNL     1     -40.890 -32.769  38.657  1.00  0.00    -0.000 C 
BRANCH  25  26
ATOM     26  C   UNL     1     -41.812 -33.049  39.861  1.00  0.00    -0.000 C 
BRANCH  26  27
ATOM     27  C   UNL     1     -43.307 -32.910  39.509  1.00  0.00    -0.000 C 
BRANCH  27  28
ATOM     28  C   UNL     1     -43.620 -31.935  38.353  1.00  0.00    -0.000 C 
BRANCH  28  29
ATOM     29  C   UNL     1     -43.474 -30.447  38.715  1.00  0.00    -0.000 C 
BRANCH  29  30
ATOM     30  C   UNL     1     -43.715 -30.177  40.212  1.00  0.00    -0.000 C 
BRANCH  30  31
ATOM     31  C   UNL     1     -42.514 -29.484  40.886  1.00  0.00    -0.003 C 
ATOM     32  C   UNL     1     -41.454 -29.049  39.870  1.00  0.00     0.004 C 
ENDBRANCH  30  31
ENDBRANCH  29  30
ENDBRANCH  28  29
ENDBRANCH  27  28
ENDBRANCH  26  27
ENDBRANCH  25  26
ENDBRANCH  24  25
ENDBRANCH  23  24
ENDBRANCH  22  23
ENDBRANCH  21  22
ENDBRANCH  20  21
ENDBRANCH  19  20
ENDBRANCH  18  19
ENDBRANCH   1  18
TORSDOF 28
ENDMDL
MODEL 5
REMARK VINA RESULT:    -4.501      2.154      4.282
REMARK INTER + INTRA:         -16.491
REMARK INTER:                 -12.191
REMARK INTRA:                  -4.300
REMARK UNBOUND:                -4.623
REMARK SMILES CCCCCCCCCCCCCCCCCCCCCCCCCCCCCC(=O)[O-]
REMARK SMILES IDX 16 1 17 2 18 3 19 4 20 5 21 6 22 7 23 8 24 9 25 10 26 11
REMARK SMILES IDX 27 12 28 13 29 14 30 15 31 16 32 17 15 18 14 19 13 20 12 21
REMARK SMILES IDX 11 22 10 23 9 24 8 25 7 26 6 27 5 28 4 29 3 30 2 31 1 32
REMARK H PARENT
REMARK Flexibility Score: inf
ROOT
ATOM      1  C   UNL     1     -45.800 -32.687  40.897  1.00  0.00     0.000 C 
ENDROOT
BRANCH   1   2
ATOM      2  C   UNL     1     -47.060 -32.750  40.022  1.00  0.00     0.000 C 
BRANCH   2   3
ATOM      3  C   UNL     1     -47.209 -34.106  39.310  1.00  0.00     0.000 C 
BRANCH   3   4
ATOM      4  C   UNL     1     -47.991 -35.123  40.158  1.00  0.00     0.000 C 
BRANCH   4   5
ATOM      5  C   UNL     1     -47.071 -36.079  40.940  1.00  0.00     0.000 C 
BRANCH   5   6
ATOM      6  C   UNL     1     -46.052 -36.780  40.023  1.00  0.00     0.000 C 
BRANCH   6   7
ATOM      7  C   UNL     1     -46.728 -37.733  39.016  1.00  0.00     0.000 C 
BRANCH   7   8
ATOM      8  C   UNL     1     -46.586 -37.288  37.546  1.00  0.00     0.000 C 
BRANCH   8   9
ATOM      9  C   UNL     1     -45.268 -37.779  36.907  1.00  0.00     0.000 C 
BRANCH   9  10
ATOM     10  C   UNL     1     -44.307 -36.626  36.555  1.00  0.00     0.000 C 
BRANCH  10  11
ATOM     11  C   UNL     1     -44.953 -35.227  36.597  1.00  0.00     0.000 C 
BRANCH  11  12
ATOM     12  C   UNL     1     -44.172 -34.210  37.455  1.00  0.00     0.000 C 
BRANCH  12  13
ATOM     13  C   UNL     1     -43.378 -34.846  38.616  1.00  0.00     0.006 C 
BRANCH  13  14
ATOM     14  C   UNL     1     -42.008 -34.196  38.861  1.00  0.00     0.053 C 
BRANCH  14  15
ATOM     15  C   UNL     1     -40.911 -34.892  38.110  1.00  0.00     0.041 C 
ATOM     16  O   UNL     1     -39.852 -35.227  38.707  1.00  0.00    -0.550 OA
ATOM     17  O   UNL     1     -41.065 -35.174  36.758  1.00  0.00    -0.550 OA
ENDBRANCH  14  15
ENDBRANCH  13  14
ENDBRANCH  12  13
ENDBRANCH  11  12
ENDBRANCH  10  11
ENDBRANCH   9  10
ENDBRANCH   8   9
ENDBRANCH   7   8
ENDBRANCH   6   7
ENDBRANCH   5   6
ENDBRANCH   4   5
ENDBRANCH   3   4
ENDBRANCH   2   3
ENDBRANCH   1   2
BRANCH   1  18
ATOM     18  C   UNL     1     -44.731 -31.776  40.269  1.00  0.00     0.000 C 
BRANCH  18  19
ATOM     19  C   UNL     1     -45.300 -30.849  39.175  1.00  0.00     0.000 C 
BRANCH  19  20
ATOM     20  C   UNL     1     -44.578 -29.494  39.016  1.00  0.00     0.000 C 
BRANCH  20  21
ATOM     21  C   UNL     1     -43.439 -29.499  37.981  1.00  0.00     0.000 C 
BRANCH  21  22
ATOM     22  C   UNL     1     -42.045 -29.599  38.631  1.00  0.00     0.000 C 
BRANCH  22  23
ATOM     23  C   UNL     1     -42.065 -29.184  40.112  1.00  0.00     0.000 C 
BRANCH  23  24
ATOM     24  C   UNL     1     -40.700 -28.705  40.655  1.00  0.00    -0.000 C 
BRANCH  24  25
ATOM     25  C   UNL     1     -40.174 -27.388  40.052  1.00  0.00    -0.000 C 
BRANCH  25  26
ATOM     26  C   UNL     1     -39.579 -26.436  41.110  1.00  0.00    -0.000 C 
BRANCH  26  27
ATOM     27  C   UNL     1     -39.064 -25.116  40.499  1.00  0.00    -0.000 C 
BRANCH  27  28
ATOM     28  C   UNL     1     -39.941 -23.877  40.783  1.00  0.00    -0.000 C 
BRANCH  28  29
ATOM     29  C   UNL     1     -41.096 -24.124  41.770  1.00  0.00    -0.000 C 
BRANCH  29  30
ATOM     30  C   UNL     1     -42.458 -24.255  41.064  1.00  0.00    -0.000 C 
BRANCH  30  31
ATOM     31  C   UNL     1     -43.157 -25.594  41.377  1.00  0.00    -0.003 C 
ATOM     32  C   UNL     1     -44.052 -26.060  40.225  1.00  0.00     0.004 C 
ENDBRANCH  30  31
ENDBRANCH  29  30
ENDBRANCH  28  29
ENDBRANCH  27  28
ENDBRANCH  26  27
ENDBRANCH  25  26
ENDBRANCH  24  25
ENDBRANCH  23  24
ENDBRANCH  22  23
ENDBRANCH  21  22
ENDBRANCH  20  21
ENDBRANCH  19  20
ENDBRANCH  18  19
ENDBRANCH   1  18
TORSDOF 28
ENDMDL
MODEL 6
REMARK VINA RESULT:    -4.500      1.563      2.940
REMARK INTER + INTRA:         -16.491
REMARK INTER:                 -12.184
REMARK INTRA:                  -4.306
REMARK UNBOUND:                -4.623
REMARK SMILES CCCCCCCCCCCCCCCCCCCCCCCCCCCCCC(=O)[O-]
REMARK SMILES IDX 16 1 17 2 18 3 19 4 20 5 21 6 22 7 23 8 24 9 25 10 26 11
REMARK SMILES IDX 27 12 28 13 29 14 30 15 31 16 32 17 15 18 14 19 13 20 12 21
REMARK SMILES IDX 11 22 10 23 9 24 8 25 7 26 6 27 5 28 4 29 3 30 2 31 1 32
REMARK H PARENT
REMARK Flexibility Score: inf
ROOT
ATOM      1  C   UNL     1     -44.292 -29.214  37.769  1.00  0.00     0.000 C 
ENDROOT
BRANCH   1   2
ATOM      2  C   UNL     1     -43.494 -30.454  38.199  1.00  0.00     0.000 C 
BRANCH   2   3
ATOM      3  C   UNL     1     -41.978 -30.264  38.014  1.00  0.00     0.000 C 
BRANCH   3   4
ATOM      4  C   UNL     1     -41.162 -31.157  38.965  1.00  0.00     0.000 C 
BRANCH   4   5
ATOM      5  C   UNL     1     -41.376 -32.658  38.701  1.00  0.00     0.000 C 
BRANCH   5   6
ATOM      6  C   UNL     1     -40.062 -33.377  38.343  1.00  0.00     0.000 C 
BRANCH   6   7
ATOM      7  C   UNL     1     -40.227 -34.910  38.292  1.00  0.00     0.000 C 
BRANCH   7   8
ATOM      8  C   UNL     1     -39.950 -35.521  36.904  1.00  0.00     0.000 C 
BRANCH   8   9
ATOM      9  C   UNL     1     -41.215 -35.571  36.020  1.00  0.00     0.000 C 
BRANCH   9  10
ATOM     10  C   UNL     1     -42.501 -35.842  36.827  1.00  0.00     0.000 C 
BRANCH  10  11
ATOM     11  C   UNL     1     -43.798 -35.416  36.111  1.00  0.00     0.000 C 
BRANCH  11  12
ATOM     12  C   UNL     1     -45.079 -35.964  36.774  1.00  0.00     0.000 C 
BRANCH  12  13
ATOM     13  C   UNL     1     -45.918 -34.892  37.502  1.00  0.00     0.006 C 
BRANCH  13  14
ATOM     14  C   UNL     1     -45.101 -33.680  37.974  1.00  0.00     0.053 C 
BRANCH  14  15
ATOM     15  C   UNL     1     -45.256 -33.433  39.446  1.00  0.00     0.041 C 
ATOM     16  O   UNL     1     -46.239 -32.770  39.875  1.00  0.00    -0.550 OA
ATOM     17  O   UNL     1     -44.321 -33.945  40.339  1.00  0.00    -0.550 OA
ENDBRANCH  14  15
ENDBRANCH  13  14
ENDBRANCH  12  13
ENDBRANCH  11  12
ENDBRANCH  10  11
ENDBRANCH   9  10
ENDBRANCH   8   9
ENDBRANCH   7   8
ENDBRANCH   6   7
ENDBRANCH   5   6
ENDBRANCH   4   5
ENDBRANCH   3   4
ENDBRANCH   2   3
ENDBRANCH   1   2
BRANCH   1  18
ATOM     18  C   UNL     1     -43.355 -28.080  37.316  1.00  0.00     0.000 C 
BRANCH  18  19
ATOM     19  C   UNL     1     -43.724 -26.715  37.931  1.00  0.00     0.000 C 
BRANCH  19  20
ATOM     20  C   UNL     1     -44.328 -26.771  39.351  1.00  0.00     0.000 C 
BRANCH  20  21
ATOM     21  C   UNL     1     -43.292 -26.683  40.485  1.00  0.00     0.000 C 
BRANCH  21  22
ATOM     22  C   UNL     1     -42.879 -28.067  41.022  1.00  0.00     0.000 C 
BRANCH  22  23
ATOM     23  C   UNL     1     -41.354 -28.269  40.993  1.00  0.00     0.000 C 
BRANCH  23  24
ATOM     24  C   UNL     1     -40.604 -27.300  40.052  1.00  0.00    -0.000 C 
BRANCH  24  25
ATOM     25  C   UNL     1     -39.149 -26.985  40.452  1.00  0.00    -0.000 C 
BRANCH  25  26
ATOM     26  C   UNL     1     -38.968 -25.552  40.991  1.00  0.00    -0.000 C 
BRANCH  26  27
ATOM     27  C   UNL     1     -40.130 -25.110  41.904  1.00  0.00    -0.000 C 
BRANCH  27  28
ATOM     28  C   UNL     1     -40.748 -23.737  41.560  1.00  0.00    -0.000 C 
BRANCH  28  29
ATOM     29  C   UNL     1     -41.128 -23.561  40.079  1.00  0.00    -0.000 C 
BRANCH  29  30
ATOM     30  C   UNL     1     -40.325 -22.441  39.393  1.00  0.00    -0.000 C 
BRANCH  30  31
ATOM     31  C   UNL     1     -39.440 -22.970  38.245  1.00  0.00    -0.003 C 
ATOM     32  C   UNL     1     -40.103 -24.126  37.491  1.00  0.00     0.004 C 
ENDBRANCH  30  31
ENDBRANCH  29  30
ENDBRANCH  28  29
ENDBRANCH  27  28
ENDBRANCH  26  27
ENDBRANCH  25  26
ENDBRANCH  24  25
ENDBRANCH  23  24
ENDBRANCH  22  23
ENDBRANCH  21  22
ENDBRANCH  20  21
ENDBRANCH  19  20
ENDBRANCH  18  19
ENDBRANCH   1  18
TORSDOF 28
ENDMDL
MODEL 7
REMARK VINA RESULT:    -4.466      4.130      8.320
REMARK INTER + INTRA:         -16.401
REMARK INTER:                 -10.695
REMARK INTRA:                  -5.706
REMARK UNBOUND:                -4.623
REMARK SMILES CCCCCCCCCCCCCCCCCCCCCCCCCCCCCC(=O)[O-]
REMARK SMILES IDX 16 1 17 2 18 3 19 4 20 5 21 6 22 7 23 8 24 9 25 10 26 11
REMARK SMILES IDX 27 12 28 13 29 14 30 15 31 16 32 17 15 18 14 19 13 20 12 21
REMARK SMILES IDX 11 22 10 23 9 24 8 25 7 26 6 27 5 28 4 29 3 30 2 31 1 32
REMARK H PARENT
REMARK Flexibility Score: inf
ROOT
ATOM      1  C   UNL     1     -47.863 -34.752  41.382  1.00  0.00     0.000 C 
ENDROOT
BRANCH   1   2
ATOM      2  C   UNL     1     -48.107 -33.511  40.511  1.00  0.00     0.000 C 
BRANCH   2   3
ATOM      3  C   UNL     1     -47.481 -33.648  39.111  1.00  0.00     0.000 C 
BRANCH   3   4
ATOM      4  C   UNL     1     -46.586 -32.448  38.756  1.00  0.00     0.000 C 
BRANCH   4   5
ATOM      5  C   UNL     1     -45.802 -31.913  39.968  1.00  0.00     0.000 C 
BRANCH   5   6
ATOM      6  C   UNL     1     -44.769 -30.845  39.563  1.00  0.00     0.000 C 
BRANCH   6   7
ATOM      7  C   UNL     1     -44.415 -30.909  38.063  1.00  0.00     0.000 C 
BRANCH   7   8
ATOM      8  C   UNL     1     -44.652 -29.585  37.310  1.00  0.00     0.000 C 
BRANCH   8   9
ATOM      9  C   UNL     1     -45.831 -29.674  36.317  1.00  0.00     0.000 C 
BRANCH   9  10
ATOM     10  C   UNL     1     -47.202 -29.471  36.995  1.00  0.00     0.000 C 
BRANCH  10  11
ATOM     11  C   UNL     1     -47.303 -28.190  37.847  1.00  0.00     0.000 C 
BRANCH  11  12
ATOM     12  C   UNL     1     -47.553 -28.461  39.345  1.00  0.00     0.000 C 
BRANCH  12  13
ATOM     13  C   UNL     1     -48.765 -29.376  39.624  1.00  0.00     0.006 C 
BRANCH  13  14
ATOM     14  C   UNL     1     -48.789 -29.958  41.046  1.00  0.00     0.053 C 
BRANCH  14  15
ATOM     15  C   UNL     1     -50.178 -30.328  41.480  1.00  0.00     0.041 C 
ATOM     16  O   UNL     1     -50.679 -29.799  42.509  1.00  0.00    -0.550 OA
ATOM     17  O   UNL     1     -50.914 -31.248  40.742  1.00  0.00    -0.550 OA
ENDBRANCH  14  15
ENDBRANCH  13  14
ENDBRANCH  12  13
ENDBRANCH  11  12
ENDBRANCH  10  11
ENDBRANCH   9  10
ENDBRANCH   8   9
ENDBRANCH   7   8
ENDBRANCH   6   7
ENDBRANCH   5   6
ENDBRANCH   4   5
ENDBRANCH   3   4
ENDBRANCH   2   3
ENDBRANCH   1   2
BRANCH   1  18
ATOM     18  C   UNL     1     -46.437 -35.297  41.185  1.00  0.00     0.000 C 
BRANCH  18  19
ATOM     19  C   UNL     1     -46.354 -36.830  41.338  1.00  0.00     0.000 C 
BRANCH  19  20
ATOM     20  C   UNL     1     -46.202 -37.618  40.019  1.00  0.00     0.000 C 
BRANCH  20  21
ATOM     21  C   UNL     1     -47.427 -37.543  39.090  1.00  0.00     0.000 C 
BRANCH  21  22
ATOM     22  C   UNL     1     -47.067 -37.063  37.670  1.00  0.00     0.000 C 
BRANCH  22  23
ATOM     23  C   UNL     1     -45.841 -37.800  37.102  1.00  0.00     0.000 C 
BRANCH  23  24
ATOM     24  C   UNL     1     -44.582 -36.917  36.957  1.00  0.00    -0.000 C 
BRANCH  24  25
ATOM     25  C   UNL     1     -44.840 -35.467  36.503  1.00  0.00    -0.000 C 
BRANCH  25  26
ATOM     26  C   UNL     1     -44.044 -34.429  37.320  1.00  0.00    -0.000 C 
BRANCH  26  27
ATOM     27  C   UNL     1     -43.743 -34.907  38.756  1.00  0.00    -0.000 C 
BRANCH  27  28
ATOM     28  C   UNL     1     -42.436 -34.356  39.368  1.00  0.00    -0.000 C 
BRANCH  28  29
ATOM     29  C   UNL     1     -41.320 -34.075  38.347  1.00  0.00    -0.000 C 
BRANCH  29  30
ATOM     30  C   UNL     1     -40.211 -35.142  38.375  1.00  0.00    -0.000 C 
BRANCH  30  31
ATOM     31  C   UNL     1     -39.756 -35.556  36.961  1.00  0.00    -0.003 C 
ATOM     32  C   UNL     1     -40.938 -35.933  36.062  1.00  0.00     0.004 C 
ENDBRANCH  30  31
ENDBRANCH  29  30
ENDBRANCH  28  29
ENDBRANCH  27  28
ENDBRANCH  26  27
ENDBRANCH  25  26
ENDBRANCH  24  25
ENDBRANCH  23  24
ENDBRANCH  22  23
ENDBRANCH  21  22
ENDBRANCH  20  21
ENDBRANCH  19  20
ENDBRANCH  18  19
ENDBRANCH   1  18
TORSDOF 28
ENDMDL
MODEL 8
REMARK VINA RESULT:    -4.440      3.594      9.048
REMARK INTER + INTRA:         -16.331
REMARK INTER:                 -10.536
REMARK INTRA:                  -5.795
REMARK UNBOUND:                -4.623
REMARK SMILES CCCCCCCCCCCCCCCCCCCCCCCCCCCCCC(=O)[O-]
REMARK SMILES IDX 16 1 17 2 18 3 19 4 20 5 21 6 22 7 23 8 24 9 25 10 26 11
REMARK SMILES IDX 27 12 28 13 29 14 30 15 31 16 32 17 15 18 14 19 13 20 12 21
REMARK SMILES IDX 11 22 10 23 9 24 8 25 7 26 6 27 5 28 4 29 3 30 2 31 1 32
REMARK H PARENT
REMARK Flexibility Score: inf
ROOT
ATOM      1  C   UNL     1     -47.844 -31.774  36.792  1.00  0.00     0.000 C 
ENDROOT
BRANCH   1   2
ATOM      2  C   UNL     1     -47.979 -30.519  35.918  1.00  0.00     0.000 C 
BRANCH   2   3
ATOM      3  C   UNL     1     -48.884 -29.454  36.563  1.00  0.00     0.000 C 
BRANCH   3   4
ATOM      4  C   UNL     1     -48.085 -28.236  37.057  1.00  0.00     0.000 C 
BRANCH   4   5
ATOM      5  C   UNL     1     -46.630 -28.236  36.555  1.00  0.00     0.000 C 
BRANCH   5   6
ATOM      6  C   UNL     1     -45.617 -28.204  37.714  1.00  0.00     0.000 C 
BRANCH   6   7
ATOM      7  C   UNL     1     -46.018 -29.144  38.870  1.00  0.00     0.000 C 
BRANCH   7   8
ATOM      8  C   UNL     1     -45.146 -30.412  38.973  1.00  0.00     0.000 C 
BRANCH   8   9
ATOM      9  C   UNL     1     -43.941 -30.378  38.008  1.00  0.00     0.000 C 
BRANCH   9  10
ATOM     10  C   UNL     1     -42.638 -30.888  38.658  1.00  0.00     0.000 C 
BRANCH  10  11
ATOM     11  C   UNL     1     -41.795 -29.789  39.333  1.00  0.00     0.000 C 
BRANCH  11  12
ATOM     12  C   UNL     1     -42.176 -29.533  40.806  1.00  0.00     0.000 C 
BRANCH  12  13
ATOM     13  C   UNL     1     -42.846 -28.165  41.054  1.00  0.00     0.006 C 
BRANCH  13  14
ATOM     14  C   UNL     1     -42.777 -27.213  39.851  1.00  0.00     0.053 C 
BRANCH  14  15
ATOM     15  C   UNL     1     -41.899 -26.026  40.120  1.00  0.00     0.041 C 
ATOM     16  O   UNL     1     -40.857 -26.157  40.819  1.00  0.00    -0.550 OA
ATOM     17  O   UNL     1     -42.230 -24.783  39.593  1.00  0.00    -0.550 OA
ENDBRANCH  14  15
ENDBRANCH  13  14
ENDBRANCH  12  13
ENDBRANCH  11  12
ENDBRANCH  10  11
ENDBRANCH   9  10
ENDBRANCH   8   9
ENDBRANCH   7   8
ENDBRANCH   6   7
ENDBRANCH   5   6
ENDBRANCH   4   5
ENDBRANCH   3   4
ENDBRANCH   2   3
ENDBRANCH   1   2
BRANCH   1  18
ATOM     18  C   UNL     1     -48.784 -31.707  38.009  1.00  0.00     0.000 C 
BRANCH  18  19
ATOM     19  C   UNL     1     -48.322 -32.606  39.174  1.00  0.00     0.000 C 
BRANCH  19  20
ATOM     20  C   UNL     1     -48.366 -31.950  40.571  1.00  0.00     0.000 C 
BRANCH  20  21
ATOM     21  C   UNL     1     -47.043 -32.035  41.354  1.00  0.00     0.000 C 
BRANCH  21  22
ATOM     22  C   UNL     1     -46.447 -33.456  41.360  1.00  0.00     0.000 C 
BRANCH  22  23
ATOM     23  C   UNL     1     -44.952 -33.459  40.996  1.00  0.00     0.000 C 
BRANCH  23  24
ATOM     24  C   UNL     1     -44.513 -34.657  40.125  1.00  0.00    -0.000 C 
BRANCH  24  25
ATOM     25  C   UNL     1     -43.931 -34.293  38.745  1.00  0.00    -0.000 C 
BRANCH  25  26
ATOM     26  C   UNL     1     -45.017 -33.991  37.693  1.00  0.00    -0.000 C 
BRANCH  26  27
ATOM     27  C   UNL     1     -44.894 -34.881  36.440  1.00  0.00    -0.000 C 
BRANCH  27  28
ATOM     28  C   UNL     1     -44.435 -36.331  36.709  1.00  0.00    -0.000 C 
BRANCH  28  29
ATOM     29  C   UNL     1     -45.576 -37.362  36.769  1.00  0.00    -0.000 C 
BRANCH  29  30
ATOM     30  C   UNL     1     -46.010 -37.679  38.212  1.00  0.00    -0.000 C 
BRANCH  30  31
ATOM     31  C   UNL     1     -47.507 -37.395  38.453  1.00  0.00    -0.003 C 
ATOM     32  C   UNL     1     -47.724 -36.250  39.446  1.00  0.00     0.004 C 
ENDBRANCH  30  31
ENDBRANCH  29  30
ENDBRANCH  28  29
ENDBRANCH  27  28
ENDBRANCH  26  27
ENDBRANCH  25  26
ENDBRANCH  24  25
ENDBRANCH  23  24
ENDBRANCH  22  23
ENDBRANCH  21  22
ENDBRANCH  20  21
ENDBRANCH  19  20
ENDBRANCH  18  19
ENDBRANCH   1  18
TORSDOF 28
ENDMDL
MODEL 9
REMARK VINA RESULT:    -4.417      2.520      5.342
REMARK INTER + INTRA:         -16.270
REMARK INTER:                 -10.628
REMARK INTRA:                  -5.642
REMARK UNBOUND:                -4.623
REMARK SMILES CCCCCCCCCCCCCCCCCCCCCCCCCCCCCC(=O)[O-]
REMARK SMILES IDX 16 1 17 2 18 3 19 4 20 5 21 6 22 7 23 8 24 9 25 10 26 11
REMARK SMILES IDX 27 12 28 13 29 14 30 15 31 16 32 17 15 18 14 19 13 20 12 21
REMARK SMILES IDX 11 22 10 23 9 24 8 25 7 26 6 27 5 28 4 29 3 30 2 31 1 32
REMARK H PARENT
REMARK Flexibility Score: inf
ROOT
ATOM      1  C   UNL     1     -42.339 -30.162  38.776  1.00  0.00     0.000 C 
ENDROOT
BRANCH   1   2
ATOM      2  C   UNL     1     -43.550 -29.733  39.617  1.00  0.00     0.000 C 
BRANCH   2   3
ATOM      3  C   UNL     1     -44.643 -29.063  38.765  1.00  0.00     0.000 C 
BRANCH   3   4
ATOM      4  C   UNL     1     -44.182 -28.817  37.319  1.00  0.00     0.000 C 
BRANCH   4   5
ATOM      5  C   UNL     1     -45.182 -27.970  36.511  1.00  0.00     0.000 C 
BRANCH   5   6
ATOM      6  C   UNL     1     -45.533 -28.619  35.160  1.00  0.00     0.000 C 
BRANCH   6   7
ATOM      7  C   UNL     1     -47.049 -28.595  34.874  1.00  0.00     0.000 C 
BRANCH   7   8
ATOM      8  C   UNL     1     -47.847 -29.663  35.650  1.00  0.00     0.000 C 
BRANCH   8   9
ATOM      9  C   UNL     1     -47.129 -31.030  35.678  1.00  0.00     0.000 C 
BRANCH   9  10
ATOM     10  C   UNL     1     -46.905 -31.560  37.108  1.00  0.00     0.000 C 
BRANCH  10  11
ATOM     11  C   UNL     1     -45.571 -32.308  37.304  1.00  0.00     0.000 C 
BRANCH  11  12
ATOM     12  C   UNL     1     -45.698 -33.589  38.154  1.00  0.00     0.000 C 
BRANCH  12  13
ATOM     13  C   UNL     1     -44.532 -33.806  39.142  1.00  0.00     0.006 C 
BRANCH  13  14
ATOM     14  C   UNL     1     -43.170 -34.007  38.461  1.00  0.00     0.053 C 
BRANCH  14  15
ATOM     15  C   UNL     1     -42.031 -33.574  39.337  1.00  0.00     0.041 C 
ATOM     16  O   UNL     1     -40.862 -33.510  38.867  1.00  0.00    -0.550 OA
ATOM     17  O   UNL     1     -42.266 -33.234  40.664  1.00  0.00    -0.550 OA
ENDBRANCH  14  15
ENDBRANCH  13  14
ENDBRANCH  12  13
ENDBRANCH  11  12
ENDBRANCH  10  11
ENDBRANCH   9  10
ENDBRANCH   8   9
ENDBRANCH   7   8
ENDBRANCH   6   7
ENDBRANCH   5   6
ENDBRANCH   4   5
ENDBRANCH   3   4
ENDBRANCH   2   3
ENDBRANCH   1   2
BRANCH   1  18
ATOM     18  C   UNL     1     -41.047 -29.497  39.285  1.00  0.00     0.000 C 
BRANCH  18  19
ATOM     19  C   UNL     1     -41.226 -28.802  40.650  1.00  0.00     0.000 C 
BRANCH  19  20
ATOM     20  C   UNL     1     -40.001 -28.007  41.152  1.00  0.00     0.000 C 
BRANCH  20  21
ATOM     21  C   UNL     1     -38.797 -28.026  40.194  1.00  0.00     0.000 C 
BRANCH  21  22
ATOM     22  C   UNL     1     -38.456 -26.628  39.641  1.00  0.00     0.000 C 
BRANCH  22  23
ATOM     23  C   UNL     1     -38.756 -25.513  40.657  1.00  0.00     0.000 C 
BRANCH  23  24
ATOM     24  C   UNL     1     -39.233 -24.188  40.023  1.00  0.00    -0.000 C 
BRANCH  24  25
ATOM     25  C   UNL     1     -40.390 -23.482  40.757  1.00  0.00    -0.000 C 
BRANCH  25  26
ATOM     26  C   UNL     1     -41.133 -24.408  41.741  1.00  0.00    -0.000 C 
BRANCH  26  27
ATOM     27  C   UNL     1     -42.627 -24.571  41.391  1.00  0.00    -0.000 C 
BRANCH  27  28
ATOM     28  C   UNL     1     -42.974 -25.839  40.579  1.00  0.00    -0.000 C 
BRANCH  28  29
ATOM     29  C   UNL     1     -43.179 -25.597  39.074  1.00  0.00    -0.000 C 
BRANCH  29  30
ATOM     30  C   UNL     1     -41.967 -26.043  38.234  1.00  0.00    -0.000 C 
BRANCH  30  31
ATOM     31  C   UNL     1     -41.503 -24.954  37.245  1.00  0.00    -0.003 C 
ATOM     32  C   UNL     1     -40.169 -25.308  36.582  1.00  0.00     0.004 C 
ENDBRANCH  30  31
ENDBRANCH  29  30
ENDBRANCH  28  29
ENDBRANCH  27  28
ENDBRANCH  26  27
ENDBRANCH  25  26
ENDBRANCH  24  25
ENDBRANCH  23  24
ENDBRANCH  22  23
ENDBRANCH  21  22
ENDBRANCH  20  21
ENDBRANCH  19  20
ENDBRANCH  18  19
ENDBRANCH   1  18
TORSDOF 28
ENDMDL
