MODEL 1
REMARK VINA RESULT:    -4.999      0.000      0.000
REMARK INTER + INTRA:         -10.820
REMARK INTER:                  -9.383
REMARK INTRA:                  -1.437
REMARK UNBOUND:                -1.437
REMARK SMILES O=C([O-])CCCCCCCCCCCCCCC(=O)[O-]
REMARK SMILES IDX 10 1 9 2 8 3 7 4 6 5 5 6 4 7 2 8 1 9 3 10 11 11 12 12 13 13
REMARK SMILES IDX 14 14 15 15 16 16 17 17 18 18 19 19 20 20
REMARK H PARENT
REMARK Flexibility Score: inf
ROOT
ATOM      1  C   UNL     1     -17.248  -2.036  31.566  1.00  0.00     0.000 C 
ENDROOT
BRANCH   1   2
ATOM      2  C   UNL     1     -18.172  -1.751  32.763  1.00  0.00     0.000 C 
BRANCH   2   3
ATOM      3  C   UNL     1     -17.592  -2.266  34.091  1.00  0.00     0.000 C 
BRANCH   3   4
ATOM      4  C   UNL     1     -17.420  -1.147  35.131  1.00  0.00     0.000 C 
BRANCH   4   5
ATOM      5  C   UNL     1     -17.080  -1.685  36.532  1.00  0.00     0.000 C 
BRANCH   5   6
ATOM      6  C   UNL     1     -17.443  -0.703  37.660  1.00  0.00     0.006 C 
BRANCH   6   7
ATOM      7  C   UNL     1     -18.698   0.140  37.373  1.00  0.00     0.053 C 
BRANCH   7   8
ATOM      8  C   UNL     1     -18.434   1.613  37.440  1.00  0.00     0.041 C 
ATOM      9  O   UNL     1     -18.702   2.261  38.486  1.00  0.00    -0.550 OA
ATOM     10  O   UNL     1     -17.861   2.267  36.356  1.00  0.00    -0.550 OA
ENDBRANCH   7   8
ENDBRANCH   6   7
ENDBRANCH   5   6
ENDBRANCH   4   5
ENDBRANCH   3   4
ENDBRANCH   2   3
ENDBRANCH   1   2
BRANCH   1  11
ATOM     11  C   UNL     1     -16.410  -3.312  31.758  1.00  0.00     0.000 C 
BRANCH  11  12
ATOM     12  C   UNL     1     -14.907  -3.068  31.542  1.00  0.00     0.000 C 
BRANCH  12  13
ATOM     13  C   UNL     1     -14.158  -2.774  32.851  1.00  0.00     0.000 C 
BRANCH  13  14
ATOM     14  C   UNL     1     -13.571  -4.059  33.448  1.00  0.00     0.000 C 
BRANCH  14  15
ATOM     15  C   UNL     1     -12.671  -4.776  32.431  1.00  0.00     0.000 C 
BRANCH  15  16
ATOM     16  C   UNL     1     -13.150  -6.202  32.101  1.00  0.00     0.006 C 
BRANCH  16  17
ATOM     17  C   UNL     1     -14.370  -6.657  32.921  1.00  0.00     0.053 C 
BRANCH  17  18
ATOM     18  C   UNL     1     -15.567  -6.946  32.067  1.00  0.00     0.041 C 
ATOM     19  O   UNL     1     -16.635  -7.363  32.588  1.00  0.00    -0.550 OA
ATOM     20  O   UNL     1     -15.513  -6.723  30.697  1.00  0.00    -0.550 OA
ENDBRANCH  17  18
ENDBRANCH  16  17
ENDBRANCH  15  16
ENDBRANCH  14  15
ENDBRANCH  13  14
ENDBRANCH  12  13
ENDBRANCH  11  12
ENDBRANCH   1  11
TORSDOF 15
ENDMDL
MODEL 2
REMARK VINA RESULT:    -4.932      2.294      6.844
REMARK INTER + INTRA:         -10.694
REMARK INTER:                  -9.156
REMARK INTRA:                  -1.539
REMARK UNBOUND:                -1.437
REMARK SMILES O=C([O-])CCCCCCCCCCCCCCC(=O)[O-]
REMARK SMILES IDX 10 1 9 2 8 3 7 4 6 5 5 6 4 7 2 8 1 9 3 10 11 11 12 12 13 13
REMARK SMILES IDX 14 14 15 15 16 16 17 17 18 18 19 19 20 20
REMARK H PARENT
REMARK Flexibility Score: inf
ROOT
ATOM      1  C   UNL     1     -14.117  -5.349  33.900  1.00  0.00     0.000 C 
ENDROOT
BRANCH   1   2
ATOM      2  C   UNL     1     -13.857  -5.836  32.464  1.00  0.00     0.000 C 
BRANCH   2   3
ATOM      3  C   UNL     1     -15.134  -5.853  31.606  1.00  0.00     0.000 C 
BRANCH   3   4
ATOM      4  C   UNL     1     -16.081  -4.687  31.938  1.00  0.00     0.000 C 
BRANCH   4   5
ATOM      5  C   UNL     1     -15.564  -3.336  31.415  1.00  0.00     0.000 C 
BRANCH   5   6
ATOM      6  C   UNL     1     -16.378  -2.137  31.935  1.00  0.00     0.006 C 
BRANCH   6   7
ATOM      7  C   UNL     1     -17.696  -1.902  31.176  1.00  0.00     0.053 C 
BRANCH   7   8
ATOM      8  C   UNL     1     -18.888  -1.870  32.083  1.00  0.00     0.041 C 
ATOM      9  O   UNL     1     -18.738  -1.913  33.332  1.00  0.00    -0.550 OA
ATOM     10  O   UNL     1     -20.165  -1.760  31.548  1.00  0.00    -0.550 OA
ENDBRANCH   7   8
ENDBRANCH   6   7
ENDBRANCH   5   6
ENDBRANCH   4   5
ENDBRANCH   3   4
ENDBRANCH   2   3
ENDBRANCH   1   2
BRANCH   1  11
ATOM     11  C   UNL     1     -13.241  -4.143  34.282  1.00  0.00     0.000 C 
BRANCH  11  12
ATOM     12  C   UNL     1     -14.063  -2.976  34.854  1.00  0.00     0.000 C 
BRANCH  12  13
ATOM     13  C   UNL     1     -15.394  -3.432  35.472  1.00  0.00     0.000 C 
BRANCH  13  14
ATOM     14  C   UNL     1     -16.236  -2.227  35.909  1.00  0.00     0.000 C 
BRANCH  14  15
ATOM     15  C   UNL     1     -16.612  -2.329  37.395  1.00  0.00     0.000 C 
BRANCH  15  16
ATOM     16  C   UNL     1     -17.776  -1.400  37.788  1.00  0.00     0.006 C 
BRANCH  16  17
ATOM     17  C   UNL     1     -17.489   0.094  37.558  1.00  0.00     0.053 C 
BRANCH  17  18
ATOM     18  C   UNL     1     -18.736   0.899  37.355  1.00  0.00     0.041 C 
ATOM     19  O   UNL     1     -19.372   0.825  36.270  1.00  0.00    -0.550 OA
ATOM     20  O   UNL     1     -19.215   1.707  38.378  1.00  0.00    -0.550 OA
ENDBRANCH  17  18
ENDBRANCH  16  17
ENDBRANCH  15  16
ENDBRANCH  14  15
ENDBRANCH  13  14
ENDBRANCH  12  13
ENDBRANCH  11  12
ENDBRANCH   1  11
TORSDOF 15
ENDMDL
MODEL 3
REMARK VINA RESULT:    -4.927      2.625      3.456
REMARK INTER + INTRA:         -10.685
REMARK INTER:                  -8.925
REMARK INTRA:                  -1.760
REMARK UNBOUND:                -1.437
REMARK SMILES O=C([O-])CCCCCCCCCCCCCCC(=O)[O-]
REMARK SMILES IDX 10 1 9 2 8 3 7 4 6 5 5 6 4 7 2 8 1 9 3 10 11 11 12 12 13 13
REMARK SMILES IDX 14 14 15 15 16 16 17 17 18 18 19 19 20 20
REMARK H PARENT
REMARK Flexibility Score: inf
ROOT
ATOM      1  C   UNL     1     -16.577  -3.377  31.841  1.00  0.00     0.000 C 
ENDROOT
BRANCH   1   2
ATOM      2  C   UNL     1     -17.285  -2.012  31.860  1.00  0.00     0.000 C 
BRANCH   2   3
ATOM      3  C   UNL     1     -16.875  -1.152  33.068  1.00  0.00     0.000 C 
BRANCH   3   4
ATOM      4  C   UNL     1     -17.785  -1.377  34.287  1.00  0.00     0.000 C 
BRANCH   4   5
ATOM      5  C   UNL     1     -17.355  -0.549  35.510  1.00  0.00     0.000 C 
BRANCH   5   6
ATOM      6  C   UNL     1     -18.458   0.401  36.012  1.00  0.00     0.006 C 
BRANCH   6   7
ATOM      7  C   UNL     1     -17.946   1.798  36.404  1.00  0.00     0.053 C 
BRANCH   7   8
ATOM      8  C   UNL     1     -18.012   2.046  37.880  1.00  0.00     0.041 C 
ATOM      9  O   UNL     1     -16.965   2.313  38.527  1.00  0.00    -0.550 OA
ATOM     10  O   UNL     1     -19.235   2.013  38.537  1.00  0.00    -0.550 OA
ENDBRANCH   7   8
ENDBRANCH   6   7
ENDBRANCH   5   6
ENDBRANCH   4   5
ENDBRANCH   3   4
ENDBRANCH   2   3
ENDBRANCH   1   2
BRANCH   1  11
ATOM     11  C   UNL     1     -15.279  -3.357  31.014  1.00  0.00     0.000 C 
BRANCH  11  12
ATOM     12  C   UNL     1     -14.042  -3.025  31.865  1.00  0.00     0.000 C 
BRANCH  12  13
ATOM     13  C   UNL     1     -13.392  -4.273  32.482  1.00  0.00     0.000 C 
BRANCH  13  14
ATOM     14  C   UNL     1     -13.487  -4.241  34.012  1.00  0.00     0.000 C 
BRANCH  14  15
ATOM     15  C   UNL     1     -13.809  -2.826  34.514  1.00  0.00     0.000 C 
BRANCH  15  16
ATOM     16  C   UNL     1     -14.470  -2.816  35.905  1.00  0.00     0.006 C 
BRANCH  16  17
ATOM     17  C   UNL     1     -15.606  -3.841  36.067  1.00  0.00     0.053 C 
BRANCH  17  18
ATOM     18  C   UNL     1     -16.184  -3.852  37.449  1.00  0.00     0.041 C 
ATOM     19  O   UNL     1     -16.381  -4.943  38.048  1.00  0.00    -0.550 OA
ATOM     20  O   UNL     1     -16.475  -2.655  38.089  1.00  0.00    -0.550 OA
ENDBRANCH  17  18
ENDBRANCH  16  17
ENDBRANCH  15  16
ENDBRANCH  14  15
ENDBRANCH  13  14
ENDBRANCH  12  13
ENDBRANCH  11  12
ENDBRANCH   1  11
TORSDOF 15
ENDMDL
MODEL 4
REMARK VINA RESULT:    -4.872      2.272      3.812
REMARK INTER + INTRA:         -10.582
REMARK INTER:                  -8.870
REMARK INTRA:                  -1.711
REMARK UNBOUND:                -1.437
REMARK SMILES O=C([O-])CCCCCCCCCCCCCCC(=O)[O-]
REMARK SMILES IDX 10 1 9 2 8 3 7 4 6 5 5 6 4 7 2 8 1 9 3 10 11 11 12 12 13 13
REMARK SMILES IDX 14 14 15 15 16 16 17 17 18 18 19 19 20 20
REMARK H PARENT
REMARK Flexibility Score: inf
ROOT
ATOM      1  C   UNL     1     -13.392  -4.406  35.608  1.00  0.00     0.000 C 
ENDROOT
BRANCH   1   2
ATOM      2  C   UNL     1     -14.166  -3.150  36.044  1.00  0.00     0.000 C 
BRANCH   2   3
ATOM      3  C   UNL     1     -15.417  -3.486  36.874  1.00  0.00     0.000 C 
BRANCH   3   4
ATOM      4  C   UNL     1     -16.412  -2.315  36.939  1.00  0.00     0.000 C 
BRANCH   4   5
ATOM      5  C   UNL     1     -16.805  -1.793  35.546  1.00  0.00     0.000 C 
BRANCH   5   6
ATOM      6  C   UNL     1     -17.601  -0.476  35.599  1.00  0.00     0.006 C 
BRANCH   6   7
ATOM      7  C   UNL     1     -17.926  -0.001  37.027  1.00  0.00     0.053 C 
BRANCH   7   8
ATOM      8  C   UNL     1     -18.078   1.486  37.121  1.00  0.00     0.041 C 
ATOM      9  O   UNL     1     -18.351   2.030  38.223  1.00  0.00    -0.550 OA
ATOM     10  O   UNL     1     -17.885   2.277  35.995  1.00  0.00    -0.550 OA
ENDBRANCH   7   8
ENDBRANCH   6   7
ENDBRANCH   5   6
ENDBRANCH   4   5
ENDBRANCH   3   4
ENDBRANCH   2   3
ENDBRANCH   1   2
BRANCH   1  11
ATOM     11  C   UNL     1     -13.225  -4.496  34.081  1.00  0.00     0.000 C 
BRANCH  11  12
ATOM     12  C   UNL     1     -13.652  -3.205  33.364  1.00  0.00     0.000 C 
BRANCH  12  13
ATOM     13  C   UNL     1     -14.486  -3.474  32.102  1.00  0.00     0.000 C 
BRANCH  13  14
ATOM     14  C   UNL     1     -15.018  -4.913  32.092  1.00  0.00     0.000 C 
BRANCH  14  15
ATOM     15  C   UNL     1     -16.537  -4.936  31.869  1.00  0.00     0.000 C 
BRANCH  15  16
ATOM     16  C   UNL     1     -17.292  -3.924  32.750  1.00  0.00     0.006 C 
BRANCH  16  17
ATOM     17  C   UNL     1     -18.290  -3.044  31.976  1.00  0.00     0.053 C 
BRANCH  17  18
ATOM     18  C   UNL     1     -17.651  -1.822  31.389  1.00  0.00     0.041 C 
ATOM     19  O   UNL     1     -16.923  -1.080  32.101  1.00  0.00    -0.550 OA
ATOM     20  O   UNL     1     -17.833  -1.520  30.046  1.00  0.00    -0.550 OA
ENDBRANCH  17  18
ENDBRANCH  16  17
ENDBRANCH  15  16
ENDBRANCH  14  15
ENDBRANCH  13  14
ENDBRANCH  12  13
ENDBRANCH  11  12
ENDBRANCH   1  11
TORSDOF 15
ENDMDL
MODEL 5
REMARK VINA RESULT:    -4.862      2.070      3.646
REMARK INTER + INTRA:         -10.563
REMARK INTER:                  -8.955
REMARK INTRA:                  -1.608
REMARK UNBOUND:                -1.437
REMARK SMILES O=C([O-])CCCCCCCCCCCCCCC(=O)[O-]
REMARK SMILES IDX 10 1 9 2 8 3 7 4 6 5 5 6 4 7 2 8 1 9 3 10 11 11 12 12 13 13
REMARK SMILES IDX 14 14 15 15 16 16 17 17 18 18 19 19 20 20
REMARK H PARENT
REMARK Flexibility Score: inf
ROOT
ATOM      1  C   UNL     1     -13.385  -3.606  34.543  1.00  0.00     0.000 C 
ENDROOT
BRANCH   1   2
ATOM      2  C   UNL     1     -14.531  -3.886  35.532  1.00  0.00     0.000 C 
BRANCH   2   3
ATOM      3  C   UNL     1     -15.193  -2.596  36.047  1.00  0.00     0.000 C 
BRANCH   3   4
ATOM      4  C   UNL     1     -16.651  -2.457  35.578  1.00  0.00     0.000 C 
BRANCH   4   5
ATOM      5  C   UNL     1     -17.215  -1.043  35.804  1.00  0.00     0.000 C 
BRANCH   5   6
ATOM      6  C   UNL     1     -17.659  -0.797  37.258  1.00  0.00     0.006 C 
BRANCH   6   7
ATOM      7  C   UNL     1     -18.700   0.326  37.410  1.00  0.00     0.053 C 
BRANCH   7   8
ATOM      8  C   UNL     1     -18.099   1.693  37.290  1.00  0.00     0.041 C 
ATOM      9  O   UNL     1     -17.728   2.318  38.319  1.00  0.00    -0.550 OA
ATOM     10  O   UNL     1     -17.917   2.264  36.037  1.00  0.00    -0.550 OA
ENDBRANCH   7   8
ENDBRANCH   6   7
ENDBRANCH   5   6
ENDBRANCH   4   5
ENDBRANCH   3   4
ENDBRANCH   2   3
ENDBRANCH   1   2
BRANCH   1  11
ATOM     11  C   UNL     1     -12.710  -4.895  34.044  1.00  0.00     0.000 C 
BRANCH  11  12
ATOM     12  C   UNL     1     -12.777  -5.042  32.515  1.00  0.00     0.000 C 
BRANCH  12  13
ATOM     13  C   UNL     1     -13.473  -6.338  32.071  1.00  0.00     0.000 C 
BRANCH  13  14
ATOM     14  C   UNL     1     -14.977  -6.281  32.365  1.00  0.00     0.000 C 
BRANCH  14  15
ATOM     15  C   UNL     1     -15.668  -5.223  31.492  1.00  0.00     0.000 C 
BRANCH  15  16
ATOM     16  C   UNL     1     -16.401  -4.147  32.315  1.00  0.00     0.006 C 
BRANCH  16  17
ATOM     17  C   UNL     1     -16.293  -2.729  31.728  1.00  0.00     0.053 C 
BRANCH  17  18
ATOM     18  C   UNL     1     -17.630  -2.119  31.437  1.00  0.00     0.041 C 
ATOM     19  O   UNL     1     -17.853  -1.576  30.322  1.00  0.00    -0.550 OA
ATOM     20  O   UNL     1     -18.643  -2.180  32.385  1.00  0.00    -0.550 OA
ENDBRANCH  17  18
ENDBRANCH  16  17
ENDBRANCH  15  16
ENDBRANCH  14  15
ENDBRANCH  13  14
ENDBRANCH  12  13
ENDBRANCH  11  12
ENDBRANCH   1  11
TORSDOF 15
ENDMDL
MODEL 6
REMARK VINA RESULT:    -4.805      2.436      5.905
REMARK INTER + INTRA:         -10.455
REMARK INTER:                  -8.290
REMARK INTRA:                  -2.165
REMARK UNBOUND:                -1.437
REMARK SMILES O=C([O-])CCCCCCCCCCCCCCC(=O)[O-]
REMARK SMILES IDX 10 1 9 2 8 3 7 4 6 5 5 6 4 7 2 8 1 9 3 10 11 11 12 12 13 13
REMARK SMILES IDX 14 14 15 15 16 16 17 17 18 18 19 19 20 20
REMARK H PARENT
REMARK Flexibility Score: inf
ROOT
ATOM      1  C   UNL     1     -13.206  -6.427  32.112  1.00  0.00     0.000 C 
ENDROOT
BRANCH   1   2
ATOM      2  C   UNL     1     -14.675  -6.735  32.448  1.00  0.00     0.000 C 
BRANCH   2   3
ATOM      3  C   UNL     1     -15.628  -6.405  31.287  1.00  0.00     0.000 C 
BRANCH   3   4
ATOM      4  C   UNL     1     -16.989  -5.879  31.774  1.00  0.00     0.000 C 
BRANCH   4   5
ATOM      5  C   UNL     1     -16.877  -4.528  32.501  1.00  0.00     0.000 C 
BRANCH   5   6
ATOM      6  C   UNL     1     -16.337  -3.402  31.600  1.00  0.00     0.006 C 
BRANCH   6   7
ATOM      7  C   UNL     1     -16.824  -1.997  31.999  1.00  0.00     0.053 C 
BRANCH   7   8
ATOM      8  C   UNL     1     -18.317  -1.881  32.001  1.00  0.00     0.041 C 
ATOM      9  O   UNL     1     -18.941  -1.720  33.083  1.00  0.00    -0.550 OA
ATOM     10  O   UNL     1     -19.019  -1.917  30.803  1.00  0.00    -0.550 OA
ENDBRANCH   7   8
ENDBRANCH   6   7
ENDBRANCH   5   6
ENDBRANCH   4   5
ENDBRANCH   3   4
ENDBRANCH   2   3
ENDBRANCH   1   2
BRANCH   1  11
ATOM     11  C   UNL     1     -12.785  -5.012  32.545  1.00  0.00     0.000 C 
BRANCH  11  12
ATOM     12  C   UNL     1     -13.543  -4.527  33.792  1.00  0.00     0.000 C 
BRANCH  12  13
ATOM     13  C   UNL     1     -13.507  -2.999  33.954  1.00  0.00     0.000 C 
BRANCH  13  14
ATOM     14  C   UNL     1     -13.804  -2.594  35.403  1.00  0.00     0.000 C 
BRANCH  14  15
ATOM     15  C   UNL     1     -14.572  -3.703  36.137  1.00  0.00     0.000 C 
BRANCH  15  16
ATOM     16  C   UNL     1     -16.000  -3.286  36.533  1.00  0.00     0.006 C 
BRANCH  16  17
ATOM     17  C   UNL     1     -16.571  -2.130  35.693  1.00  0.00     0.053 C 
BRANCH  17  18
ATOM     18  C   UNL     1     -17.390  -1.173  36.505  1.00  0.00     0.041 C 
ATOM     19  O   UNL     1     -17.584  -1.385  37.732  1.00  0.00    -0.550 OA
ATOM     20  O   UNL     1     -17.912  -0.030  35.914  1.00  0.00    -0.550 OA
ENDBRANCH  17  18
ENDBRANCH  16  17
ENDBRANCH  15  16
ENDBRANCH  14  15
ENDBRANCH  13  14
ENDBRANCH  12  13
ENDBRANCH  11  12
ENDBRANCH   1  11
TORSDOF 15
ENDMDL
MODEL 7
REMARK VINA RESULT:    -4.801      2.058      6.903
REMARK INTER + INTRA:         -10.448
REMARK INTER:                  -8.615
REMARK INTRA:                  -1.833
REMARK UNBOUND:                -1.437
REMARK SMILES O=C([O-])CCCCCCCCCCCCCCC(=O)[O-]
REMARK SMILES IDX 10 1 9 2 8 3 7 4 6 5 5 6 4 7 2 8 1 9 3 10 11 11 12 12 13 13
REMARK SMILES IDX 14 14 15 15 16 16 17 17 18 18 19 19 20 20
REMARK H PARENT
REMARK Flexibility Score: inf
ROOT
ATOM      1  C   UNL     1     -13.215  -4.434  34.109  1.00  0.00     0.000 C 
ENDROOT
BRANCH   1   2
ATOM      2  C   UNL     1     -12.783  -4.900  32.708  1.00  0.00     0.000 C 
BRANCH   2   3
ATOM      3  C   UNL     1     -13.340  -6.289  32.351  1.00  0.00     0.000 C 
BRANCH   3   4
ATOM      4  C   UNL     1     -14.854  -6.396  32.595  1.00  0.00     0.000 C 
BRANCH   4   5
ATOM      5  C   UNL     1     -15.680  -5.647  31.535  1.00  0.00     0.000 C 
BRANCH   5   6
ATOM      6  C   UNL     1     -16.641  -4.609  32.143  1.00  0.00     0.006 C 
BRANCH   6   7
ATOM      7  C   UNL     1     -16.349  -3.161  31.713  1.00  0.00     0.053 C 
BRANCH   7   8
ATOM      8  C   UNL     1     -17.037  -2.150  32.578  1.00  0.00     0.041 C 
ATOM      9  O   UNL     1     -17.973  -2.500  33.344  1.00  0.00    -0.550 OA
ATOM     10  O   UNL     1     -16.624  -0.824  32.562  1.00  0.00    -0.550 OA
ENDBRANCH   7   8
ENDBRANCH   6   7
ENDBRANCH   5   6
ENDBRANCH   4   5
ENDBRANCH   3   4
ENDBRANCH   2   3
ENDBRANCH   1   2
BRANCH   1  11
ATOM     11  C   UNL     1     -13.677  -2.966  34.127  1.00  0.00     0.000 C 
BRANCH  11  12
ATOM     12  C   UNL     1     -14.432  -2.601  35.415  1.00  0.00     0.000 C 
BRANCH  12  13
ATOM     13  C   UNL     1     -15.350  -3.730  35.908  1.00  0.00     0.000 C 
BRANCH  13  14
ATOM     14  C   UNL     1     -16.393  -3.197  36.898  1.00  0.00     0.000 C 
BRANCH  14  15
ATOM     15  C   UNL     1     -16.779  -1.749  36.563  1.00  0.00     0.000 C 
BRANCH  15  16
ATOM     16  C   UNL     1     -17.742  -1.128  37.592  1.00  0.00     0.006 C 
BRANCH  16  17
ATOM     17  C   UNL     1     -17.637   0.403  37.702  1.00  0.00     0.053 C 
BRANCH  17  18
ATOM     18  C   UNL     1     -18.198   1.110  36.506  1.00  0.00     0.041 C 
ATOM     19  O   UNL     1     -17.531   2.007  35.926  1.00  0.00    -0.550 OA
ATOM     20  O   UNL     1     -19.447   0.755  36.012  1.00  0.00    -0.550 OA
ENDBRANCH  17  18
ENDBRANCH  16  17
ENDBRANCH  15  16
ENDBRANCH  14  15
ENDBRANCH  13  14
ENDBRANCH  12  13
ENDBRANCH  11  12
ENDBRANCH   1  11
TORSDOF 15
ENDMDL
MODEL 8
REMARK VINA RESULT:    -4.787      0.674      8.041
REMARK INTER + INTRA:         -10.422
REMARK INTER:                  -8.855
REMARK INTRA:                  -1.567
REMARK UNBOUND:                -1.437
REMARK SMILES O=C([O-])CCCCCCCCCCCCCCC(=O)[O-]
REMARK SMILES IDX 10 1 9 2 8 3 7 4 6 5 5 6 4 7 2 8 1 9 3 10 11 11 12 12 13 13
REMARK SMILES IDX 14 14 15 15 16 16 17 17 18 18 19 19 20 20
REMARK H PARENT
REMARK Flexibility Score: inf
ROOT
ATOM      1  C   UNL     1     -16.480  -3.305  31.717  1.00  0.00     0.000 C 
ENDROOT
BRANCH   1   2
ATOM      2  C   UNL     1     -15.004  -2.960  31.457  1.00  0.00     0.000 C 
BRANCH   2   3
ATOM      3  C   UNL     1     -14.226  -2.681  32.754  1.00  0.00     0.000 C 
BRANCH   3   4
ATOM      4  C   UNL     1     -13.944  -3.961  33.558  1.00  0.00     0.000 C 
BRANCH   4   5
ATOM      5  C   UNL     1     -12.792  -4.792  32.966  1.00  0.00     0.000 C 
BRANCH   5   6
ATOM      6  C   UNL     1     -13.276  -6.051  32.225  1.00  0.00     0.006 C 
BRANCH   6   7
ATOM      7  C   UNL     1     -14.583  -6.641  32.785  1.00  0.00     0.053 C 
BRANCH   7   8
ATOM      8  C   UNL     1     -15.453  -7.235  31.720  1.00  0.00     0.041 C 
ATOM      9  O   UNL     1     -15.562  -6.671  30.599  1.00  0.00    -0.550 OA
ATOM     10  O   UNL     1     -16.119  -8.432  31.953  1.00  0.00    -0.550 OA
ENDBRANCH   7   8
ENDBRANCH   6   7
ENDBRANCH   5   6
ENDBRANCH   4   5
ENDBRANCH   3   4
ENDBRANCH   2   3
ENDBRANCH   1   2
BRANCH   1  11
ATOM     11  C   UNL     1     -17.422  -2.120  31.438  1.00  0.00     0.000 C 
BRANCH  11  12
ATOM     12  C   UNL     1     -18.433  -1.890  32.573  1.00  0.00     0.000 C 
BRANCH  12  13
ATOM     13  C   UNL     1     -17.864  -2.240  33.957  1.00  0.00     0.000 C 
BRANCH  13  14
ATOM     14  C   UNL     1     -17.223  -1.010  34.612  1.00  0.00     0.000 C 
BRANCH  14  15
ATOM     15  C   UNL     1     -16.753  -1.329  36.039  1.00  0.00     0.000 C 
BRANCH  15  16
ATOM     16  C   UNL     1     -17.788  -0.947  37.114  1.00  0.00     0.006 C 
BRANCH  16  17
ATOM     17  C   UNL     1     -18.550   0.356  36.814  1.00  0.00     0.053 C 
BRANCH  17  18
ATOM     18  C   UNL     1     -18.357   1.396  37.874  1.00  0.00     0.041 C 
ATOM     19  O   UNL     1     -17.220   1.899  38.074  1.00  0.00    -0.550 OA
ATOM     20  O   UNL     1     -19.442   1.836  38.622  1.00  0.00    -0.550 OA
ENDBRANCH  17  18
ENDBRANCH  16  17
ENDBRANCH  15  16
ENDBRANCH  14  15
ENDBRANCH  13  14
ENDBRANCH  12  13
ENDBRANCH  11  12
ENDBRANCH   1  11
TORSDOF 15
ENDMDL
MODEL 9
REMARK VINA RESULT:    -4.718     11.723     14.450
REMARK INTER + INTRA:         -10.293
REMARK INTER:                  -8.094
REMARK INTRA:                  -2.199
REMARK UNBOUND:                -1.437
REMARK SMILES O=C([O-])CCCCCCCCCCCCCCC(=O)[O-]
REMARK SMILES IDX 10 1 9 2 8 3 7 4 6 5 5 6 4 7 2 8 1 9 3 10 11 11 12 12 13 13
REMARK SMILES IDX 14 14 15 15 16 16 17 17 18 18 19 19 20 20
REMARK H PARENT
REMARK Flexibility Score: inf
ROOT
ATOM      1  C   UNL     1     -28.084  -4.301  23.868  1.00  0.00     0.000 C 
ENDROOT
BRANCH   1   2
ATOM      2  C   UNL     1     -26.863  -3.514  23.362  1.00  0.00     0.000 C 
BRANCH   2   3
ATOM      3  C   UNL     1     -27.237  -2.114  22.846  1.00  0.00     0.000 C 
BRANCH   3   4
ATOM      4  C   UNL     1     -26.002  -1.267  22.496  1.00  0.00     0.000 C 
BRANCH   4   5
ATOM      5  C   UNL     1     -24.841  -1.474  23.484  1.00  0.00     0.000 C 
BRANCH   5   6
ATOM      6  C   UNL     1     -24.464  -0.192  24.248  1.00  0.00     0.006 C 
BRANCH   6   7
ATOM      7  C   UNL     1     -22.948   0.005  24.426  1.00  0.00     0.053 C 
BRANCH   7   8
ATOM      8  C   UNL     1     -22.379   1.011  23.473  1.00  0.00     0.041 C 
ATOM      9  O   UNL     1     -22.917   2.142  23.346  1.00  0.00    -0.550 OA
ATOM     10  O   UNL     1     -21.233   0.710  22.748  1.00  0.00    -0.550 OA
ENDBRANCH   7   8
ENDBRANCH   6   7
ENDBRANCH   5   6
ENDBRANCH   4   5
ENDBRANCH   3   4
ENDBRANCH   2   3
ENDBRANCH   1   2
BRANCH   1  11
ATOM     11  C   UNL     1     -29.320  -3.408  24.070  1.00  0.00     0.000 C 
BRANCH  11  12
ATOM     12  C   UNL     1     -29.993  -3.632  25.434  1.00  0.00     0.000 C 
BRANCH  12  13
ATOM     13  C   UNL     1     -29.409  -2.738  26.539  1.00  0.00     0.000 C 
BRANCH  13  14
ATOM     14  C   UNL     1     -29.105  -1.333  26.004  1.00  0.00     0.000 C 
BRANCH  14  15
ATOM     15  C   UNL     1     -27.642  -0.949  26.270  1.00  0.00     0.000 C 
BRANCH  15  16
ATOM     16  C   UNL     1     -26.902  -1.968  27.156  1.00  0.00     0.006 C 
BRANCH  16  17
ATOM     17  C   UNL     1     -25.540  -1.474  27.674  1.00  0.00     0.053 C 
BRANCH  17  18
ATOM     18  C   UNL     1     -24.485  -2.538  27.636  1.00  0.00     0.041 C 
ATOM     19  O   UNL     1     -24.256  -3.168  26.570  1.00  0.00    -0.550 OA
ATOM     20  O   UNL     1     -23.732  -2.811  28.771  1.00  0.00    -0.550 OA
ENDBRANCH  17  18
ENDBRANCH  16  17
ENDBRANCH  15  16
ENDBRANCH  14  15
ENDBRANCH  13  14
ENDBRANCH  12  13
ENDBRANCH  11  12
ENDBRANCH   1  11
TORSDOF 15
ENDMDL
