MODEL 1
REMARK VINA RESULT:    -3.334      0.000      0.000
REMARK INTER + INTRA:          -7.010
REMARK INTER:                  -5.673
REMARK INTRA:                  -1.336
REMARK UNBOUND:                -1.336
REMARK SMILES CCCCCCCCCCCCCC(=O)[O-]
REMARK SMILES IDX 8 1 9 2 10 3 11 4 12 5 13 6 14 7 15 8 16 9 7 10 6 11 5 12
REMARK SMILES IDX 4 13 3 14 2 15 1 16
REMARK H PARENT
REMARK Flexibility Score: inf
ROOT
ATOM      1  C   UNL     1      43.560  21.442  79.604  1.00  0.00     0.000 C 
ENDROOT
BRANCH   1   2
ATOM      2  C   UNL     1      44.056  20.314  78.679  1.00  0.00     0.000 C 
BRANCH   2   3
ATOM      3  C   UNL     1      44.209  20.708  77.197  1.00  0.00     0.000 C 
BRANCH   3   4
ATOM      4  C   UNL     1      45.652  21.076  76.820  1.00  0.00     0.000 C 
BRANCH   4   5
ATOM      5  C   UNL     1      46.504  19.817  76.618  1.00  0.00     0.006 C 
BRANCH   5   6
ATOM      6  C   UNL     1      45.929  18.938  75.503  1.00  0.00     0.053 C 
BRANCH   6   7
ATOM      7  C   UNL     1      45.761  17.530  75.981  1.00  0.00     0.041 C 
ATOM      8  O   UNL     1      45.815  16.573  75.164  1.00  0.00    -0.550 OA
ATOM      9  O   UNL     1      45.594  17.271  77.335  1.00  0.00    -0.550 OA
ENDBRANCH   6   7
ENDBRANCH   5   6
ENDBRANCH   4   5
ENDBRANCH   3   4
ENDBRANCH   2   3
ENDBRANCH   1   2
BRANCH   1  10
ATOM     10  C   UNL     1      42.160  21.214  80.204  1.00  0.00     0.000 C 
BRANCH  10  11
ATOM     11  C   UNL     1      41.411  20.009  79.589  1.00  0.00    -0.000 C 
BRANCH  11  12
ATOM     12  C   UNL     1      40.343  20.403  78.551  1.00  0.00    -0.000 C 
BRANCH  12  13
ATOM     13  C   UNL     1      39.999  21.905  78.536  1.00  0.00    -0.000 C 
BRANCH  13  14
ATOM     14  C   UNL     1      40.080  22.520  77.127  1.00  0.00    -0.000 C 
BRANCH  14  15
ATOM     15  C   UNL     1      41.002  21.723  76.191  1.00  0.00    -0.003 C 
ATOM     16  C   UNL     1      40.367  21.451  74.829  1.00  0.00     0.004 C 
ENDBRANCH  14  15
ENDBRANCH  13  14
ENDBRANCH  12  13
ENDBRANCH  11  12
ENDBRANCH  10  11
ENDBRANCH   1  10
TORSDOF 12
ENDMDL
MODEL 2
REMARK VINA RESULT:    -3.237     17.156     18.687
REMARK INTER + INTRA:          -6.844
REMARK INTER:                  -5.716
REMARK INTRA:                  -1.127
REMARK UNBOUND:                -1.336
REMARK SMILES CCCCCCCCCCCCCC(=O)[O-]
REMARK SMILES IDX 8 1 9 2 10 3 11 4 12 5 13 6 14 7 15 8 16 9 7 10 6 11 5 12
REMARK SMILES IDX 4 13 3 14 2 15 1 16
REMARK H PARENT
REMARK Flexibility Score: inf
ROOT
ATOM      1  C   UNL     1      48.046  32.714  87.183  1.00  0.00     0.000 C 
ENDROOT
BRANCH   1   2
ATOM      2  C   UNL     1      47.305  32.067  88.368  1.00  0.00     0.000 C 
BRANCH   2   3
ATOM      3  C   UNL     1      48.213  31.395  89.416  1.00  0.00     0.000 C 
BRANCH   3   4
ATOM      4  C   UNL     1      47.425  30.700  90.535  1.00  0.00     0.000 C 
BRANCH   4   5
ATOM      5  C   UNL     1      46.029  31.317  90.687  1.00  0.00     0.006 C 
BRANCH   5   6
ATOM      6  C   UNL     1      45.024  30.282  91.200  1.00  0.00     0.053 C 
BRANCH   6   7
ATOM      7  C   UNL     1      43.969  30.942  92.032  1.00  0.00     0.041 C 
ATOM      8  O   UNL     1      44.179  32.076  92.538  1.00  0.00    -0.550 OA
ATOM      9  O   UNL     1      42.736  30.326  92.207  1.00  0.00    -0.550 OA
ENDBRANCH   6   7
ENDBRANCH   5   6
ENDBRANCH   4   5
ENDBRANCH   3   4
ENDBRANCH   2   3
ENDBRANCH   1   2
BRANCH   1  10
ATOM     10  C   UNL     1      48.329  34.220  87.345  1.00  0.00     0.000 C 
BRANCH  10  11
ATOM     11  C   UNL     1      48.853  34.893  86.055  1.00  0.00    -0.000 C 
BRANCH  11  12
ATOM     12  C   UNL     1      50.319  34.553  85.726  1.00  0.00    -0.000 C 
BRANCH  12  13
ATOM     13  C   UNL     1      51.342  35.142  86.716  1.00  0.00    -0.000 C 
BRANCH  13  14
ATOM     14  C   UNL     1      52.314  34.082  87.267  1.00  0.00    -0.000 C 
BRANCH  14  15
ATOM     15  C   UNL     1      51.678  33.218  88.368  1.00  0.00    -0.003 C 
ATOM     16  C   UNL     1      51.612  31.739  87.992  1.00  0.00     0.004 C 
ENDBRANCH  14  15
ENDBRANCH  13  14
ENDBRANCH  12  13
ENDBRANCH  11  12
ENDBRANCH  10  11
ENDBRANCH   1  10
TORSDOF 12
ENDMDL
MODEL 3
REMARK VINA RESULT:    -3.223     16.669     18.599
REMARK INTER + INTRA:          -6.820
REMARK INTER:                  -5.092
REMARK INTRA:                  -1.728
REMARK UNBOUND:                -1.336
REMARK SMILES CCCCCCCCCCCCCC(=O)[O-]
REMARK SMILES IDX 8 1 9 2 10 3 11 4 12 5 13 6 14 7 15 8 16 9 7 10 6 11 5 12
REMARK SMILES IDX 4 13 3 14 2 15 1 16
REMARK H PARENT
REMARK Flexibility Score: inf
ROOT
ATOM      1  C   UNL     1      48.827  32.401  86.668  1.00  0.00     0.000 C 
ENDROOT
BRANCH   1   2
ATOM      2  C   UNL     1      48.241  33.529  87.539  1.00  0.00     0.000 C 
BRANCH   2   3
ATOM      3  C   UNL     1      48.593  34.956  87.079  1.00  0.00     0.000 C 
BRANCH   3   4
ATOM      4  C   UNL     1      49.976  35.048  86.418  1.00  0.00     0.000 C 
BRANCH   4   5
ATOM      5  C   UNL     1      51.027  35.555  87.413  1.00  0.00     0.006 C 
BRANCH   5   6
ATOM      6  C   UNL     1      52.014  34.444  87.783  1.00  0.00     0.053 C 
BRANCH   6   7
ATOM      7  C   UNL     1      53.213  35.015  88.472  1.00  0.00     0.041 C 
ATOM      8  O   UNL     1      53.668  34.467  89.511  1.00  0.00    -0.550 OA
ATOM      9  O   UNL     1      53.857  36.125  87.940  1.00  0.00    -0.550 OA
ENDBRANCH   6   7
ENDBRANCH   5   6
ENDBRANCH   4   5
ENDBRANCH   3   4
ENDBRANCH   2   3
ENDBRANCH   1   2
BRANCH   1  10
ATOM     10  C   UNL     1      49.507  31.265  87.457  1.00  0.00     0.000 C 
BRANCH  10  11
ATOM     11  C   UNL     1      49.805  31.627  88.930  1.00  0.00    -0.000 C 
BRANCH  11  12
ATOM     12  C   UNL     1      49.509  30.487  89.923  1.00  0.00    -0.000 C 
BRANCH  12  13
ATOM     13  C   UNL     1      48.017  30.118  90.037  1.00  0.00    -0.000 C 
BRANCH  13  14
ATOM     14  C   UNL     1      47.149  31.292  90.523  1.00  0.00    -0.000 C 
BRANCH  14  15
ATOM     15  C   UNL     1      45.938  31.545  89.611  1.00  0.00    -0.003 C 
ATOM     16  C   UNL     1      45.969  30.697  88.340  1.00  0.00     0.004 C 
ENDBRANCH  14  15
ENDBRANCH  13  14
ENDBRANCH  12  13
ENDBRANCH  11  12
ENDBRANCH  10  11
ENDBRANCH   1  10
TORSDOF 12
ENDMDL
MODEL 4
REMARK VINA RESULT:    -3.193     17.603     19.667
REMARK INTER + INTRA:          -6.770
REMARK INTER:                  -4.756
REMARK INTRA:                  -2.014
REMARK UNBOUND:                -1.336
REMARK SMILES CCCCCCCCCCCCCC(=O)[O-]
REMARK SMILES IDX 8 1 9 2 10 3 11 4 12 5 13 6 14 7 15 8 16 9 7 10 6 11 5 12
REMARK SMILES IDX 4 13 3 14 2 15 1 16
REMARK H PARENT
REMARK Flexibility Score: inf
ROOT
ATOM      1  C   UNL     1      54.262  33.713  87.604  1.00  0.00     0.000 C 
ENDROOT
BRANCH   1   2
ATOM      2  C   UNL     1      53.548  34.967  88.144  1.00  0.00     0.000 C 
BRANCH   2   3
ATOM      3  C   UNL     1      52.356  35.452  87.298  1.00  0.00     0.000 C 
BRANCH   3   4
ATOM      4  C   UNL     1      52.325  34.831  85.894  1.00  0.00     0.000 C 
BRANCH   4   5
ATOM      5  C   UNL     1      50.882  34.627  85.416  1.00  0.00     0.006 C 
BRANCH   5   6
ATOM      6  C   UNL     1      49.881  35.018  86.507  1.00  0.00     0.053 C 
BRANCH   6   7
ATOM      7  C   UNL     1      48.750  34.040  86.556  1.00  0.00     0.041 C 
ATOM      8  O   UNL     1      47.994  33.994  87.563  1.00  0.00    -0.550 OA
ATOM      9  O   UNL     1      48.499  33.213  85.468  1.00  0.00    -0.550 OA
ENDBRANCH   6   7
ENDBRANCH   5   6
ENDBRANCH   4   5
ENDBRANCH   3   4
ENDBRANCH   2   3
ENDBRANCH   1   2
BRANCH   1  10
ATOM     10  C   UNL     1      54.997  32.879  88.671  1.00  0.00     0.000 C 
BRANCH  10  11
ATOM     11  C   UNL     1      54.563  33.207  90.119  1.00  0.00    -0.000 C 
BRANCH  11  12
ATOM     12  C   UNL     1      53.786  32.070  90.809  1.00  0.00    -0.000 C 
BRANCH  12  13
ATOM     13  C   UNL     1      52.328  32.422  91.162  1.00  0.00    -0.000 C 
BRANCH  13  14
ATOM     14  C   UNL     1      51.307  31.672  90.289  1.00  0.00    -0.000 C 
BRANCH  14  15
ATOM     15  C   UNL     1      50.993  32.416  88.981  1.00  0.00    -0.003 C 
ATOM     16  C   UNL     1      51.259  31.566  87.740  1.00  0.00     0.004 C 
ENDBRANCH  14  15
ENDBRANCH  13  14
ENDBRANCH  12  13
ENDBRANCH  11  12
ENDBRANCH  10  11
ENDBRANCH   1  10
TORSDOF 12
ENDMDL
MODEL 5
REMARK VINA RESULT:    -3.174     16.754     18.532
REMARK INTER + INTRA:          -6.737
REMARK INTER:                  -4.575
REMARK INTRA:                  -2.162
REMARK UNBOUND:                -1.336
REMARK SMILES CCCCCCCCCCCCCC(=O)[O-]
REMARK SMILES IDX 8 1 9 2 10 3 11 4 12 5 13 6 14 7 15 8 16 9 7 10 6 11 5 12
REMARK SMILES IDX 4 13 3 14 2 15 1 16
REMARK H PARENT
REMARK Flexibility Score: inf
ROOT
ATOM      1  C   UNL     1      50.018  35.765  87.499  1.00  0.00     0.000 C 
ENDROOT
BRANCH   1   2
ATOM      2  C   UNL     1      51.282  35.234  86.796  1.00  0.00     0.000 C 
BRANCH   2   3
ATOM      3  C   UNL     1      52.238  34.427  87.696  1.00  0.00     0.000 C 
BRANCH   3   4
ATOM      4  C   UNL     1      52.494  33.005  87.176  1.00  0.00     0.000 C 
BRANCH   4   5
ATOM      5  C   UNL     1      52.037  31.957  88.198  1.00  0.00     0.006 C 
BRANCH   5   6
ATOM      6  C   UNL     1      51.334  32.618  89.387  1.00  0.00     0.053 C 
BRANCH   6   7
ATOM      7  C   UNL     1      52.046  32.297  90.663  1.00  0.00     0.041 C 
ATOM      8  O   UNL     1      53.285  32.072  90.657  1.00  0.00    -0.550 OA
ATOM      9  O   UNL     1      51.350  32.295  91.865  1.00  0.00    -0.550 OA
ENDBRANCH   6   7
ENDBRANCH   5   6
ENDBRANCH   4   5
ENDBRANCH   3   4
ENDBRANCH   2   3
ENDBRANCH   1   2
BRANCH   1  10
ATOM     10  C   UNL     1      48.689  35.276  86.892  1.00  0.00     0.000 C 
BRANCH  10  11
ATOM     11  C   UNL     1      48.191  33.940  87.490  1.00  0.00    -0.000 C 
BRANCH  11  12
ATOM     12  C   UNL     1      48.635  32.698  86.694  1.00  0.00    -0.000 C 
BRANCH  12  13
ATOM     13  C   UNL     1      48.712  32.916  85.170  1.00  0.00    -0.000 C 
BRANCH  13  14
ATOM     14  C   UNL     1      50.040  32.427  84.566  1.00  0.00    -0.000 C 
BRANCH  14  15
ATOM     15  C   UNL     1      50.562  33.360  83.462  1.00  0.00    -0.003 C 
ATOM     16  C   UNL     1      49.812  34.689  83.409  1.00  0.00     0.004 C 
ENDBRANCH  14  15
ENDBRANCH  13  14
ENDBRANCH  12  13
ENDBRANCH  11  12
ENDBRANCH  10  11
ENDBRANCH   1  10
TORSDOF 12
ENDMDL
MODEL 6
REMARK VINA RESULT:    -3.150      4.747      7.184
REMARK INTER + INTRA:          -6.696
REMARK INTER:                  -5.176
REMARK INTRA:                  -1.521
REMARK UNBOUND:                -1.336
REMARK SMILES CCCCCCCCCCCCCC(=O)[O-]
REMARK SMILES IDX 8 1 9 2 10 3 11 4 12 5 13 6 14 7 15 8 16 9 7 10 6 11 5 12
REMARK SMILES IDX 4 13 3 14 2 15 1 16
REMARK H PARENT
REMARK Flexibility Score: inf
ROOT
ATOM      1  C   UNL     1      47.430  20.554  74.814  1.00  0.00     0.000 C 
ENDROOT
BRANCH   1   2
ATOM      2  C   UNL     1      47.362  21.981  75.392  1.00  0.00     0.000 C 
BRANCH   2   3
ATOM      3  C   UNL     1      48.723  22.685  75.549  1.00  0.00     0.000 C 
BRANCH   3   4
ATOM      4  C   UNL     1      49.897  21.845  75.026  1.00  0.00     0.000 C 
BRANCH   4   5
ATOM      5  C   UNL     1      51.190  22.180  75.779  1.00  0.00     0.006 C 
BRANCH   5   6
ATOM      6  C   UNL     1      52.345  22.428  74.805  1.00  0.00     0.053 C 
BRANCH   6   7
ATOM      7  C   UNL     1      53.072  21.153  74.518  1.00  0.00     0.041 C 
ATOM      8  O   UNL     1      53.917  20.707  75.339  1.00  0.00    -0.550 OA
ATOM      9  O   UNL     1      52.782  20.431  73.367  1.00  0.00    -0.550 OA
ENDBRANCH   6   7
ENDBRANCH   5   6
ENDBRANCH   4   5
ENDBRANCH   3   4
ENDBRANCH   2   3
ENDBRANCH   1   2
BRANCH   1  10
ATOM     10  C   UNL     1      46.351  19.591  75.345  1.00  0.00     0.000 C 
BRANCH  10  11
ATOM     11  C   UNL     1      45.407  20.234  76.388  1.00  0.00    -0.000 C 
BRANCH  11  12
ATOM     12  C   UNL     1      45.572  19.666  77.810  1.00  0.00    -0.000 C 
BRANCH  12  13
ATOM     13  C   UNL     1      46.588  20.429  78.683  1.00  0.00    -0.000 C 
BRANCH  13  14
ATOM     14  C   UNL     1      47.879  19.628  78.931  1.00  0.00    -0.000 C 
BRANCH  14  15
ATOM     15  C   UNL     1      49.118  20.313  78.334  1.00  0.00    -0.003 C 
ATOM     16  C   UNL     1      49.993  20.980  79.395  1.00  0.00     0.004 C 
ENDBRANCH  14  15
ENDBRANCH  13  14
ENDBRANCH  12  13
ENDBRANCH  11  12
ENDBRANCH  10  11
ENDBRANCH   1  10
TORSDOF 12
ENDMDL
MODEL 7
REMARK VINA RESULT:    -3.136      2.999      4.717
REMARK INTER + INTRA:          -6.671
REMARK INTER:                  -4.711
REMARK INTRA:                  -1.960
REMARK UNBOUND:                -1.336
REMARK SMILES CCCCCCCCCCCCCC(=O)[O-]
REMARK SMILES IDX 8 1 9 2 10 3 11 4 12 5 13 6 14 7 15 8 16 9 7 10 6 11 5 12
REMARK SMILES IDX 4 13 3 14 2 15 1 16
REMARK H PARENT
REMARK Flexibility Score: inf
ROOT
ATOM      1  C   UNL     1      45.701  19.579  75.062  1.00  0.00     0.000 C 
ENDROOT
BRANCH   1   2
ATOM      2  C   UNL     1      47.025  20.323  74.807  1.00  0.00     0.000 C 
BRANCH   2   3
ATOM      3  C   UNL     1      47.103  21.740  75.409  1.00  0.00     0.000 C 
BRANCH   3   4
ATOM      4  C   UNL     1      48.542  22.264  75.524  1.00  0.00     0.000 C 
BRANCH   4   5
ATOM      5  C   UNL     1      49.304  21.534  76.637  1.00  0.00     0.006 C 
BRANCH   5   6
ATOM      6  C   UNL     1      48.541  21.606  77.963  1.00  0.00     0.053 C 
BRANCH   6   7
ATOM      7  C   UNL     1      49.129  20.656  78.959  1.00  0.00     0.041 C 
ATOM      8  O   UNL     1      50.373  20.459  78.989  1.00  0.00    -0.550 OA
ATOM      9  O   UNL     1      48.309  20.025  79.886  1.00  0.00    -0.550 OA
ENDBRANCH   6   7
ENDBRANCH   5   6
ENDBRANCH   4   5
ENDBRANCH   3   4
ENDBRANCH   2   3
ENDBRANCH   1   2
BRANCH   1  10
ATOM     10  C   UNL     1      45.814  18.369  76.009  1.00  0.00     0.000 C 
BRANCH  10  11
ATOM     11  C   UNL     1      46.010  18.760  77.492  1.00  0.00    -0.000 C 
BRANCH  11  12
ATOM     12  C   UNL     1      44.794  19.472  78.115  1.00  0.00    -0.000 C 
BRANCH  12  13
ATOM     13  C   UNL     1      45.094  20.884  78.652  1.00  0.00    -0.000 C 
BRANCH  13  14
ATOM     14  C   UNL     1      44.313  21.982  77.907  1.00  0.00    -0.000 C 
BRANCH  14  15
ATOM     15  C   UNL     1      43.134  21.419  77.099  1.00  0.00    -0.003 C 
ATOM     16  C   UNL     1      43.081  21.965  75.673  1.00  0.00     0.004 C 
ENDBRANCH  14  15
ENDBRANCH  13  14
ENDBRANCH  12  13
ENDBRANCH  11  12
ENDBRANCH  10  11
ENDBRANCH   1  10
TORSDOF 12
ENDMDL
MODEL 8
REMARK VINA RESULT:    -3.112      1.928      2.568
REMARK INTER + INTRA:          -6.631
REMARK INTER:                  -4.883
REMARK INTRA:                  -1.748
REMARK UNBOUND:                -1.336
REMARK SMILES CCCCCCCCCCCCCC(=O)[O-]
REMARK SMILES IDX 8 1 9 2 10 3 11 4 12 5 13 6 14 7 15 8 16 9 7 10 6 11 5 12
REMARK SMILES IDX 4 13 3 14 2 15 1 16
REMARK H PARENT
REMARK Flexibility Score: inf
ROOT
ATOM      1  C   UNL     1      42.253  20.373  79.237  1.00  0.00     0.000 C 
ENDROOT
BRANCH   1   2
ATOM      2  C   UNL     1      43.576  21.128  79.466  1.00  0.00     0.000 C 
BRANCH   2   3
ATOM      3  C   UNL     1      44.721  20.740  78.511  1.00  0.00     0.000 C 
BRANCH   3   4
ATOM      4  C   UNL     1      44.700  19.254  78.123  1.00  0.00     0.000 C 
BRANCH   4   5
ATOM      5  C   UNL     1      45.988  18.861  77.388  1.00  0.00     0.006 C 
BRANCH   5   6
ATOM      6  C   UNL     1      45.716  18.603  75.903  1.00  0.00     0.053 C 
BRANCH   6   7
ATOM      7  C   UNL     1      46.268  19.714  75.068  1.00  0.00     0.041 C 
ATOM      8  O   UNL     1      45.678  20.067  74.012  1.00  0.00    -0.550 OA
ATOM      9  O   UNL     1      47.408  20.394  75.480  1.00  0.00    -0.550 OA
ENDBRANCH   6   7
ENDBRANCH   5   6
ENDBRANCH   4   5
ENDBRANCH   3   4
ENDBRANCH   2   3
ENDBRANCH   1   2
BRANCH   1  10
ATOM     10  C   UNL     1      40.988  21.149  79.651  1.00  0.00     0.000 C 
BRANCH  10  11
ATOM     11  C   UNL     1      40.160  21.667  78.452  1.00  0.00    -0.000 C 
BRANCH  11  12
ATOM     12  C   UNL     1      40.625  21.117  77.090  1.00  0.00    -0.000 C 
BRANCH  12  13
ATOM     13  C   UNL     1      41.351  22.149  76.206  1.00  0.00    -0.000 C 
BRANCH  13  14
ATOM     14  C   UNL     1      42.649  21.596  75.590  1.00  0.00    -0.000 C 
BRANCH  14  15
ATOM     15  C   UNL     1      43.759  22.656  75.508  1.00  0.00    -0.003 C 
ATOM     16  C   UNL     1      43.645  23.715  76.603  1.00  0.00     0.004 C 
ENDBRANCH  14  15
ENDBRANCH  13  14
ENDBRANCH  12  13
ENDBRANCH  11  12
ENDBRANCH  10  11
ENDBRANCH   1  10
TORSDOF 12
ENDMDL
MODEL 9
REMARK VINA RESULT:    -3.072     17.474     19.343
REMARK INTER + INTRA:          -6.564
REMARK INTER:                  -4.452
REMARK INTRA:                  -2.112
REMARK UNBOUND:                -1.336
REMARK SMILES CCCCCCCCCCCCCC(=O)[O-]
REMARK SMILES IDX 8 1 9 2 10 3 11 4 12 5 13 6 14 7 15 8 16 9 7 10 6 11 5 12
REMARK SMILES IDX 4 13 3 14 2 15 1 16
REMARK H PARENT
REMARK Flexibility Score: inf
ROOT
ATOM      1  C   UNL     1      49.573  34.970  86.498  1.00  0.00     0.000 C 
ENDROOT
BRANCH   1   2
ATOM      2  C   UNL     1      48.955  33.714  87.141  1.00  0.00     0.000 C 
BRANCH   2   3
ATOM      3  C   UNL     1      49.798  32.432  87.007  1.00  0.00     0.000 C 
BRANCH   3   4
ATOM      4  C   UNL     1      50.096  31.766  88.359  1.00  0.00     0.000 C 
BRANCH   4   5
ATOM      5  C   UNL     1      51.592  31.840  88.688  1.00  0.00     0.006 C 
BRANCH   5   6
ATOM      6  C   UNL     1      51.821  32.461  90.069  1.00  0.00     0.053 C 
BRANCH   6   7
ATOM      7  C   UNL     1      53.281  32.683  90.310  1.00  0.00     0.041 C 
ATOM      8  O   UNL     1      54.065  31.702  90.396  1.00  0.00    -0.550 OA
ATOM      9  O   UNL     1      53.783  33.976  90.389  1.00  0.00    -0.550 OA
ENDBRANCH   6   7
ENDBRANCH   5   6
ENDBRANCH   4   5
ENDBRANCH   3   4
ENDBRANCH   2   3
ENDBRANCH   1   2
BRANCH   1  10
ATOM     10  C   UNL     1      50.279  35.919  87.485  1.00  0.00     0.000 C 
BRANCH  10  11
ATOM     11  C   UNL     1      51.708  35.465  87.865  1.00  0.00    -0.000 C 
BRANCH  11  12
ATOM     12  C   UNL     1      52.677  35.393  86.669  1.00  0.00    -0.000 C 
BRANCH  12  13
ATOM     13  C   UNL     1      53.417  34.049  86.534  1.00  0.00    -0.000 C 
BRANCH  13  14
ATOM     14  C   UNL     1      53.078  33.312  85.225  1.00  0.00    -0.000 C 
BRANCH  14  15
ATOM     15  C   UNL     1      52.502  34.252  84.154  1.00  0.00    -0.003 C 
ATOM     16  C   UNL     1      51.240  33.696  83.497  1.00  0.00     0.004 C 
ENDBRANCH  14  15
ENDBRANCH  13  14
ENDBRANCH  12  13
ENDBRANCH  11  12
ENDBRANCH  10  11
ENDBRANCH   1  10
TORSDOF 12
ENDMDL
