MODEL 1
REMARK VINA RESULT:     0.000      0.000      0.000
REMARK INTER + INTRA:          -1.843
REMARK INTER:                   0.000
REMARK INTRA:                  -1.843
REMARK UNBOUND:                -1.843
REMARK SMILES CCCCCCCCCCCC(=O)[O-]
REMARK SMILES IDX 7 1 8 2 9 3 10 4 11 5 12 6 13 7 14 8 6 9 5 10 4 11 3 12 2 13
REMARK SMILES IDX 1 14
REMARK H PARENT
REMARK Flexibility Score: inf
ROOT
ATOM      1  C   UNL     1     184.545 186.252 181.955  1.00  0.00     0.000 C 
ENDROOT
BRANCH   1   2
ATOM      2  C   UNL     1     183.337 185.545 182.588  1.00  0.00     0.000 C 
BRANCH   2   3
ATOM      3  C   UNL     1     183.732 184.844 183.892  1.00  0.00     0.000 C 
BRANCH   3   4
ATOM      4  C   UNL     1     185.153 185.238 184.322  1.00  0.00     0.006 C 
BRANCH   4   5
ATOM      5  C   UNL     1     185.163 186.042 185.628  1.00  0.00     0.053 C 
BRANCH   5   6
ATOM      6  C   UNL     1     186.100 187.209 185.553  1.00  0.00     0.041 C 
ATOM      7  O   UNL     1     186.196 188.009 186.521  1.00  0.00    -0.550 OA
ATOM      8  O   UNL     1     186.845 187.430 184.402  1.00  0.00    -0.550 OA
ENDBRANCH   5   6
ENDBRANCH   4   5
ENDBRANCH   3   4
ENDBRANCH   2   3
ENDBRANCH   1   2
BRANCH   1   9
ATOM      9  C   UNL     1     184.310 187.757 181.749  1.00  0.00     0.000 C 
BRANCH   9  10
ATOM     10  C   UNL     1     183.134 188.292 182.580  1.00  0.00    -0.000 C 
BRANCH  10  11
ATOM     11  C   UNL     1     183.627 189.208 183.706  1.00  0.00    -0.000 C 
BRANCH  11  12
ATOM     12  C   UNL     1     182.863 188.939 185.011  1.00  0.00    -0.000 C 
BRANCH  12  13
ATOM     13  C   UNL     1     181.683 187.976 184.816  1.00  0.00    -0.003 C 
ATOM     14  C   UNL     1     181.525 186.992 185.975  1.00  0.00     0.004 C 
ENDBRANCH  12  13
ENDBRANCH  11  12
ENDBRANCH  10  11
ENDBRANCH   9  10
ENDBRANCH   1   9
TORSDOF 10
ENDMDL
MODEL 2
REMARK VINA RESULT:     0.000     16.771     18.469
REMARK INTER + INTRA:          -1.843
REMARK INTER:                   0.000
REMARK INTRA:                  -1.843
REMARK UNBOUND:                -1.843
REMARK SMILES CCCCCCCCCCCC(=O)[O-]
REMARK SMILES IDX 7 1 8 2 9 3 10 4 11 5 12 6 13 7 14 8 6 9 5 10 4 11 3 12 2 13
REMARK SMILES IDX 1 14
REMARK H PARENT
REMARK Flexibility Score: inf
ROOT
ATOM      1  C   UNL     1     172.236 173.133 177.949  1.00  0.00     0.000 C 
ENDROOT
BRANCH   1   2
ATOM      2  C   UNL     1     171.351 174.369 178.170  1.00  0.00     0.000 C 
BRANCH   2   3
ATOM      3  C   UNL     1     172.189 175.571 178.619  1.00  0.00     0.000 C 
BRANCH   3   4
ATOM      4  C   UNL     1     173.691 175.272 178.499  1.00  0.00     0.006 C 
BRANCH   4   5
ATOM      5  C   UNL     1     174.381 176.172 177.466  1.00  0.00     0.053 C 
BRANCH   5   6
ATOM      6  C   UNL     1     175.357 175.405 176.628  1.00  0.00     0.041 C 
ATOM      7  O   UNL     1     176.067 176.001 175.775  1.00  0.00    -0.550 OA
ATOM      8  O   UNL     1     175.461 174.027 176.766  1.00  0.00    -0.550 OA
ENDBRANCH   5   6
ENDBRANCH   4   5
ENDBRANCH   3   4
ENDBRANCH   2   3
ENDBRANCH   1   2
BRANCH   1   9
ATOM      9  C   UNL     1     172.105 172.556 176.531  1.00  0.00     0.000 C 
BRANCH   9  10
ATOM     10  C   UNL     1     171.525 173.568 175.531  1.00  0.00    -0.000 C 
BRANCH  10  11
ATOM     11  C   UNL     1     172.602 174.058 174.556  1.00  0.00    -0.000 C 
BRANCH  11  12
ATOM     12  C   UNL     1     172.473 175.567 174.303  1.00  0.00    -0.000 C 
BRANCH  12  13
ATOM     13  C   UNL     1     171.206 176.164 174.934  1.00  0.00    -0.003 C 
ATOM     14  C   UNL     1     171.444 177.544 175.547  1.00  0.00     0.004 C 
ENDBRANCH  12  13
ENDBRANCH  11  12
ENDBRANCH  10  11
ENDBRANCH   9  10
ENDBRANCH   1   9
TORSDOF 10
ENDMDL
MODEL 3
REMARK VINA RESULT:     0.000     11.680     13.811
REMARK INTER + INTRA:          -1.843
REMARK INTER:                   0.000
REMARK INTRA:                  -1.843
REMARK UNBOUND:                -1.843
REMARK SMILES CCCCCCCCCCCC(=O)[O-]
REMARK SMILES IDX 7 1 8 2 9 3 10 4 11 5 12 6 13 7 14 8 6 9 5 10 4 11 3 12 2 13
REMARK SMILES IDX 1 14
REMARK H PARENT
REMARK Flexibility Score: inf
ROOT
ATOM      1  C   UNL     1     186.135 175.252 180.157  1.00  0.00     0.000 C 
ENDROOT
BRANCH   1   2
ATOM      2  C   UNL     1     185.627 176.701 180.096  1.00  0.00     0.000 C 
BRANCH   2   3
ATOM      3  C   UNL     1     184.605 176.877 178.968  1.00  0.00     0.000 C 
BRANCH   3   4
ATOM      4  C   UNL     1     185.085 177.918 177.946  1.00  0.00     0.006 C 
BRANCH   4   5
ATOM      5  C   UNL     1     185.479 177.280 176.608  1.00  0.00     0.053 C 
BRANCH   5   6
ATOM      6  C   UNL     1     186.965 177.158 176.468  1.00  0.00     0.041 C 
ATOM      7  O   UNL     1     187.460 176.388 175.603  1.00  0.00    -0.550 OA
ATOM      8  O   UNL     1     187.804 177.872 177.314  1.00  0.00    -0.550 OA
ENDBRANCH   5   6
ENDBRANCH   4   5
ENDBRANCH   3   4
ENDBRANCH   2   3
ENDBRANCH   1   2
BRANCH   1   9
ATOM      9  C   UNL     1     187.531 175.088 179.535  1.00  0.00     0.000 C 
BRANCH   9  10
ATOM     10  C   UNL     1     187.549 174.073 178.382  1.00  0.00    -0.000 C 
BRANCH  10  11
ATOM     11  C   UNL     1     186.194 173.369 178.246  1.00  0.00    -0.000 C 
BRANCH  11  12
ATOM     12  C   UNL     1     185.605 173.573 176.842  1.00  0.00    -0.000 C 
BRANCH  12  13
ATOM     13  C   UNL     1     184.088 173.811 176.867  1.00  0.00    -0.003 C 
ATOM     14  C   UNL     1     183.451 173.432 178.204  1.00  0.00     0.004 C 
ENDBRANCH  12  13
ENDBRANCH  11  12
ENDBRANCH  10  11
ENDBRANCH   9  10
ENDBRANCH   1   9
TORSDOF 10
ENDMDL
MODEL 4
REMARK VINA RESULT:     0.001      7.377      8.947
REMARK INTER + INTRA:          -1.843
REMARK INTER:                   0.000
REMARK INTRA:                  -1.843
REMARK UNBOUND:                -1.843
REMARK SMILES CCCCCCCCCCCC(=O)[O-]
REMARK SMILES IDX 7 1 8 2 9 3 10 4 11 5 12 6 13 7 14 8 6 9 5 10 4 11 3 12 2 13
REMARK SMILES IDX 1 14
REMARK H PARENT
REMARK Flexibility Score: inf
ROOT
ATOM      1  C   UNL     1     180.328 183.674 179.296  1.00  0.00     0.000 C 
ENDROOT
BRANCH   1   2
ATOM      2  C   UNL     1     180.224 184.579 180.532  1.00  0.00     0.000 C 
BRANCH   2   3
ATOM      3  C   UNL     1     178.796 184.587 181.088  1.00  0.00     0.000 C 
BRANCH   3   4
ATOM      4  C   UNL     1     178.208 186.006 181.078  1.00  0.00     0.006 C 
BRANCH   4   5
ATOM      5  C   UNL     1     177.101 186.168 180.028  1.00  0.00     0.053 C 
BRANCH   5   6
ATOM      6  C   UNL     1     177.597 186.875 178.804  1.00  0.00     0.041 C 
ATOM      7  O   UNL     1     176.943 186.818 177.729  1.00  0.00    -0.550 OA
ATOM      8  O   UNL     1     178.799 187.570 178.841  1.00  0.00    -0.550 OA
ENDBRANCH   5   6
ENDBRANCH   4   5
ENDBRANCH   3   4
ENDBRANCH   2   3
ENDBRANCH   1   2
BRANCH   1   9
ATOM      9  C   UNL     1     180.348 184.467 177.980  1.00  0.00     0.000 C 
BRANCH   9  10
ATOM     10  C   UNL     1     179.199 184.081 177.037  1.00  0.00    -0.000 C 
BRANCH  10  11
ATOM     11  C   UNL     1     178.416 182.882 177.586  1.00  0.00    -0.000 C 
BRANCH  11  12
ATOM     12  C   UNL     1     176.929 183.226 177.759  1.00  0.00    -0.000 C 
BRANCH  12  13
ATOM     13  C   UNL     1     176.331 182.635 179.044  1.00  0.00    -0.003 C 
ATOM     14  C   UNL     1     177.211 181.548 179.661  1.00  0.00     0.004 C 
ENDBRANCH  12  13
ENDBRANCH  11  12
ENDBRANCH  10  11
ENDBRANCH   9  10
ENDBRANCH   1   9
TORSDOF 10
ENDMDL
MODEL 5
REMARK VINA RESULT:     0.001      6.104      7.737
REMARK INTER + INTRA:          -1.842
REMARK INTER:                   0.000
REMARK INTRA:                  -1.842
REMARK UNBOUND:                -1.843
REMARK SMILES CCCCCCCCCCCC(=O)[O-]
REMARK SMILES IDX 7 1 8 2 9 3 10 4 11 5 12 6 13 7 14 8 6 9 5 10 4 11 3 12 2 13
REMARK SMILES IDX 1 14
REMARK H PARENT
REMARK Flexibility Score: inf
ROOT
ATOM      1  C   UNL     1     175.053 184.903 185.441  1.00  0.00     0.000 C 
ENDROOT
BRANCH   1   2
ATOM      2  C   UNL     1     175.464 183.462 185.102  1.00  0.00     0.000 C 
BRANCH   2   3
ATOM      3  C   UNL     1     176.691 183.036 185.916  1.00  0.00     0.000 C 
BRANCH   3   4
ATOM      4  C   UNL     1     177.857 182.649 184.994  1.00  0.00     0.006 C 
BRANCH   4   5
ATOM      5  C   UNL     1     178.992 183.681 185.029  1.00  0.00     0.053 C 
BRANCH   5   6
ATOM      6  C   UNL     1     178.957 184.584 183.834  1.00  0.00     0.041 C 
ATOM      7  O   UNL     1     179.595 185.670 183.840  1.00  0.00    -0.550 OA
ATOM      8  O   UNL     1     178.195 184.240 182.725  1.00  0.00    -0.550 OA
ENDBRANCH   5   6
ENDBRANCH   4   5
ENDBRANCH   3   4
ENDBRANCH   2   3
ENDBRANCH   1   2
BRANCH   1   9
ATOM      9  C   UNL     1     175.484 185.910 184.364  1.00  0.00     0.000 C 
BRANCH   9  10
ATOM     10  C   UNL     1     176.404 187.010 184.915  1.00  0.00    -0.000 C 
BRANCH  10  11
ATOM     11  C   UNL     1     176.527 186.912 186.440  1.00  0.00    -0.000 C 
BRANCH  11  12
ATOM     12  C   UNL     1     177.993 186.748 186.866  1.00  0.00    -0.000 C 
BRANCH  12  13
ATOM     13  C   UNL     1     178.163 185.768 188.036  1.00  0.00    -0.003 C 
ATOM     14  C   UNL     1     176.843 185.450 188.738  1.00  0.00     0.004 C 
ENDBRANCH  12  13
ENDBRANCH  11  12
ENDBRANCH  10  11
ENDBRANCH   9  10
ENDBRANCH   1   9
TORSDOF 10
ENDMDL
MODEL 6
REMARK VINA RESULT:     0.001     11.039     13.093
REMARK INTER + INTRA:          -1.842
REMARK INTER:                   0.000
REMARK INTRA:                  -1.842
REMARK UNBOUND:                -1.843
REMARK SMILES CCCCCCCCCCCC(=O)[O-]
REMARK SMILES IDX 7 1 8 2 9 3 10 4 11 5 12 6 13 7 14 8 6 9 5 10 4 11 3 12 2 13
REMARK SMILES IDX 1 14
REMARK H PARENT
REMARK Flexibility Score: inf
ROOT
ATOM      1  C   UNL     1     187.611 178.552 175.219  1.00  0.00     0.000 C 
ENDROOT
BRANCH   1   2
ATOM      2  C   UNL     1     188.122 179.709 176.092  1.00  0.00     0.000 C 
BRANCH   2   3
ATOM      3  C   UNL     1     189.267 179.247 177.000  1.00  0.00     0.000 C 
BRANCH   3   4
ATOM      4  C   UNL     1     188.908 179.435 178.481  1.00  0.00     0.006 C 
BRANCH   4   5
ATOM      5  C   UNL     1     188.676 178.098 179.197  1.00  0.00     0.053 C 
BRANCH   5   6
ATOM      6  C   UNL     1     187.217 177.810 179.375  1.00  0.00     0.041 C 
ATOM      7  O   UNL     1     186.829 176.645 179.653  1.00  0.00    -0.550 OA
ATOM      8  O   UNL     1     186.282 178.823 179.204  1.00  0.00    -0.550 OA
ENDBRANCH   5   6
ENDBRANCH   4   5
ENDBRANCH   3   4
ENDBRANCH   2   3
ENDBRANCH   1   2
BRANCH   1   9
ATOM      9  C   UNL     1     186.291 177.959 175.735  1.00  0.00     0.000 C 
BRANCH   9  10
ATOM     10  C   UNL     1     186.402 176.463 176.065  1.00  0.00    -0.000 C 
BRANCH  10  11
ATOM     11  C   UNL     1     187.755 175.899 175.615  1.00  0.00    -0.000 C 
BRANCH  11  12
ATOM     12  C   UNL     1     188.505 175.258 176.792  1.00  0.00    -0.000 C 
BRANCH  12  13
ATOM     13  C   UNL     1     190.007 175.578 176.780  1.00  0.00    -0.003 C 
ATOM     14  C   UNL     1     190.488 176.113 175.432  1.00  0.00     0.004 C 
ENDBRANCH  12  13
ENDBRANCH  11  12
ENDBRANCH  10  11
ENDBRANCH   9  10
ENDBRANCH   1   9
TORSDOF 10
ENDMDL
MODEL 7
REMARK VINA RESULT:     0.001      4.662      6.409
REMARK INTER + INTRA:          -1.841
REMARK INTER:                   0.000
REMARK INTRA:                  -1.841
REMARK UNBOUND:                -1.843
REMARK SMILES CCCCCCCCCCCC(=O)[O-]
REMARK SMILES IDX 7 1 8 2 9 3 10 4 11 5 12 6 13 7 14 8 6 9 5 10 4 11 3 12 2 13
REMARK SMILES IDX 1 14
REMARK H PARENT
REMARK Flexibility Score: inf
ROOT
ATOM      1  C   UNL     1     186.090 186.386 176.867  1.00  0.00     0.000 C 
ENDROOT
BRANCH   1   2
ATOM      2  C   UNL     1     187.064 186.535 178.046  1.00  0.00     0.000 C 
BRANCH   2   3
ATOM      3  C   UNL     1     186.421 187.320 179.194  1.00  0.00     0.000 C 
BRANCH   3   4
ATOM      4  C   UNL     1     186.348 186.470 180.472  1.00  0.00     0.006 C 
BRANCH   4   5
ATOM      5  C   UNL     1     184.909 186.073 180.824  1.00  0.00     0.053 C 
BRANCH   5   6
ATOM      6  C   UNL     1     184.621 184.651 180.453  1.00  0.00     0.041 C 
ATOM      7  O   UNL     1     185.565 183.858 180.195  1.00  0.00    -0.550 OA
ATOM      8  O   UNL     1     183.307 184.209 180.361  1.00  0.00    -0.550 OA
ENDBRANCH   5   6
ENDBRANCH   4   5
ENDBRANCH   3   4
ENDBRANCH   2   3
ENDBRANCH   1   2
BRANCH   1   9
ATOM      9  C   UNL     1     185.433 184.999 176.813  1.00  0.00     0.000 C 
BRANCH   9  10
ATOM     10  C   UNL     1     183.900 185.066 176.875  1.00  0.00    -0.000 C 
BRANCH  10  11
ATOM     11  C   UNL     1     183.410 186.518 176.822  1.00  0.00    -0.000 C 
BRANCH  11  12
ATOM     12  C   UNL     1     182.557 186.858 178.053  1.00  0.00    -0.000 C 
BRANCH  12  13
ATOM     13  C   UNL     1     182.843 188.264 178.599  1.00  0.00    -0.003 C 
ATOM     14  C   UNL     1     183.601 189.143 177.605  1.00  0.00     0.004 C 
ENDBRANCH  12  13
ENDBRANCH  11  12
ENDBRANCH  10  11
ENDBRANCH   9  10
ENDBRANCH   1   9
TORSDOF 10
ENDMDL
MODEL 8
REMARK VINA RESULT:     0.002     10.167     11.386
REMARK INTER + INTRA:          -1.840
REMARK INTER:                   0.000
REMARK INTRA:                  -1.840
REMARK UNBOUND:                -1.843
REMARK SMILES CCCCCCCCCCCC(=O)[O-]
REMARK SMILES IDX 7 1 8 2 9 3 10 4 11 5 12 6 13 7 14 8 6 9 5 10 4 11 3 12 2 13
REMARK SMILES IDX 1 14
REMARK H PARENT
REMARK Flexibility Score: inf
ROOT
ATOM      1  C   UNL     1     176.423 181.887 182.061  1.00  0.00     0.000 C 
ENDROOT
BRANCH   1   2
ATOM      2  C   UNL     1     175.258 181.889 181.059  1.00  0.00     0.000 C 
BRANCH   2   3
ATOM      3  C   UNL     1     174.277 180.750 181.356  1.00  0.00     0.000 C 
BRANCH   3   4
ATOM      4  C   UNL     1     174.594 180.085 182.704  1.00  0.00     0.006 C 
BRANCH   4   5
ATOM      5  C   UNL     1     173.479 180.302 183.735  1.00  0.00     0.053 C 
BRANCH   5   6
ATOM      6  C   UNL     1     174.032 180.578 185.100  1.00  0.00     0.041 C 
ATOM      7  O   UNL     1     175.257 180.827 185.249  1.00  0.00    -0.550 OA
ATOM      8  O   UNL     1     173.199 180.529 186.210  1.00  0.00    -0.550 OA
ENDBRANCH   5   6
ENDBRANCH   4   5
ENDBRANCH   3   4
ENDBRANCH   2   3
ENDBRANCH   1   2
BRANCH   1   9
ATOM      9  C   UNL     1     176.568 183.225 182.803  1.00  0.00     0.000 C 
BRANCH   9  10
ATOM     10  C   UNL     1     175.298 184.085 182.729  1.00  0.00    -0.000 C 
BRANCH  10  11
ATOM     11  C   UNL     1     174.592 184.142 184.089  1.00  0.00    -0.000 C 
BRANCH  11  12
ATOM     12  C   UNL     1     173.071 183.995 183.927  1.00  0.00    -0.000 C 
BRANCH  12  13
ATOM     13  C   UNL     1     172.623 184.072 182.461  1.00  0.00    -0.003 C 
ATOM     14  C   UNL     1     171.503 183.086 182.131  1.00  0.00     0.004 C 
ENDBRANCH  12  13
ENDBRANCH  11  12
ENDBRANCH  10  11
ENDBRANCH   9  10
ENDBRANCH   1   9
TORSDOF 10
ENDMDL
MODEL 9
REMARK VINA RESULT:     0.003      8.760     10.396
REMARK INTER + INTRA:          -1.838
REMARK INTER:                   0.000
REMARK INTRA:                  -1.838
REMARK UNBOUND:                -1.843
REMARK SMILES CCCCCCCCCCCC(=O)[O-]
REMARK SMILES IDX 7 1 8 2 9 3 10 4 11 5 12 6 13 7 14 8 6 9 5 10 4 11 3 12 2 13
REMARK SMILES IDX 1 14
REMARK H PARENT
REMARK Flexibility Score: inf
ROOT
ATOM      1  C   UNL     1     178.531 184.014 180.205  1.00  0.00     0.000 C 
ENDROOT
BRANCH   1   2
ATOM      2  C   UNL     1     178.328 184.520 178.769  1.00  0.00     0.000 C 
BRANCH   2   3
ATOM      3  C   UNL     1     176.940 184.140 178.243  1.00  0.00     0.000 C 
BRANCH   3   4
ATOM      4  C   UNL     1     177.047 183.252 176.994  1.00  0.00     0.006 C 
BRANCH   4   5
ATOM      5  C   UNL     1     176.605 181.809 177.267  1.00  0.00     0.053 C 
BRANCH   5   6
ATOM      6  C   UNL     1     177.778 180.893 177.437  1.00  0.00     0.041 C 
ATOM      7  O   UNL     1     178.923 181.251 177.055  1.00  0.00    -0.550 OA
ATOM      8  O   UNL     1     177.601 179.631 177.990  1.00  0.00    -0.550 OA
ENDBRANCH   5   6
ENDBRANCH   4   5
ENDBRANCH   3   4
ENDBRANCH   2   3
ENDBRANCH   1   2
BRANCH   1   9
ATOM      9  C   UNL     1     179.399 182.748 180.270  1.00  0.00     0.000 C 
BRANCH   9  10
ATOM     10  C   UNL     1     178.672 181.564 180.926  1.00  0.00    -0.000 C 
BRANCH  10  11
ATOM     11  C   UNL     1     177.321 182.001 181.505  1.00  0.00    -0.000 C 
BRANCH  11  12
ATOM     12  C   UNL     1     176.172 181.174 180.909  1.00  0.00    -0.000 C 
BRANCH  12  13
ATOM     13  C   UNL     1     174.930 182.025 180.605  1.00  0.00    -0.003 C 
ATOM     14  C   UNL     1     174.959 183.386 181.298  1.00  0.00     0.004 C 
ENDBRANCH  12  13
ENDBRANCH  11  12
ENDBRANCH  10  11
ENDBRANCH   9  10
ENDBRANCH   1   9
TORSDOF 10
ENDMDL
