MODEL 1
REMARK VINA RESULT:    -4.156      0.000      0.000
REMARK INTER + INTRA:          -9.382
REMARK INTER:                  -7.680
REMARK INTRA:                  -1.702
REMARK UNBOUND:                -1.702
REMARK SMILES CCCCCCCCCCCCCCCCO
REMARK SMILES IDX 9 1 8 2 7 3 6 4 5 5 4 6 3 7 2 8 1 9 10 10 11 11 12 12 13 13
REMARK SMILES IDX 14 14 15 15 16 16 17 17
REMARK H PARENT 17 18
REMARK Flexibility Score: inf
ROOT
ATOM      1  C   UNL     1     185.929 191.683 190.480  1.00  0.00     0.000 C 
ENDROOT
BRANCH   1   2
ATOM      2  C   UNL     1     185.339 192.518 189.331  1.00  0.00    -0.000 C 
BRANCH   2   3
ATOM      3  C   UNL     1     186.026 192.232 187.984  1.00  0.00    -0.000 C 
BRANCH   3   4
ATOM      4  C   UNL     1     187.189 191.235 188.118  1.00  0.00    -0.000 C 
BRANCH   4   5
ATOM      5  C   UNL     1     186.941 189.923 187.351  1.00  0.00    -0.000 C 
BRANCH   5   6
ATOM      6  C   UNL     1     186.083 190.102 186.081  1.00  0.00    -0.000 C 
BRANCH   6   7
ATOM      7  C   UNL     1     186.832 189.662 184.811  1.00  0.00    -0.000 C 
BRANCH   7   8
ATOM      8  C   UNL     1     187.511 190.836 184.090  1.00  0.00    -0.003 C 
ATOM      9  C   UNL     1     189.025 190.864 184.307  1.00  0.00     0.004 C 
ENDBRANCH   7   8
ENDBRANCH   6   7
ENDBRANCH   5   6
ENDBRANCH   4   5
ENDBRANCH   3   4
ENDBRANCH   2   3
ENDBRANCH   1   2
BRANCH   1  10
ATOM     10  C   UNL     1     184.911 190.694 191.075  1.00  0.00     0.000 C 
BRANCH  10  11
ATOM     11  C   UNL     1     183.854 190.246 190.051  1.00  0.00     0.000 C 
BRANCH  11  12
ATOM     12  C   UNL     1     184.132 188.842 189.490  1.00  0.00     0.000 C 
BRANCH  12  13
ATOM     13  C   UNL     1     184.831 187.925 190.505  1.00  0.00     0.000 C 
BRANCH  13  14
ATOM     14  C   UNL     1     184.002 186.661 190.763  1.00  0.00     0.002 C 
BRANCH  14  15
ATOM     15  C   UNL     1     182.987 186.427 189.638  1.00  0.00     0.028 C 
BRANCH  15  16
ATOM     16  C   UNL     1     181.587 186.168 190.202  1.00  0.00     0.156 C 
BRANCH  16  17
ATOM     17  O   UNL     1     181.417 186.856 191.411  1.00  0.00    -0.396 OA
ATOM     18  H   UNL     1     181.810 187.758 191.283  1.00  0.00     0.210 HD
ENDBRANCH  16  17
ENDBRANCH  15  16
ENDBRANCH  14  15
ENDBRANCH  13  14
ENDBRANCH  12  13
ENDBRANCH  11  12
ENDBRANCH  10  11
ENDBRANCH   1  10
TORSDOF 15
ENDMDL
MODEL 2
REMARK VINA RESULT:    -4.064      1.753      2.610
REMARK INTER + INTRA:          -9.212
REMARK INTER:                  -7.452
REMARK INTRA:                  -1.760
REMARK UNBOUND:                -1.702
REMARK SMILES CCCCCCCCCCCCCCCCO
REMARK SMILES IDX 9 1 8 2 7 3 6 4 5 5 4 6 3 7 2 8 1 9 10 10 11 11 12 12 13 13
REMARK SMILES IDX 14 14 15 15 16 16 17 17
REMARK H PARENT 17 18
REMARK Flexibility Score: inf
ROOT
ATOM      1  C   UNL     1     185.356 190.718 191.798  1.00  0.00     0.000 C 
ENDROOT
BRANCH   1   2
ATOM      2  C   UNL     1     186.031 192.091 191.634  1.00  0.00    -0.000 C 
BRANCH   2   3
ATOM      3  C   UNL     1     187.288 192.025 190.749  1.00  0.00    -0.000 C 
BRANCH   3   4
ATOM      4  C   UNL     1     187.217 192.991 189.555  1.00  0.00    -0.000 C 
BRANCH   4   5
ATOM      5  C   UNL     1     185.784 193.186 189.029  1.00  0.00    -0.000 C 
BRANCH   5   6
ATOM      6  C   UNL     1     185.496 192.421 187.720  1.00  0.00    -0.000 C 
BRANCH   6   7
ATOM      7  C   UNL     1     186.483 191.261 187.499  1.00  0.00    -0.000 C 
BRANCH   7   8
ATOM      8  C   UNL     1     185.773 189.934 187.191  1.00  0.00    -0.003 C 
ATOM      9  C   UNL     1     184.254 190.086 187.100  1.00  0.00     0.004 C 
ENDBRANCH   7   8
ENDBRANCH   6   7
ENDBRANCH   5   6
ENDBRANCH   4   5
ENDBRANCH   3   4
ENDBRANCH   2   3
ENDBRANCH   1   2
BRANCH   1  10
ATOM     10  C   UNL     1     184.271 190.462 190.738  1.00  0.00     0.000 C 
BRANCH  10  11
ATOM     11  C   UNL     1     183.713 189.029 190.797  1.00  0.00     0.000 C 
BRANCH  11  12
ATOM     12  C   UNL     1     184.822 187.964 190.824  1.00  0.00     0.000 C 
BRANCH  12  13
ATOM     13  C   UNL     1     184.816 187.069 189.575  1.00  0.00     0.000 C 
BRANCH  13  14
ATOM     14  C   UNL     1     183.396 186.914 189.018  1.00  0.00     0.002 C 
BRANCH  14  15
ATOM     15  C   UNL     1     182.590 185.898 189.836  1.00  0.00     0.028 C 
BRANCH  15  16
ATOM     16  C   UNL     1     181.157 186.384 190.064  1.00  0.00     0.156 C 
BRANCH  16  17
ATOM     17  O   UNL     1     180.452 185.463 190.851  1.00  0.00    -0.396 OA
ATOM     18  H   UNL     1     179.634 185.223 190.343  1.00  0.00     0.210 HD
ENDBRANCH  16  17
ENDBRANCH  15  16
ENDBRANCH  14  15
ENDBRANCH  13  14
ENDBRANCH  12  13
ENDBRANCH  11  12
ENDBRANCH  10  11
ENDBRANCH   1  10
TORSDOF 15
ENDMDL
MODEL 3
REMARK VINA RESULT:    -4.057      4.358      7.737
REMARK INTER + INTRA:          -9.197
REMARK INTER:                  -8.098
REMARK INTRA:                  -1.100
REMARK UNBOUND:                -1.702
REMARK SMILES CCCCCCCCCCCCCCCCO
REMARK SMILES IDX 9 1 8 2 7 3 6 4 5 5 4 6 3 7 2 8 1 9 10 10 11 11 12 12 13 13
REMARK SMILES IDX 14 14 15 15 16 16 17 17
REMARK H PARENT 17 18
REMARK Flexibility Score: inf
ROOT
ATOM      1  C   UNL     1     184.356 191.540 189.043  1.00  0.00     0.000 C 
ENDROOT
BRANCH   1   2
ATOM      2  C   UNL     1     184.637 191.445 187.534  1.00  0.00    -0.000 C 
BRANCH   2   3
ATOM      3  C   UNL     1     184.619 189.994 187.023  1.00  0.00    -0.000 C 
BRANCH   3   4
ATOM      4  C   UNL     1     184.944 188.977 188.129  1.00  0.00    -0.000 C 
BRANCH   4   5
ATOM      5  C   UNL     1     183.745 188.081 188.487  1.00  0.00    -0.000 C 
BRANCH   5   6
ATOM      6  C   UNL     1     183.757 187.587 189.950  1.00  0.00    -0.000 C 
BRANCH   6   7
ATOM      7  C   UNL     1     183.350 188.694 190.937  1.00  0.00    -0.000 C 
BRANCH   7   8
ATOM      8  C   UNL     1     184.520 189.156 191.820  1.00  0.00    -0.003 C 
ATOM      9  C   UNL     1     185.676 188.155 191.837  1.00  0.00     0.004 C 
ENDBRANCH   7   8
ENDBRANCH   6   7
ENDBRANCH   5   6
ENDBRANCH   4   5
ENDBRANCH   3   4
ENDBRANCH   2   3
ENDBRANCH   1   2
BRANCH   1  10
ATOM     10  C   UNL     1     185.406 192.382 189.788  1.00  0.00     0.000 C 
BRANCH  10  11
ATOM     11  C   UNL     1     185.823 193.639 189.003  1.00  0.00     0.000 C 
BRANCH  11  12
ATOM     12  C   UNL     1     187.015 194.367 189.644  1.00  0.00     0.000 C 
BRANCH  12  13
ATOM     13  C   UNL     1     186.647 195.763 190.169  1.00  0.00     0.000 C 
BRANCH  13  14
ATOM     14  C   UNL     1     187.516 196.842 189.513  1.00  0.00     0.002 C 
BRANCH  14  15
ATOM     15  C   UNL     1     187.705 198.043 190.447  1.00  0.00     0.028 C 
BRANCH  15  16
ATOM     16  C   UNL     1     186.568 198.134 191.467  1.00  0.00     0.156 C 
BRANCH  16  17
ATOM     17  O   UNL     1     186.149 199.464 191.609  1.00  0.00    -0.396 OA
ATOM     18  H   UNL     1     186.968 200.024 191.588  1.00  0.00     0.210 HD
ENDBRANCH  16  17
ENDBRANCH  15  16
ENDBRANCH  14  15
ENDBRANCH  13  14
ENDBRANCH  12  13
ENDBRANCH  11  12
ENDBRANCH  10  11
ENDBRANCH   1  10
TORSDOF 15
ENDMDL
MODEL 4
REMARK VINA RESULT:    -4.032      4.553      7.743
REMARK INTER + INTRA:          -9.152
REMARK INTER:                  -7.442
REMARK INTRA:                  -1.710
REMARK UNBOUND:                -1.702
REMARK SMILES CCCCCCCCCCCCCCCCO
REMARK SMILES IDX 9 1 8 2 7 3 6 4 5 5 4 6 3 7 2 8 1 9 10 10 11 11 12 12 13 13
REMARK SMILES IDX 14 14 15 15 16 16 17 17
REMARK H PARENT 17 18
REMARK Flexibility Score: inf
ROOT
ATOM      1  C   UNL     1     188.039 192.423 189.059  1.00  0.00     0.000 C 
ENDROOT
BRANCH   1   2
ATOM      2  C   UNL     1     187.935 190.958 188.600  1.00  0.00    -0.000 C 
BRANCH   2   3
ATOM      3  C   UNL     1     187.078 190.799 187.333  1.00  0.00    -0.000 C 
BRANCH   3   4
ATOM      4  C   UNL     1     185.933 191.824 187.265  1.00  0.00    -0.000 C 
BRANCH   4   5
ATOM      5  C   UNL     1     184.566 191.216 187.624  1.00  0.00    -0.000 C 
BRANCH   5   6
ATOM      6  C   UNL     1     184.197 191.359 189.116  1.00  0.00    -0.000 C 
BRANCH   6   7
ATOM      7  C   UNL     1     184.046 189.994 189.809  1.00  0.00    -0.000 C 
BRANCH   7   8
ATOM      8  C   UNL     1     184.348 190.060 191.314  1.00  0.00    -0.003 C 
ATOM      9  C   UNL     1     185.790 189.674 191.644  1.00  0.00     0.004 C 
ENDBRANCH   7   8
ENDBRANCH   6   7
ENDBRANCH   5   6
ENDBRANCH   4   5
ENDBRANCH   3   4
ENDBRANCH   2   3
ENDBRANCH   1   2
BRANCH   1  10
ATOM     10  C   UNL     1     187.498 192.636 190.483  1.00  0.00     0.000 C 
BRANCH  10  11
ATOM     11  C   UNL     1     186.358 193.670 190.534  1.00  0.00     0.000 C 
BRANCH  11  12
ATOM     12  C   UNL     1     186.608 194.870 189.606  1.00  0.00     0.000 C 
BRANCH  12  13
ATOM     13  C   UNL     1     186.600 196.211 190.355  1.00  0.00     0.000 C 
BRANCH  13  14
ATOM     14  C   UNL     1     187.546 197.217 189.688  1.00  0.00     0.002 C 
BRANCH  14  15
ATOM     15  C   UNL     1     187.763 198.445 190.579  1.00  0.00     0.028 C 
BRANCH  15  16
ATOM     16  C   UNL     1     186.591 198.645 191.542  1.00  0.00     0.156 C 
BRANCH  16  17
ATOM     17  O   UNL     1     186.129 199.966 191.477  1.00  0.00    -0.396 OA
ATOM     18  H   UNL     1     186.616 200.402 190.730  1.00  0.00     0.210 HD
ENDBRANCH  16  17
ENDBRANCH  15  16
ENDBRANCH  14  15
ENDBRANCH  13  14
ENDBRANCH  12  13
ENDBRANCH  11  12
ENDBRANCH  10  11
ENDBRANCH   1  10
TORSDOF 15
ENDMDL
MODEL 5
REMARK VINA RESULT:    -4.006      4.585      7.095
REMARK INTER + INTRA:          -9.103
REMARK INTER:                  -7.658
REMARK INTRA:                  -1.445
REMARK UNBOUND:                -1.702
REMARK SMILES CCCCCCCCCCCCCCCCO
REMARK SMILES IDX 9 1 8 2 7 3 6 4 5 5 4 6 3 7 2 8 1 9 10 10 11 11 12 12 13 13
REMARK SMILES IDX 14 14 15 15 16 16 17 17
REMARK H PARENT 17 18
REMARK Flexibility Score: inf
ROOT
ATOM      1  C   UNL     1     186.948 191.591 191.503  1.00  0.00     0.000 C 
ENDROOT
BRANCH   1   2
ATOM      2  C   UNL     1     185.457 191.425 191.159  1.00  0.00    -0.000 C 
BRANCH   2   3
ATOM      3  C   UNL     1     185.241 190.771 189.783  1.00  0.00    -0.000 C 
BRANCH   3   4
ATOM      4  C   UNL     1     184.398 191.648 188.842  1.00  0.00    -0.000 C 
BRANCH   4   5
ATOM      5  C   UNL     1     185.098 191.929 187.501  1.00  0.00    -0.000 C 
BRANCH   5   6
ATOM      6  C   UNL     1     186.621 191.679 187.533  1.00  0.00    -0.000 C 
BRANCH   6   7
ATOM      7  C   UNL     1     187.042 190.547 186.580  1.00  0.00    -0.000 C 
BRANCH   7   8
ATOM      8  C   UNL     1     187.329 191.052 185.157  1.00  0.00    -0.003 C 
ATOM      9  C   UNL     1     188.619 190.470 184.575  1.00  0.00     0.004 C 
ENDBRANCH   7   8
ENDBRANCH   6   7
ENDBRANCH   5   6
ENDBRANCH   4   5
ENDBRANCH   3   4
ENDBRANCH   2   3
ENDBRANCH   1   2
BRANCH   1  10
ATOM     10  C   UNL     1     187.532 192.913 190.976  1.00  0.00     0.000 C 
BRANCH  10  11
ATOM     11  C   UNL     1     186.494 194.049 190.947  1.00  0.00     0.000 C 
BRANCH  11  12
ATOM     12  C   UNL     1     186.418 194.745 189.579  1.00  0.00     0.000 C 
BRANCH  12  13
ATOM     13  C   UNL     1     187.379 195.939 189.467  1.00  0.00     0.000 C 
BRANCH  13  14
ATOM     14  C   UNL     1     187.426 196.730 190.779  1.00  0.00     0.002 C 
BRANCH  14  15
ATOM     15  C   UNL     1     187.480 198.239 190.513  1.00  0.00     0.028 C 
BRANCH  15  16
ATOM     16  C   UNL     1     187.054 199.034 191.750  1.00  0.00     0.156 C 
BRANCH  16  17
ATOM     17  O   UNL     1     186.259 200.125 191.375  1.00  0.00    -0.396 OA
ATOM     18  H   UNL     1     185.330 199.786 191.295  1.00  0.00     0.210 HD
ENDBRANCH  16  17
ENDBRANCH  15  16
ENDBRANCH  14  15
ENDBRANCH  13  14
ENDBRANCH  12  13
ENDBRANCH  11  12
ENDBRANCH  10  11
ENDBRANCH   1  10
TORSDOF 15
ENDMDL
MODEL 6
REMARK VINA RESULT:    -3.992      3.666      6.271
REMARK INTER + INTRA:          -9.078
REMARK INTER:                  -7.401
REMARK INTRA:                  -1.677
REMARK UNBOUND:                -1.702
REMARK SMILES CCCCCCCCCCCCCCCCO
REMARK SMILES IDX 9 1 8 2 7 3 6 4 5 5 4 6 3 7 2 8 1 9 10 10 11 11 12 12 13 13
REMARK SMILES IDX 14 14 15 15 16 16 17 17
REMARK H PARENT 17 18
REMARK Flexibility Score: inf
ROOT
ATOM      1  C   UNL     1     184.975 190.406 191.209  1.00  0.00     0.000 C 
ENDROOT
BRANCH   1   2
ATOM      2  C   UNL     1     183.901 189.920 190.220  1.00  0.00    -0.000 C 
BRANCH   2   3
ATOM      3  C   UNL     1     184.240 188.547 189.614  1.00  0.00    -0.000 C 
BRANCH   3   4
ATOM      4  C   UNL     1     184.039 188.512 188.090  1.00  0.00    -0.000 C 
BRANCH   4   5
ATOM      5  C   UNL     1     185.054 189.390 187.334  1.00  0.00    -0.000 C 
BRANCH   5   6
ATOM      6  C   UNL     1     186.516 189.165 187.776  1.00  0.00    -0.000 C 
BRANCH   6   7
ATOM      7  C   UNL     1     187.445 190.291 187.291  1.00  0.00    -0.000 C 
BRANCH   7   8
ATOM      8  C   UNL     1     186.793 191.170 186.213  1.00  0.00    -0.003 C 
ATOM      9  C   UNL     1     187.384 190.933 184.822  1.00  0.00     0.004 C 
ENDBRANCH   7   8
ENDBRANCH   6   7
ENDBRANCH   5   6
ENDBRANCH   4   5
ENDBRANCH   3   4
ENDBRANCH   2   3
ENDBRANCH   1   2
BRANCH   1  10
ATOM     10  C   UNL     1     185.763 191.616 190.678  1.00  0.00     0.000 C 
BRANCH  10  11
ATOM     11  C   UNL     1     185.113 192.246 189.434  1.00  0.00     0.000 C 
BRANCH  11  12
ATOM     12  C   UNL     1     185.785 193.565 189.020  1.00  0.00     0.000 C 
BRANCH  12  13
ATOM     13  C   UNL     1     186.844 194.034 190.029  1.00  0.00     0.000 C 
BRANCH  13  14
ATOM     14  C   UNL     1     186.558 195.465 190.498  1.00  0.00     0.002 C 
BRANCH  14  15
ATOM     15  C   UNL     1     187.343 196.486 189.667  1.00  0.00     0.028 C 
BRANCH  15  16
ATOM     16  C   UNL     1     187.329 197.866 190.329  1.00  0.00     0.156 C 
BRANCH  16  17
ATOM     17  O   UNL     1     186.138 198.049 191.043  1.00  0.00    -0.396 OA
ATOM     18  H   UNL     1     186.353 197.899 192.000  1.00  0.00     0.210 HD
ENDBRANCH  16  17
ENDBRANCH  15  16
ENDBRANCH  14  15
ENDBRANCH  13  14
ENDBRANCH  12  13
ENDBRANCH  11  12
ENDBRANCH  10  11
ENDBRANCH   1  10
TORSDOF 15
ENDMDL
MODEL 7
REMARK VINA RESULT:    -3.974      3.805      6.760
REMARK INTER + INTRA:          -9.044
REMARK INTER:                  -6.604
REMARK INTRA:                  -2.440
REMARK UNBOUND:                -1.702
REMARK SMILES CCCCCCCCCCCCCCCCO
REMARK SMILES IDX 9 1 8 2 7 3 6 4 5 5 4 6 3 7 2 8 1 9 10 10 11 11 12 12 13 13
REMARK SMILES IDX 14 14 15 15 16 16 17 17
REMARK H PARENT 17 18
REMARK Flexibility Score: inf
ROOT
ATOM      1  C   UNL     1     187.680 189.861 189.598  1.00  0.00     0.000 C 
ENDROOT
BRANCH   1   2
ATOM      2  C   UNL     1     188.124 189.820 188.126  1.00  0.00    -0.000 C 
BRANCH   2   3
ATOM      3  C   UNL     1     187.867 191.150 187.398  1.00  0.00    -0.000 C 
BRANCH   3   4
ATOM      4  C   UNL     1     186.544 191.146 186.615  1.00  0.00    -0.000 C 
BRANCH   4   5
ATOM      5  C   UNL     1     185.434 191.951 187.315  1.00  0.00    -0.000 C 
BRANCH   5   6
ATOM      6  C   UNL     1     184.328 191.071 187.935  1.00  0.00    -0.000 C 
BRANCH   6   7
ATOM      7  C   UNL     1     184.202 191.284 189.454  1.00  0.00    -0.000 C 
BRANCH   7   8
ATOM      8  C   UNL     1     183.904 189.980 190.209  1.00  0.00    -0.003 C 
ATOM      9  C   UNL     1     184.126 188.736 189.348  1.00  0.00     0.004 C 
ENDBRANCH   7   8
ENDBRANCH   6   7
ENDBRANCH   5   6
ENDBRANCH   4   5
ENDBRANCH   3   4
ENDBRANCH   2   3
ENDBRANCH   1   2
BRANCH   1  10
ATOM     10  C   UNL     1     188.244 191.077 190.353  1.00  0.00     0.000 C 
BRANCH  10  11
ATOM     11  C   UNL     1     187.302 191.573 191.464  1.00  0.00     0.000 C 
BRANCH  11  12
ATOM     12  C   UNL     1     186.844 193.024 191.246  1.00  0.00     0.000 C 
BRANCH  12  13
ATOM     13  C   UNL     1     187.531 193.689 190.043  1.00  0.00     0.000 C 
BRANCH  13  14
ATOM     14  C   UNL     1     186.593 194.692 189.361  1.00  0.00     0.002 C 
BRANCH  14  15
ATOM     15  C   UNL     1     187.010 196.135 189.667  1.00  0.00     0.028 C 
BRANCH  15  16
ATOM     16  C   UNL     1     188.533 196.277 189.689  1.00  0.00     0.156 C 
BRANCH  16  17
ATOM     17  O   UNL     1     188.988 196.816 188.478  1.00  0.00    -0.396 OA
ATOM     18  H   UNL     1     189.833 197.295 188.679  1.00  0.00     0.210 HD
ENDBRANCH  16  17
ENDBRANCH  15  16
ENDBRANCH  14  15
ENDBRANCH  13  14
ENDBRANCH  12  13
ENDBRANCH  11  12
ENDBRANCH  10  11
ENDBRANCH   1  10
TORSDOF 15
ENDMDL
MODEL 8
REMARK VINA RESULT:    -3.967      3.217      6.166
REMARK INTER + INTRA:          -9.031
REMARK INTER:                  -6.447
REMARK INTRA:                  -2.584
REMARK UNBOUND:                -1.702
REMARK SMILES CCCCCCCCCCCCCCCCO
REMARK SMILES IDX 9 1 8 2 7 3 6 4 5 5 4 6 3 7 2 8 1 9 10 10 11 11 12 12 13 13
REMARK SMILES IDX 14 14 15 15 16 16 17 17
REMARK H PARENT 17 18
REMARK Flexibility Score: inf
ROOT
ATOM      1  C   UNL     1     188.095 192.226 188.851  1.00  0.00     0.000 C 
ENDROOT
BRANCH   1   2
ATOM      2  C   UNL     1     187.178 192.678 190.002  1.00  0.00    -0.000 C 
BRANCH   2   3
ATOM      3  C   UNL     1     185.769 193.057 189.516  1.00  0.00    -0.000 C 
BRANCH   3   4
ATOM      4  C   UNL     1     185.453 192.484 188.124  1.00  0.00    -0.000 C 
BRANCH   4   5
ATOM      5  C   UNL     1     184.245 191.530 188.132  1.00  0.00    -0.000 C 
BRANCH   5   6
ATOM      6  C   UNL     1     184.043 190.797 189.476  1.00  0.00    -0.000 C 
BRANCH   6   7
ATOM      7  C   UNL     1     184.717 189.414 189.486  1.00  0.00    -0.000 C 
BRANCH   7   8
ATOM      8  C   UNL     1     185.624 189.210 190.709  1.00  0.00    -0.003 C 
ATOM      9  C   UNL     1     185.275 190.149 191.865  1.00  0.00     0.004 C 
ENDBRANCH   7   8
ENDBRANCH   6   7
ENDBRANCH   5   6
ENDBRANCH   4   5
ENDBRANCH   3   4
ENDBRANCH   2   3
ENDBRANCH   1   2
BRANCH   1  10
ATOM     10  C   UNL     1     188.505 190.748 188.968  1.00  0.00     0.000 C 
BRANCH  10  11
ATOM     11  C   UNL     1     188.696 190.077 187.595  1.00  0.00     0.000 C 
BRANCH  11  12
ATOM     12  C   UNL     1     187.502 189.192 187.200  1.00  0.00     0.000 C 
BRANCH  12  13
ATOM     13  C   UNL     1     186.686 189.779 186.039  1.00  0.00     0.000 C 
BRANCH  13  14
ATOM     14  C   UNL     1     187.406 190.981 185.415  1.00  0.00     0.002 C 
BRANCH  14  15
ATOM     15  C   UNL     1     187.741 190.720 183.942  1.00  0.00     0.028 C 
BRANCH  15  16
ATOM     16  C   UNL     1     189.041 189.924 183.802  1.00  0.00     0.156 C 
BRANCH  16  17
ATOM     17  O   UNL     1     188.759 188.581 183.518  1.00  0.00    -0.396 OA
ATOM     18  H   UNL     1     188.490 188.542 182.564  1.00  0.00     0.210 HD
ENDBRANCH  16  17
ENDBRANCH  15  16
ENDBRANCH  14  15
ENDBRANCH  13  14
ENDBRANCH  12  13
ENDBRANCH  11  12
ENDBRANCH  10  11
ENDBRANCH   1  10
TORSDOF 15
ENDMDL
MODEL 9
REMARK VINA RESULT:    -3.964      1.747      4.206
REMARK INTER + INTRA:          -9.027
REMARK INTER:                  -7.424
REMARK INTRA:                  -1.602
REMARK UNBOUND:                -1.702
REMARK SMILES CCCCCCCCCCCCCCCCO
REMARK SMILES IDX 9 1 8 2 7 3 6 4 5 5 4 6 3 7 2 8 1 9 10 10 11 11 12 12 13 13
REMARK SMILES IDX 14 14 15 15 16 16 17 17
REMARK H PARENT 17 18
REMARK Flexibility Score: inf
ROOT
ATOM      1  C   UNL     1     185.952 189.711 186.112  1.00  0.00     0.000 C 
ENDROOT
BRANCH   1   2
ATOM      2  C   UNL     1     186.788 191.002 186.152  1.00  0.00    -0.000 C 
BRANCH   2   3
ATOM      3  C   UNL     1     187.967 190.908 187.136  1.00  0.00    -0.000 C 
BRANCH   3   4
ATOM      4  C   UNL     1     187.645 191.537 188.502  1.00  0.00    -0.000 C 
BRANCH   4   5
ATOM      5  C   UNL     1     186.472 192.532 188.439  1.00  0.00    -0.000 C 
BRANCH   5   6
ATOM      6  C   UNL     1     185.723 192.691 189.779  1.00  0.00    -0.000 C 
BRANCH   6   7
ATOM      7  C   UNL     1     186.448 193.653 190.736  1.00  0.00    -0.000 C 
BRANCH   7   8
ATOM      8  C   UNL     1     186.768 195.005 190.081  1.00  0.00    -0.003 C 
ATOM      9  C   UNL     1     186.341 196.194 190.944  1.00  0.00     0.004 C 
ENDBRANCH   7   8
ENDBRANCH   6   7
ENDBRANCH   5   6
ENDBRANCH   4   5
ENDBRANCH   3   4
ENDBRANCH   2   3
ENDBRANCH   1   2
BRANCH   1  10
ATOM     10  C   UNL     1     184.546 189.898 186.706  1.00  0.00     0.000 C 
BRANCH  10  11
ATOM     11  C   UNL     1     184.228 188.872 187.809  1.00  0.00     0.000 C 
BRANCH  11  12
ATOM     12  C   UNL     1     185.401 188.668 188.781  1.00  0.00     0.000 C 
BRANCH  12  13
ATOM     13  C   UNL     1     184.977 188.776 190.254  1.00  0.00     0.000 C 
BRANCH  13  14
ATOM     14  C   UNL     1     183.451 188.709 190.391  1.00  0.00     0.002 C 
BRANCH  14  15
ATOM     15  C   UNL     1     183.009 187.374 191.001  1.00  0.00     0.028 C 
BRANCH  15  16
ATOM     16  C   UNL     1     182.276 186.511 189.971  1.00  0.00     0.156 C 
BRANCH  16  17
ATOM     17  O   UNL     1     182.443 185.152 190.270  1.00  0.00    -0.396 OA
ATOM     18  H   UNL     1     182.834 185.107 191.180  1.00  0.00     0.210 HD
ENDBRANCH  16  17
ENDBRANCH  15  16
ENDBRANCH  14  15
ENDBRANCH  13  14
ENDBRANCH  12  13
ENDBRANCH  11  12
ENDBRANCH  10  11
ENDBRANCH   1  10
TORSDOF 15
ENDMDL
