MODEL 1
REMARK VINA RESULT:    -5.359      0.000      0.000
REMARK INTER + INTRA:          -9.021
REMARK INTER:                  -7.865
REMARK INTRA:                  -1.156
REMARK UNBOUND:                -1.156
REMARK SMILES Cc1cc2c(C(C)C)c(O)c(O)c(C=O)c2c(O)c1-c1c(C)cc2c(C(C)C)c(O)c(O)c(C=O)c2c1O
REMARK SMILES IDX 1 1 2 2 3 3 4 4 16 5 13 6 11 7 9 8 5 9 17 10 19 11 20 12
REMARK SMILES IDX 37 13 21 14 36 15 23 16 22 17 24 18 33 19 25 20 31 21 29 22
REMARK SMILES IDX 38 23 34 25 35 26 26 27 27 28 28 29 32 30 30 32 18 34 6 36
REMARK SMILES IDX 7 37 8 38 14 39 15 40 10 41 12 43
REMARK H PARENT 38 24 32 31 30 33 18 35 10 42 12 44
REMARK Flexibility Score: inf
ROOT
ATOM      1  C   UNL     1      64.790  25.649  50.662  1.00  0.00     0.045 C 
ATOM      2  C   UNL     1      63.359  26.109  50.510  1.00  0.00    -0.039 A 
ATOM      3  C   UNL     1      62.320  25.232  50.823  1.00  0.00     0.013 A 
ATOM      4  C   UNL     1      60.963  25.589  50.656  1.00  0.00    -0.006 A 
ATOM      5  C   UNL     1      60.651  26.911  50.215  1.00  0.00     0.039 A 
ATOM      6  C   UNL     1      59.283  27.282  50.065  1.00  0.00     0.072 A 
ATOM      7  C   UNL     1      58.268  26.421  50.524  1.00  0.00     0.169 A 
ATOM      8  C   UNL     1      58.592  25.157  51.046  1.00  0.00     0.162 A 
ATOM      9  C   UNL     1      59.914  24.669  50.960  1.00  0.00     0.008 A 
ATOM     10  C   UNL     1      61.717  27.831  49.977  1.00  0.00     0.132 A 
ATOM     11  C   UNL     1      63.061  27.416  50.093  1.00  0.00     0.031 A 
ENDROOT
BRANCH  11  12
ATOM     12  C   UNL     1      64.166  28.365  49.797  1.00  0.00     0.031 A 
ATOM     13  C   UNL     1      64.841  28.300  48.559  1.00  0.00     0.132 A 
ATOM     14  C   UNL     1      64.556  29.307  50.764  1.00  0.00    -0.039 A 
ATOM     15  C   UNL     1      65.953  29.156  48.298  1.00  0.00     0.039 A 
ATOM     16  C   UNL     1      65.581  30.209  50.470  1.00  0.00     0.013 A 
ATOM     17  C   UNL     1      63.878  29.369  52.111  1.00  0.00     0.045 C 
ATOM     18  C   UNL     1      66.247  30.199  49.225  1.00  0.00    -0.006 A 
ATOM     19  C   UNL     1      66.774  29.009  47.140  1.00  0.00     0.072 A 
ATOM     20  C   UNL     1      67.218  31.195  48.900  1.00  0.00     0.008 A 
ATOM     21  C   UNL     1      67.853  29.893  46.931  1.00  0.00     0.169 A 
ATOM     22  C   UNL     1      68.066  30.973  47.793  1.00  0.00     0.162 A 
BRANCH  13  23
ATOM     23  O   UNL     1      64.390  27.407  47.581  1.00  0.00    -0.507 OA
ATOM     24  H   UNL     1      63.878  26.558  47.785  1.00  0.00     0.293 HD
ENDBRANCH  13  23
BRANCH  19  25
ATOM     25  C   UNL     1      66.595  27.886  46.197  1.00  0.00     0.264 C 
ATOM     26  O   UNL     1      67.294  26.844  46.301  1.00  0.00    -0.298 OA
ENDBRANCH  19  25
BRANCH  20  27
ATOM     27  C   UNL     1      67.367  32.481  49.730  1.00  0.00     0.017 C 
ATOM     28  C   UNL     1      68.674  32.468  50.530  1.00  0.00     0.012 C 
ATOM     29  C   UNL     1      67.229  33.771  48.901  1.00  0.00     0.012 C 
ENDBRANCH  20  27
BRANCH  21  30
ATOM     30  O   UNL     1      68.756  29.709  45.876  1.00  0.00    -0.504 OA
ATOM     31  H   UNL     1      69.597  29.151  45.939  1.00  0.00     0.293 HD
ENDBRANCH  21  30
BRANCH  22  32
ATOM     32  O   UNL     1      69.151  31.824  47.567  1.00  0.00    -0.504 OA
ATOM     33  H   UNL     1      69.490  32.482  48.259  1.00  0.00     0.293 HD
ENDBRANCH  22  32
ENDBRANCH  11  12
BRANCH  10  34
ATOM     34  O   UNL     1      61.440  29.167  49.667  1.00  0.00    -0.507 OA
ATOM     35  H   UNL     1      61.156  29.488  48.749  1.00  0.00     0.293 HD
ENDBRANCH  10  34
BRANCH   9  36
ATOM     36  C   UNL     1      60.195  23.182  51.243  1.00  0.00     0.017 C 
ATOM     37  C   UNL     1      60.753  22.483  49.999  1.00  0.00     0.012 C 
ATOM     38  C   UNL     1      61.094  22.939  52.470  1.00  0.00     0.012 C 
ENDBRANCH   9  36
BRANCH   6  39
ATOM     39  C   UNL     1      58.873  28.520  49.362  1.00  0.00     0.264 C 
ATOM     40  O   UNL     1      58.388  29.497  49.992  1.00  0.00    -0.298 OA
ENDBRANCH   6  39
BRANCH   8  41
ATOM     41  O   UNL     1      57.615  24.376  51.668  1.00  0.00    -0.504 OA
ATOM     42  H   UNL     1      57.347  24.471  52.638  1.00  0.00     0.293 HD
ENDBRANCH   8  41
BRANCH   7  43
ATOM     43  O   UNL     1      56.935  26.826  50.398  1.00  0.00    -0.504 OA
ATOM     44  H   UNL     1      56.609  27.500  49.718  1.00  0.00     0.293 HD
ENDBRANCH   7  43
TORSDOF 11
ENDMDL
MODEL 2
REMARK VINA RESULT:    -5.191      2.373      3.356
REMARK INTER + INTRA:          -8.775
REMARK INTER:                  -7.601
REMARK INTRA:                  -1.174
REMARK UNBOUND:                -1.156
REMARK SMILES Cc1cc2c(C(C)C)c(O)c(O)c(C=O)c2c(O)c1-c1c(C)cc2c(C(C)C)c(O)c(O)c(C=O)c2c1O
REMARK SMILES IDX 1 1 2 2 3 3 4 4 16 5 13 6 11 7 9 8 5 9 17 10 19 11 20 12
REMARK SMILES IDX 37 13 21 14 36 15 23 16 22 17 24 18 33 19 25 20 31 21 29 22
REMARK SMILES IDX 38 23 34 25 35 26 26 27 27 28 28 29 32 30 30 32 18 34 6 36
REMARK SMILES IDX 7 37 8 38 14 39 15 40 10 41 12 43
REMARK H PARENT 38 24 32 31 30 33 18 35 10 42 12 44
REMARK Flexibility Score: inf
ROOT
ATOM      1  C   UNL     1      65.638  28.540  51.563  1.00  0.00     0.045 C 
ATOM      2  C   UNL     1      64.232  28.207  51.122  1.00  0.00    -0.039 A 
ATOM      3  C   UNL     1      63.776  26.892  51.222  1.00  0.00     0.013 A 
ATOM      4  C   UNL     1      62.489  26.510  50.782  1.00  0.00    -0.006 A 
ATOM      5  C   UNL     1      61.609  27.517  50.280  1.00  0.00     0.039 A 
ATOM      6  C   UNL     1      60.302  27.139  49.855  1.00  0.00     0.072 A 
ATOM      7  C   UNL     1      59.833  25.835  50.102  1.00  0.00     0.169 A 
ATOM      8  C   UNL     1      60.677  24.875  50.686  1.00  0.00     0.162 A 
ATOM      9  C   UNL     1      62.049  25.153  50.871  1.00  0.00     0.008 A 
ATOM     10  C   UNL     1      62.051  28.874  50.260  1.00  0.00     0.132 A 
ATOM     11  C   UNL     1      63.367  29.205  50.647  1.00  0.00     0.031 A 
ENDROOT
BRANCH  11  12
ATOM     12  C   UNL     1      63.837  30.613  50.577  1.00  0.00     0.031 A 
ATOM     13  C   UNL     1      64.606  31.048  49.477  1.00  0.00     0.132 A 
ATOM     14  C   UNL     1      63.537  31.503  51.622  1.00  0.00    -0.039 A 
ATOM     15  C   UNL     1      65.126  32.377  49.439  1.00  0.00     0.039 A 
ATOM     16  C   UNL     1      63.964  32.831  51.539  1.00  0.00     0.013 A 
ATOM     17  C   UNL     1      62.752  31.052  52.830  1.00  0.00     0.045 C 
ATOM     18  C   UNL     1      64.699  33.308  50.432  1.00  0.00    -0.006 A 
ATOM     19  C   UNL     1      66.050  32.808  48.441  1.00  0.00     0.072 A 
ATOM     20  C   UNL     1      65.035  34.691  50.310  1.00  0.00     0.008 A 
ATOM     21  C   UNL     1      66.521  34.138  48.449  1.00  0.00     0.169 A 
ATOM     22  C   UNL     1      66.014  35.065  49.365  1.00  0.00     0.162 A 
BRANCH  13  23
ATOM     23  O   UNL     1      64.831  30.170  48.411  1.00  0.00    -0.507 OA
ATOM     24  H   UNL     1      64.854  30.455  47.440  1.00  0.00     0.293 HD
ENDBRANCH  13  23
BRANCH  19  25
ATOM     25  C   UNL     1      66.619  31.870  47.451  1.00  0.00     0.264 C 
ATOM     26  O   UNL     1      67.744  31.339  47.643  1.00  0.00    -0.298 OA
ENDBRANCH  19  25
BRANCH  20  27
ATOM     27  C   UNL     1      64.370  35.765  51.188  1.00  0.00     0.017 C 
ATOM     28  C   UNL     1      62.845  35.719  51.050  1.00  0.00     0.012 C 
ATOM     29  C   UNL     1      64.802  35.710  52.665  1.00  0.00     0.012 C 
ENDBRANCH  20  27
BRANCH  21  30
ATOM     30  O   UNL     1      67.519  34.567  47.567  1.00  0.00    -0.504 OA
ATOM     31  H   UNL     1      68.473  34.231  47.581  1.00  0.00     0.293 HD
ENDBRANCH  21  30
BRANCH  22  32
ATOM     32  O   UNL     1      66.508  36.372  49.358  1.00  0.00    -0.504 OA
ATOM     33  H   UNL     1      65.947  37.177  49.609  1.00  0.00     0.293 HD
ENDBRANCH  22  32
ENDBRANCH  11  12
BRANCH  10  34
ATOM     34  O   UNL     1      61.170  29.898  49.893  1.00  0.00    -0.507 OA
ATOM     35  H   UNL     1      61.448  30.731  49.389  1.00  0.00     0.293 HD
ENDBRANCH  10  34
BRANCH   9  36
ATOM     36  C   UNL     1      63.018  24.007  51.212  1.00  0.00     0.017 C 
ATOM     37  C   UNL     1      64.222  24.006  50.263  1.00  0.00     0.012 C 
ATOM     38  C   UNL     1      63.470  23.988  52.684  1.00  0.00     0.012 C 
ENDBRANCH   9  36
BRANCH   6  39
ATOM     39  C   UNL     1      59.430  28.051  49.078  1.00  0.00     0.264 C 
ATOM     40  O   UNL     1      58.463  28.647  49.620  1.00  0.00    -0.298 OA
ENDBRANCH   6  39
BRANCH   8  41
ATOM     41  O   UNL     1      60.170  23.642  51.100  1.00  0.00    -0.504 OA
ATOM     42  H   UNL     1      59.451  23.532  51.802  1.00  0.00     0.293 HD
ENDBRANCH   8  41
BRANCH   7  43
ATOM     43  O   UNL     1      58.532  25.502  49.707  1.00  0.00    -0.504 OA
ATOM     44  H   UNL     1      58.200  24.554  49.598  1.00  0.00     0.293 HD
ENDBRANCH   7  43
TORSDOF 11
ENDMDL
MODEL 3
REMARK VINA RESULT:    -5.151      6.212      9.523
REMARK INTER + INTRA:          -8.716
REMARK INTER:                  -7.433
REMARK INTRA:                  -1.283
REMARK UNBOUND:                -1.156
REMARK SMILES Cc1cc2c(C(C)C)c(O)c(O)c(C=O)c2c(O)c1-c1c(C)cc2c(C(C)C)c(O)c(O)c(C=O)c2c1O
REMARK SMILES IDX 1 1 2 2 3 3 4 4 16 5 13 6 11 7 9 8 5 9 17 10 19 11 20 12
REMARK SMILES IDX 37 13 21 14 36 15 23 16 22 17 24 18 33 19 25 20 31 21 29 22
REMARK SMILES IDX 38 23 34 25 35 26 26 27 27 28 28 29 32 30 30 32 18 34 6 36
REMARK SMILES IDX 7 37 8 38 14 39 15 40 10 41 12 43
REMARK H PARENT 38 24 32 31 30 33 18 35 10 42 12 44
REMARK Flexibility Score: inf
ROOT
ATOM      1  C   UNL     1      57.626  29.294  55.501  1.00  0.00     0.045 C 
ATOM      2  C   UNL     1      58.714  29.088  54.473  1.00  0.00    -0.039 A 
ATOM      3  C   UNL     1      58.364  28.806  53.152  1.00  0.00     0.013 A 
ATOM      4  C   UNL     1      59.335  28.556  52.157  1.00  0.00    -0.006 A 
ATOM      5  C   UNL     1      60.716  28.662  52.505  1.00  0.00     0.039 A 
ATOM      6  C   UNL     1      61.699  28.432  51.498  1.00  0.00     0.072 A 
ATOM      7  C   UNL     1      61.308  28.290  50.154  1.00  0.00     0.169 A 
ATOM      8  C   UNL     1      59.946  28.284  49.808  1.00  0.00     0.162 A 
ATOM      9  C   UNL     1      58.956  28.246  50.814  1.00  0.00     0.008 A 
ATOM     10  C   UNL     1      61.068  29.034  53.837  1.00  0.00     0.132 A 
ATOM     11  C   UNL     1      60.069  29.211  54.819  1.00  0.00     0.031 A 
ENDROOT
BRANCH  11  12
ATOM     12  C   UNL     1      60.444  29.551  56.216  1.00  0.00     0.031 A 
ATOM     13  C   UNL     1      60.689  28.523  57.152  1.00  0.00     0.132 A 
ATOM     14  C   UNL     1      60.526  30.897  56.611  1.00  0.00    -0.039 A 
ATOM     15  C   UNL     1      60.974  28.840  58.514  1.00  0.00     0.039 A 
ATOM     16  C   UNL     1      60.899  31.208  57.920  1.00  0.00     0.013 A 
ATOM     17  C   UNL     1      60.227  32.013  55.640  1.00  0.00     0.045 C 
ATOM     18  C   UNL     1      61.193  30.204  58.869  1.00  0.00    -0.006 A 
ATOM     19  C   UNL     1      61.054  27.842  59.531  1.00  0.00     0.072 A 
ATOM     20  C   UNL     1      61.677  30.538  60.170  1.00  0.00     0.008 A 
ATOM     21  C   UNL     1      61.349  28.216  60.858  1.00  0.00     0.169 A 
ATOM     22  C   UNL     1      61.664  29.542  61.170  1.00  0.00     0.162 A 
BRANCH  13  23
ATOM     23  O   UNL     1      60.676  27.191  56.723  1.00  0.00    -0.507 OA
ATOM     24  H   UNL     1      60.814  26.906  55.763  1.00  0.00     0.293 HD
ENDBRANCH  13  23
BRANCH  19  25
ATOM     25  C   UNL     1      60.730  26.426  59.257  1.00  0.00     0.264 C 
ATOM     26  O   UNL     1      61.634  25.549  59.265  1.00  0.00    -0.298 OA
ENDBRANCH  19  25
BRANCH  20  27
ATOM     27  C   UNL     1      62.192  31.949  60.504  1.00  0.00     0.017 C 
ATOM     28  C   UNL     1      63.514  32.235  59.784  1.00  0.00     0.012 C 
ATOM     29  C   UNL     1      61.159  33.062  60.245  1.00  0.00     0.012 C 
ENDBRANCH  20  27
BRANCH  21  30
ATOM     30  O   UNL     1      61.316  27.287  61.906  1.00  0.00    -0.504 OA
ATOM     31  H   UNL     1      60.745  27.387  62.735  1.00  0.00     0.293 HD
ENDBRANCH  21  30
BRANCH  22  32
ATOM     32  O   UNL     1      61.940  29.885  62.496  1.00  0.00    -0.504 OA
ATOM     33  H   UNL     1      61.539  30.695  62.952  1.00  0.00     0.293 HD
ENDBRANCH  22  32
ENDBRANCH  11  12
BRANCH  10  34
ATOM     34  O   UNL     1      62.405  29.268  54.176  1.00  0.00    -0.507 OA
ATOM     35  H   UNL     1      63.115  29.557  53.514  1.00  0.00     0.293 HD
ENDBRANCH  10  34
BRANCH   9  36
ATOM     36  C   UNL     1      57.498  27.926  50.437  1.00  0.00     0.017 C 
ATOM     37  C   UNL     1      57.046  26.605  51.069  1.00  0.00     0.012 C 
ATOM     38  C   UNL     1      56.508  29.062  50.750  1.00  0.00     0.012 C 
ENDBRANCH   9  36
BRANCH   6  39
ATOM     39  C   UNL     1      63.134  28.251  51.823  1.00  0.00     0.264 C 
ATOM     40  O   UNL     1      63.981  29.140  51.545  1.00  0.00    -0.298 OA
ENDBRANCH   6  39
BRANCH   8  41
ATOM     41  O   UNL     1      59.553  28.328  48.468  1.00  0.00    -0.504 OA
ATOM     42  H   UNL     1      60.055  27.877  47.716  1.00  0.00     0.293 HD
ENDBRANCH   8  41
BRANCH   7  43
ATOM     43  O   UNL     1      62.296  28.102  49.181  1.00  0.00    -0.504 OA
ATOM     44  H   UNL     1      62.963  28.811  48.907  1.00  0.00     0.293 HD
ENDBRANCH   7  43
TORSDOF 11
ENDMDL
MODEL 4
REMARK VINA RESULT:    -5.149     10.072     12.582
REMARK INTER + INTRA:          -8.713
REMARK INTER:                  -7.418
REMARK INTRA:                  -1.295
REMARK UNBOUND:                -1.156
REMARK SMILES Cc1cc2c(C(C)C)c(O)c(O)c(C=O)c2c(O)c1-c1c(C)cc2c(C(C)C)c(O)c(O)c(C=O)c2c1O
REMARK SMILES IDX 1 1 2 2 3 3 4 4 16 5 13 6 11 7 9 8 5 9 17 10 19 11 20 12
REMARK SMILES IDX 37 13 21 14 36 15 23 16 22 17 24 18 33 19 25 20 31 21 29 22
REMARK SMILES IDX 38 23 34 25 35 26 26 27 27 28 28 29 32 30 30 32 18 34 6 36
REMARK SMILES IDX 7 37 8 38 14 39 15 40 10 41 12 43
REMARK H PARENT 38 24 32 31 30 33 18 35 10 42 12 44
REMARK Flexibility Score: inf
ROOT
ATOM      1  C   UNL     1      59.735  27.223  59.468  1.00  0.00     0.045 C 
ATOM      2  C   UNL     1      60.009  26.285  60.620  1.00  0.00    -0.039 A 
ATOM      3  C   UNL     1      58.968  25.514  61.137  1.00  0.00     0.013 A 
ATOM      4  C   UNL     1      59.150  24.655  62.245  1.00  0.00    -0.006 A 
ATOM      5  C   UNL     1      60.457  24.528  62.805  1.00  0.00     0.039 A 
ATOM      6  C   UNL     1      60.651  23.647  63.909  1.00  0.00     0.072 A 
ATOM      7  C   UNL     1      59.613  22.785  64.309  1.00  0.00     0.169 A 
ATOM      8  C   UNL     1      58.355  22.850  63.685  1.00  0.00     0.162 A 
ATOM      9  C   UNL     1      58.066  23.890  62.775  1.00  0.00     0.008 A 
ATOM     10  C   UNL     1      61.537  25.256  62.218  1.00  0.00     0.132 A 
ATOM     11  C   UNL     1      61.300  26.153  61.155  1.00  0.00     0.031 A 
ENDROOT
BRANCH  11  12
ATOM     12  C   UNL     1      62.419  26.944  60.579  1.00  0.00     0.031 A 
ATOM     13  C   UNL     1      62.630  28.276  60.994  1.00  0.00     0.132 A 
ATOM     14  C   UNL     1      63.249  26.372  59.600  1.00  0.00    -0.039 A 
ATOM     15  C   UNL     1      63.653  29.067  60.391  1.00  0.00     0.039 A 
ATOM     16  C   UNL     1      64.311  27.114  59.080  1.00  0.00     0.013 A 
ATOM     17  C   UNL     1      63.019  24.963  59.109  1.00  0.00     0.045 C 
ATOM     18  C   UNL     1      64.575  28.435  59.505  1.00  0.00    -0.006 A 
ATOM     19  C   UNL     1      63.791  30.464  60.648  1.00  0.00     0.072 A 
ATOM     20  C   UNL     1      65.727  29.142  59.044  1.00  0.00     0.008 A 
ATOM     21  C   UNL     1      64.829  31.191  60.030  1.00  0.00     0.169 A 
ATOM     22  C   UNL     1      65.787  30.538  59.247  1.00  0.00     0.162 A 
BRANCH  13  23
ATOM     23  O   UNL     1      61.841  28.804  62.023  1.00  0.00    -0.507 OA
ATOM     24  H   UNL     1      61.212  28.252  62.592  1.00  0.00     0.293 HD
ENDBRANCH  13  23
BRANCH  19  25
ATOM     25  C   UNL     1      62.808  31.205  61.466  1.00  0.00     0.264 C 
ATOM     26  O   UNL     1      61.868  31.840  60.919  1.00  0.00    -0.298 OA
ENDBRANCH  19  25
BRANCH  20  27
ATOM     27  C   UNL     1      66.883  28.425  58.326  1.00  0.00     0.017 C 
ATOM     28  C   UNL     1      66.828  28.675  56.815  1.00  0.00     0.012 C 
ATOM     29  C   UNL     1      68.272  28.762  58.901  1.00  0.00     0.012 C 
ENDBRANCH  20  27
BRANCH  21  30
ATOM     30  O   UNL     1      64.926  32.582  60.156  1.00  0.00    -0.504 OA
ATOM     31  H   UNL     1      65.587  33.053  60.759  1.00  0.00     0.293 HD
ENDBRANCH  21  30
BRANCH  22  32
ATOM     32  O   UNL     1      66.797  31.286  58.637  1.00  0.00    -0.504 OA
ATOM     33  H   UNL     1      66.789  32.298  58.599  1.00  0.00     0.293 HD
ENDBRANCH  22  32
ENDBRANCH  11  12
BRANCH  10  34
ATOM     34  O   UNL     1      62.848  25.057  62.664  1.00  0.00    -0.507 OA
ATOM     35  H   UNL     1      63.090  24.791  63.610  1.00  0.00     0.293 HD
ENDBRANCH  10  34
BRANCH   9  36
ATOM     36  C   UNL     1      56.610  24.139  62.341  1.00  0.00     0.017 C 
ATOM     37  C   UNL     1      56.146  23.072  61.343  1.00  0.00     0.012 C 
ATOM     38  C   UNL     1      55.622  24.271  63.515  1.00  0.00     0.012 C 
ENDBRANCH   9  36
BRANCH   6  39
ATOM     39  C   UNL     1      61.891  23.657  64.720  1.00  0.00     0.264 C 
ATOM     40  O   UNL     1      62.729  22.719  64.640  1.00  0.00    -0.298 OA
ENDBRANCH   6  39
BRANCH   8  41
ATOM     41  O   UNL     1      57.382  21.883  63.946  1.00  0.00    -0.504 OA
ATOM     42  H   UNL     1      57.244  21.053  63.387  1.00  0.00     0.293 HD
ENDBRANCH   8  41
BRANCH   7  43
ATOM     43  O   UNL     1      59.841  21.904  65.372  1.00  0.00    -0.504 OA
ATOM     44  H   UNL     1      59.285  21.080  65.554  1.00  0.00     0.293 HD
ENDBRANCH   7  43
TORSDOF 11
ENDMDL
MODEL 5
REMARK VINA RESULT:    -5.117      6.253      9.493
REMARK INTER + INTRA:          -8.666
REMARK INTER:                  -7.402
REMARK INTRA:                  -1.264
REMARK UNBOUND:                -1.156
REMARK SMILES Cc1cc2c(C(C)C)c(O)c(O)c(C=O)c2c(O)c1-c1c(C)cc2c(C(C)C)c(O)c(O)c(C=O)c2c1O
REMARK SMILES IDX 1 1 2 2 3 3 4 4 16 5 13 6 11 7 9 8 5 9 17 10 19 11 20 12
REMARK SMILES IDX 37 13 21 14 36 15 23 16 22 17 24 18 33 19 25 20 31 21 29 22
REMARK SMILES IDX 38 23 34 25 35 26 26 27 27 28 28 29 32 30 30 32 18 34 6 36
REMARK SMILES IDX 7 37 8 38 14 39 15 40 10 41 12 43
REMARK H PARENT 38 24 32 31 30 33 18 35 10 42 12 44
REMARK Flexibility Score: inf
ROOT
ATOM      1  C   UNL     1      60.772  32.343  55.486  1.00  0.00     0.045 C 
ATOM      2  C   UNL     1      60.816  31.245  56.522  1.00  0.00    -0.039 A 
ATOM      3  C   UNL     1      61.124  31.563  57.845  1.00  0.00     0.013 A 
ATOM      4  C   UNL     1      61.227  30.574  58.849  1.00  0.00    -0.006 A 
ATOM      5  C   UNL     1      60.941  29.218  58.506  1.00  0.00     0.039 A 
ATOM      6  C   UNL     1      61.022  28.220  59.521  1.00  0.00     0.072 A 
ATOM      7  C   UNL     1      61.197  28.598  60.865  1.00  0.00     0.169 A 
ATOM      8  C   UNL     1      61.382  29.949  61.204  1.00  0.00     0.162 A 
ATOM      9  C   UNL     1      61.567  30.918  60.194  1.00  0.00     0.008 A 
ATOM     10  C   UNL     1      60.543  28.910  57.170  1.00  0.00     0.132 A 
ATOM     11  C   UNL     1      60.516  29.916  56.181  1.00  0.00     0.031 A 
ENDROOT
BRANCH  11  12
ATOM     12  C   UNL     1      60.148  29.581  54.781  1.00  0.00     0.031 A 
ATOM     13  C   UNL     1      61.144  29.187  53.863  1.00  0.00     0.132 A 
ATOM     14  C   UNL     1      58.810  29.685  54.365  1.00  0.00    -0.039 A 
ATOM     15  C   UNL     1      60.811  28.937  52.498  1.00  0.00     0.039 A 
ATOM     16  C   UNL     1      58.468  29.348  53.054  1.00  0.00     0.013 A 
ATOM     17  C   UNL     1      57.731  30.146  55.316  1.00  0.00     0.045 C 
ATOM     18  C   UNL     1      59.435  28.909  52.123  1.00  0.00    -0.006 A 
ATOM     19  C   UNL     1      61.803  28.710  51.498  1.00  0.00     0.072 A 
ATOM     20  C   UNL     1      59.056  28.465  50.820  1.00  0.00     0.008 A 
ATOM     21  C   UNL     1      61.412  28.458  50.167  1.00  0.00     0.169 A 
ATOM     22  C   UNL     1      60.059  28.330  49.836  1.00  0.00     0.162 A 
BRANCH  13  23
ATOM     23  O   UNL     1      62.458  29.016  54.313  1.00  0.00    -0.507 OA
ATOM     24  H   UNL     1      62.810  28.157  54.715  1.00  0.00     0.293 HD
ENDBRANCH  13  23
BRANCH  19  25
ATOM     25  C   UNL     1      63.246  28.834  51.792  1.00  0.00     0.264 C 
ATOM     26  O   UNL     1      63.985  27.814  51.820  1.00  0.00    -0.298 OA
ENDBRANCH  19  25
BRANCH  20  27
ATOM     27  C   UNL     1      57.592  28.150  50.466  1.00  0.00     0.017 C 
ATOM     28  C   UNL     1      57.120  26.875  51.173  1.00  0.00     0.012 C 
ATOM     29  C   UNL     1      56.628  29.324  50.721  1.00  0.00     0.012 C 
ENDBRANCH  20  27
BRANCH  21  30
ATOM     30  O   UNL     1      62.351  28.352  49.134  1.00  0.00    -0.504 OA
ATOM     31  H   UNL     1      62.271  28.823  48.242  1.00  0.00     0.293 HD
ENDBRANCH  21  30
BRANCH  22  32
ATOM     32  O   UNL     1      59.701  28.093  48.506  1.00  0.00    -0.504 OA
ATOM     33  H   UNL     1      60.356  27.765  47.807  1.00  0.00     0.293 HD
ENDBRANCH  22  32
ENDBRANCH  11  12
BRANCH  10  34
ATOM     34  O   UNL     1      60.135  27.614  56.835  1.00  0.00    -0.507 OA
ATOM     35  H   UNL     1      59.600  27.385  56.006  1.00  0.00     0.293 HD
ENDBRANCH  10  34
BRANCH   9  36
ATOM     36  C   UNL     1      62.076  32.321  60.569  1.00  0.00     0.017 C 
ATOM     37  C   UNL     1      63.479  32.565  60.001  1.00  0.00     0.012 C 
ATOM     38  C   UNL     1      61.113  33.458  60.181  1.00  0.00     0.012 C 
ENDBRANCH   9  36
BRANCH   6  39
ATOM     39  C   UNL     1      61.012  26.771  59.207  1.00  0.00     0.264 C 
ATOM     40  O   UNL     1      60.009  26.055  59.467  1.00  0.00    -0.298 OA
ENDBRANCH   6  39
BRANCH   8  41
ATOM     41  O   UNL     1      61.373  30.353  62.542  1.00  0.00    -0.504 OA
ATOM     42  H   UNL     1      61.888  31.146  62.897  1.00  0.00     0.293 HD
ENDBRANCH   8  41
BRANCH   7  43
ATOM     43  O   UNL     1      61.236  27.600  61.846  1.00  0.00    -0.504 OA
ATOM     44  H   UNL     1      60.418  27.132  62.211  1.00  0.00     0.293 HD
ENDBRANCH   7  43
TORSDOF 11
ENDMDL
MODEL 6
REMARK VINA RESULT:    -5.113     10.018     14.868
REMARK INTER + INTRA:          -8.660
REMARK INTER:                  -7.416
REMARK INTRA:                  -1.244
REMARK UNBOUND:                -1.156
REMARK SMILES Cc1cc2c(C(C)C)c(O)c(O)c(C=O)c2c(O)c1-c1c(C)cc2c(C(C)C)c(O)c(O)c(C=O)c2c1O
REMARK SMILES IDX 1 1 2 2 3 3 4 4 16 5 13 6 11 7 9 8 5 9 17 10 19 11 20 12
REMARK SMILES IDX 37 13 21 14 36 15 23 16 22 17 24 18 33 19 25 20 31 21 29 22
REMARK SMILES IDX 38 23 34 25 35 26 26 27 27 28 28 29 32 30 30 32 18 34 6 36
REMARK SMILES IDX 7 37 8 38 14 39 15 40 10 41 12 43
REMARK H PARENT 38 24 32 31 30 33 18 35 10 42 12 44
REMARK Flexibility Score: inf
ROOT
ATOM      1  C   UNL     1      63.310  24.763  59.724  1.00  0.00     0.045 C 
ATOM      2  C   UNL     1      63.321  26.253  59.977  1.00  0.00    -0.039 A 
ATOM      3  C   UNL     1      64.396  27.017  59.523  1.00  0.00     0.013 A 
ATOM      4  C   UNL     1      64.486  28.405  59.770  1.00  0.00    -0.006 A 
ATOM      5  C   UNL     1      63.410  29.051  60.450  1.00  0.00     0.039 A 
ATOM      6  C   UNL     1      63.487  30.456  60.683  1.00  0.00     0.072 A 
ATOM      7  C   UNL     1      64.514  31.210  60.088  1.00  0.00     0.169 A 
ATOM      8  C   UNL     1      65.519  30.575  59.339  1.00  0.00     0.162 A 
ATOM      9  C   UNL     1      65.607  29.166  59.316  1.00  0.00     0.008 A 
ATOM     10  C   UNL     1      62.273  28.279  60.838  1.00  0.00     0.132 A 
ATOM     11  C   UNL     1      62.251  26.883  60.631  1.00  0.00     0.031 A 
ENDROOT
BRANCH  11  12
ATOM     12  C   UNL     1      61.085  26.078  61.080  1.00  0.00     0.031 A 
ATOM     13  C   UNL     1      61.133  25.392  62.313  1.00  0.00     0.132 A 
ATOM     14  C   UNL     1      59.947  25.977  60.262  1.00  0.00    -0.039 A 
ATOM     15  C   UNL     1      60.050  24.555  62.716  1.00  0.00     0.039 A 
ATOM     16  C   UNL     1      58.848  25.235  60.701  1.00  0.00     0.013 A 
ATOM     17  C   UNL     1      59.888  26.666  58.920  1.00  0.00     0.045 C 
ATOM     18  C   UNL     1      58.848  24.573  61.949  1.00  0.00    -0.006 A 
ATOM     19  C   UNL     1      60.125  23.708  63.862  1.00  0.00     0.072 A 
ATOM     20  C   UNL     1      57.679  23.909  62.431  1.00  0.00     0.008 A 
ATOM     21  C   UNL     1      59.017  22.910  64.217  1.00  0.00     0.169 A 
ATOM     22  C   UNL     1      57.811  23.017  63.516  1.00  0.00     0.162 A 
BRANCH  13  23
ATOM     23  O   UNL     1      62.243  25.565  63.147  1.00  0.00    -0.507 OA
ATOM     24  H   UNL     1      63.177  25.251  62.917  1.00  0.00     0.293 HD
ENDBRANCH  13  23
BRANCH  19  25
ATOM     25  C   UNL     1      61.374  23.556  64.637  1.00  0.00     0.264 C 
ATOM     26  O   UNL     1      62.159  22.599  64.407  1.00  0.00    -0.298 OA
ENDBRANCH  19  25
BRANCH  20  27
ATOM     27  C   UNL     1      56.299  24.133  61.790  1.00  0.00     0.017 C 
ATOM     28  C   UNL     1      55.821  22.871  61.064  1.00  0.00     0.012 C 
ATOM     29  C   UNL     1      55.235  24.650  62.776  1.00  0.00     0.012 C 
ENDBRANCH  20  27
BRANCH  21  30
ATOM     30  O   UNL     1      59.090  21.976  65.257  1.00  0.00    -0.504 OA
ATOM     31  H   UNL     1      58.291  21.485  65.636  1.00  0.00     0.293 HD
ENDBRANCH  21  30
BRANCH  22  32
ATOM     32  O   UNL     1      56.734  22.205  63.883  1.00  0.00    -0.504 OA
ATOM     33  H   UNL     1      56.311  21.532  63.255  1.00  0.00     0.293 HD
ENDBRANCH  22  32
ENDBRANCH  11  12
BRANCH  10  34
ATOM     34  O   UNL     1      61.150  28.904  61.391  1.00  0.00    -0.507 OA
ATOM     35  H   UNL     1      60.257  28.986  60.920  1.00  0.00     0.293 HD
ENDBRANCH  10  34
BRANCH   9  36
ATOM     36  C   UNL     1      66.875  28.492  58.762  1.00  0.00     0.017 C 
ATOM     37  C   UNL     1      66.820  28.394  57.234  1.00  0.00     0.012 C 
ATOM     38  C   UNL     1      68.187  29.146  59.232  1.00  0.00     0.012 C 
ENDBRANCH   9  36
BRANCH   6  39
ATOM     39  C   UNL     1      62.562  31.154  61.607  1.00  0.00     0.264 C 
ATOM     40  O   UNL     1      61.601  31.842  61.170  1.00  0.00    -0.298 OA
ENDBRANCH   6  39
BRANCH   8  41
ATOM     41  O   UNL     1      66.434  31.327  58.597  1.00  0.00    -0.504 OA
ATOM     42  H   UNL     1      67.305  30.963  58.237  1.00  0.00     0.293 HD
ENDBRANCH   8  41
BRANCH   7  43
ATOM     43  O   UNL     1      64.545  32.593  60.304  1.00  0.00    -0.504 OA
ATOM     44  H   UNL     1      63.746  33.138  60.596  1.00  0.00     0.293 HD
ENDBRANCH   7  43
TORSDOF 11
ENDMDL
MODEL 7
REMARK VINA RESULT:    -5.058      3.550     10.685
REMARK INTER + INTRA:          -8.579
REMARK INTER:                  -7.180
REMARK INTRA:                  -1.399
REMARK UNBOUND:                -1.156
REMARK SMILES Cc1cc2c(C(C)C)c(O)c(O)c(C=O)c2c(O)c1-c1c(C)cc2c(C(C)C)c(O)c(O)c(C=O)c2c1O
REMARK SMILES IDX 1 1 2 2 3 3 4 4 16 5 13 6 11 7 9 8 5 9 17 10 19 11 20 12
REMARK SMILES IDX 37 13 21 14 36 15 23 16 22 17 24 18 33 19 25 20 31 21 29 22
REMARK SMILES IDX 38 23 34 25 35 26 26 27 27 28 28 29 32 30 30 32 18 34 6 36
REMARK SMILES IDX 7 37 8 38 14 39 15 40 10 41 12 43
REMARK H PARENT 38 24 32 31 30 33 18 35 10 42 12 44
REMARK Flexibility Score: inf
ROOT
ATOM      1  C   UNL     1      63.589  22.004  51.426  1.00  0.00     0.045 C 
ATOM      2  C   UNL     1      62.775  23.249  51.164  1.00  0.00    -0.039 A 
ATOM      3  C   UNL     1      63.420  24.415  50.750  1.00  0.00     0.013 A 
ATOM      4  C   UNL     1      62.719  25.623  50.536  1.00  0.00    -0.006 A 
ATOM      5  C   UNL     1      61.299  25.628  50.686  1.00  0.00     0.039 A 
ATOM      6  C   UNL     1      60.586  26.840  50.451  1.00  0.00     0.072 A 
ATOM      7  C   UNL     1      61.252  27.950  49.900  1.00  0.00     0.169 A 
ATOM      8  C   UNL     1      62.636  27.904  49.666  1.00  0.00     0.162 A 
ATOM      9  C   UNL     1      63.401  26.813  50.135  1.00  0.00     0.008 A 
ATOM     10  C   UNL     1      60.635  24.411  51.027  1.00  0.00     0.132 A 
ATOM     11  C   UNL     1      61.377  23.241  51.297  1.00  0.00     0.031 A 
ENDROOT
BRANCH  11  12
ATOM     12  C   UNL     1      60.684  21.990  51.698  1.00  0.00     0.031 A 
ATOM     13  C   UNL     1      60.419  21.735  53.061  1.00  0.00     0.132 A 
ATOM     14  C   UNL     1      60.318  21.048  50.722  1.00  0.00    -0.039 A 
ATOM     15  C   UNL     1      59.822  20.502  53.462  1.00  0.00     0.039 A 
ATOM     16  C   UNL     1      59.648  19.884  51.105  1.00  0.00     0.013 A 
ATOM     17  C   UNL     1      60.628  21.278  49.263  1.00  0.00     0.045 C 
ATOM     18  C   UNL     1      59.329  19.620  52.456  1.00  0.00    -0.006 A 
ATOM     19  C   UNL     1      59.696  20.124  54.833  1.00  0.00     0.072 A 
ATOM     20  C   UNL     1      58.550  18.480  52.820  1.00  0.00     0.008 A 
ATOM     21  C   UNL     1      59.088  18.896  55.168  1.00  0.00     0.169 A 
ATOM     22  C   UNL     1      58.517  18.092  54.176  1.00  0.00     0.162 A 
BRANCH  13  23
ATOM     23  O   UNL     1      60.721  22.716  54.011  1.00  0.00    -0.507 OA
ATOM     24  H   UNL     1      60.687  23.711  53.827  1.00  0.00     0.293 HD
ENDBRANCH  13  23
BRANCH  19  25
ATOM     25  C   UNL     1      60.282  20.935  55.920  1.00  0.00     0.264 C 
ATOM     26  O   UNL     1      59.542  21.588  56.702  1.00  0.00    -0.298 OA
ENDBRANCH  19  25
BRANCH  20  27
ATOM     27  C   UNL     1      57.768  17.667  51.774  1.00  0.00     0.017 C 
ATOM     28  C   UNL     1      56.777  18.558  51.016  1.00  0.00     0.012 C 
ATOM     29  C   UNL     1      58.667  16.877  50.805  1.00  0.00     0.012 C 
ENDBRANCH  20  27
BRANCH  21  30
ATOM     30  O   UNL     1      59.055  18.431  56.488  1.00  0.00    -0.504 OA
ATOM     31  H   UNL     1      59.571  18.849  57.251  1.00  0.00     0.293 HD
ENDBRANCH  21  30
BRANCH  22  32
ATOM     32  O   UNL     1      57.932  16.875  54.537  1.00  0.00    -0.504 OA
ATOM     33  H   UNL     1      57.211  16.796  55.243  1.00  0.00     0.293 HD
ENDBRANCH  22  32
ENDBRANCH  11  12
BRANCH  10  34
ATOM     34  O   UNL     1      59.237  24.354  51.059  1.00  0.00    -0.507 OA
ATOM     35  H   UNL     1      58.710  23.673  51.592  1.00  0.00     0.293 HD
ENDBRANCH  10  34
BRANCH   9  36
ATOM     36  C   UNL     1      64.937  26.913  50.153  1.00  0.00     0.017 C 
ATOM     37  C   UNL     1      65.507  26.867  48.731  1.00  0.00     0.012 C 
ATOM     38  C   UNL     1      65.474  28.129  50.930  1.00  0.00     0.012 C 
ENDBRANCH   9  36
BRANCH   6  39
ATOM     39  C   UNL     1      59.166  27.009  50.842  1.00  0.00     0.264 C 
ATOM     40  O   UNL     1      58.250  27.026  49.978  1.00  0.00    -0.298 OA
ENDBRANCH   6  39
BRANCH   8  41
ATOM     41  O   UNL     1      63.271  28.926  48.956  1.00  0.00    -0.504 OA
ATOM     42  H   UNL     1      63.793  28.783  48.103  1.00  0.00     0.293 HD
ENDBRANCH   8  41
BRANCH   7  43
ATOM     43  O   UNL     1      60.520  29.115  49.645  1.00  0.00    -0.504 OA
ATOM     44  H   UNL     1      59.510  29.166  49.668  1.00  0.00     0.293 HD
ENDBRANCH   7  43
TORSDOF 11
ENDMDL
MODEL 8
REMARK VINA RESULT:    -5.049      2.492      9.484
REMARK INTER + INTRA:          -8.566
REMARK INTER:                  -7.246
REMARK INTRA:                  -1.320
REMARK UNBOUND:                -1.156
REMARK SMILES Cc1cc2c(C(C)C)c(O)c(O)c(C=O)c2c(O)c1-c1c(C)cc2c(C(C)C)c(O)c(O)c(C=O)c2c1O
REMARK SMILES IDX 1 1 2 2 3 3 4 4 16 5 13 6 11 7 9 8 5 9 17 10 19 11 20 12
REMARK SMILES IDX 37 13 21 14 36 15 23 16 22 17 24 18 33 19 25 20 31 21 29 22
REMARK SMILES IDX 38 23 34 25 35 26 26 27 27 28 28 29 32 30 30 32 18 34 6 36
REMARK SMILES IDX 7 37 8 38 14 39 15 40 10 41 12 43
REMARK H PARENT 38 24 32 31 30 33 18 35 10 42 12 44
REMARK Flexibility Score: inf
ROOT
ATOM      1  C   UNL     1      60.199  30.783  52.484  1.00  0.00     0.045 C 
ATOM      2  C   UNL     1      61.287  30.436  51.495  1.00  0.00    -0.039 A 
ATOM      3  C   UNL     1      62.326  31.341  51.274  1.00  0.00     0.013 A 
ATOM      4  C   UNL     1      63.345  31.094  50.328  1.00  0.00    -0.006 A 
ATOM      5  C   UNL     1      63.342  29.851  49.626  1.00  0.00     0.039 A 
ATOM      6  C   UNL     1      64.381  29.589  48.685  1.00  0.00     0.072 A 
ATOM      7  C   UNL     1      65.482  30.460  48.595  1.00  0.00     0.169 A 
ATOM      8  C   UNL     1      65.522  31.636  49.362  1.00  0.00     0.162 A 
ATOM      9  C   UNL     1      64.388  32.044  50.099  1.00  0.00     0.008 A 
ATOM     10  C   UNL     1      62.324  28.893  49.918  1.00  0.00     0.132 A 
ATOM     11  C   UNL     1      61.287  29.204  50.822  1.00  0.00     0.031 A 
ENDROOT
BRANCH  11  12
ATOM     12  C   UNL     1      60.203  28.222  51.086  1.00  0.00     0.031 A 
ATOM     13  C   UNL     1      60.382  27.217  52.060  1.00  0.00     0.132 A 
ATOM     14  C   UNL     1      59.011  28.279  50.343  1.00  0.00    -0.039 A 
ATOM     15  C   UNL     1      59.378  26.223  52.265  1.00  0.00     0.039 A 
ATOM     16  C   UNL     1      57.990  27.365  50.611  1.00  0.00     0.013 A 
ATOM     17  C   UNL     1      58.813  29.318  49.266  1.00  0.00     0.045 C 
ATOM     18  C   UNL     1      58.120  26.375  51.609  1.00  0.00    -0.006 A 
ATOM     19  C   UNL     1      59.584  25.090  53.108  1.00  0.00     0.072 A 
ATOM     20  C   UNL     1      57.028  25.518  51.945  1.00  0.00     0.008 A 
ATOM     21  C   UNL     1      58.550  24.147  53.280  1.00  0.00     0.169 A 
ATOM     22  C   UNL     1      57.289  24.363  52.714  1.00  0.00     0.162 A 
BRANCH  13  23
ATOM     23  O   UNL     1      61.543  27.221  52.841  1.00  0.00    -0.507 OA
ATOM     24  H   UNL     1      62.480  27.196  52.460  1.00  0.00     0.293 HD
ENDBRANCH  13  23
BRANCH  19  25
ATOM     25  C   UNL     1      60.896  24.813  53.729  1.00  0.00     0.264 C 
ATOM     26  O   UNL     1      61.711  24.023  53.183  1.00  0.00    -0.298 OA
ENDBRANCH  19  25
BRANCH  20  27
ATOM     27  C   UNL     1      55.592  25.817  51.480  1.00  0.00     0.017 C 
ATOM     28  C   UNL     1      55.131  27.192  51.975  1.00  0.00     0.012 C 
ATOM     29  C   UNL     1      55.392  25.671  49.961  1.00  0.00     0.012 C 
ENDBRANCH  20  27
BRANCH  21  30
ATOM     30  O   UNL     1      58.751  22.961  53.996  1.00  0.00    -0.504 OA
ATOM     31  H   UNL     1      58.034  22.267  54.159  1.00  0.00     0.293 HD
ENDBRANCH  21  30
BRANCH  22  32
ATOM     32  O   UNL     1      56.288  23.405  52.891  1.00  0.00    -0.504 OA
ATOM     33  H   UNL     1      56.282  22.516  52.407  1.00  0.00     0.293 HD
ENDBRANCH  22  32
ENDBRANCH  11  12
BRANCH  10  34
ATOM     34  O   UNL     1      62.366  27.619  49.341  1.00  0.00    -0.507 OA
ATOM     35  H   UNL     1      63.160  26.993  49.407  1.00  0.00     0.293 HD
ENDBRANCH  10  34
BRANCH   9  36
ATOM     36  C   UNL     1      64.327  33.470  50.676  1.00  0.00     0.017 C 
ATOM     37  C   UNL     1      63.106  34.226  50.140  1.00  0.00     0.012 C 
ATOM     38  C   UNL     1      64.387  33.525  52.213  1.00  0.00     0.012 C 
ENDBRANCH   9  36
BRANCH   6  39
ATOM     39  C   UNL     1      64.311  28.462  47.725  1.00  0.00     0.264 C 
ATOM     40  O   UNL     1      65.032  27.439  47.866  1.00  0.00    -0.298 OA
ENDBRANCH   6  39
BRANCH   8  41
ATOM     41  O   UNL     1      66.684  32.410  49.417  1.00  0.00    -0.504 OA
ATOM     42  H   UNL     1      67.466  32.302  48.786  1.00  0.00     0.293 HD
ENDBRANCH   8  41
BRANCH   7  43
ATOM     43  O   UNL     1      66.506  30.159  47.689  1.00  0.00    -0.504 OA
ATOM     44  H   UNL     1      67.481  30.373  47.846  1.00  0.00     0.293 HD
ENDBRANCH   7  43
TORSDOF 11
ENDMDL
MODEL 9
REMARK VINA RESULT:    -4.995      2.722      4.466
REMARK INTER + INTRA:          -8.487
REMARK INTER:                  -7.264
REMARK INTRA:                  -1.223
REMARK UNBOUND:                -1.156
REMARK SMILES Cc1cc2c(C(C)C)c(O)c(O)c(C=O)c2c(O)c1-c1c(C)cc2c(C(C)C)c(O)c(O)c(C=O)c2c1O
REMARK SMILES IDX 1 1 2 2 3 3 4 4 16 5 13 6 11 7 9 8 5 9 17 10 19 11 20 12
REMARK SMILES IDX 37 13 21 14 36 15 23 16 22 17 24 18 33 19 25 20 31 21 29 22
REMARK SMILES IDX 38 23 34 25 35 26 26 27 27 28 28 29 32 30 30 32 18 34 6 36
REMARK SMILES IDX 7 37 8 38 14 39 15 40 10 41 12 43
REMARK H PARENT 38 24 32 31 30 33 18 35 10 42 12 44
REMARK Flexibility Score: inf
ROOT
ATOM      1  C   UNL     1      58.503  29.509  49.273  1.00  0.00     0.045 C 
ATOM      2  C   UNL     1      58.566  28.482  50.379  1.00  0.00    -0.039 A 
ATOM      3  C   UNL     1      57.485  27.624  50.581  1.00  0.00     0.013 A 
ATOM      4  C   UNL     1      57.466  26.676  51.628  1.00  0.00    -0.006 A 
ATOM      5  C   UNL     1      58.619  26.552  52.462  1.00  0.00     0.039 A 
ATOM      6  C   UNL     1      58.612  25.582  53.507  1.00  0.00     0.072 A 
ATOM      7  C   UNL     1      57.565  24.645  53.588  1.00  0.00     0.169 A 
ATOM      8  C   UNL     1      56.479  24.716  52.700  1.00  0.00     0.162 A 
ATOM      9  C   UNL     1      56.339  25.822  51.833  1.00  0.00     0.008 A 
ATOM     10  C   UNL     1      59.756  27.374  52.197  1.00  0.00     0.132 A 
ATOM     11  C   UNL     1      59.710  28.354  51.183  1.00  0.00     0.031 A 
ENDROOT
BRANCH  11  12
ATOM     12  C   UNL     1      60.880  29.240  50.944  1.00  0.00     0.031 A 
ATOM     13  C   UNL     1      61.864  28.872  50.002  1.00  0.00     0.132 A 
ATOM     14  C   UNL     1      61.018  30.430  51.678  1.00  0.00    -0.039 A 
ATOM     15  C   UNL     1      63.028  29.678  49.822  1.00  0.00     0.039 A 
ATOM     16  C   UNL     1      62.109  31.267  51.433  1.00  0.00     0.013 A 
ATOM     17  C   UNL     1      60.001  30.825  52.722  1.00  0.00     0.045 C 
ATOM     18  C   UNL     1      63.088  30.949  50.466  1.00  0.00    -0.006 A 
ATOM     19  C   UNL     1      64.129  29.261  49.015  1.00  0.00     0.072 A 
ATOM     20  C   UNL     1      64.137  31.864  50.151  1.00  0.00     0.008 A 
ATOM     21  C   UNL     1      65.249  30.106  48.867  1.00  0.00     0.169 A 
ATOM     22  C   UNL     1      65.248  31.390  49.419  1.00  0.00     0.162 A 
BRANCH  13  23
ATOM     23  O   UNL     1      61.672  27.723  49.227  1.00  0.00    -0.507 OA
ATOM     24  H   UNL     1      62.197  26.867  49.346  1.00  0.00     0.293 HD
ENDBRANCH  13  23
BRANCH  19  25
ATOM     25  C   UNL     1      64.182  27.914  48.409  1.00  0.00     0.264 C 
ATOM     26  O   UNL     1      64.792  26.975  48.986  1.00  0.00    -0.298 OA
ENDBRANCH  19  25
BRANCH  20  27
ATOM     27  C   UNL     1      64.090  33.335  50.599  1.00  0.00     0.017 C 
ATOM     28  C   UNL     1      62.881  34.055  49.991  1.00  0.00     0.012 C 
ATOM     29  C   UNL     1      64.142  33.518  52.127  1.00  0.00     0.012 C 
ENDBRANCH  20  27
BRANCH  21  30
ATOM     30  O   UNL     1      66.399  29.685  48.188  1.00  0.00    -0.504 OA
ATOM     31  H   UNL     1      66.641  28.717  48.027  1.00  0.00     0.293 HD
ENDBRANCH  21  30
BRANCH  22  32
ATOM     32  O   UNL     1      66.376  32.200  49.266  1.00  0.00    -0.504 OA
ATOM     33  H   UNL     1      66.407  32.991  48.634  1.00  0.00     0.293 HD
ENDBRANCH  22  32
ENDBRANCH  11  12
BRANCH  10  34
ATOM     34  O   UNL     1      60.943  27.190  52.914  1.00  0.00    -0.507 OA
ATOM     35  H   UNL     1      61.575  27.940  53.166  1.00  0.00     0.293 HD
ENDBRANCH  10  34
BRANCH   9  36
ATOM     36  C   UNL     1      55.005  26.048  51.098  1.00  0.00     0.017 C 
ATOM     37  C   UNL     1      54.606  27.528  51.130  1.00  0.00     0.012 C 
ATOM     38  C   UNL     1      54.983  25.497  49.660  1.00  0.00     0.012 C 
ENDBRANCH   9  36
BRANCH   6  39
ATOM     39  C   UNL     1      59.636  25.569  54.578  1.00  0.00     0.264 C 
ATOM     40  O   UNL     1      60.534  24.687  54.610  1.00  0.00    -0.298 OA
ENDBRANCH   6  39
BRANCH   8  41
ATOM     41  O   UNL     1      55.532  23.689  52.653  1.00  0.00    -0.504 OA
ATOM     42  H   UNL     1      55.719  22.735  52.925  1.00  0.00     0.293 HD
ENDBRANCH   8  41
BRANCH   7  43
ATOM     43  O   UNL     1      57.602  23.681  54.601  1.00  0.00    -0.504 OA
ATOM     44  H   UNL     1      58.096  23.797  55.475  1.00  0.00     0.293 HD
ENDBRANCH   7  43
TORSDOF 11
ENDMDL
