MODEL 1
REMARK VINA RESULT:    -4.684      0.000      0.000
REMARK INTER + INTRA:         -17.279
REMARK INTER:                 -12.352
REMARK INTRA:                  -4.927
REMARK UNBOUND:                -4.927
REMARK SMILES CCCCCCCCCCCCCCCCCCCCCCCCCCCCCC(=O)[O-]
REMARK SMILES IDX 16 1 17 2 18 3 19 4 20 5 21 6 22 7 23 8 24 9 25 10 26 11
REMARK SMILES IDX 27 12 28 13 29 14 30 15 31 16 32 17 15 18 14 19 13 20 12 21
REMARK SMILES IDX 11 22 10 23 9 24 8 25 7 26 6 27 5 28 4 29 3 30 2 31 1 32
REMARK H PARENT
REMARK Flexibility Score: inf
ROOT
ATOM      1  C   UNL     1     -12.882  -2.843 -24.485  1.00  0.00     0.000 C 
ENDROOT
BRANCH   1   2
ATOM      2  C   UNL     1     -13.186  -2.785 -22.980  1.00  0.00     0.000 C 
BRANCH   2   3
ATOM      3  C   UNL     1     -12.278  -1.800 -22.227  1.00  0.00     0.000 C 
BRANCH   3   4
ATOM      4  C   UNL     1     -10.861  -2.355 -22.003  1.00  0.00     0.000 C 
BRANCH   4   5
ATOM      5  C   UNL     1      -9.778  -1.271 -22.136  1.00  0.00     0.000 C 
BRANCH   5   6
ATOM      6  C   UNL     1     -10.192  -0.136 -23.084  1.00  0.00     0.000 C 
BRANCH   6   7
ATOM      7  C   UNL     1      -9.543   1.191 -22.670  1.00  0.00     0.000 C 
BRANCH   7   8
ATOM      8  C   UNL     1      -8.990   1.108 -21.239  1.00  0.00     0.000 C 
BRANCH   8   9
ATOM      9  C   UNL     1      -9.828   1.908 -20.226  1.00  0.00     0.000 C 
BRANCH   9  10
ATOM     10  C   UNL     1     -11.045   1.157 -19.650  1.00  0.00     0.000 C 
BRANCH  10  11
ATOM     11  C   UNL     1     -12.411   1.814 -19.930  1.00  0.00     0.000 C 
BRANCH  11  12
ATOM     12  C   UNL     1     -12.911   1.688 -21.383  1.00  0.00     0.000 C 
BRANCH  12  13
ATOM     13  C   UNL     1     -13.067   3.024 -22.136  1.00  0.00     0.006 C 
BRANCH  13  14
ATOM     14  C   UNL     1     -14.319   3.110 -23.023  1.00  0.00     0.053 C 
BRANCH  14  15
ATOM     15  C   UNL     1     -14.670   4.526 -23.360  1.00  0.00     0.041 C 
ATOM     16  O   UNL     1     -15.020   4.832 -24.531  1.00  0.00    -0.550 OA
ATOM     17  O   UNL     1     -14.592   5.513 -22.386  1.00  0.00    -0.550 OA
ENDBRANCH  14  15
ENDBRANCH  13  14
ENDBRANCH  12  13
ENDBRANCH  11  12
ENDBRANCH  10  11
ENDBRANCH   9  10
ENDBRANCH   8   9
ENDBRANCH   7   8
ENDBRANCH   6   7
ENDBRANCH   5   6
ENDBRANCH   4   5
ENDBRANCH   3   4
ENDBRANCH   2   3
ENDBRANCH   1   2
BRANCH   1  18
ATOM     18  C   UNL     1     -12.399  -4.243 -24.892  1.00  0.00     0.000 C 
BRANCH  18  19
ATOM     19  C   UNL     1     -11.001  -4.226 -25.533  1.00  0.00     0.000 C 
BRANCH  19  20
ATOM     20  C   UNL     1     -10.490  -2.798 -25.793  1.00  0.00     0.000 C 
BRANCH  20  21
ATOM     21  C   UNL     1      -8.956  -2.706 -25.749  1.00  0.00     0.000 C 
BRANCH  21  22
ATOM     22  C   UNL     1      -8.295  -3.196 -27.049  1.00  0.00     0.000 C 
BRANCH  22  23
ATOM     23  C   UNL     1      -8.717  -2.369 -28.277  1.00  0.00     0.000 C 
BRANCH  23  24
ATOM     24  C   UNL     1      -9.124  -3.202 -29.510  1.00  0.00    -0.000 C 
BRANCH  24  25
ATOM     25  C   UNL     1     -10.074  -4.382 -29.218  1.00  0.00    -0.000 C 
BRANCH  25  26
ATOM     26  C   UNL     1     -11.522  -4.179 -29.699  1.00  0.00    -0.000 C 
BRANCH  26  27
ATOM     27  C   UNL     1     -12.128  -2.851 -29.212  1.00  0.00    -0.000 C 
BRANCH  27  28
ATOM     28  C   UNL     1     -13.363  -3.061 -28.321  1.00  0.00    -0.000 C 
BRANCH  28  29
ATOM     29  C   UNL     1     -13.769  -4.542 -28.219  1.00  0.00    -0.000 C 
BRANCH  29  30
ATOM     30  C   UNL     1     -15.103  -4.844 -28.927  1.00  0.00    -0.000 C 
BRANCH  30  31
ATOM     31  C   UNL     1     -15.256  -4.198 -30.316  1.00  0.00    -0.003 C 
ATOM     32  C   UNL     1     -14.722  -5.077 -31.447  1.00  0.00     0.004 C 
ENDBRANCH  30  31
ENDBRANCH  29  30
ENDBRANCH  28  29
ENDBRANCH  27  28
ENDBRANCH  26  27
ENDBRANCH  25  26
ENDBRANCH  24  25
ENDBRANCH  23  24
ENDBRANCH  22  23
ENDBRANCH  21  22
ENDBRANCH  20  21
ENDBRANCH  19  20
ENDBRANCH  18  19
ENDBRANCH   1  18
TORSDOF 28
ENDMDL
MODEL 2
REMARK VINA RESULT:    -4.466      1.285      2.140
REMARK INTER + INTRA:         -16.703
REMARK INTER:                 -11.892
REMARK INTRA:                  -4.812
REMARK UNBOUND:                -4.927
REMARK SMILES CCCCCCCCCCCCCCCCCCCCCCCCCCCCCC(=O)[O-]
REMARK SMILES IDX 16 1 17 2 18 3 19 4 20 5 21 6 22 7 23 8 24 9 25 10 26 11
REMARK SMILES IDX 27 12 28 13 29 14 30 15 31 16 32 17 15 18 14 19 13 20 12 21
REMARK SMILES IDX 11 22 10 23 9 24 8 25 7 26 6 27 5 28 4 29 3 30 2 31 1 32
REMARK H PARENT
REMARK Flexibility Score: inf
ROOT
ATOM      1  C   UNL     1     -12.511  -2.985 -23.545  1.00  0.00     0.000 C 
ENDROOT
BRANCH   1   2
ATOM      2  C   UNL     1     -12.473  -1.687 -22.724  1.00  0.00     0.000 C 
BRANCH   2   3
ATOM      3  C   UNL     1     -11.385  -1.702 -21.638  1.00  0.00     0.000 C 
BRANCH   3   4
ATOM      4  C   UNL     1     -10.039  -1.152 -22.142  1.00  0.00     0.000 C 
BRANCH   4   5
ATOM      5  C   UNL     1     -10.209   0.082 -23.042  1.00  0.00     0.000 C 
BRANCH   5   6
ATOM      6  C   UNL     1      -9.373   1.280 -22.565  1.00  0.00     0.000 C 
BRANCH   6   7
ATOM      7  C   UNL     1      -8.922   1.091 -21.111  1.00  0.00     0.000 C 
BRANCH   7   8
ATOM      8  C   UNL     1      -9.464   2.217 -20.218  1.00  0.00     0.000 C 
BRANCH   8   9
ATOM      9  C   UNL     1     -10.459   1.714 -19.158  1.00  0.00     0.000 C 
BRANCH   9  10
ATOM     10  C   UNL     1     -11.832   1.278 -19.707  1.00  0.00     0.000 C 
BRANCH  10  11
ATOM     11  C   UNL     1     -12.607   2.369 -20.471  1.00  0.00     0.000 C 
BRANCH  11  12
ATOM     12  C   UNL     1     -12.965   2.016 -21.928  1.00  0.00     0.000 C 
BRANCH  12  13
ATOM     13  C   UNL     1     -14.096   2.864 -22.544  1.00  0.00     0.006 C 
BRANCH  13  14
ATOM     14  C   UNL     1     -13.959   4.376 -22.303  1.00  0.00     0.053 C 
BRANCH  14  15
ATOM     15  C   UNL     1     -14.635   5.177 -23.373  1.00  0.00     0.041 C 
ATOM     16  O   UNL     1     -13.952   5.790 -24.235  1.00  0.00    -0.550 OA
ATOM     17  O   UNL     1     -16.022   5.263 -23.405  1.00  0.00    -0.550 OA
ENDBRANCH  14  15
ENDBRANCH  13  14
ENDBRANCH  12  13
ENDBRANCH  11  12
ENDBRANCH  10  11
ENDBRANCH   9  10
ENDBRANCH   8   9
ENDBRANCH   7   8
ENDBRANCH   6   7
ENDBRANCH   5   6
ENDBRANCH   4   5
ENDBRANCH   3   4
ENDBRANCH   2   3
ENDBRANCH   1   2
BRANCH   1  18
ATOM     18  C   UNL     1     -11.918  -2.765 -24.945  1.00  0.00     0.000 C 
BRANCH  18  19
ATOM     19  C   UNL     1     -10.531  -3.408 -25.109  1.00  0.00     0.000 C 
BRANCH  19  20
ATOM     20  C   UNL     1      -9.484  -2.419 -25.653  1.00  0.00     0.000 C 
BRANCH  20  21
ATOM     21  C   UNL     1      -9.523  -2.306 -27.185  1.00  0.00     0.000 C 
BRANCH  21  22
ATOM     22  C   UNL     1      -8.380  -3.079 -27.867  1.00  0.00     0.000 C 
BRANCH  22  23
ATOM     23  C   UNL     1      -8.890  -4.097 -28.904  1.00  0.00     0.000 C 
BRANCH  23  24
ATOM     24  C   UNL     1      -9.931  -5.101 -28.369  1.00  0.00    -0.000 C 
BRANCH  24  25
ATOM     25  C   UNL     1     -11.317  -5.027 -29.042  1.00  0.00    -0.000 C 
BRANCH  25  26
ATOM     26  C   UNL     1     -12.452  -4.531 -28.128  1.00  0.00    -0.000 C 
BRANCH  26  27
ATOM     27  C   UNL     1     -13.104  -3.236 -28.642  1.00  0.00    -0.000 C 
BRANCH  27  28
ATOM     28  C   UNL     1     -12.238  -2.518 -29.690  1.00  0.00    -0.000 C 
BRANCH  28  29
ATOM     29  C   UNL     1     -12.921  -2.443 -31.066  1.00  0.00    -0.000 C 
BRANCH  29  30
ATOM     30  C   UNL     1     -12.082  -3.088 -32.184  1.00  0.00    -0.000 C 
BRANCH  30  31
ATOM     31  C   UNL     1     -10.564  -2.868 -32.059  1.00  0.00    -0.003 C 
ATOM     32  C   UNL     1      -9.746  -4.096 -32.462  1.00  0.00     0.004 C 
ENDBRANCH  30  31
ENDBRANCH  29  30
ENDBRANCH  28  29
ENDBRANCH  27  28
ENDBRANCH  26  27
ENDBRANCH  25  26
ENDBRANCH  24  25
ENDBRANCH  23  24
ENDBRANCH  22  23
ENDBRANCH  21  22
ENDBRANCH  20  21
ENDBRANCH  19  20
ENDBRANCH  18  19
ENDBRANCH   1  18
TORSDOF 28
ENDMDL
MODEL 3
REMARK VINA RESULT:    -4.435      3.947      9.484
REMARK INTER + INTRA:         -16.622
REMARK INTER:                 -11.049
REMARK INTRA:                  -5.573
REMARK UNBOUND:                -4.927
REMARK SMILES CCCCCCCCCCCCCCCCCCCCCCCCCCCCCC(=O)[O-]
REMARK SMILES IDX 16 1 17 2 18 3 19 4 20 5 21 6 22 7 23 8 24 9 25 10 26 11
REMARK SMILES IDX 27 12 28 13 29 14 30 15 31 16 32 17 15 18 14 19 13 20 12 21
REMARK SMILES IDX 11 22 10 23 9 24 8 25 7 26 6 27 5 28 4 29 3 30 2 31 1 32
REMARK H PARENT
REMARK Flexibility Score: inf
ROOT
ATOM      1  C   UNL     1      -9.916  -2.414 -28.752  1.00  0.00     0.000 C 
ENDROOT
BRANCH   1   2
ATOM      2  C   UNL     1     -10.473  -3.839 -28.890  1.00  0.00     0.000 C 
BRANCH   2   3
ATOM      3  C   UNL     1     -11.976  -3.862 -29.208  1.00  0.00     0.000 C 
BRANCH   3   4
ATOM      4  C   UNL     1     -12.505  -2.493 -29.668  1.00  0.00     0.000 C 
BRANCH   4   5
ATOM      5  C   UNL     1     -12.837  -2.466 -31.169  1.00  0.00     0.000 C 
BRANCH   5   6
ATOM      6  C   UNL     1     -13.349  -3.820 -31.685  1.00  0.00     0.000 C 
BRANCH   6   7
ATOM      7  C   UNL     1     -12.709  -4.171 -33.034  1.00  0.00     0.000 C 
BRANCH   7   8
ATOM      8  C   UNL     1     -11.702  -5.321 -32.881  1.00  0.00     0.000 C 
BRANCH   8   9
ATOM      9  C   UNL     1     -10.277  -4.930 -33.312  1.00  0.00     0.000 C 
BRANCH   9  10
ATOM     10  C   UNL     1      -9.548  -3.967 -32.354  1.00  0.00     0.000 C 
BRANCH  10  11
ATOM     11  C   UNL     1      -9.548  -2.488 -32.788  1.00  0.00     0.000 C 
BRANCH  11  12
ATOM     12  C   UNL     1      -9.446  -2.254 -34.309  1.00  0.00     0.000 C 
BRANCH  12  13
ATOM     13  C   UNL     1     -10.738  -1.743 -34.977  1.00  0.00     0.006 C 
BRANCH  13  14
ATOM     14  C   UNL     1     -11.537  -0.741 -34.128  1.00  0.00     0.053 C 
BRANCH  14  15
ATOM     15  C   UNL     1     -11.587   0.615 -34.762  1.00  0.00     0.041 C 
ATOM     16  O   UNL     1     -12.673   1.251 -34.816  1.00  0.00    -0.550 OA
ATOM     17  O   UNL     1     -10.437   1.169 -35.312  1.00  0.00    -0.550 OA
ENDBRANCH  14  15
ENDBRANCH  13  14
ENDBRANCH  12  13
ENDBRANCH  11  12
ENDBRANCH  10  11
ENDBRANCH   9  10
ENDBRANCH   8   9
ENDBRANCH   7   8
ENDBRANCH   6   7
ENDBRANCH   5   6
ENDBRANCH   4   5
ENDBRANCH   3   4
ENDBRANCH   2   3
ENDBRANCH   1   2
BRANCH   1  18
ATOM     18  C   UNL     1      -8.396  -2.439 -28.535  1.00  0.00     0.000 C 
BRANCH  18  19
ATOM     19  C   UNL     1      -7.778  -3.818 -28.818  1.00  0.00     0.000 C 
BRANCH  19  20
ATOM     20  C   UNL     1      -6.619  -4.152 -27.862  1.00  0.00     0.000 C 
BRANCH  20  21
ATOM     21  C   UNL     1      -7.059  -4.173 -26.390  1.00  0.00     0.000 C 
BRANCH  21  22
ATOM     22  C   UNL     1      -8.076  -5.288 -26.090  1.00  0.00     0.000 C 
BRANCH  22  23
ATOM     23  C   UNL     1      -9.329  -4.768 -25.361  1.00  0.00     0.000 C 
BRANCH  23  24
ATOM     24  C   UNL     1      -9.235  -3.307 -24.874  1.00  0.00    -0.000 C 
BRANCH  24  25
ATOM     25  C   UNL     1     -10.448  -2.421 -25.223  1.00  0.00    -0.000 C 
BRANCH  25  26
ATOM     26  C   UNL     1     -11.751  -3.193 -25.502  1.00  0.00    -0.000 C 
BRANCH  26  27
ATOM     27  C   UNL     1     -12.832  -2.936 -24.438  1.00  0.00    -0.000 C 
BRANCH  27  28
ATOM     28  C   UNL     1     -12.634  -3.798 -23.180  1.00  0.00    -0.000 C 
BRANCH  28  29
ATOM     29  C   UNL     1     -12.401  -2.949 -21.917  1.00  0.00    -0.000 C 
BRANCH  29  30
ATOM     30  C   UNL     1     -12.411  -1.437 -22.206  1.00  0.00    -0.000 C 
BRANCH  30  31
ATOM     31  C   UNL     1     -11.254  -0.651 -21.563  1.00  0.00    -0.003 C 
ATOM     32  C   UNL     1      -9.896  -1.330 -21.743  1.00  0.00     0.004 C 
ENDBRANCH  30  31
ENDBRANCH  29  30
ENDBRANCH  28  29
ENDBRANCH  27  28
ENDBRANCH  26  27
ENDBRANCH  25  26
ENDBRANCH  24  25
ENDBRANCH  23  24
ENDBRANCH  22  23
ENDBRANCH  21  22
ENDBRANCH  20  21
ENDBRANCH  19  20
ENDBRANCH  18  19
ENDBRANCH   1  18
TORSDOF 28
ENDMDL
MODEL 4
REMARK VINA RESULT:    -4.433      3.912      9.951
REMARK INTER + INTRA:         -16.615
REMARK INTER:                 -11.854
REMARK INTRA:                  -4.761
REMARK UNBOUND:                -4.927
REMARK SMILES CCCCCCCCCCCCCCCCCCCCCCCCCCCCCC(=O)[O-]
REMARK SMILES IDX 16 1 17 2 18 3 19 4 20 5 21 6 22 7 23 8 24 9 25 10 26 11
REMARK SMILES IDX 27 12 28 13 29 14 30 15 31 16 32 17 15 18 14 19 13 20 12 21
REMARK SMILES IDX 11 22 10 23 9 24 8 25 7 26 6 27 5 28 4 29 3 30 2 31 1 32
REMARK H PARENT
REMARK Flexibility Score: inf
ROOT
ATOM      1  C   UNL     1      -8.877  -3.474 -29.982  1.00  0.00     0.000 C 
ENDROOT
BRANCH   1   2
ATOM      2  C   UNL     1     -10.027  -4.453 -30.263  1.00  0.00     0.000 C 
BRANCH   2   3
ATOM      3  C   UNL     1     -11.233  -4.236 -29.336  1.00  0.00     0.000 C 
BRANCH   3   4
ATOM      4  C   UNL     1     -11.738  -2.783 -29.352  1.00  0.00     0.000 C 
BRANCH   4   5
ATOM      5  C   UNL     1     -13.259  -2.687 -29.144  1.00  0.00     0.000 C 
BRANCH   5   6
ATOM      6  C   UNL     1     -13.985  -3.996 -29.491  1.00  0.00     0.000 C 
BRANCH   6   7
ATOM      7  C   UNL     1     -14.528  -3.960 -30.925  1.00  0.00     0.000 C 
BRANCH   7   8
ATOM      8  C   UNL     1     -13.984  -5.138 -31.746  1.00  0.00     0.000 C 
BRANCH   8   9
ATOM      9  C   UNL     1     -12.849  -4.729 -32.702  1.00  0.00     0.000 C 
BRANCH   9  10
ATOM     10  C   UNL     1     -12.942  -3.289 -33.244  1.00  0.00     0.000 C 
BRANCH  10  11
ATOM     11  C   UNL     1     -11.747  -2.380 -32.894  1.00  0.00     0.000 C 
BRANCH  11  12
ATOM     12  C   UNL     1     -10.414  -2.767 -33.565  1.00  0.00     0.000 C 
BRANCH  12  13
ATOM     13  C   UNL     1      -9.875  -1.740 -34.581  1.00  0.00     0.006 C 
BRANCH  13  14
ATOM     14  C   UNL     1     -10.929  -1.207 -35.564  1.00  0.00     0.053 C 
BRANCH  14  15
ATOM     15  C   UNL     1     -11.101   0.277 -35.452  1.00  0.00     0.041 C 
ATOM     16  O   UNL     1     -11.655   0.777 -34.437  1.00  0.00    -0.550 OA
ATOM     17  O   UNL     1     -10.667   1.107 -36.478  1.00  0.00    -0.550 OA
ENDBRANCH  14  15
ENDBRANCH  13  14
ENDBRANCH  12  13
ENDBRANCH  11  12
ENDBRANCH  10  11
ENDBRANCH   9  10
ENDBRANCH   8   9
ENDBRANCH   7   8
ENDBRANCH   6   7
ENDBRANCH   5   6
ENDBRANCH   4   5
ENDBRANCH   3   4
ENDBRANCH   2   3
ENDBRANCH   1   2
BRANCH   1  18
ATOM     18  C   UNL     1      -7.841  -4.103 -29.038  1.00  0.00     0.000 C 
BRANCH  18  19
ATOM     19  C   UNL     1      -7.682  -3.319 -27.725  1.00  0.00     0.000 C 
BRANCH  19  20
ATOM     20  C   UNL     1      -8.794  -2.274 -27.524  1.00  0.00     0.000 C 
BRANCH  20  21
ATOM     21  C   UNL     1      -9.489  -2.410 -26.160  1.00  0.00     0.000 C 
BRANCH  21  22
ATOM     22  C   UNL     1      -9.679  -3.877 -25.734  1.00  0.00     0.000 C 
BRANCH  22  23
ATOM     23  C   UNL     1     -11.161  -4.261 -25.576  1.00  0.00     0.000 C 
BRANCH  23  24
ATOM     24  C   UNL     1     -12.143  -3.071 -25.576  1.00  0.00    -0.000 C 
BRANCH  24  25
ATOM     25  C   UNL     1     -12.874  -2.826 -24.239  1.00  0.00    -0.000 C 
BRANCH  25  26
ATOM     26  C   UNL     1     -11.973  -2.881 -22.993  1.00  0.00    -0.000 C 
BRANCH  26  27
ATOM     27  C   UNL     1     -11.641  -1.484 -22.439  1.00  0.00    -0.000 C 
BRANCH  27  28
ATOM     28  C   UNL     1     -10.186  -1.073 -22.714  1.00  0.00    -0.000 C 
BRANCH  28  29
ATOM     29  C   UNL     1     -10.075   0.351 -23.285  1.00  0.00    -0.000 C 
BRANCH  29  30
ATOM     30  C   UNL     1      -9.384   1.329 -22.317  1.00  0.00    -0.000 C 
BRANCH  30  31
ATOM     31  C   UNL     1      -8.918   0.702 -20.991  1.00  0.00    -0.003 C 
ATOM     32  C   UNL     1      -8.151   1.682 -20.102  1.00  0.00     0.004 C 
ENDBRANCH  30  31
ENDBRANCH  29  30
ENDBRANCH  28  29
ENDBRANCH  27  28
ENDBRANCH  26  27
ENDBRANCH  25  26
ENDBRANCH  24  25
ENDBRANCH  23  24
ENDBRANCH  22  23
ENDBRANCH  21  22
ENDBRANCH  20  21
ENDBRANCH  19  20
ENDBRANCH  18  19
ENDBRANCH   1  18
TORSDOF 28
ENDMDL
MODEL 5
REMARK VINA RESULT:    -4.350      3.093      5.127
REMARK INTER + INTRA:         -16.398
REMARK INTER:                 -10.383
REMARK INTRA:                  -6.015
REMARK UNBOUND:                -4.927
REMARK SMILES CCCCCCCCCCCCCCCCCCCCCCCCCCCCCC(=O)[O-]
REMARK SMILES IDX 16 1 17 2 18 3 19 4 20 5 21 6 22 7 23 8 24 9 25 10 26 11
REMARK SMILES IDX 27 12 28 13 29 14 30 15 31 16 32 17 15 18 14 19 13 20 12 21
REMARK SMILES IDX 11 22 10 23 9 24 8 25 7 26 6 27 5 28 4 29 3 30 2 31 1 32
REMARK H PARENT
REMARK Flexibility Score: inf
ROOT
ATOM      1  C   UNL     1     -10.262  -2.470 -25.065  1.00  0.00     0.000 C 
ENDROOT
BRANCH   1   2
ATOM      2  C   UNL     1     -10.344  -1.422 -23.945  1.00  0.00     0.000 C 
BRANCH   2   3
ATOM      3  C   UNL     1     -11.599  -1.582 -23.072  1.00  0.00     0.000 C 
BRANCH   3   4
ATOM      4  C   UNL     1     -12.528  -2.701 -23.572  1.00  0.00     0.000 C 
BRANCH   4   5
ATOM      5  C   UNL     1     -13.328  -3.355 -22.432  1.00  0.00     0.000 C 
BRANCH   5   6
ATOM      6  C   UNL     1     -13.178  -4.883 -22.407  1.00  0.00     0.000 C 
BRANCH   6   7
ATOM      7  C   UNL     1     -11.894  -5.321 -23.124  1.00  0.00     0.000 C 
BRANCH   7   8
ATOM      8  C   UNL     1     -10.776  -5.617 -22.114  1.00  0.00     0.000 C 
BRANCH   8   9
ATOM      9  C   UNL     1      -9.459  -4.893 -22.450  1.00  0.00     0.000 C 
BRANCH   9  10
ATOM     10  C   UNL     1      -9.020  -3.831 -21.423  1.00  0.00     0.000 C 
BRANCH  10  11
ATOM     11  C   UNL     1      -9.967  -3.652 -20.220  1.00  0.00     0.000 C 
BRANCH  11  12
ATOM     12  C   UNL     1     -10.169  -2.195 -19.760  1.00  0.00     0.000 C 
BRANCH  12  13
ATOM     13  C   UNL     1      -9.123  -1.194 -20.291  1.00  0.00     0.006 C 
BRANCH  13  14
ATOM     14  C   UNL     1      -9.490   0.283 -20.070  1.00  0.00     0.053 C 
BRANCH  14  15
ATOM     15  C   UNL     1      -8.476   1.207 -20.671  1.00  0.00     0.041 C 
ATOM     16  O   UNL     1      -8.659   1.688 -21.821  1.00  0.00    -0.550 OA
ATOM     17  O   UNL     1      -7.319   1.522 -19.970  1.00  0.00    -0.550 OA
ENDBRANCH  14  15
ENDBRANCH  13  14
ENDBRANCH  12  13
ENDBRANCH  11  12
ENDBRANCH  10  11
ENDBRANCH   9  10
ENDBRANCH   8   9
ENDBRANCH   7   8
ENDBRANCH   6   7
ENDBRANCH   5   6
ENDBRANCH   4   5
ENDBRANCH   3   4
ENDBRANCH   2   3
ENDBRANCH   1   2
BRANCH   1  18
ATOM     18  C   UNL     1      -9.302  -2.012 -26.174  1.00  0.00     0.000 C 
BRANCH  18  19
ATOM     19  C   UNL     1      -8.617  -3.188 -26.889  1.00  0.00     0.000 C 
BRANCH  19  20
ATOM     20  C   UNL     1      -8.517  -4.441 -26.001  1.00  0.00     0.000 C 
BRANCH  20  21
ATOM     21  C   UNL     1      -9.034  -5.704 -26.707  1.00  0.00     0.000 C 
BRANCH  21  22
ATOM     22  C   UNL     1     -10.478  -6.058 -26.310  1.00  0.00     0.000 C 
BRANCH  22  23
ATOM     23  C   UNL     1     -11.516  -5.526 -27.315  1.00  0.00     0.000 C 
BRANCH  23  24
ATOM     24  C   UNL     1     -12.705  -4.772 -26.681  1.00  0.00    -0.000 C 
BRANCH  24  25
ATOM     25  C   UNL     1     -13.089  -3.452 -27.380  1.00  0.00    -0.000 C 
BRANCH  25  26
ATOM     26  C   UNL     1     -12.061  -2.941 -28.405  1.00  0.00    -0.000 C 
BRANCH  26  27
ATOM     27  C   UNL     1     -12.690  -2.635 -29.774  1.00  0.00    -0.000 C 
BRANCH  27  28
ATOM     28  C   UNL     1     -12.197  -3.588 -30.875  1.00  0.00    -0.000 C 
BRANCH  28  29
ATOM     29  C   UNL     1     -11.328  -2.874 -31.925  1.00  0.00    -0.000 C 
BRANCH  29  30
ATOM     30  C   UNL     1      -9.865  -3.354 -31.914  1.00  0.00    -0.000 C 
BRANCH  30  31
ATOM     31  C   UNL     1      -9.241  -3.484 -30.513  1.00  0.00    -0.003 C 
ATOM     32  C   UNL     1      -8.567  -4.837 -30.281  1.00  0.00     0.004 C 
ENDBRANCH  30  31
ENDBRANCH  29  30
ENDBRANCH  28  29
ENDBRANCH  27  28
ENDBRANCH  26  27
ENDBRANCH  25  26
ENDBRANCH  24  25
ENDBRANCH  23  24
ENDBRANCH  22  23
ENDBRANCH  21  22
ENDBRANCH  20  21
ENDBRANCH  19  20
ENDBRANCH  18  19
ENDBRANCH   1  18
TORSDOF 28
ENDMDL
MODEL 6
REMARK VINA RESULT:    -4.251      2.853      6.064
REMARK INTER + INTRA:         -16.137
REMARK INTER:                 -11.607
REMARK INTRA:                  -4.530
REMARK UNBOUND:                -4.927
REMARK SMILES CCCCCCCCCCCCCCCCCCCCCCCCCCCCCC(=O)[O-]
REMARK SMILES IDX 16 1 17 2 18 3 19 4 20 5 21 6 22 7 23 8 24 9 25 10 26 11
REMARK SMILES IDX 27 12 28 13 29 14 30 15 31 16 32 17 15 18 14 19 13 20 12 21
REMARK SMILES IDX 11 22 10 23 9 24 8 25 7 26 6 27 5 28 4 29 3 30 2 31 1 32
REMARK H PARENT
REMARK Flexibility Score: inf
ROOT
ATOM      1  C   UNL     1      -9.651  -2.525 -28.621  1.00  0.00     0.000 C 
ENDROOT
BRANCH   1   2
ATOM      2  C   UNL     1      -8.371  -3.118 -29.229  1.00  0.00     0.000 C 
BRANCH   2   3
ATOM      3  C   UNL     1      -7.820  -4.302 -28.419  1.00  0.00     0.000 C 
BRANCH   3   4
ATOM      4  C   UNL     1      -6.913  -3.854 -27.260  1.00  0.00     0.000 C 
BRANCH   4   5
ATOM      5  C   UNL     1      -7.612  -3.953 -25.894  1.00  0.00     0.000 C 
BRANCH   5   6
ATOM      6  C   UNL     1      -8.804  -4.923 -25.910  1.00  0.00     0.000 C 
BRANCH   6   7
ATOM      7  C   UNL     1      -9.886  -4.480 -24.918  1.00  0.00     0.000 C 
BRANCH   7   8
ATOM      8  C   UNL     1     -10.253  -3.003 -25.129  1.00  0.00     0.000 C 
BRANCH   8   9
ATOM      9  C   UNL     1     -11.758  -2.730 -24.958  1.00  0.00     0.000 C 
BRANCH   9  10
ATOM     10  C   UNL     1     -12.494  -3.703 -24.015  1.00  0.00     0.000 C 
BRANCH  10  11
ATOM     11  C   UNL     1     -12.896  -3.112 -22.650  1.00  0.00     0.000 C 
BRANCH  11  12
ATOM     12  C   UNL     1     -12.617  -1.605 -22.483  1.00  0.00     0.000 C 
BRANCH  12  13
ATOM     13  C   UNL     1     -11.357  -1.264 -21.662  1.00  0.00     0.006 C 
BRANCH  13  14
ATOM     14  C   UNL     1     -10.313  -0.430 -22.421  1.00  0.00     0.053 C 
BRANCH  14  15
ATOM     15  C   UNL     1      -9.529   0.457 -21.502  1.00  0.00     0.041 C 
ATOM     16  O   UNL     1      -9.089   1.564 -21.911  1.00  0.00    -0.550 OA
ATOM     17  O   UNL     1      -9.267   0.050 -20.200  1.00  0.00    -0.550 OA
ENDBRANCH  14  15
ENDBRANCH  13  14
ENDBRANCH  12  13
ENDBRANCH  11  12
ENDBRANCH  10  11
ENDBRANCH   9  10
ENDBRANCH   8   9
ENDBRANCH   7   8
ENDBRANCH   6   7
ENDBRANCH   5   6
ENDBRANCH   4   5
ENDBRANCH   3   4
ENDBRANCH   2   3
ENDBRANCH   1   2
BRANCH   1  18
ATOM     18  C   UNL     1     -10.843  -3.472 -28.825  1.00  0.00     0.000 C 
BRANCH  18  19
ATOM     19  C   UNL     1     -12.154  -2.722 -29.116  1.00  0.00     0.000 C 
BRANCH  19  20
ATOM     20  C   UNL     1     -13.285  -3.115 -28.149  1.00  0.00     0.000 C 
BRANCH  20  21
ATOM     21  C   UNL     1     -13.261  -4.610 -27.794  1.00  0.00     0.000 C 
BRANCH  21  22
ATOM     22  C   UNL     1     -14.230  -5.440 -28.654  1.00  0.00     0.000 C 
BRANCH  22  23
ATOM     23  C   UNL     1     -15.366  -4.591 -29.254  1.00  0.00     0.000 C 
BRANCH  23  24
ATOM     24  C   UNL     1     -15.352  -4.485 -30.793  1.00  0.00    -0.000 C 
BRANCH  24  25
ATOM     25  C   UNL     1     -14.016  -4.868 -31.464  1.00  0.00    -0.000 C 
BRANCH  25  26
ATOM     26  C   UNL     1     -13.436  -3.795 -32.403  1.00  0.00    -0.000 C 
BRANCH  26  27
ATOM     27  C   UNL     1     -11.936  -3.998 -32.678  1.00  0.00    -0.000 C 
BRANCH  27  28
ATOM     28  C   UNL     1     -11.147  -2.678 -32.635  1.00  0.00    -0.000 C 
BRANCH  28  29
ATOM     29  C   UNL     1      -9.625  -2.904 -32.615  1.00  0.00    -0.000 C 
BRANCH  29  30
ATOM     30  C   UNL     1      -8.923  -2.337 -33.863  1.00  0.00    -0.000 C 
BRANCH  30  31
ATOM     31  C   UNL     1      -8.617  -3.375 -34.958  1.00  0.00    -0.003 C 
ATOM     32  C   UNL     1      -9.832  -3.706 -35.826  1.00  0.00     0.004 C 
ENDBRANCH  30  31
ENDBRANCH  29  30
ENDBRANCH  28  29
ENDBRANCH  27  28
ENDBRANCH  26  27
ENDBRANCH  25  26
ENDBRANCH  24  25
ENDBRANCH  23  24
ENDBRANCH  22  23
ENDBRANCH  21  22
ENDBRANCH  20  21
ENDBRANCH  19  20
ENDBRANCH  18  19
ENDBRANCH   1  18
TORSDOF 28
ENDMDL
MODEL 7
REMARK VINA RESULT:    -4.239      2.113      4.626
REMARK INTER + INTRA:         -16.105
REMARK INTER:                 -10.574
REMARK INTRA:                  -5.531
REMARK UNBOUND:                -4.927
REMARK SMILES CCCCCCCCCCCCCCCCCCCCCCCCCCCCCC(=O)[O-]
REMARK SMILES IDX 16 1 17 2 18 3 19 4 20 5 21 6 22 7 23 8 24 9 25 10 26 11
REMARK SMILES IDX 27 12 28 13 29 14 30 15 31 16 32 17 15 18 14 19 13 20 12 21
REMARK SMILES IDX 11 22 10 23 9 24 8 25 7 26 6 27 5 28 4 29 3 30 2 31 1 32
REMARK H PARENT
REMARK Flexibility Score: inf
ROOT
ATOM      1  C   UNL     1     -10.781  -2.058 -24.026  1.00  0.00     0.000 C 
ENDROOT
BRANCH   1   2
ATOM      2  C   UNL     1     -11.729  -2.221 -22.828  1.00  0.00     0.000 C 
BRANCH   2   3
ATOM      3  C   UNL     1     -13.129  -2.705 -23.240  1.00  0.00     0.000 C 
BRANCH   3   4
ATOM      4  C   UNL     1     -13.731  -3.699 -22.232  1.00  0.00     0.000 C 
BRANCH   4   5
ATOM      5  C   UNL     1     -13.117  -5.103 -22.352  1.00  0.00     0.000 C 
BRANCH   5   6
ATOM      6  C   UNL     1     -12.608  -5.641 -21.005  1.00  0.00     0.000 C 
BRANCH   6   7
ATOM      7  C   UNL     1     -11.106  -5.377 -20.840  1.00  0.00     0.000 C 
BRANCH   7   8
ATOM      8  C   UNL     1     -10.855  -4.258 -19.818  1.00  0.00     0.000 C 
BRANCH   8   9
ATOM      9  C   UNL     1      -9.572  -3.460 -20.108  1.00  0.00     0.000 C 
BRANCH   9  10
ATOM     10  C   UNL     1      -9.674  -1.944 -19.850  1.00  0.00     0.000 C 
BRANCH  10  11
ATOM     11  C   UNL     1      -8.747  -1.069 -20.716  1.00  0.00     0.000 C 
BRANCH  11  12
ATOM     12  C   UNL     1      -8.496   0.351 -20.172  1.00  0.00     0.000 C 
BRANCH  12  13
ATOM     13  C   UNL     1      -8.900   1.494 -21.125  1.00  0.00     0.006 C 
BRANCH  13  14
ATOM     14  C   UNL     1      -9.996   1.119 -22.136  1.00  0.00     0.053 C 
BRANCH  14  15
ATOM     15  C   UNL     1     -11.365   1.449 -21.625  1.00  0.00     0.041 C 
ATOM     16  O   UNL     1     -11.962   2.481 -22.030  1.00  0.00    -0.550 OA
ATOM     17  O   UNL     1     -11.973   0.626 -20.686  1.00  0.00    -0.550 OA
ENDBRANCH  14  15
ENDBRANCH  13  14
ENDBRANCH  12  13
ENDBRANCH  11  12
ENDBRANCH  10  11
ENDBRANCH   9  10
ENDBRANCH   8   9
ENDBRANCH   7   8
ENDBRANCH   6   7
ENDBRANCH   5   6
ENDBRANCH   4   5
ENDBRANCH   3   4
ENDBRANCH   2   3
ENDBRANCH   1   2
BRANCH   1  18
ATOM     18  C   UNL     1      -9.675  -3.124 -23.998  1.00  0.00     0.000 C 
BRANCH  18  19
ATOM     19  C   UNL     1     -10.208  -4.539 -24.275  1.00  0.00     0.000 C 
BRANCH  19  20
ATOM     20  C   UNL     1      -9.702  -5.108 -25.612  1.00  0.00     0.000 C 
BRANCH  20  21
ATOM     21  C   UNL     1     -10.784  -5.095 -26.704  1.00  0.00     0.000 C 
BRANCH  21  22
ATOM     22  C   UNL     1     -12.178  -4.745 -26.153  1.00  0.00     0.000 C 
BRANCH  22  23
ATOM     23  C   UNL     1     -12.795  -3.514 -26.841  1.00  0.00     0.000 C 
BRANCH  23  24
ATOM     24  C   UNL     1     -13.503  -3.806 -28.181  1.00  0.00    -0.000 C 
BRANCH  24  25
ATOM     25  C   UNL     1     -13.393  -2.687 -29.236  1.00  0.00    -0.000 C 
BRANCH  25  26
ATOM     26  C   UNL     1     -12.108  -2.721 -30.083  1.00  0.00    -0.000 C 
BRANCH  26  27
ATOM     27  C   UNL     1     -11.706  -4.149 -30.491  1.00  0.00    -0.000 C 
BRANCH  27  28
ATOM     28  C   UNL     1     -10.296  -4.210 -31.100  1.00  0.00    -0.000 C 
BRANCH  28  29
ATOM     29  C   UNL     1      -9.208  -4.450 -30.038  1.00  0.00    -0.000 C 
BRANCH  29  30
ATOM     30  C   UNL     1      -8.379  -3.187 -29.739  1.00  0.00    -0.000 C 
BRANCH  30  31
ATOM     31  C   UNL     1      -8.209  -2.867 -28.243  1.00  0.00    -0.003 C 
ATOM     32  C   UNL     1      -9.338  -2.003 -27.682  1.00  0.00     0.004 C 
ENDBRANCH  30  31
ENDBRANCH  29  30
ENDBRANCH  28  29
ENDBRANCH  27  28
ENDBRANCH  26  27
ENDBRANCH  25  26
ENDBRANCH  24  25
ENDBRANCH  23  24
ENDBRANCH  22  23
ENDBRANCH  21  22
ENDBRANCH  20  21
ENDBRANCH  19  20
ENDBRANCH  18  19
ENDBRANCH   1  18
TORSDOF 28
ENDMDL
MODEL 8
REMARK VINA RESULT:    -4.237      1.287      3.417
REMARK INTER + INTRA:         -16.099
REMARK INTER:                 -12.146
REMARK INTRA:                  -3.953
REMARK UNBOUND:                -4.927
REMARK SMILES CCCCCCCCCCCCCCCCCCCCCCCCCCCCCC(=O)[O-]
REMARK SMILES IDX 16 1 17 2 18 3 19 4 20 5 21 6 22 7 23 8 24 9 25 10 26 11
REMARK SMILES IDX 27 12 28 13 29 14 30 15 31 16 32 17 15 18 14 19 13 20 12 21
REMARK SMILES IDX 11 22 10 23 9 24 8 25 7 26 6 27 5 28 4 29 3 30 2 31 1 32
REMARK H PARENT
REMARK Flexibility Score: inf
ROOT
ATOM      1  C   UNL     1     -12.322  -3.759 -25.245  1.00  0.00     0.000 C 
ENDROOT
BRANCH   1   2
ATOM      2  C   UNL     1     -12.883  -2.625 -24.374  1.00  0.00     0.000 C 
BRANCH   2   3
ATOM      3  C   UNL     1     -12.900  -2.977 -22.878  1.00  0.00     0.000 C 
BRANCH   3   4
ATOM      4  C   UNL     1     -12.438  -1.809 -21.990  1.00  0.00     0.000 C 
BRANCH   4   5
ATOM      5  C   UNL     1     -11.054  -2.056 -21.367  1.00  0.00     0.000 C 
BRANCH   5   6
ATOM      6  C   UNL     1      -9.912  -1.492 -22.226  1.00  0.00     0.000 C 
BRANCH   6   7
ATOM      7  C   UNL     1     -10.266  -0.101 -22.767  1.00  0.00     0.000 C 
BRANCH   7   8
ATOM      8  C   UNL     1      -9.442   0.987 -22.064  1.00  0.00     0.000 C 
BRANCH   8   9
ATOM      9  C   UNL     1     -10.313   2.117 -21.487  1.00  0.00     0.000 C 
BRANCH   9  10
ATOM     10  C   UNL     1     -11.761   1.715 -21.145  1.00  0.00     0.000 C 
BRANCH  10  11
ATOM     11  C   UNL     1     -12.848   2.401 -21.996  1.00  0.00     0.000 C 
BRANCH  11  12
ATOM     12  C   UNL     1     -14.085   2.882 -21.211  1.00  0.00     0.000 C 
BRANCH  12  13
ATOM     13  C   UNL     1     -14.888   4.009 -21.889  1.00  0.00     0.006 C 
BRANCH  13  14
ATOM     14  C   UNL     1     -15.020   3.865 -23.414  1.00  0.00     0.053 C 
BRANCH  14  15
ATOM     15  C   UNL     1     -14.708   5.145 -24.126  1.00  0.00     0.041 C 
ATOM     16  O   UNL     1     -15.469   5.567 -25.037  1.00  0.00    -0.550 OA
ATOM     17  O   UNL     1     -13.564   5.863 -23.798  1.00  0.00    -0.550 OA
ENDBRANCH  14  15
ENDBRANCH  13  14
ENDBRANCH  12  13
ENDBRANCH  11  12
ENDBRANCH  10  11
ENDBRANCH   9  10
ENDBRANCH   8   9
ENDBRANCH   7   8
ENDBRANCH   6   7
ENDBRANCH   5   6
ENDBRANCH   4   5
ENDBRANCH   3   4
ENDBRANCH   2   3
ENDBRANCH   1   2
BRANCH   1  18
ATOM     18  C   UNL     1     -10.805  -3.605 -25.433  1.00  0.00     0.000 C 
BRANCH  18  19
ATOM     19  C   UNL     1     -10.420  -3.237 -26.876  1.00  0.00     0.000 C 
BRANCH  19  20
ATOM     20  C   UNL     1     -11.554  -3.519 -27.878  1.00  0.00     0.000 C 
BRANCH  20  21
ATOM     21  C   UNL     1     -11.455  -4.922 -28.497  1.00  0.00     0.000 C 
BRANCH  21  22
ATOM     22  C   UNL     1     -12.827  -5.602 -28.650  1.00  0.00     0.000 C 
BRANCH  22  23
ATOM     23  C   UNL     1     -13.997  -4.654 -28.329  1.00  0.00     0.000 C 
BRANCH  23  24
ATOM     24  C   UNL     1     -14.839  -4.228 -29.550  1.00  0.00    -0.000 C 
BRANCH  24  25
ATOM     25  C   UNL     1     -14.439  -4.891 -30.884  1.00  0.00    -0.000 C 
BRANCH  25  26
ATOM     26  C   UNL     1     -13.798  -3.939 -31.910  1.00  0.00    -0.000 C 
BRANCH  26  27
ATOM     27  C   UNL     1     -13.105  -2.735 -31.250  1.00  0.00    -0.000 C 
BRANCH  27  28
ATOM     28  C   UNL     1     -11.637  -2.593 -31.683  1.00  0.00    -0.000 C 
BRANCH  28  29
ATOM     29  C   UNL     1     -10.945  -3.955 -31.872  1.00  0.00    -0.000 C 
BRANCH  29  30
ATOM     30  C   UNL     1      -9.411  -3.863 -31.774  1.00  0.00    -0.000 C 
BRANCH  30  31
ATOM     31  C   UNL     1      -8.888  -3.134 -30.524  1.00  0.00    -0.003 C 
ATOM     32  C   UNL     1      -7.993  -4.012 -29.649  1.00  0.00     0.004 C 
ENDBRANCH  30  31
ENDBRANCH  29  30
ENDBRANCH  28  29
ENDBRANCH  27  28
ENDBRANCH  26  27
ENDBRANCH  25  26
ENDBRANCH  24  25
ENDBRANCH  23  24
ENDBRANCH  22  23
ENDBRANCH  21  22
ENDBRANCH  20  21
ENDBRANCH  19  20
ENDBRANCH  18  19
ENDBRANCH   1  18
TORSDOF 28
ENDMDL
MODEL 9
REMARK VINA RESULT:    -4.218      3.984      9.912
REMARK INTER + INTRA:         -16.048
REMARK INTER:                 -11.673
REMARK INTRA:                  -4.376
REMARK UNBOUND:                -4.927
REMARK SMILES CCCCCCCCCCCCCCCCCCCCCCCCCCCCCC(=O)[O-]
REMARK SMILES IDX 16 1 17 2 18 3 19 4 20 5 21 6 22 7 23 8 24 9 25 10 26 11
REMARK SMILES IDX 27 12 28 13 29 14 30 15 31 16 32 17 15 18 14 19 13 20 12 21
REMARK SMILES IDX 11 22 10 23 9 24 8 25 7 26 6 27 5 28 4 29 3 30 2 31 1 32
REMARK H PARENT
REMARK Flexibility Score: inf
ROOT
ATOM      1  C   UNL     1      -9.112  -2.358 -28.301  1.00  0.00     0.000 C 
ENDROOT
BRANCH   1   2
ATOM      2  C   UNL     1      -9.530  -3.537 -29.191  1.00  0.00     0.000 C 
BRANCH   2   3
ATOM      3  C   UNL     1     -10.930  -4.073 -28.850  1.00  0.00     0.000 C 
BRANCH   3   4
ATOM      4  C   UNL     1     -11.983  -2.955 -28.754  1.00  0.00     0.000 C 
BRANCH   4   5
ATOM      5  C   UNL     1     -13.212  -3.376 -27.931  1.00  0.00     0.000 C 
BRANCH   5   6
ATOM      6  C   UNL     1     -13.325  -4.900 -27.775  1.00  0.00     0.000 C 
BRANCH   6   7
ATOM      7  C   UNL     1     -14.384  -5.473 -28.725  1.00  0.00     0.000 C 
BRANCH   7   8
ATOM      8  C   UNL     1     -15.243  -4.353 -29.329  1.00  0.00     0.000 C 
BRANCH   8   9
ATOM      9  C   UNL     1     -15.125  -4.268 -30.861  1.00  0.00     0.000 C 
BRANCH   9  10
ATOM     10  C   UNL     1     -14.135  -5.265 -31.494  1.00  0.00     0.000 C 
BRANCH  10  11
ATOM     11  C   UNL     1     -12.826  -4.644 -32.020  1.00  0.00     0.000 C 
BRANCH  11  12
ATOM     12  C   UNL     1     -12.919  -3.154 -32.404  1.00  0.00     0.000 C 
BRANCH  12  13
ATOM     13  C   UNL     1     -11.587  -2.381 -32.341  1.00  0.00     0.006 C 
BRANCH  13  14
ATOM     14  C   UNL     1     -10.370  -3.172 -32.846  1.00  0.00     0.053 C 
BRANCH  14  15
ATOM     15  C   UNL     1      -9.792  -2.574 -34.092  1.00  0.00     0.041 C 
ATOM     16  O   UNL     1      -8.550  -2.382 -34.187  1.00  0.00    -0.550 OA
ATOM     17  O   UNL     1     -10.627  -2.209 -35.141  1.00  0.00    -0.550 OA
ENDBRANCH  14  15
ENDBRANCH  13  14
ENDBRANCH  12  13
ENDBRANCH  11  12
ENDBRANCH  10  11
ENDBRANCH   9  10
ENDBRANCH   8   9
ENDBRANCH   7   8
ENDBRANCH   6   7
ENDBRANCH   5   6
ENDBRANCH   4   5
ENDBRANCH   3   4
ENDBRANCH   2   3
ENDBRANCH   1   2
BRANCH   1  18
ATOM     18  C   UNL     1      -8.801  -2.832 -26.873  1.00  0.00     0.000 C 
BRANCH  18  19
ATOM     19  C   UNL     1      -9.491  -1.975 -25.799  1.00  0.00     0.000 C 
BRANCH  19  20
ATOM     20  C   UNL     1      -9.877  -2.791 -24.553  1.00  0.00     0.000 C 
BRANCH  20  21
ATOM     21  C   UNL     1      -9.858  -4.305 -24.813  1.00  0.00     0.000 C 
BRANCH  21  22
ATOM     22  C   UNL     1     -11.270  -4.909 -24.910  1.00  0.00     0.000 C 
BRANCH  22  23
ATOM     23  C   UNL     1     -12.357  -3.966 -24.362  1.00  0.00     0.000 C 
BRANCH  23  24
ATOM     24  C   UNL     1     -12.903  -4.347 -22.971  1.00  0.00    -0.000 C 
BRANCH  24  25
ATOM     25  C   UNL     1     -13.120  -3.163 -22.006  1.00  0.00    -0.000 C 
BRANCH  25  26
ATOM     26  C   UNL     1     -12.648  -1.800 -22.543  1.00  0.00    -0.000 C 
BRANCH  26  27
ATOM     27  C   UNL     1     -11.680  -1.087 -21.583  1.00  0.00    -0.000 C 
BRANCH  27  28
ATOM     28  C   UNL     1     -11.819   0.443 -21.636  1.00  0.00    -0.000 C 
BRANCH  28  29
ATOM     29  C   UNL     1     -11.091   1.140 -20.473  1.00  0.00    -0.000 C 
BRANCH  29  30
ATOM     30  C   UNL     1      -9.644   0.646 -20.294  1.00  0.00    -0.000 C 
BRANCH  30  31
ATOM     31  C   UNL     1      -8.561   1.665 -20.691  1.00  0.00    -0.003 C 
ATOM     32  C   UNL     1      -7.235   1.444 -19.963  1.00  0.00     0.004 C 
ENDBRANCH  30  31
ENDBRANCH  29  30
ENDBRANCH  28  29
ENDBRANCH  27  28
ENDBRANCH  26  27
ENDBRANCH  25  26
ENDBRANCH  24  25
ENDBRANCH  23  24
ENDBRANCH  22  23
ENDBRANCH  21  22
ENDBRANCH  20  21
ENDBRANCH  19  20
ENDBRANCH  18  19
ENDBRANCH   1  18
TORSDOF 28
ENDMDL
