MODEL 1
REMARK VINA RESULT:    -3.687      0.000      0.000
REMARK INTER + INTRA:          -6.267
REMARK INTER:                  -5.304
REMARK INTRA:                  -0.963
REMARK UNBOUND:                -0.963
REMARK SMILES O=C(CO)[C@@H](O)[C@H](O)[C@@H](O)CO
REMARK SMILES IDX 7 1 9 2 11 3 12 4 10 6 5 8 2 9 1 10 3 11 4 12 6 14 8 16
REMARK H PARENT 12 5 10 7 4 13 6 15 8 17
REMARK Flexibility Score: inf
ROOT
ATOM      1  C   UNL     1      -5.402   8.239  -9.110  1.00  0.00     0.181 C 
ENDROOT
BRANCH   1   2
ATOM      2  C   UNL     1      -3.992   8.856  -9.331  1.00  0.00     0.171 C 
BRANCH   2   3
ATOM      3  C   UNL     1      -3.027   7.805  -9.908  1.00  0.00     0.190 C 
BRANCH   3   4
ATOM      4  O   UNL     1      -2.393   7.097  -8.878  1.00  0.00    -0.394 OA
ATOM      5  H   UNL     1      -1.425   7.311  -8.940  1.00  0.00     0.210 HD
ENDBRANCH   3   4
ENDBRANCH   2   3
BRANCH   2   6
ATOM      6  O   UNL     1      -3.476   9.343  -8.117  1.00  0.00    -0.388 OA
ATOM      7  H   UNL     1      -2.676   8.797  -7.901  1.00  0.00     0.211 HD
ENDBRANCH   2   6
ENDBRANCH   1   2
BRANCH   1   8
ATOM      8  C   UNL     1      -6.381   9.094  -8.252  1.00  0.00     0.214 C 
BRANCH   8   9
ATOM      9  C   UNL     1      -7.849   8.903  -8.607  1.00  0.00     0.189 C 
ATOM     10  O   UNL     1      -8.307   9.479  -9.582  1.00  0.00    -0.294 OA
BRANCH   9  11
ATOM     11  C   UNL     1      -8.773   8.011  -7.814  1.00  0.00     0.234 C 
BRANCH  11  12
ATOM     12  O   UNL     1      -8.292   6.698  -7.740  1.00  0.00    -0.388 OA
ATOM     13  H   UNL     1      -8.919   6.144  -8.273  1.00  0.00     0.211 HD
ENDBRANCH  11  12
ENDBRANCH   9  11
ENDBRANCH   8   9
BRANCH   8  14
ATOM     14  O   UNL     1      -6.164   8.892  -6.876  1.00  0.00    -0.382 OA
ATOM     15  H   UNL     1      -5.743   8.004  -6.752  1.00  0.00     0.211 HD
ENDBRANCH   8  14
ENDBRANCH   1   8
BRANCH   1  16
ATOM     16  O   UNL     1      -5.307   6.931  -8.600  1.00  0.00    -0.387 OA
ATOM     17  H   UNL     1      -6.223   6.555  -8.553  1.00  0.00     0.211 HD
ENDBRANCH   1  16
TORSDOF 10
ENDMDL
MODEL 2
REMARK VINA RESULT:    -3.661      0.993      4.682
REMARK INTER + INTRA:          -6.228
REMARK INTER:                  -5.293
REMARK INTRA:                  -0.935
REMARK UNBOUND:                -0.963
REMARK SMILES O=C(CO)[C@@H](O)[C@H](O)[C@@H](O)CO
REMARK SMILES IDX 7 1 9 2 11 3 12 4 10 6 5 8 2 9 1 10 3 11 4 12 6 14 8 16
REMARK H PARENT 12 5 10 7 4 13 6 15 8 17
REMARK Flexibility Score: inf
ROOT
ATOM      1  C   UNL     1      -6.408   8.937  -8.123  1.00  0.00     0.181 C 
ENDROOT
BRANCH   1   2
ATOM      2  C   UNL     1      -7.890   8.468  -8.128  1.00  0.00     0.171 C 
BRANCH   2   3
ATOM      3  C   UNL     1      -8.688   9.187  -7.026  1.00  0.00     0.190 C 
BRANCH   3   4
ATOM      4  O   UNL     1      -8.525   8.538  -5.794  1.00  0.00    -0.394 OA
ATOM      5  H   UNL     1      -8.946   9.120  -5.109  1.00  0.00     0.210 HD
ENDBRANCH   3   4
ENDBRANCH   2   3
BRANCH   2   6
ATOM      6  O   UNL     1      -7.964   7.079  -7.924  1.00  0.00    -0.388 OA
ATOM      7  H   UNL     1      -8.207   6.669  -8.795  1.00  0.00     0.211 HD
ENDBRANCH   2   6
ENDBRANCH   1   2
BRANCH   1   8
ATOM      8  C   UNL     1      -5.445   8.129  -9.044  1.00  0.00     0.214 C 
BRANCH   8   9
ATOM      9  C   UNL     1      -4.075   8.767  -9.223  1.00  0.00     0.189 C 
ATOM     10  O   UNL     1      -3.912   9.933  -8.892  1.00  0.00    -0.294 OA
BRANCH   9  11
ATOM     11  C   UNL     1      -2.890   8.018  -9.778  1.00  0.00     0.234 C 
BRANCH  11  12
ATOM     12  O   UNL     1      -2.456   7.011  -8.906  1.00  0.00    -0.388 OA
ATOM     13  H   UNL     1      -1.600   7.332  -8.519  1.00  0.00     0.211 HD
ENDBRANCH  11  12
ENDBRANCH   9  11
ENDBRANCH   8   9
BRANCH   8  14
ATOM     14  O   UNL     1      -5.328   6.794  -8.616  1.00  0.00    -0.382 OA
ATOM     15  H   UNL     1      -4.890   6.271  -9.334  1.00  0.00     0.211 HD
ENDBRANCH   8  14
ENDBRANCH   1   8
BRANCH   1  16
ATOM     16  O   UNL     1      -5.903   8.999  -6.810  1.00  0.00    -0.387 OA
ATOM     17  H   UNL     1      -6.089   9.907  -6.456  1.00  0.00     0.211 HD
ENDBRANCH   1  16
TORSDOF 10
ENDMDL
MODEL 3
REMARK VINA RESULT:    -3.448      1.593      4.881
REMARK INTER + INTRA:          -5.923
REMARK INTER:                  -4.673
REMARK INTRA:                  -1.249
REMARK UNBOUND:                -0.963
REMARK SMILES O=C(CO)[C@@H](O)[C@H](O)[C@@H](O)CO
REMARK SMILES IDX 7 1 9 2 11 3 12 4 10 6 5 8 2 9 1 10 3 11 4 12 6 14 8 16
REMARK H PARENT 12 5 10 7 4 13 6 15 8 17
REMARK Flexibility Score: inf
ROOT
ATOM      1  C   UNL     1      -8.010   9.377  -7.211  1.00  0.00     0.181 C 
ENDROOT
BRANCH   1   2
ATOM      2  C   UNL     1      -9.551   9.277  -7.037  1.00  0.00     0.171 C 
BRANCH   2   3
ATOM      3  C   UNL     1      -9.900   8.519  -5.743  1.00  0.00     0.190 C 
BRANCH   3   4
ATOM      4  O   UNL     1      -9.571   7.161  -5.862  1.00  0.00    -0.394 OA
ATOM      5  H   UNL     1     -10.280   6.655  -5.385  1.00  0.00     0.210 HD
ENDBRANCH   3   4
ENDBRANCH   2   3
BRANCH   2   6
ATOM      6  O   UNL     1     -10.125   8.612  -8.134  1.00  0.00    -0.388 OA
ATOM      7  H   UNL     1      -9.482   8.684  -8.887  1.00  0.00     0.211 HD
ENDBRANCH   2   6
ENDBRANCH   1   2
BRANCH   1   8
ATOM      8  C   UNL     1      -7.403   8.488  -8.338  1.00  0.00     0.214 C 
BRANCH   8   9
ATOM      9  C   UNL     1      -5.913   8.703  -8.564  1.00  0.00     0.189 C 
ATOM     10  O   UNL     1      -5.379   9.706  -8.114  1.00  0.00    -0.294 OA
BRANCH   9  11
ATOM     11  C   UNL     1      -5.049   7.718  -9.311  1.00  0.00     0.234 C 
BRANCH  11  12
ATOM     12  O   UNL     1      -4.899   6.517  -8.606  1.00  0.00    -0.388 OA
ATOM     13  H   UNL     1      -4.006   6.559  -8.176  1.00  0.00     0.211 HD
ENDBRANCH  11  12
ENDBRANCH   9  11
ENDBRANCH   8   9
BRANCH   8  14
ATOM     14  O   UNL     1      -7.690   7.127  -8.125  1.00  0.00    -0.382 OA
ATOM     15  H   UNL     1      -7.990   6.732  -8.983  1.00  0.00     0.211 HD
ENDBRANCH   8  14
ENDBRANCH   1   8
BRANCH   1  16
ATOM     16  O   UNL     1      -7.348   9.151  -5.990  1.00  0.00    -0.387 OA
ATOM     17  H   UNL     1      -6.437   9.538  -6.061  1.00  0.00     0.211 HD
ENDBRANCH   1  16
TORSDOF 10
ENDMDL
MODEL 4
REMARK VINA RESULT:    -3.304     22.564     23.862
REMARK INTER + INTRA:          -5.715
REMARK INTER:                  -4.821
REMARK INTRA:                  -0.895
REMARK UNBOUND:                -0.963
REMARK SMILES O=C(CO)[C@@H](O)[C@H](O)[C@@H](O)CO
REMARK SMILES IDX 7 1 9 2 11 3 12 4 10 6 5 8 2 9 1 10 3 11 4 12 6 14 8 16
REMARK H PARENT 12 5 10 7 4 13 6 15 8 17
REMARK Flexibility Score: inf
ROOT
ATOM      1  C   UNL     1       5.540  -1.262   9.239  1.00  0.00     0.181 C 
ENDROOT
BRANCH   1   2
ATOM      2  C   UNL     1       5.525   0.094  10.000  1.00  0.00     0.171 C 
BRANCH   2   3
ATOM      3  C   UNL     1       4.132   0.744   9.917  1.00  0.00     0.190 C 
BRANCH   3   4
ATOM      4  O   UNL     1       3.127  -0.234   9.944  1.00  0.00    -0.394 OA
ATOM      5  H   UNL     1       2.585  -0.061  10.758  1.00  0.00     0.210 HD
ENDBRANCH   3   4
ENDBRANCH   2   3
BRANCH   2   6
ATOM      6  O   UNL     1       6.480   0.971   9.457  1.00  0.00    -0.388 OA
ATOM      7  H   UNL     1       7.203   1.067  10.130  1.00  0.00     0.211 HD
ENDBRANCH   2   6
ENDBRANCH   1   2
BRANCH   1   8
ATOM      8  C   UNL     1       6.803  -2.146   9.469  1.00  0.00     0.214 C 
BRANCH   8   9
ATOM      9  C   UNL     1       6.656  -3.578   8.976  1.00  0.00     0.189 C 
ATOM     10  O   UNL     1       5.540  -4.072   8.900  1.00  0.00    -0.294 OA
BRANCH   9  11
ATOM     11  C   UNL     1       7.833  -4.423   8.556  1.00  0.00     0.234 C 
BRANCH  11  12
ATOM     12  O   UNL     1       8.484  -3.889   7.437  1.00  0.00    -0.388 OA
ATOM     13  H   UNL     1       8.411  -4.574   6.723  1.00  0.00     0.211 HD
ENDBRANCH  11  12
ENDBRANCH   9  11
ENDBRANCH   8   9
BRANCH   8  14
ATOM     14  O   UNL     1       7.954  -1.542   8.930  1.00  0.00    -0.382 OA
ATOM     15  H   UNL     1       8.596  -1.378   9.667  1.00  0.00     0.211 HD
ENDBRANCH   8  14
ENDBRANCH   1   8
BRANCH   1  16
ATOM     16  O   UNL     1       5.312  -1.070   7.863  1.00  0.00    -0.387 OA
ATOM     17  H   UNL     1       4.514  -0.489   7.766  1.00  0.00     0.211 HD
ENDBRANCH   1  16
TORSDOF 10
ENDMDL
MODEL 5
REMARK VINA RESULT:    -3.250      1.539      2.342
REMARK INTER + INTRA:          -5.637
REMARK INTER:                  -4.695
REMARK INTRA:                  -0.942
REMARK UNBOUND:                -0.963
REMARK SMILES O=C(CO)[C@@H](O)[C@H](O)[C@@H](O)CO
REMARK SMILES IDX 7 1 9 2 11 3 12 4 10 6 5 8 2 9 1 10 3 11 4 12 6 14 8 16
REMARK H PARENT 12 5 10 7 4 13 6 15 8 17
REMARK Flexibility Score: inf
ROOT
ATOM      1  C   UNL     1      -4.649   7.271  -9.804  1.00  0.00     0.181 C 
ENDROOT
BRANCH   1   2
ATOM      2  C   UNL     1      -3.159   6.855  -9.962  1.00  0.00     0.171 C 
BRANCH   2   3
ATOM      3  C   UNL     1      -3.031   5.324 -10.044  1.00  0.00     0.190 C 
BRANCH   3   4
ATOM      4  O   UNL     1      -3.288   4.739  -8.796  1.00  0.00    -0.394 OA
ATOM      5  H   UNL     1      -4.275   4.732  -8.684  1.00  0.00     0.210 HD
ENDBRANCH   3   4
ENDBRANCH   2   3
BRANCH   2   6
ATOM      6  O   UNL     1      -2.402   7.328  -8.876  1.00  0.00    -0.388 OA
ATOM      7  H   UNL     1      -2.129   6.535  -8.345  1.00  0.00     0.211 HD
ENDBRANCH   2   6
ENDBRANCH   1   2
BRANCH   1   8
ATOM      8  C   UNL     1      -4.931   8.801  -9.884  1.00  0.00     0.214 C 
BRANCH   8   9
ATOM      9  C   UNL     1      -6.304   9.207  -9.368  1.00  0.00     0.189 C 
ATOM     10  O   UNL     1      -7.280   9.062 -10.090  1.00  0.00    -0.294 OA
BRANCH   9  11
ATOM     11  C   UNL     1      -6.526   9.770  -7.986  1.00  0.00     0.234 C 
BRANCH  11  12
ATOM     12  O   UNL     1      -5.884   9.005  -7.004  1.00  0.00    -0.388 OA
ATOM     13  H   UNL     1      -4.934   8.941  -7.282  1.00  0.00     0.211 HD
ENDBRANCH  11  12
ENDBRANCH   9  11
ENDBRANCH   8   9
BRANCH   8  14
ATOM     14  O   UNL     1      -3.915   9.542  -9.252  1.00  0.00    -0.382 OA
ATOM     15  H   UNL     1      -4.083   9.536  -8.275  1.00  0.00     0.211 HD
ENDBRANCH   8  14
ENDBRANCH   1   8
BRANCH   1  16
ATOM     16  O   UNL     1      -5.202   6.724  -8.630  1.00  0.00    -0.387 OA
ATOM     17  H   UNL     1      -6.188   6.808  -8.691  1.00  0.00     0.211 HD
ENDBRANCH   1  16
TORSDOF 10
ENDMDL
MODEL 6
REMARK VINA RESULT:    -3.118     20.938     22.223
REMARK INTER + INTRA:          -5.448
REMARK INTER:                  -4.258
REMARK INTRA:                  -1.190
REMARK UNBOUND:                -0.963
REMARK SMILES O=C(CO)[C@@H](O)[C@H](O)[C@@H](O)CO
REMARK SMILES IDX 7 1 9 2 11 3 12 4 10 6 5 8 2 9 1 10 3 11 4 12 6 14 8 16
REMARK H PARENT 12 5 10 7 4 13 6 15 8 17
REMARK Flexibility Score: inf
ROOT
ATOM      1  C   UNL     1      -7.225  -9.216   6.431  1.00  0.00     0.181 C 
ENDROOT
BRANCH   1   2
ATOM      2  C   UNL     1      -5.839  -8.932   7.074  1.00  0.00     0.171 C 
BRANCH   2   3
ATOM      3  C   UNL     1      -5.799  -7.513   7.670  1.00  0.00     0.190 C 
BRANCH   3   4
ATOM      4  O   UNL     1      -6.038  -6.553   6.676  1.00  0.00    -0.394 OA
ATOM      5  H   UNL     1      -5.170  -6.104   6.501  1.00  0.00     0.210 HD
ENDBRANCH   3   4
ENDBRANCH   2   3
BRANCH   2   6
ATOM      6  O   UNL     1      -4.819  -9.061   6.115  1.00  0.00    -0.388 OA
ATOM      7  H   UNL     1      -3.960  -8.880   6.577  1.00  0.00     0.211 HD
ENDBRANCH   2   6
ENDBRANCH   1   2
BRANCH   1   8
ATOM      8  C   UNL     1      -7.229  -9.356   4.880  1.00  0.00     0.214 C 
BRANCH   8   9
ATOM      9  C   UNL     1      -8.603  -9.627   4.284  1.00  0.00     0.189 C 
ATOM     10  O   UNL     1      -9.472 -10.120   4.988  1.00  0.00    -0.294 OA
BRANCH   9  11
ATOM     11  C   UNL     1      -8.955  -9.298   2.855  1.00  0.00     0.234 C 
BRANCH  11  12
ATOM     12  O   UNL     1      -8.954  -7.916   2.624  1.00  0.00    -0.388 OA
ATOM     13  H   UNL     1      -9.534  -7.519   3.325  1.00  0.00     0.211 HD
ENDBRANCH  11  12
ENDBRANCH   9  11
ENDBRANCH   8   9
BRANCH   8  14
ATOM     14  O   UNL     1      -6.623  -8.244   4.265  1.00  0.00    -0.382 OA
ATOM     15  H   UNL     1      -7.222  -7.462   4.369  1.00  0.00     0.211 HD
ENDBRANCH   8  14
ENDBRANCH   1   8
BRANCH   1  16
ATOM     16  O   UNL     1      -8.178  -8.267   6.847  1.00  0.00    -0.387 OA
ATOM     17  H   UNL     1      -8.599  -7.883   6.035  1.00  0.00     0.211 HD
ENDBRANCH   1  16
TORSDOF 10
ENDMDL
MODEL 7
REMARK VINA RESULT:    -3.076     23.946     25.494
REMARK INTER + INTRA:          -5.387
REMARK INTER:                  -4.652
REMARK INTRA:                  -0.736
REMARK UNBOUND:                -0.963
REMARK SMILES O=C(CO)[C@@H](O)[C@H](O)[C@@H](O)CO
REMARK SMILES IDX 7 1 9 2 11 3 12 4 10 6 5 8 2 9 1 10 3 11 4 12 6 14 8 16
REMARK H PARENT 12 5 10 7 4 13 6 15 8 17
REMARK Flexibility Score: inf
ROOT
ATOM      1  C   UNL     1       7.415  -3.758   9.327  1.00  0.00     0.181 C 
ENDROOT
BRANCH   1   2
ATOM      2  C   UNL     1       7.158  -2.267   9.682  1.00  0.00     0.171 C 
BRANCH   2   3
ATOM      3  C   UNL     1       5.695  -1.886   9.394  1.00  0.00     0.190 C 
BRANCH   3   4
ATOM      4  O   UNL     1       5.585  -1.245   8.152  1.00  0.00    -0.394 OA
ATOM      5  H   UNL     1       6.493  -1.249   7.750  1.00  0.00     0.210 HD
ENDBRANCH   3   4
ENDBRANCH   2   3
BRANCH   2   6
ATOM      6  O   UNL     1       8.010  -1.433   8.936  1.00  0.00    -0.388 OA
ATOM      7  H   UNL     1       7.473  -0.647   8.654  1.00  0.00     0.211 HD
ENDBRANCH   2   6
ENDBRANCH   1   2
BRANCH   1   8
ATOM      8  C   UNL     1       8.760  -4.052   8.597  1.00  0.00     0.214 C 
BRANCH   8   9
ATOM      9  C   UNL     1       9.328  -5.436   8.876  1.00  0.00     0.189 C 
ATOM     10  O   UNL     1      10.125  -5.581   9.792  1.00  0.00    -0.294 OA
BRANCH   9  11
ATOM     11  C   UNL     1       8.937  -6.657   8.081  1.00  0.00     0.234 C 
BRANCH  11  12
ATOM     12  O   UNL     1       9.104  -6.457   6.705  1.00  0.00    -0.388 OA
ATOM     13  H   UNL     1       9.697  -5.667   6.611  1.00  0.00     0.211 HD
ENDBRANCH  11  12
ENDBRANCH   9  11
ENDBRANCH   8   9
BRANCH   8  14
ATOM     14  O   UNL     1       8.652  -3.820   7.213  1.00  0.00    -0.382 OA
ATOM     15  H   UNL     1       9.263  -3.078   6.972  1.00  0.00     0.211 HD
ENDBRANCH   8  14
ENDBRANCH   1   8
BRANCH   1  16
ATOM     16  O   UNL     1       6.332  -4.299   8.608  1.00  0.00    -0.387 OA
ATOM     17  H   UNL     1       6.405  -3.990   7.669  1.00  0.00     0.211 HD
ENDBRANCH   1  16
TORSDOF 10
ENDMDL
MODEL 8
REMARK VINA RESULT:    -3.062     20.938     22.370
REMARK INTER + INTRA:          -5.368
REMARK INTER:                  -4.221
REMARK INTRA:                  -1.147
REMARK UNBOUND:                -0.963
REMARK SMILES O=C(CO)[C@@H](O)[C@H](O)[C@@H](O)CO
REMARK SMILES IDX 7 1 9 2 11 3 12 4 10 6 5 8 2 9 1 10 3 11 4 12 6 14 8 16
REMARK H PARENT 12 5 10 7 4 13 6 15 8 17
REMARK Flexibility Score: inf
ROOT
ATOM      1  C   UNL     1      -7.115  -9.535   4.345  1.00  0.00     0.181 C 
ENDROOT
BRANCH   1   2
ATOM      2  C   UNL     1      -8.666  -9.607   4.413  1.00  0.00     0.171 C 
BRANCH   2   3
ATOM      3  C   UNL     1      -9.281  -9.338   3.028  1.00  0.00     0.190 C 
BRANCH   3   4
ATOM      4  O   UNL     1      -9.446  -7.962   2.819  1.00  0.00    -0.394 OA
ATOM      5  H   UNL     1     -10.416  -7.774   2.921  1.00  0.00     0.210 HD
ENDBRANCH   3   4
ENDBRANCH   2   3
BRANCH   2   6
ATOM      6  O   UNL     1      -9.159  -8.664   5.332  1.00  0.00    -0.388 OA
ATOM      7  H   UNL     1     -10.150  -8.703   5.285  1.00  0.00     0.211 HD
ENDBRANCH   2   6
ENDBRANCH   1   2
BRANCH   1   8
ATOM      8  C   UNL     1      -6.366  -9.916   5.657  1.00  0.00     0.214 C 
BRANCH   8   9
ATOM      9  C   UNL     1      -5.158  -9.042   5.960  1.00  0.00     0.189 C 
ATOM     10  O   UNL     1      -4.106  -9.255   5.376  1.00  0.00    -0.294 OA
BRANCH   9  11
ATOM     11  C   UNL     1      -5.201  -7.900   6.944  1.00  0.00     0.234 C 
BRANCH  11  12
ATOM     12  O   UNL     1      -6.233  -6.999   6.652  1.00  0.00    -0.388 OA
ATOM     13  H   UNL     1      -5.979  -6.141   7.080  1.00  0.00     0.211 HD
ENDBRANCH  11  12
ENDBRANCH   9  11
ENDBRANCH   8   9
BRANCH   8  14
ATOM     14  O   UNL     1      -7.247  -9.959   6.754  1.00  0.00    -0.382 OA
ATOM     15  H   UNL     1      -7.363 -10.905   7.026  1.00  0.00     0.211 HD
ENDBRANCH   8  14
ENDBRANCH   1   8
BRANCH   1  16
ATOM     16  O   UNL     1      -6.688  -8.277   3.878  1.00  0.00    -0.387 OA
ATOM     17  H   UNL     1      -7.479  -7.805   3.510  1.00  0.00     0.211 HD
ENDBRANCH   1  16
TORSDOF 10
ENDMDL
MODEL 9
REMARK VINA RESULT:    -3.045     21.975     23.006
REMARK INTER + INTRA:          -5.343
REMARK INTER:                  -4.173
REMARK INTRA:                  -1.170
REMARK UNBOUND:                -0.963
REMARK SMILES O=C(CO)[C@@H](O)[C@H](O)[C@@H](O)CO
REMARK SMILES IDX 7 1 9 2 11 3 12 4 10 6 5 8 2 9 1 10 3 11 4 12 6 14 8 16
REMARK H PARENT 12 5 10 7 4 13 6 15 8 17
REMARK Flexibility Score: inf
ROOT
ATOM      1  C   UNL     1      -3.731  -8.053   8.118  1.00  0.00     0.181 C 
ENDROOT
BRANCH   1   2
ATOM      2  C   UNL     1      -5.233  -8.186   8.495  1.00  0.00     0.171 C 
BRANCH   2   3
ATOM      3  C   UNL     1      -6.123  -7.935   7.264  1.00  0.00     0.190 C 
BRANCH   3   4
ATOM      4  O   UNL     1      -6.044  -6.594   6.862  1.00  0.00    -0.394 OA
ATOM      5  H   UNL     1      -5.810  -6.601   5.897  1.00  0.00     0.210 HD
ENDBRANCH   3   4
ENDBRANCH   2   3
BRANCH   2   6
ATOM      6  O   UNL     1      -5.567  -7.266   9.505  1.00  0.00    -0.388 OA
ATOM      7  H   UNL     1      -6.153  -7.742  10.149  1.00  0.00     0.211 HD
ENDBRANCH   2   6
ENDBRANCH   1   2
BRANCH   1   8
ATOM      8  C   UNL     1      -3.032  -6.746   8.597  1.00  0.00     0.214 C 
BRANCH   8   9
ATOM      9  C   UNL     1      -1.563  -6.648   8.210  1.00  0.00     0.189 C 
ATOM     10  O   UNL     1      -1.036  -7.585   7.628  1.00  0.00    -0.294 OA
BRANCH   9  11
ATOM     11  C   UNL     1      -0.720  -5.430   8.497  1.00  0.00     0.234 C 
BRANCH  11  12
ATOM     12  O   UNL     1      -1.097  -4.338   7.705  1.00  0.00    -0.388 OA
ATOM     13  H   UNL     1      -0.609  -3.554   8.067  1.00  0.00     0.211 HD
ENDBRANCH  11  12
ENDBRANCH   9  11
ENDBRANCH   8   9
BRANCH   8  14
ATOM     14  O   UNL     1      -3.741  -5.604   8.180  1.00  0.00    -0.382 OA
ATOM     15  H   UNL     1      -4.568  -5.899   7.720  1.00  0.00     0.211 HD
ENDBRANCH   8  14
ENDBRANCH   1   8
BRANCH   1  16
ATOM     16  O   UNL     1      -3.539  -8.241   6.736  1.00  0.00    -0.387 OA
ATOM     17  H   UNL     1      -2.868  -7.578   6.430  1.00  0.00     0.211 HD
ENDBRANCH   1  16
TORSDOF 10
ENDMDL
