MODEL 1
REMARK VINA RESULT:    -4.538      0.000      0.000
REMARK INTER + INTRA:          -6.232
REMARK INTER:                  -6.395
REMARK INTRA:                   0.164
REMARK UNBOUND:                 0.164
REMARK SMILES CC1=CCC(=C(C)C)C(=O)CC(C)=CCC1
REMARK SMILES IDX 12 1 14 2 13 3 15 4 16 5 2 6 1 7 3 8 11 10 9 11 10 12 5 13
REMARK SMILES IDX 6 14 7 15 8 16 4 17
REMARK H PARENT
REMARK Flexibility Score: 60.00
ROOT
ATOM      1  C   UNL     1      14.484 -12.233  64.453  1.00  0.00    -0.070 C 
ATOM      2  C   UNL     1      14.967 -11.492  65.477  1.00  0.00    -0.027 C 
ATOM      3  C   UNL     1      12.999 -12.205  64.196  1.00  0.00     0.039 C 
ENDROOT
BRANCH   2   4
ATOM      4  C   UNL     1      16.392 -11.516  65.966  1.00  0.00     0.032 C 
BRANCH   4   5
ATOM      5  C   UNL     1      17.024 -10.129  65.801  1.00  0.00     0.034 C 
BRANCH   5   6
ATOM      6  C   UNL     1      17.990 -10.065  64.637  1.00  0.00    -0.077 C 
ATOM      7  C   UNL     1      19.465 -10.227  64.912  1.00  0.00     0.039 C 
ATOM      8  C   UNL     1      17.600  -9.940  63.344  1.00  0.00    -0.023 CG0
ATOM      9  G   UNL     1      16.193  -9.706  62.824  1.00  0.00     0.000 G0
ENDBRANCH   5   6
ENDBRANCH   4   5
ENDBRANCH   2   4
BRANCH   1  10
ATOM     10  C   UNL     1      15.361 -13.071  63.545  1.00  0.00     0.111 C 
BRANCH  10  11
ATOM     11  C   UNL     1      15.959 -12.252  62.426  1.00  0.00     0.163 C 
ATOM     12  O   UNL     1      16.868 -12.794  61.741  1.00  0.00    -0.294 OA
BRANCH  11  13
ATOM     13  C   UNL     1      15.516 -10.859  62.082  1.00  0.00    -0.002 C 
ATOM     14  C   UNL     1      14.436 -10.655  61.266  1.00  0.00    -0.069 C 
ATOM     15  C   UNL     1      13.817  -9.289  61.082  1.00  0.00     0.039 C 
ATOM     16  C   UNL     1      13.831 -11.783  60.461  1.00  0.00     0.039 C 
BRANCH  13  17
ATOM     17  C   UNL     1      16.186  -9.699  62.808  1.00  0.00     0.066 CG0
ATOM     18  G   UNL     1      17.588  -9.949  63.333  1.00  0.00     0.000 G0
ENDBRANCH  13  17
ENDBRANCH  11  13
ENDBRANCH  10  11
ENDBRANCH   1  10
TORSDOF 0
ENDMDL
MODEL 2
REMARK VINA RESULT:    -4.407      2.833      6.111
REMARK INTER + INTRA:          -6.046
REMARK INTER:                  -6.308
REMARK INTRA:                   0.262
REMARK UNBOUND:                 0.164
REMARK SMILES CC1=CCC(=C(C)C)C(=O)CC(C)=CCC1
REMARK SMILES IDX 12 1 14 2 13 3 15 4 16 5 2 6 1 7 3 8 11 10 9 11 10 12 5 13
REMARK SMILES IDX 6 14 7 15 8 16 4 17
REMARK H PARENT
REMARK Flexibility Score: 60.00
ROOT
ATOM      1  C   UNL     1      20.202  -9.933  65.853  1.00  0.00    -0.070 C 
ATOM      2  C   UNL     1      19.775  -9.801  64.576  1.00  0.00    -0.027 C 
ATOM      3  C   UNL     1      21.548 -10.569  66.088  1.00  0.00     0.039 C 
ENDROOT
BRANCH   2   4
ATOM      4  C   UNL     1      18.403  -9.328  64.168  1.00  0.00     0.032 C 
BRANCH   4   5
ATOM      5  C   UNL     1      17.625 -10.481  63.524  1.00  0.00     0.034 C 
BRANCH   5   6
ATOM      6  C   UNL     1      16.380 -10.849  64.305  1.00  0.00    -0.077 C 
ATOM      7  C   UNL     1      15.061 -10.249  63.887  1.00  0.00     0.039 C 
ATOM      8  C   UNL     1      16.371 -11.748  65.320  1.00  0.00    -0.023 CG0
ATOM      9  G   UNL     1      17.566 -12.435  65.955  1.00  0.00     0.000 G0
ENDBRANCH   5   6
ENDBRANCH   4   5
ENDBRANCH   2   4
BRANCH   1  10
ATOM     10  C   UNL     1      19.406  -9.458  67.052  1.00  0.00     0.111 C 
BRANCH  10  11
ATOM     11  C   UNL     1      18.184 -10.312  67.290  1.00  0.00     0.163 C 
ATOM     12  O   UNL     1      17.107  -9.712  67.552  1.00  0.00    -0.294 OA
BRANCH  11  13
ATOM     13  C   UNL     1      18.184 -11.811  67.209  1.00  0.00    -0.002 C 
ATOM     14  C   UNL     1      18.576 -12.566  68.281  1.00  0.00    -0.069 C 
ATOM     15  C   UNL     1      18.373 -14.063  68.325  1.00  0.00     0.039 C 
ATOM     16  C   UNL     1      19.283 -11.946  69.465  1.00  0.00     0.039 C 
BRANCH  13  17
ATOM     17  C   UNL     1      17.567 -12.457  65.973  1.00  0.00     0.066 CG0
ATOM     18  G   UNL     1      16.378 -11.743  65.358  1.00  0.00     0.000 G0
ENDBRANCH  13  17
ENDBRANCH  11  13
ENDBRANCH  10  11
ENDBRANCH   1  10
TORSDOF 0
ENDMDL
MODEL 3
REMARK VINA RESULT:    -4.083      3.096      5.338
REMARK INTER + INTRA:          -5.591
REMARK INTER:                  -5.836
REMARK INTRA:                   0.245
REMARK UNBOUND:                 0.164
REMARK SMILES CC1=CCC(=C(C)C)C(=O)CC(C)=CCC1
REMARK SMILES IDX 12 1 14 2 13 3 15 4 16 5 2 6 1 7 3 8 11 10 9 11 10 12 5 13
REMARK SMILES IDX 6 14 7 15 8 16 4 17
REMARK H PARENT
REMARK Flexibility Score: 60.00
ROOT
ATOM      1  C   UNL     1      20.348  -9.917  65.410  1.00  0.00    -0.070 C 
ATOM      2  C   UNL     1      21.213 -10.953  65.503  1.00  0.00    -0.027 C 
ATOM      3  C   UNL     1      20.252  -9.190  64.093  1.00  0.00     0.039 C 
ENDROOT
BRANCH   2   4
ATOM      4  C   UNL     1      21.544 -11.693  66.774  1.00  0.00     0.032 C 
BRANCH   4   5
ATOM      5  C   UNL     1      21.017 -13.130  66.692  1.00  0.00     0.034 C 
BRANCH   5   6
ATOM      6  C   UNL     1      19.725 -13.320  67.460  1.00  0.00    -0.077 C 
ATOM      7  C   UNL     1      19.796 -13.828  68.879  1.00  0.00     0.039 C 
ATOM      8  C   UNL     1      18.505 -12.991  66.968  1.00  0.00    -0.023 CG0
ATOM      9  G   UNL     1      18.173 -12.521  65.564  1.00  0.00     0.000 G0
ENDBRANCH   5   6
ENDBRANCH   4   5
ENDBRANCH   2   4
BRANCH   1  10
ATOM     10  C   UNL     1      19.461  -9.467  66.553  1.00  0.00     0.111 C 
BRANCH  10  11
ATOM     11  C   UNL     1      18.089 -10.092  66.482  1.00  0.00     0.163 C 
ATOM     12  O   UNL     1      17.253  -9.742  67.358  1.00  0.00    -0.294 OA
BRANCH  11  13
ATOM     13  C   UNL     1      17.673 -11.073  65.425  1.00  0.00    -0.002 C 
ATOM     14  C   UNL     1      17.023 -10.647  64.298  1.00  0.00    -0.069 C 
ATOM     15  C   UNL     1      16.794 -11.557  63.113  1.00  0.00     0.039 C 
ATOM     16  C   UNL     1      16.451  -9.251  64.197  1.00  0.00     0.039 C 
BRANCH  13  17
ATOM     17  C   UNL     1      18.153 -12.513  65.561  1.00  0.00     0.066 CG0
ATOM     18  G   UNL     1      18.502 -12.980  66.963  1.00  0.00     0.000 G0
ENDBRANCH  13  17
ENDBRANCH  11  13
ENDBRANCH  10  11
ENDBRANCH   1  10
TORSDOF 0
ENDMDL
MODEL 4
REMARK VINA RESULT:    -4.046      2.386      5.026
REMARK INTER + INTRA:          -5.538
REMARK INTER:                  -5.677
REMARK INTRA:                   0.139
REMARK UNBOUND:                 0.164
REMARK SMILES CC1=CCC(=C(C)C)C(=O)CC(C)=CCC1
REMARK SMILES IDX 12 1 14 2 13 3 15 4 16 5 2 6 1 7 3 8 11 10 9 11 10 12 5 13
REMARK SMILES IDX 6 14 7 15 8 16 4 17
REMARK H PARENT
REMARK Flexibility Score: 60.00
ROOT
ATOM      1  C   UNL     1      18.141 -10.657  67.643  1.00  0.00    -0.070 C 
ATOM      2  C   UNL     1      16.820 -10.537  67.376  1.00  0.00    -0.027 C 
ATOM      3  C   UNL     1      18.865  -9.455  68.194  1.00  0.00     0.039 C 
ENDROOT
BRANCH   2   4
ATOM      4  C   UNL     1      15.979 -11.581  66.689  1.00  0.00     0.032 C 
BRANCH   4   5
ATOM      5  C   UNL     1      15.529 -11.068  65.316  1.00  0.00     0.034 C 
BRANCH   5   6
ATOM      6  C   UNL     1      16.150 -11.845  64.173  1.00  0.00    -0.077 C 
ATOM      7  C   UNL     1      15.347 -12.947  63.529  1.00  0.00     0.039 C 
ATOM      8  C   UNL     1      17.367 -11.559  63.645  1.00  0.00    -0.023 CG0
ATOM      9  G   UNL     1      18.377 -10.545  64.152  1.00  0.00     0.000 G0
ENDBRANCH   5   6
ENDBRANCH   4   5
ENDBRANCH   2   4
BRANCH   1  10
ATOM     10  C   UNL     1      18.921 -11.939  67.433  1.00  0.00     0.111 C 
BRANCH  10  11
ATOM     11  C   UNL     1      19.233 -12.177  65.975  1.00  0.00     0.163 C 
ATOM     12  O   UNL     1      19.214 -13.371  65.572  1.00  0.00    -0.294 OA
BRANCH  11  13
ATOM     13  C   UNL     1      19.537 -11.080  64.997  1.00  0.00    -0.002 C 
ATOM     14  C   UNL     1      20.830 -10.692  64.766  1.00  0.00    -0.069 C 
ATOM     15  C   UNL     1      21.198  -9.764  63.632  1.00  0.00     0.039 C 
ATOM     16  C   UNL     1      21.959 -11.135  65.669  1.00  0.00     0.039 C 
BRANCH  13  17
ATOM     17  C   UNL     1      18.390 -10.545  64.148  1.00  0.00     0.066 CG0
ATOM     18  G   UNL     1      17.383 -11.566  63.651  1.00  0.00     0.000 G0
ENDBRANCH  13  17
ENDBRANCH  11  13
ENDBRANCH  10  11
ENDBRANCH   1  10
TORSDOF 0
ENDMDL
MODEL 5
REMARK VINA RESULT:    -4.032      2.000      3.297
REMARK INTER + INTRA:          -5.518
REMARK INTER:                  -5.964
REMARK INTRA:                   0.446
REMARK UNBOUND:                 0.164
REMARK SMILES CC1=CCC(=C(C)C)C(=O)CC(C)=CCC1
REMARK SMILES IDX 12 1 14 2 13 3 15 4 16 5 2 6 1 7 3 8 11 10 9 11 10 12 5 13
REMARK SMILES IDX 6 14 7 15 8 16 4 17
REMARK H PARENT
REMARK Flexibility Score: 60.00
ROOT
ATOM      1  C   UNL     1      17.755 -11.866  67.565  1.00  0.00    -0.070 C 
ATOM      2  C   UNL     1      18.675 -10.902  67.797  1.00  0.00    -0.027 C 
ATOM      3  C   UNL     1      18.017 -13.243  68.118  1.00  0.00     0.039 C 
ENDROOT
BRANCH   2   4
ATOM      4  C   UNL     1      18.649  -9.518  67.199  1.00  0.00     0.032 C 
BRANCH   4   5
ATOM      5  C   UNL     1      19.899  -9.298  66.339  1.00  0.00     0.034 C 
BRANCH   5   6
ATOM      6  C   UNL     1      20.102 -10.398  65.317  1.00  0.00    -0.077 C 
ATOM      7  C   UNL     1      21.334 -11.262  65.421  1.00  0.00     0.039 C 
ATOM      8  C   UNL     1      19.200 -10.698  64.349  1.00  0.00    -0.023 CG0
ATOM      9  G   UNL     1      17.926  -9.946  64.010  1.00  0.00     0.000 G0
ENDBRANCH   5   6
ENDBRANCH   4   5
ENDBRANCH   2   4
BRANCH   1  10
ATOM     10  C   UNL     1      16.471 -11.625  66.796  1.00  0.00     0.111 C 
BRANCH  10  11
ATOM     11  C   UNL     1      16.663 -11.805  65.309  1.00  0.00     0.163 C 
ATOM     12  O   UNL     1      16.856 -12.979  64.894  1.00  0.00    -0.294 OA
BRANCH  11  13
ATOM     13  C   UNL     1      16.612 -10.678  64.319  1.00  0.00    -0.002 C 
ATOM     14  C   UNL     1      15.410 -10.212  63.857  1.00  0.00    -0.069 C 
ATOM     15  C   UNL     1      15.301  -8.940  63.048  1.00  0.00     0.039 C 
ATOM     16  C   UNL     1      14.126 -10.974  64.091  1.00  0.00     0.039 C 
BRANCH  13  17
ATOM     17  C   UNL     1      17.915  -9.960  63.989  1.00  0.00     0.066 CG0
ATOM     18  G   UNL     1      19.198 -10.686  64.350  1.00  0.00     0.000 G0
ENDBRANCH  13  17
ENDBRANCH  11  13
ENDBRANCH  10  11
ENDBRANCH   1  10
TORSDOF 0
ENDMDL
MODEL 6
REMARK VINA RESULT:    -4.020      2.022      4.724
REMARK INTER + INTRA:          -5.502
REMARK INTER:                  -5.779
REMARK INTRA:                   0.277
REMARK UNBOUND:                 0.164
REMARK SMILES CC1=CCC(=C(C)C)C(=O)CC(C)=CCC1
REMARK SMILES IDX 12 1 14 2 13 3 15 4 16 5 2 6 1 7 3 8 11 10 9 11 10 12 5 13
REMARK SMILES IDX 6 14 7 15 8 16 4 17
REMARK H PARENT
REMARK Flexibility Score: 60.00
ROOT
ATOM      1  C   UNL     1      17.260 -12.724  65.276  1.00  0.00    -0.070 C 
ATOM      2  C   UNL     1      16.705 -12.978  64.069  1.00  0.00    -0.027 C 
ATOM      3  C   UNL     1      18.523 -13.459  65.644  1.00  0.00     0.039 C 
ENDROOT
BRANCH   2   4
ATOM      4  C   UNL     1      15.374 -12.450  63.600  1.00  0.00     0.032 C 
BRANCH   4   5
ATOM      5  C   UNL     1      15.589 -11.318  62.589  1.00  0.00     0.034 C 
BRANCH   5   6
ATOM      6  C   UNL     1      15.384  -9.946  63.199  1.00  0.00    -0.077 C 
ATOM      7  C   UNL     1      13.991  -9.369  63.229  1.00  0.00     0.039 C 
ATOM      8  C   UNL     1      16.376  -9.232  63.787  1.00  0.00    -0.023 CG0
ATOM      9  G   UNL     1      17.855  -9.571  63.832  1.00  0.00     0.000 G0
ENDBRANCH   5   6
ENDBRANCH   4   5
ENDBRANCH   2   4
BRANCH   1  10
ATOM     10  C   UNL     1      16.687 -11.728  66.264  1.00  0.00     0.111 C 
BRANCH  10  11
ATOM     11  C   UNL     1      17.441 -10.420  66.248  1.00  0.00     0.163 C 
ATOM     12  O   UNL     1      17.242  -9.632  67.210  1.00  0.00    -0.294 OA
BRANCH  11  13
ATOM     13  C   UNL     1      18.415 -10.032  65.173  1.00  0.00    -0.002 C 
ATOM     14  C   UNL     1      19.757 -10.238  65.344  1.00  0.00    -0.069 C 
ATOM     15  C   UNL     1      20.743 -10.080  64.210  1.00  0.00     0.039 C 
ATOM     16  C   UNL     1      20.336 -10.586  66.697  1.00  0.00     0.039 C 
BRANCH  13  17
ATOM     17  C   UNL     1      17.851  -9.577  63.832  1.00  0.00     0.066 CG0
ATOM     18  G   UNL     1      16.374  -9.234  63.800  1.00  0.00     0.000 G0
ENDBRANCH  13  17
ENDBRANCH  11  13
ENDBRANCH  10  11
ENDBRANCH   1  10
TORSDOF 0
ENDMDL
MODEL 7
REMARK VINA RESULT:    -4.018      3.279      5.751
REMARK INTER + INTRA:          -5.498
REMARK INTER:                  -5.518
REMARK INTRA:                   0.020
REMARK UNBOUND:                 0.164
REMARK SMILES CC1=CCC(=C(C)C)C(=O)CC(C)=CCC1
REMARK SMILES IDX 12 1 14 2 13 3 15 4 16 5 2 6 1 7 3 8 11 10 9 11 10 12 5 13
REMARK SMILES IDX 6 14 7 15 8 16 4 17
REMARK H PARENT
REMARK Flexibility Score: 60.00
ROOT
ATOM      1  C   UNL     1      17.372 -10.295  64.262  1.00  0.00    -0.070 C 
ATOM      2  C   UNL     1      16.543 -10.462  65.318  1.00  0.00    -0.027 C 
ATOM      3  C   UNL     1      17.016  -9.245  63.241  1.00  0.00     0.039 C 
ENDROOT
BRANCH   2   4
ATOM      4  C   UNL     1      16.664 -11.556  66.348  1.00  0.00     0.032 C 
BRANCH   4   5
ATOM      5  C   UNL     1      17.370 -11.019  67.598  1.00  0.00     0.034 C 
BRANCH   5   6
ATOM      6  C   UNL     1      18.529 -11.893  68.032  1.00  0.00    -0.077 C 
ATOM      7  C   UNL     1      18.234 -13.137  68.833  1.00  0.00     0.039 C 
ATOM      8  C   UNL     1      19.818 -11.660  67.680  1.00  0.00    -0.023 CG0
ATOM      9  G   UNL     1      20.367 -10.458  66.934  1.00  0.00     0.000 G0
ENDBRANCH   5   6
ENDBRANCH   4   5
ENDBRANCH   2   4
BRANCH   1  10
ATOM     10  C   UNL     1      18.645 -11.093  64.067  1.00  0.00     0.111 C 
BRANCH  10  11
ATOM     11  C   UNL     1      19.875 -10.285  64.408  1.00  0.00     0.163 C 
ATOM     12  O   UNL     1      20.078  -9.240  63.734  1.00  0.00    -0.294 OA
BRANCH  11  13
ATOM     13  C   UNL     1      20.834 -10.648  65.504  1.00  0.00    -0.002 C 
ATOM     14  C   UNL     1      22.126 -10.994  65.210  1.00  0.00    -0.069 C 
ATOM     15  C   UNL     1      23.180 -11.138  66.284  1.00  0.00     0.039 C 
ATOM     16  C   UNL     1      22.558 -11.301  63.795  1.00  0.00     0.039 C 
BRANCH  13  17
ATOM     17  C   UNL     1      20.381 -10.443  66.944  1.00  0.00     0.066 CG0
ATOM     18  G   UNL     1      19.826 -11.661  67.659  1.00  0.00     0.000 G0
ENDBRANCH  13  17
ENDBRANCH  11  13
ENDBRANCH  10  11
ENDBRANCH   1  10
TORSDOF 0
ENDMDL
MODEL 8
REMARK VINA RESULT:    -3.991      4.043      6.820
REMARK INTER + INTRA:          -5.460
REMARK INTER:                  -5.361
REMARK INTRA:                  -0.100
REMARK UNBOUND:                 0.164
REMARK SMILES CC1=CCC(=C(C)C)C(=O)CC(C)=CCC1
REMARK SMILES IDX 12 1 14 2 13 3 15 4 16 5 2 6 1 7 3 8 11 10 9 11 10 12 5 13
REMARK SMILES IDX 6 14 7 15 8 16 4 17
REMARK H PARENT
REMARK Flexibility Score: 60.00
ROOT
ATOM      1  C   UNL     1      19.261  -9.723  64.294  1.00  0.00    -0.070 C 
ATOM      2  C   UNL     1      20.407  -9.787  63.577  1.00  0.00    -0.027 C 
ATOM      3  C   UNL     1      17.958  -9.637  63.542  1.00  0.00     0.039 C 
ENDROOT
BRANCH   2   4
ATOM      4  C   UNL     1      21.795  -9.728  64.160  1.00  0.00     0.032 C 
BRANCH   4   5
ATOM      5  C   UNL     1      22.482 -11.090  64.009  1.00  0.00     0.034 C 
BRANCH   5   6
ATOM      6  C   UNL     1      23.170 -11.538  65.282  1.00  0.00    -0.077 C 
ATOM      7  C   UNL     1      24.620 -11.176  65.485  1.00  0.00     0.039 C 
ATOM      8  C   UNL     1      22.536 -12.190  66.288  1.00  0.00    -0.023 CG0
ATOM      9  G   UNL     1      21.110 -12.710  66.296  1.00  0.00     0.000 G0
ENDBRANCH   5   6
ENDBRANCH   4   5
ENDBRANCH   2   4
BRANCH   1  10
ATOM     10  C   UNL     1      19.223  -9.752  65.809  1.00  0.00     0.111 C 
BRANCH  10  11
ATOM     11  C   UNL     1      19.032 -11.153  66.341  1.00  0.00     0.163 C 
ATOM     12  O   UNL     1      17.928 -11.712  66.100  1.00  0.00    -0.294 OA
BRANCH  11  13
ATOM     13  C   UNL     1      20.082 -11.905  67.107  1.00  0.00    -0.002 C 
ATOM     14  C   UNL     1      20.025 -11.981  68.472  1.00  0.00    -0.069 C 
ATOM     15  C   UNL     1      20.918 -12.911  69.261  1.00  0.00     0.039 C 
ATOM     16  C   UNL     1      19.097 -11.097  69.274  1.00  0.00     0.039 C 
BRANCH  13  17
ATOM     17  C   UNL     1      21.094 -12.722  66.313  1.00  0.00     0.066 CG0
ATOM     18  G   UNL     1      22.517 -12.197  66.287  1.00  0.00     0.000 G0
ENDBRANCH  13  17
ENDBRANCH  11  13
ENDBRANCH  10  11
ENDBRANCH   1  10
TORSDOF 0
ENDMDL
MODEL 9
REMARK VINA RESULT:    -3.937      3.030      6.243
REMARK INTER + INTRA:          -5.385
REMARK INTER:                  -5.870
REMARK INTRA:                   0.485
REMARK UNBOUND:                 0.164
REMARK SMILES CC1=CCC(=C(C)C)C(=O)CC(C)=CCC1
REMARK SMILES IDX 12 1 14 2 13 3 15 4 16 5 2 6 1 7 3 8 11 10 9 11 10 12 5 13
REMARK SMILES IDX 6 14 7 15 8 16 4 17
REMARK H PARENT
REMARK Flexibility Score: 60.00
ROOT
ATOM      1  C   UNL     1      20.141  -9.949  64.696  1.00  0.00    -0.070 C 
ATOM      2  C   UNL     1      18.897  -9.561  64.331  1.00  0.00    -0.027 C 
ATOM      3  C   UNL     1      21.208  -9.999  63.633  1.00  0.00     0.039 C 
ENDROOT
BRANCH   2   4
ATOM      4  C   UNL     1      17.683  -9.596  65.224  1.00  0.00     0.032 C 
BRANCH   4   5
ATOM      5  C   UNL     1      16.583 -10.444  64.576  1.00  0.00     0.034 C 
BRANCH   5   6
ATOM      6  C   UNL     1      17.013 -11.880  64.352  1.00  0.00    -0.077 C 
ATOM      7  C   UNL     1      16.859 -12.472  62.973  1.00  0.00     0.039 C 
ATOM      8  C   UNL     1      17.598 -12.646  65.306  1.00  0.00    -0.023 CG0
ATOM      9  G   UNL     1      17.806 -12.297  66.769  1.00  0.00     0.000 G0
ENDBRANCH   5   6
ENDBRANCH   4   5
ENDBRANCH   2   4
BRANCH   1  10
ATOM     10  C   UNL     1      20.516 -10.316  66.118  1.00  0.00     0.111 C 
BRANCH  10  11
ATOM     11  C   UNL     1      20.323 -11.789  66.389  1.00  0.00     0.163 C 
ATOM     12  O   UNL     1      21.132 -12.584  65.839  1.00  0.00    -0.294 OA
BRANCH  11  13
ATOM     13  C   UNL     1      19.252 -12.339  67.285  1.00  0.00    -0.002 C 
ATOM     14  C   UNL     1      19.542 -12.709  68.571  1.00  0.00    -0.069 C 
ATOM     15  C   UNL     1      18.461 -13.046  69.572  1.00  0.00     0.039 C 
ATOM     16  C   UNL     1      20.970 -12.850  69.047  1.00  0.00     0.039 C 
BRANCH  13  17
ATOM     17  C   UNL     1      17.814 -12.301  66.781  1.00  0.00     0.066 CG0
ATOM     18  G   UNL     1      17.600 -12.646  65.319  1.00  0.00     0.000 G0
ENDBRANCH  13  17
ENDBRANCH  11  13
ENDBRANCH  10  11
ENDBRANCH   1  10
TORSDOF 0
ENDMDL
