MODEL 1
REMARK VINA RESULT:    -2.455      0.000      0.000
REMARK INTER + INTRA:          -2.455
REMARK INTER:                  -2.455
REMARK INTRA:                   0.000
REMARK UNBOUND:                 0.000
REMARK SMILES CC(=O)[O-]
REMARK SMILES IDX 1 1 2 2 3 3 4 4
REMARK H PARENT
REMARK Flexibility Score: inf
ROOT
ATOM      1  C   UNL     1      66.277  41.188  27.944  1.00  0.00     0.063 C 
ATOM      2  C   UNL     1      65.132  41.602  27.084  1.00  0.00     0.038 C 
ATOM      3  O   UNL     1      64.663  40.806  26.229  1.00  0.00    -0.550 OA
ATOM      4  O   UNL     1      64.543  42.848  27.260  1.00  0.00    -0.550 OA
ENDROOT
TORSDOF 0
ENDMDL
MODEL 2
REMARK VINA RESULT:    -2.407      1.366      2.106
REMARK INTER + INTRA:          -2.407
REMARK INTER:                  -2.407
REMARK INTRA:                   0.000
REMARK UNBOUND:                 0.000
REMARK SMILES CC(=O)[O-]
REMARK SMILES IDX 1 1 2 2 3 3 4 4
REMARK H PARENT
REMARK Flexibility Score: inf
ROOT
ATOM      1  C   UNL     1      64.515  43.001  27.238  1.00  0.00     0.063 C 
ATOM      2  C   UNL     1      65.145  41.652  27.162  1.00  0.00     0.038 C 
ATOM      3  O   UNL     1      66.058  41.334  27.968  1.00  0.00    -0.550 OA
ATOM      4  O   UNL     1      64.688  40.722  26.237  1.00  0.00    -0.550 OA
ENDROOT
TORSDOF 0
ENDMDL
MODEL 3
REMARK VINA RESULT:    -2.306      8.508      8.940
REMARK INTER + INTRA:          -2.306
REMARK INTER:                  -2.306
REMARK INTRA:                   0.000
REMARK UNBOUND:                 0.000
REMARK SMILES CC(=O)[O-]
REMARK SMILES IDX 1 1 2 2 3 3 4 4
REMARK H PARENT
REMARK Flexibility Score: inf
ROOT
ATOM      1  C   UNL     1      62.166  48.347  26.809  1.00  0.00     0.063 C 
ATOM      2  C   UNL     1      61.904  49.812  26.736  1.00  0.00     0.038 C 
ATOM      3  O   UNL     1      62.627  50.617  27.378  1.00  0.00    -0.550 OA
ATOM      4  O   UNL     1      60.894  50.298  25.915  1.00  0.00    -0.550 OA
ENDROOT
TORSDOF 0
ENDMDL
MODEL 4
REMARK VINA RESULT:    -2.291      8.405      8.746
REMARK INTER + INTRA:          -2.291
REMARK INTER:                  -2.291
REMARK INTRA:                   0.000
REMARK UNBOUND:                 0.000
REMARK SMILES CC(=O)[O-]
REMARK SMILES IDX 1 1 2 2 3 3 4 4
REMARK H PARENT
REMARK Flexibility Score: inf
ROOT
ATOM      1  C   UNL     1      62.176  48.210  26.788  1.00  0.00     0.063 C 
ATOM      2  C   UNL     1      61.959  49.682  26.702  1.00  0.00     0.038 C 
ATOM      3  O   UNL     1      61.035  50.145  25.983  1.00  0.00    -0.550 OA
ATOM      4  O   UNL     1      62.742  50.546  27.457  1.00  0.00    -0.550 OA
ENDROOT
TORSDOF 0
ENDMDL
MODEL 5
REMARK VINA RESULT:    -2.242      8.082      8.932
REMARK INTER + INTRA:          -2.242
REMARK INTER:                  -2.242
REMARK INTRA:                   0.000
REMARK UNBOUND:                 0.000
REMARK SMILES CC(=O)[O-]
REMARK SMILES IDX 1 1 2 2 3 3 4 4
REMARK H PARENT
REMARK Flexibility Score: inf
ROOT
ATOM      1  C   UNL     1      60.673  50.024  26.202  1.00  0.00     0.063 C 
ATOM      2  C   UNL     1      61.993  49.611  26.756  1.00  0.00     0.038 C 
ATOM      3  O   UNL     1      62.696  50.435  27.398  1.00  0.00    -0.550 OA
ATOM      4  O   UNL     1      62.428  48.299  26.615  1.00  0.00    -0.550 OA
ENDROOT
TORSDOF 0
ENDMDL
MODEL 6
REMARK VINA RESULT:    -2.234      7.533      8.181
REMARK INTER + INTRA:          -2.234
REMARK INTER:                  -2.234
REMARK INTRA:                   0.000
REMARK UNBOUND:                 0.000
REMARK SMILES CC(=O)[O-]
REMARK SMILES IDX 1 1 2 2 3 3 4 4
REMARK H PARENT
REMARK Flexibility Score: inf
ROOT
ATOM      1  C   UNL     1      61.910  50.133  26.309  1.00  0.00     0.063 C 
ATOM      2  C   UNL     1      61.847  48.862  27.086  1.00  0.00     0.038 C 
ATOM      3  O   UNL     1      62.384  47.817  26.633  1.00  0.00    -0.550 OA
ATOM      4  O   UNL     1      61.244  48.839  28.337  1.00  0.00    -0.550 OA
ENDROOT
TORSDOF 0
ENDMDL
MODEL 7
REMARK VINA RESULT:    -2.174      9.927     10.256
REMARK INTER + INTRA:          -2.174
REMARK INTER:                  -2.174
REMARK INTRA:                   0.000
REMARK UNBOUND:                 0.000
REMARK SMILES CC(=O)[O-]
REMARK SMILES IDX 1 1 2 2 3 3 4 4
REMARK H PARENT
REMARK Flexibility Score: inf
ROOT
ATOM      1  C   UNL     1      69.420  50.597  21.445  1.00  0.00     0.063 C 
ATOM      2  C   UNL     1      69.321  49.399  22.327  1.00  0.00     0.038 C 
ATOM      3  O   UNL     1      68.409  48.551  22.141  1.00  0.00    -0.550 OA
ATOM      4  O   UNL     1      70.266  49.187  23.322  1.00  0.00    -0.550 OA
ENDROOT
TORSDOF 0
ENDMDL
MODEL 8
REMARK VINA RESULT:    -2.043     13.164     13.620
REMARK INTER + INTRA:          -2.043
REMARK INTER:                  -2.043
REMARK INTRA:                   0.000
REMARK UNBOUND:                 0.000
REMARK SMILES CC(=O)[O-]
REMARK SMILES IDX 1 1 2 2 3 3 4 4
REMARK H PARENT
REMARK Flexibility Score: inf
ROOT
ATOM      1  C   UNL     1      65.995  51.302  18.650  1.00  0.00     0.063 C 
ATOM      2  C   UNL     1      67.329  51.955  18.776  1.00  0.00     0.038 C 
ATOM      3  O   UNL     1      67.969  51.882  19.857  1.00  0.00    -0.550 OA
ATOM      4  O   UNL     1      67.894  52.600  17.683  1.00  0.00    -0.550 OA
ENDROOT
TORSDOF 0
ENDMDL
MODEL 9
REMARK VINA RESULT:    -2.028     10.460     10.870
REMARK INTER + INTRA:          -2.028
REMARK INTER:                  -2.028
REMARK INTRA:                   0.000
REMARK UNBOUND:                 0.000
REMARK SMILES CC(=O)[O-]
REMARK SMILES IDX 1 1 2 2 3 3 4 4
REMARK H PARENT
REMARK Flexibility Score: inf
ROOT
ATOM      1  C   UNL     1      68.621  48.872  22.332  1.00  0.00     0.063 C 
ATOM      2  C   UNL     1      69.442  50.102  22.146  1.00  0.00     0.038 C 
ATOM      3  O   UNL     1      70.182  50.515  23.077  1.00  0.00    -0.550 OA
ATOM      4  O   UNL     1      69.437  50.765  20.926  1.00  0.00    -0.550 OA
ENDROOT
TORSDOF 0
ENDMDL
