MODEL 1
REMARK VINA RESULT:    -4.038      0.000      0.000
REMARK INTER + INTRA:          -6.199
REMARK INTER:                  -6.163
REMARK INTRA:                  -0.036
REMARK UNBOUND:                -0.036
REMARK SMILES CC1=CCC[C@@H](C)C(=O)C[C@H](C(C)C)C(=O)C1
REMARK SMILES IDX 8 1 9 2 6 3 7 4 5 5 4 6 3 7 2 8 1 9 10 11 11 12 15 13 16 14
REMARK SMILES IDX 17 15 12 17 13 18 14 19
REMARK H PARENT
REMARK Flexibility Score: 70.00
ROOT
ATOM      1  C   UNL     1      -3.072   0.029  28.295  1.00  0.00     0.136 C 
ATOM      2  O   UNL     1      -3.126  -1.162  28.571  1.00  0.00    -0.299 OA
ENDROOT
BRANCH   1   3
ATOM      3  C   UNL     1      -2.059   0.518  27.280  1.00  0.00     0.053 C 
ATOM      4  C   UNL     1      -2.334  -0.102  25.902  1.00  0.00     0.016 C 
BRANCH   3   5
ATOM      5  C   UNL     1      -0.625   0.194  27.757  1.00  0.00     0.015 C 
BRANCH   5   6
ATOM      6  C   UNL     1      -0.188   1.087  28.936  1.00  0.00     0.028 C 
BRANCH   6   7
ATOM      7  C   UNL     1      -0.495   2.538  28.669  1.00  0.00    -0.028 C 
ATOM      8  C   UNL     1      -1.157   3.361  29.513  1.00  0.00    -0.070 CG0
ATOM      9  C   UNL     1      -1.322   4.804  29.108  1.00  0.00     0.039 C 
ATOM     10  G   UNL     1      -1.728   2.907  30.847  1.00  0.00     0.000 G0
ENDBRANCH   6   7
ENDBRANCH   5   6
ENDBRANCH   3   5
ENDBRANCH   1   3
BRANCH   1  11
ATOM     11  C   UNL     1      -4.023   0.986  28.976  1.00  0.00     0.087 C 
BRANCH  11  12
ATOM     12  C   UNL     1      -3.701   1.171  30.482  1.00  0.00     0.066 C 
BRANCH  12  13
ATOM     13  C   UNL     1      -3.211   2.587  30.764  1.00  0.00     0.140 C 
ATOM     14  O   UNL     1      -4.036   3.486  30.859  1.00  0.00    -0.299 OA
BRANCH  13  15
ATOM     15  C   UNL     1      -1.740   2.923  30.858  1.00  0.00     0.106 CG0
ATOM     16  G   UNL     1      -1.159   3.345  29.517  1.00  0.00     0.000 G0
ENDBRANCH  13  15
ENDBRANCH  12  13
BRANCH  12  17
ATOM     17  C   UNL     1      -4.893   0.780  31.415  1.00  0.00    -0.006 C 
ATOM     18  C   UNL     1      -5.159  -0.736  31.424  1.00  0.00     0.008 C 
ATOM     19  C   UNL     1      -4.638   1.245  32.861  1.00  0.00     0.008 C 
ENDBRANCH  12  17
ENDBRANCH  11  12
ENDBRANCH   1  11
TORSDOF 1
ENDMDL
MODEL 2
REMARK VINA RESULT:    -3.973      1.778      4.282
REMARK INTER + INTRA:          -6.099
REMARK INTER:                  -5.747
REMARK INTRA:                  -0.352
REMARK UNBOUND:                -0.036
REMARK SMILES CC1=CCC[C@@H](C)C(=O)C[C@H](C(C)C)C(=O)C1
REMARK SMILES IDX 8 1 9 2 6 3 7 4 5 5 4 6 3 7 2 8 1 9 10 11 11 12 15 13 16 14
REMARK SMILES IDX 17 15 12 17 13 18 14 19
REMARK H PARENT
REMARK Flexibility Score: 70.00
ROOT
ATOM      1  C   UNL     1      -3.480  -0.388  29.654  1.00  0.00     0.136 C 
ATOM      2  O   UNL     1      -3.259  -1.124  28.701  1.00  0.00    -0.299 OA
ENDROOT
BRANCH   1   3
ATOM      3  C   UNL     1      -4.909  -0.127  30.084  1.00  0.00     0.053 C 
ATOM      4  C   UNL     1      -5.456   1.134  29.399  1.00  0.00     0.016 C 
BRANCH   3   5
ATOM      5  C   UNL     1      -4.989   0.001  31.622  1.00  0.00     0.015 C 
BRANCH   5   6
ATOM      6  C   UNL     1      -5.355   1.432  32.069  1.00  0.00     0.028 C 
BRANCH   6   7
ATOM      7  C   UNL     1      -4.527   1.867  33.250  1.00  0.00    -0.028 C 
ATOM      8  C   UNL     1      -3.484   2.725  33.195  1.00  0.00    -0.070 CG0
ATOM      9  C   UNL     1      -2.806   3.097  34.491  1.00  0.00     0.039 C 
ATOM     10  G   UNL     1      -2.971   3.338  31.901  1.00  0.00     0.000 G0
ENDBRANCH   6   7
ENDBRANCH   5   6
ENDBRANCH   3   5
ENDBRANCH   1   3
BRANCH   1  11
ATOM     11  C   UNL     1      -2.315   0.243  30.381  1.00  0.00     0.087 C 
BRANCH  11  12
ATOM     12  C   UNL     1      -2.105   1.728  29.988  1.00  0.00     0.066 C 
BRANCH  12  13
ATOM     13  C   UNL     1      -1.861   2.589  31.222  1.00  0.00     0.140 C 
ATOM     14  O   UNL     1      -0.744   2.599  31.720  1.00  0.00    -0.299 OA
BRANCH  13  15
ATOM     15  C   UNL     1      -2.972   3.371  31.887  1.00  0.00     0.106 CG0
ATOM     16  G   UNL     1      -3.446   2.715  33.175  1.00  0.00     0.000 G0
ENDBRANCH  13  15
ENDBRANCH  12  13
BRANCH  12  17
ATOM     17  C   UNL     1      -0.979   1.925  28.921  1.00  0.00    -0.006 C 
ATOM     18  C   UNL     1       0.005   0.741  28.882  1.00  0.00     0.008 C 
ATOM     19  C   UNL     1      -1.578   2.115  27.515  1.00  0.00     0.008 C 
ENDBRANCH  12  17
ENDBRANCH  11  12
ENDBRANCH   1  11
TORSDOF 1
ENDMDL
MODEL 3
REMARK VINA RESULT:    -3.718      9.712     11.290
REMARK INTER + INTRA:          -5.711
REMARK INTER:                  -5.645
REMARK INTRA:                  -0.066
REMARK UNBOUND:                -0.036
REMARK SMILES CC1=CCC[C@@H](C)C(=O)C[C@H](C(C)C)C(=O)C1
REMARK SMILES IDX 8 1 9 2 6 3 7 4 5 5 4 6 3 7 2 8 1 9 10 11 11 12 15 13 16 14
REMARK SMILES IDX 17 15 12 17 13 18 14 19
REMARK H PARENT
REMARK Flexibility Score: 70.00
ROOT
ATOM      1  C   UNL     1     -13.284   1.557  29.132  1.00  0.00     0.136 C 
ATOM      2  O   UNL     1     -14.157   0.746  28.856  1.00  0.00    -0.299 OA
ENDROOT
BRANCH   1   3
ATOM      3  C   UNL     1     -12.330   1.273  30.275  1.00  0.00     0.053 C 
ATOM      4  C   UNL     1     -12.716  -0.032  30.987  1.00  0.00     0.016 C 
BRANCH   3   5
ATOM      5  C   UNL     1     -12.312   2.459  31.265  1.00  0.00     0.015 C 
BRANCH   5   6
ATOM      6  C   UNL     1     -11.094   3.379  31.049  1.00  0.00     0.028 C 
BRANCH   6   7
ATOM      7  C   UNL     1     -11.402   4.801  31.443  1.00  0.00    -0.028 C 
ATOM      8  C   UNL     1     -11.988   5.720  30.643  1.00  0.00    -0.070 CG0
ATOM      9  C   UNL     1     -12.276   7.081  31.226  1.00  0.00     0.039 C 
ATOM     10  G   UNL     1     -12.376   5.446  29.199  1.00  0.00     0.000 G0
ENDBRANCH   6   7
ENDBRANCH   5   6
ENDBRANCH   3   5
ENDBRANCH   1   3
BRANCH   1  11
ATOM     11  C   UNL     1     -13.178   2.829  28.322  1.00  0.00     0.087 C 
BRANCH  11  12
ATOM     12  C   UNL     1     -14.349   3.807  28.599  1.00  0.00     0.066 C 
BRANCH  12  13
ATOM     13  C   UNL     1     -13.825   5.187  28.981  1.00  0.00     0.140 C 
ATOM     14  O   UNL     1     -14.620   6.113  29.069  1.00  0.00    -0.299 OA
BRANCH  13  15
ATOM     15  C   UNL     1     -12.351   5.459  29.182  1.00  0.00     0.106 CG0
ATOM     16  G   UNL     1     -12.010   5.737  30.637  1.00  0.00     0.000 G0
ENDBRANCH  13  15
ENDBRANCH  12  13
BRANCH  12  17
ATOM     17  C   UNL     1     -15.370   3.888  27.418  1.00  0.00    -0.006 C 
ATOM     18  C   UNL     1     -14.753   3.449  26.078  1.00  0.00     0.008 C 
ATOM     19  C   UNL     1     -16.610   3.019  27.699  1.00  0.00     0.008 C 
ENDBRANCH  12  17
ENDBRANCH  11  12
ENDBRANCH   1  11
TORSDOF 1
ENDMDL
MODEL 4
REMARK VINA RESULT:    -3.551      1.526      4.179
REMARK INTER + INTRA:          -5.455
REMARK INTER:                  -5.395
REMARK INTRA:                  -0.060
REMARK UNBOUND:                -0.036
REMARK SMILES CC1=CCC[C@@H](C)C(=O)C[C@H](C(C)C)C(=O)C1
REMARK SMILES IDX 8 1 9 2 6 3 7 4 5 5 4 6 3 7 2 8 1 9 10 11 11 12 15 13 16 14
REMARK SMILES IDX 17 15 12 17 13 18 14 19
REMARK H PARENT
REMARK Flexibility Score: 70.00
ROOT
ATOM      1  C   UNL     1      -4.317   0.202  30.011  1.00  0.00     0.136 C 
ATOM      2  O   UNL     1      -5.330   0.048  29.341  1.00  0.00    -0.299 OA
ENDROOT
BRANCH   1   3
ATOM      3  C   UNL     1      -4.432   0.676  31.446  1.00  0.00     0.053 C 
ATOM      4  C   UNL     1      -5.272  -0.307  32.273  1.00  0.00     0.016 C 
BRANCH   3   5
ATOM      5  C   UNL     1      -5.038   2.097  31.492  1.00  0.00     0.015 C 
BRANCH   5   6
ATOM      6  C   UNL     1      -3.995   3.185  31.163  1.00  0.00     0.028 C 
BRANCH   6   7
ATOM      7  C   UNL     1      -2.750   3.022  31.995  1.00  0.00    -0.028 C 
ATOM      8  C   UNL     1      -1.489   2.983  31.509  1.00  0.00    -0.070 CG0
ATOM      9  C   UNL     1      -0.354   2.875  32.496  1.00  0.00     0.039 C 
ATOM     10  G   UNL     1      -1.162   3.052  30.025  1.00  0.00     0.000 G0
ENDBRANCH   6   7
ENDBRANCH   5   6
ENDBRANCH   3   5
ENDBRANCH   1   3
BRANCH   1  11
ATOM     11  C   UNL     1      -2.972  -0.088  29.387  1.00  0.00     0.087 C 
BRANCH  11  12
ATOM     12  C   UNL     1      -2.389   1.138  28.638  1.00  0.00     0.066 C 
BRANCH  12  13
ATOM     13  C   UNL     1      -1.154   1.676  29.352  1.00  0.00     0.140 C 
ATOM     14  O   UNL     1      -0.169   0.958  29.444  1.00  0.00    -0.299 OA
BRANCH  13  15
ATOM     15  C   UNL     1      -1.138   3.039  30.009  1.00  0.00     0.106 CG0
ATOM     16  G   UNL     1      -1.475   2.968  31.490  1.00  0.00     0.000 G0
ENDBRANCH  13  15
ENDBRANCH  12  13
BRANCH  12  17
ATOM     17  C   UNL     1      -2.098   0.851  27.129  1.00  0.00    -0.006 C 
ATOM     18  C   UNL     1      -1.259  -0.424  26.925  1.00  0.00     0.008 C 
ATOM     19  C   UNL     1      -3.408   0.712  26.331  1.00  0.00     0.008 C 
ENDBRANCH  12  17
ENDBRANCH  11  12
ENDBRANCH   1  11
TORSDOF 1
ENDMDL
MODEL 5
REMARK VINA RESULT:    -3.532     16.269     17.746
REMARK INTER + INTRA:          -5.427
REMARK INTER:                  -5.377
REMARK INTRA:                  -0.050
REMARK UNBOUND:                -0.036
REMARK SMILES CC1=CCC[C@@H](C)C(=O)C[C@H](C(C)C)C(=O)C1
REMARK SMILES IDX 8 1 9 2 6 3 7 4 5 5 4 6 3 7 2 8 1 9 10 11 11 12 15 13 16 14
REMARK SMILES IDX 17 15 12 17 13 18 14 19
REMARK H PARENT
REMARK Flexibility Score: 70.00
ROOT
ATOM      1  C   UNL     1     -13.399  10.868  21.384  1.00  0.00     0.136 C 
ATOM      2  O   UNL     1     -12.660  10.142  22.035  1.00  0.00    -0.299 OA
ENDROOT
BRANCH   1   3
ATOM      3  C   UNL     1     -14.738  11.286  21.958  1.00  0.00     0.053 C 
ATOM      4  C   UNL     1     -14.547  12.350  23.049  1.00  0.00     0.016 C 
BRANCH   3   5
ATOM      5  C   UNL     1     -15.489  10.054  22.513  1.00  0.00     0.015 C 
BRANCH   5   6
ATOM      6  C   UNL     1     -16.368   9.378  21.442  1.00  0.00     0.028 C 
BRANCH   6   7
ATOM      7  C   UNL     1     -15.681   8.176  20.846  1.00  0.00    -0.028 C 
ATOM      8  C   UNL     1     -15.014   8.164  19.671  1.00  0.00    -0.070 CG0
ATOM      9  C   UNL     1     -14.333   6.883  19.258  1.00  0.00     0.039 C 
ATOM     10  G   UNL     1     -14.907   9.375  18.757  1.00  0.00     0.000 G0
ENDBRANCH   6   7
ENDBRANCH   5   6
ENDBRANCH   3   5
ENDBRANCH   1   3
BRANCH   1  11
ATOM     11  C   UNL     1     -12.956  11.332  20.015  1.00  0.00     0.087 C 
BRANCH  11  12
ATOM     12  C   UNL     1     -12.424  10.169  19.138  1.00  0.00     0.066 C 
BRANCH  12  13
ATOM     13  C   UNL     1     -13.522   9.627  18.230  1.00  0.00     0.140 C 
ATOM     14  O   UNL     1     -13.273   9.453  17.045  1.00  0.00    -0.299 OA
BRANCH  13  15
ATOM     15  C   UNL     1     -14.925   9.366  18.734  1.00  0.00     0.106 CG0
ATOM     16  G   UNL     1     -14.987   8.169  19.670  1.00  0.00     0.000 G0
ENDBRANCH  13  15
ENDBRANCH  12  13
BRANCH  12  17
ATOM     17  C   UNL     1     -11.146  10.552  18.324  1.00  0.00    -0.006 C 
ATOM     18  C   UNL     1     -11.086  12.056  17.999  1.00  0.00     0.008 C 
ATOM     19  C   UNL     1      -9.867  10.162  19.089  1.00  0.00     0.008 C 
ENDBRANCH  12  17
ENDBRANCH  11  12
ENDBRANCH   1  11
TORSDOF 1
ENDMDL
MODEL 6
REMARK VINA RESULT:    -3.469      1.141      1.518
REMARK INTER + INTRA:          -5.330
REMARK INTER:                  -5.364
REMARK INTRA:                   0.033
REMARK UNBOUND:                -0.036
REMARK SMILES CC1=CCC[C@@H](C)C(=O)C[C@H](C(C)C)C(=O)C1
REMARK SMILES IDX 8 1 9 2 6 3 7 4 5 5 4 6 3 7 2 8 1 9 10 11 11 12 15 13 16 14
REMARK SMILES IDX 17 15 12 17 13 18 14 19
REMARK H PARENT
REMARK Flexibility Score: 70.00
ROOT
ATOM      1  C   UNL     1      -3.173   0.111  28.304  1.00  0.00     0.136 C 
ATOM      2  O   UNL     1      -3.142  -1.079  28.588  1.00  0.00    -0.299 OA
ENDROOT
BRANCH   1   3
ATOM      3  C   UNL     1      -2.400   0.616  27.102  1.00  0.00     0.053 C 
ATOM      4  C   UNL     1      -1.766  -0.556  26.339  1.00  0.00     0.016 C 
BRANCH   3   5
ATOM      5  C   UNL     1      -1.324   1.633  27.546  1.00  0.00     0.015 C 
BRANCH   5   6
ATOM      6  C   UNL     1      -1.764   3.090  27.297  1.00  0.00     0.028 C 
BRANCH   6   7
ATOM      7  C   UNL     1      -1.194   4.021  28.336  1.00  0.00    -0.028 C 
ATOM      8  C   UNL     1      -1.738   4.258  29.551  1.00  0.00    -0.070 CG0
ATOM      9  C   UNL     1      -0.996   5.177  30.490  1.00  0.00     0.039 C 
ATOM     10  G   UNL     1      -3.047   3.640  30.016  1.00  0.00     0.000 G0
ENDBRANCH   6   7
ENDBRANCH   5   6
ENDBRANCH   3   5
ENDBRANCH   1   3
BRANCH   1  11
ATOM     11  C   UNL     1      -3.985   1.052  29.164  1.00  0.00     0.087 C 
BRANCH  11  12
ATOM     12  C   UNL     1      -3.480   1.101  30.629  1.00  0.00     0.066 C 
BRANCH  12  13
ATOM     13  C   UNL     1      -2.846   2.452  30.941  1.00  0.00     0.140 C 
ATOM     14  O   UNL     1      -2.204   2.576  31.975  1.00  0.00    -0.299 OA
BRANCH  13  15
ATOM     15  C   UNL     1      -3.047   3.658  30.050  1.00  0.00     0.106 CG0
ATOM     16  G   UNL     1      -1.729   4.240  29.563  1.00  0.00     0.000 G0
ENDBRANCH  13  15
ENDBRANCH  12  13
BRANCH  12  17
ATOM     17  C   UNL     1      -4.587   0.734  31.670  1.00  0.00    -0.006 C 
ATOM     18  C   UNL     1      -5.815   1.657  31.571  1.00  0.00     0.008 C 
ATOM     19  C   UNL     1      -5.050  -0.724  31.492  1.00  0.00     0.008 C 
ENDBRANCH  12  17
ENDBRANCH  11  12
ENDBRANCH   1  11
TORSDOF 1
ENDMDL
MODEL 7
REMARK VINA RESULT:    -3.291     10.960     12.736
REMARK INTER + INTRA:          -5.059
REMARK INTER:                  -4.839
REMARK INTRA:                  -0.220
REMARK UNBOUND:                -0.036
REMARK SMILES CC1=CCC[C@@H](C)C(=O)C[C@H](C(C)C)C(=O)C1
REMARK SMILES IDX 8 1 9 2 6 3 7 4 5 5 4 6 3 7 2 8 1 9 10 11 11 12 15 13 16 14
REMARK SMILES IDX 17 15 12 17 13 18 14 19
REMARK H PARENT
REMARK Flexibility Score: 70.00
ROOT
ATOM      1  C   UNL     1     -10.852  10.128  31.271  1.00  0.00     0.136 C 
ATOM      2  O   UNL     1     -10.751  10.879  32.232  1.00  0.00    -0.299 OA
ENDROOT
BRANCH   1   3
ATOM      3  C   UNL     1     -11.337  10.672  29.942  1.00  0.00     0.053 C 
ATOM      4  C   UNL     1     -10.285  11.607  29.327  1.00  0.00     0.016 C 
BRANCH   3   5
ATOM      5  C   UNL     1     -12.687  11.402  30.122  1.00  0.00     0.015 C 
BRANCH   5   6
ATOM      6  C   UNL     1     -13.868  10.417  30.243  1.00  0.00     0.028 C 
BRANCH   6   7
ATOM      7  C   UNL     1     -13.828   9.375  29.156  1.00  0.00    -0.028 C 
ATOM      8  C   UNL     1     -13.818   8.038  29.359  1.00  0.00    -0.070 CG0
ATOM      9  C   UNL     1     -13.838   7.140  28.147  1.00  0.00     0.039 C 
ATOM     10  G   UNL     1     -13.797   7.402  30.740  1.00  0.00     0.000 G0
ENDBRANCH   6   7
ENDBRANCH   5   6
ENDBRANCH   3   5
ENDBRANCH   1   3
BRANCH   1  11
ATOM     11  C   UNL     1     -10.489   8.670  31.434  1.00  0.00     0.087 C 
BRANCH  11  12
ATOM     12  C   UNL     1     -11.595   7.862  32.161  1.00  0.00     0.066 C 
BRANCH  12  13
ATOM     13  C   UNL     1     -12.388   7.015  31.172  1.00  0.00     0.140 C 
ATOM     14  O   UNL     1     -11.851   6.035  30.674  1.00  0.00    -0.299 OA
BRANCH  13  15
ATOM     15  C   UNL     1     -13.787   7.390  30.736  1.00  0.00     0.106 CG0
ATOM     16  G   UNL     1     -13.809   8.027  29.356  1.00  0.00     0.000 G0
ENDBRANCH  13  15
ENDBRANCH  12  13
BRANCH  12  17
ATOM     17  C   UNL     1     -11.044   6.998  33.342  1.00  0.00    -0.006 C 
ATOM     18  C   UNL     1      -9.591   7.356  33.703  1.00  0.00     0.008 C 
ATOM     19  C   UNL     1     -11.919   7.161  34.599  1.00  0.00     0.008 C 
ENDBRANCH  12  17
ENDBRANCH  11  12
ENDBRANCH   1  11
TORSDOF 1
ENDMDL
MODEL 8
REMARK VINA RESULT:    -3.182      1.889      4.184
REMARK INTER + INTRA:          -4.893
REMARK INTER:                  -4.566
REMARK INTRA:                  -0.326
REMARK UNBOUND:                -0.036
REMARK SMILES CC1=CCC[C@@H](C)C(=O)C[C@H](C(C)C)C(=O)C1
REMARK SMILES IDX 8 1 9 2 6 3 7 4 5 5 4 6 3 7 2 8 1 9 10 11 11 12 15 13 16 14
REMARK SMILES IDX 17 15 12 17 13 18 14 19
REMARK H PARENT
REMARK Flexibility Score: 70.00
ROOT
ATOM      1  C   UNL     1      -1.435   2.287  27.388  1.00  0.00     0.136 C 
ATOM      2  O   UNL     1      -2.128   2.512  26.405  1.00  0.00    -0.299 OA
ENDROOT
BRANCH   1   3
ATOM      3  C   UNL     1      -1.209   0.857  27.836  1.00  0.00     0.053 C 
ATOM      4  C   UNL     1      -1.031  -0.066  26.621  1.00  0.00     0.016 C 
BRANCH   3   5
ATOM      5  C   UNL     1      -2.381   0.383  28.724  1.00  0.00     0.015 C 
BRANCH   5   6
ATOM      6  C   UNL     1      -2.096   0.595  30.225  1.00  0.00     0.028 C 
BRANCH   6   7
ATOM      7  C   UNL     1      -3.151   1.459  30.867  1.00  0.00    -0.028 C 
ATOM      8  C   UNL     1      -2.981   2.749  31.237  1.00  0.00    -0.070 CG0
ATOM      9  C   UNL     1      -4.168   3.480  31.812  1.00  0.00     0.039 C 
ATOM     10  G   UNL     1      -1.664   3.494  31.092  1.00  0.00     0.000 G0
ENDBRANCH   6   7
ENDBRANCH   5   6
ENDBRANCH   3   5
ENDBRANCH   1   3
BRANCH   1  11
ATOM     11  C   UNL     1      -0.819   3.448  28.135  1.00  0.00     0.087 C 
BRANCH  11  12
ATOM     12  C   UNL     1      -1.879   4.473  28.616  1.00  0.00     0.066 C 
BRANCH  12  13
ATOM     13  C   UNL     1      -1.791   4.679  30.124  1.00  0.00     0.140 C 
ATOM     14  O   UNL     1      -1.763   5.822  30.560  1.00  0.00    -0.299 OA
BRANCH  13  15
ATOM     15  C   UNL     1      -1.666   3.519  31.086  1.00  0.00     0.106 CG0
ATOM     16  G   UNL     1      -2.973   2.757  31.241  1.00  0.00     0.000 G0
ENDBRANCH  13  15
ENDBRANCH  12  13
BRANCH  12  17
ATOM     17  C   UNL     1      -1.807   5.832  27.847  1.00  0.00    -0.006 C 
ATOM     18  C   UNL     1      -0.474   6.014  27.098  1.00  0.00     0.008 C 
ATOM     19  C   UNL     1      -2.961   5.955  26.834  1.00  0.00     0.008 C 
ENDBRANCH  12  17
ENDBRANCH  11  12
ENDBRANCH   1  11
TORSDOF 1
ENDMDL
MODEL 9
REMARK VINA RESULT:    -3.108     16.630     17.754
REMARK INTER + INTRA:          -4.779
REMARK INTER:                  -4.503
REMARK INTRA:                  -0.276
REMARK UNBOUND:                -0.036
REMARK SMILES CC1=CCC[C@@H](C)C(=O)C[C@H](C(C)C)C(=O)C1
REMARK SMILES IDX 8 1 9 2 6 3 7 4 5 5 4 6 3 7 2 8 1 9 10 11 11 12 15 13 16 14
REMARK SMILES IDX 17 15 12 17 13 18 14 19
REMARK H PARENT
REMARK Flexibility Score: 70.00
ROOT
ATOM      1  C   UNL     1     -14.102  10.262  21.181  1.00  0.00     0.136 C 
ATOM      2  O   UNL     1     -14.319  11.370  21.654  1.00  0.00    -0.299 OA
ENDROOT
BRANCH   1   3
ATOM      3  C   UNL     1     -13.396  10.141  19.846  1.00  0.00     0.053 C 
ATOM      4  C   UNL     1     -12.508  11.369  19.593  1.00  0.00     0.016 C 
BRANCH   3   5
ATOM      5  C   UNL     1     -14.428   9.962  18.710  1.00  0.00     0.015 C 
BRANCH   5   6
ATOM      6  C   UNL     1     -14.543   8.492  18.255  1.00  0.00     0.028 C 
BRANCH   6   7
ATOM      7  C   UNL     1     -15.983   8.064  18.139  1.00  0.00    -0.028 C 
ATOM      8  C   UNL     1     -16.681   7.415  19.098  1.00  0.00    -0.070 CG0
ATOM      9  C   UNL     1     -18.136   7.117  18.833  1.00  0.00     0.039 C 
ATOM     10  G   UNL     1     -16.077   6.983  20.425  1.00  0.00     0.000 G0
ENDBRANCH   6   7
ENDBRANCH   5   6
ENDBRANCH   3   5
ENDBRANCH   1   3
BRANCH   1  11
ATOM     11  C   UNL     1     -14.544   9.036  21.946  1.00  0.00     0.087 C 
BRANCH  11  12
ATOM     12  C   UNL     1     -16.079   8.994  22.163  1.00  0.00     0.066 C 
BRANCH  12  13
ATOM     13  C   UNL     1     -16.671   7.700  21.617  1.00  0.00     0.140 C 
ATOM     14  O   UNL     1     -17.629   7.203  22.193  1.00  0.00    -0.299 OA
BRANCH  13  15
ATOM     15  C   UNL     1     -16.066   6.978  20.433  1.00  0.00     0.106 CG0
ATOM     16  G   UNL     1     -16.687   7.414  19.115  1.00  0.00     0.000 G0
ENDBRANCH  13  15
ENDBRANCH  12  13
BRANCH  12  17
ATOM     17  C   UNL     1     -16.492   9.230  23.653  1.00  0.00    -0.006 C 
ATOM     18  C   UNL     1     -15.275   9.350  24.587  1.00  0.00     0.008 C 
ATOM     19  C   UNL     1     -17.350  10.501  23.793  1.00  0.00     0.008 C 
ENDBRANCH  12  17
ENDBRANCH  11  12
ENDBRANCH   1  11
TORSDOF 1
ENDMDL
