MODEL 1
REMARK VINA RESULT:    -6.114      0.000      0.000
REMARK INTER + INTRA:          -7.923
REMARK INTER:                  -7.543
REMARK INTRA:                  -0.380
REMARK UNBOUND:                -0.380
REMARK SMILES Oc1cc(O)c2cc(O)c(-c3cc(O)c(O)c(O)c3)[o+]c2c1
REMARK SMILES IDX 10 1 20 2 21 3 22 4 2 5 3 6 4 7 6 8 7 9 8 10 11 11 12 12
REMARK SMILES IDX 13 13 19 14 15 15 17 16 14 17 16 19 18 21 9 23 1 25 5 27
REMARK H PARENT 14 18 16 20 18 22 9 24 1 26 5 28
REMARK Flexibility Score: inf
ROOT
ATOM      1  C   UNL     1     -63.255 -56.872  31.007  1.00  0.00     0.402 A 
ATOM      2  O   UNL     1     -62.180 -56.803  31.787  1.00  0.00    -0.202 OA
ATOM      3  C   UNL     1     -62.241 -56.580  33.096  1.00  0.00     0.368 A 
ATOM      4  C   UNL     1     -61.054 -56.528  33.833  1.00  0.00     0.162 A 
ATOM      5  C   UNL     1     -61.090 -56.299  35.211  1.00  0.00     0.128 A 
ATOM      6  C   UNL     1     -62.317 -56.121  35.856  1.00  0.00     0.093 A 
ATOM      7  C   UNL     1     -63.519 -56.170  35.140  1.00  0.00     0.136 A 
ATOM      8  C   UNL     1     -63.488 -56.400  33.740  1.00  0.00     0.125 A 
ATOM      9  C   UNL     1     -64.642 -56.451  32.940  1.00  0.00     0.078 A 
ATOM     10  C   UNL     1     -64.533 -56.677  31.564  1.00  0.00     0.223 A 
ENDROOT
BRANCH   1  11
ATOM     11  C   UNL     1     -63.058 -57.135  29.563  1.00  0.00     0.091 A 
ATOM     12  C   UNL     1     -63.116 -58.452  29.087  1.00  0.00     0.068 A 
ATOM     13  C   UNL     1     -62.954 -58.735  27.726  1.00  0.00     0.162 A 
ATOM     14  C   UNL     1     -62.871 -56.088  28.649  1.00  0.00     0.068 A 
ATOM     15  C   UNL     1     -62.743 -57.675  26.812  1.00  0.00     0.200 A 
ATOM     16  C   UNL     1     -62.709 -56.351  27.286  1.00  0.00     0.162 A 
BRANCH  13  17
ATOM     17  O   UNL     1     -63.013 -60.074  27.331  1.00  0.00    -0.504 OA
ATOM     18  H   UNL     1     -62.228 -60.591  26.963  1.00  0.00     0.293 HD
ENDBRANCH  13  17
BRANCH  15  19
ATOM     19  O   UNL     1     -62.568 -57.896  25.443  1.00  0.00    -0.502 OA
ATOM     20  H   UNL     1     -61.945 -58.589  25.055  1.00  0.00     0.293 HD
ENDBRANCH  15  19
BRANCH  16  21
ATOM     21  O   UNL     1     -62.519 -55.279  26.414  1.00  0.00    -0.504 OA
ATOM     22  H   UNL     1     -63.136 -55.102  25.631  1.00  0.00     0.293 HD
ENDBRANCH  16  21
ENDBRANCH   1  11
BRANCH  10  23
ATOM     23  O   UNL     1     -65.674 -56.679  30.762  1.00  0.00    -0.500 OA
ATOM     24  H   UNL     1     -65.750 -57.272  29.945  1.00  0.00     0.294 HD
ENDBRANCH  10  23
BRANCH   5  25
ATOM     25  O   UNL     1     -59.911 -56.246  35.952  1.00  0.00    -0.507 OA
ATOM     26  H   UNL     1     -59.065 -55.837  35.572  1.00  0.00     0.293 HD
ENDBRANCH   5  25
BRANCH   7  27
ATOM     27  O   UNL     1     -64.703 -55.987  35.859  1.00  0.00    -0.507 OA
ATOM     28  H   UNL     1     -65.265 -55.148  35.829  1.00  0.00     0.293 HD
ENDBRANCH   7  27
TORSDOF 7
ENDMDL
MODEL 2
REMARK VINA RESULT:    -6.105      0.105      1.808
REMARK INTER + INTRA:          -7.913
REMARK INTER:                  -7.529
REMARK INTRA:                  -0.383
REMARK UNBOUND:                -0.380
REMARK SMILES Oc1cc(O)c2cc(O)c(-c3cc(O)c(O)c(O)c3)[o+]c2c1
REMARK SMILES IDX 10 1 20 2 21 3 22 4 2 5 3 6 4 7 6 8 7 9 8 10 11 11 12 12
REMARK SMILES IDX 13 13 19 14 15 15 17 16 14 17 16 19 18 21 9 23 1 25 5 27
REMARK H PARENT 14 18 16 20 18 22 9 24 1 26 5 28
REMARK Flexibility Score: inf
ROOT
ATOM      1  C   UNL     1     -63.356 -56.846  30.988  1.00  0.00     0.402 A 
ATOM      2  O   UNL     1     -62.281 -56.816  31.772  1.00  0.00    -0.202 OA
ATOM      3  C   UNL     1     -62.338 -56.576  33.078  1.00  0.00     0.368 A 
ATOM      4  C   UNL     1     -61.153 -56.568  33.820  1.00  0.00     0.162 A 
ATOM      5  C   UNL     1     -61.183 -56.322  35.195  1.00  0.00     0.128 A 
ATOM      6  C   UNL     1     -62.404 -56.081  35.832  1.00  0.00     0.093 A 
ATOM      7  C   UNL     1     -63.604 -56.085  35.111  1.00  0.00     0.136 A 
ATOM      8  C   UNL     1     -63.578 -56.332  33.714  1.00  0.00     0.125 A 
ATOM      9  C   UNL     1     -64.730 -56.341  32.910  1.00  0.00     0.078 A 
ATOM     10  C   UNL     1     -64.626 -56.588  31.537  1.00  0.00     0.223 A 
ENDROOT
BRANCH   1  11
ATOM     11  C   UNL     1     -63.164 -57.135  29.547  1.00  0.00     0.091 A 
ATOM     12  C   UNL     1     -62.904 -56.080  28.662  1.00  0.00     0.068 A 
ATOM     13  C   UNL     1     -62.698 -56.318  27.299  1.00  0.00     0.162 A 
ATOM     14  C   UNL     1     -63.180 -58.449  29.058  1.00  0.00     0.068 A 
ATOM     15  C   UNL     1     -62.738 -57.645  26.806  1.00  0.00     0.200 A 
ATOM     16  C   UNL     1     -62.975 -58.705  27.699  1.00  0.00     0.162 A 
BRANCH  13  17
ATOM     17  O   UNL     1     -62.456 -55.215  26.477  1.00  0.00    -0.504 OA
ATOM     18  H   UNL     1     -62.752 -54.273  26.690  1.00  0.00     0.293 HD
ENDBRANCH  13  17
BRANCH  15  19
ATOM     19  O   UNL     1     -62.547 -57.944  25.454  1.00  0.00    -0.502 OA
ATOM     20  H   UNL     1     -62.411 -58.877  25.093  1.00  0.00     0.293 HD
ENDBRANCH  15  19
BRANCH  16  21
ATOM     21  O   UNL     1     -63.006 -60.028  27.254  1.00  0.00    -0.504 OA
ATOM     22  H   UNL     1     -63.788 -60.643  27.441  1.00  0.00     0.293 HD
ENDBRANCH  16  21
ENDBRANCH   1  11
BRANCH  10  23
ATOM     23  O   UNL     1     -65.762 -56.548  30.730  1.00  0.00    -0.500 OA
ATOM     24  H   UNL     1     -66.445 -55.804  30.809  1.00  0.00     0.294 HD
ENDBRANCH  10  23
BRANCH   5  25
ATOM     25  O   UNL     1     -60.006 -56.312  35.940  1.00  0.00    -0.507 OA
ATOM     26  H   UNL     1     -59.230 -56.922  35.712  1.00  0.00     0.293 HD
ENDBRANCH   5  25
BRANCH   7  27
ATOM     27  O   UNL     1     -64.782 -55.840  35.823  1.00  0.00    -0.507 OA
ATOM     28  H   UNL     1     -65.610 -55.416  35.429  1.00  0.00     0.293 HD
ENDBRANCH   7  27
TORSDOF 7
ENDMDL
MODEL 3
REMARK VINA RESULT:    -5.747      7.460     12.170
REMARK INTER + INTRA:          -7.471
REMARK INTER:                  -7.390
REMARK INTRA:                  -0.081
REMARK UNBOUND:                -0.380
REMARK SMILES Oc1cc(O)c2cc(O)c(-c3cc(O)c(O)c(O)c3)[o+]c2c1
REMARK SMILES IDX 10 1 20 2 21 3 22 4 2 5 3 6 4 7 6 8 7 9 8 10 11 11 12 12
REMARK SMILES IDX 13 13 19 14 15 15 17 16 14 17 16 19 18 21 9 23 1 25 5 27
REMARK H PARENT 14 18 16 20 18 22 9 24 1 26 5 28
REMARK Flexibility Score: inf
ROOT
ATOM      1  C   UNL     1     -57.568 -50.356  37.002  1.00  0.00     0.402 A 
ATOM      2  O   UNL     1     -58.217 -51.384  36.462  1.00  0.00    -0.202 OA
ATOM      3  C   UNL     1     -58.715 -51.367  35.230  1.00  0.00     0.368 A 
ATOM      4  C   UNL     1     -59.380 -52.498  34.749  1.00  0.00     0.162 A 
ATOM      5  C   UNL     1     -59.909 -52.509  33.456  1.00  0.00     0.128 A 
ATOM      6  C   UNL     1     -59.774 -51.383  32.639  1.00  0.00     0.093 A 
ATOM      7  C   UNL     1     -59.112 -50.237  33.097  1.00  0.00     0.136 A 
ATOM      8  C   UNL     1     -58.574 -50.221  34.410  1.00  0.00     0.125 A 
ATOM      9  C   UNL     1     -57.908 -49.112  34.959  1.00  0.00     0.078 A 
ATOM     10  C   UNL     1     -57.409 -49.168  36.264  1.00  0.00     0.223 A 
ENDROOT
BRANCH   1  11
ATOM     11  C   UNL     1     -57.052 -50.501  38.383  1.00  0.00     0.091 A 
ATOM     12  C   UNL     1     -57.879 -51.043  39.376  1.00  0.00     0.068 A 
ATOM     13  C   UNL     1     -57.418 -51.212  40.685  1.00  0.00     0.162 A 
ATOM     14  C   UNL     1     -55.730 -50.160  38.708  1.00  0.00     0.068 A 
ATOM     15  C   UNL     1     -56.090 -50.845  41.013  1.00  0.00     0.200 A 
ATOM     16  C   UNL     1     -55.252 -50.324  40.010  1.00  0.00     0.162 A 
BRANCH  13  17
ATOM     17  O   UNL     1     -58.306 -51.747  41.622  1.00  0.00    -0.504 OA
ATOM     18  H   UNL     1     -59.252 -51.423  41.756  1.00  0.00     0.293 HD
ENDBRANCH  13  17
BRANCH  15  19
ATOM     19  O   UNL     1     -55.575 -50.985  42.304  1.00  0.00    -0.502 OA
ATOM     20  H   UNL     1     -55.931 -51.635  42.990  1.00  0.00     0.293 HD
ENDBRANCH  15  19
BRANCH  16  21
ATOM     21  O   UNL     1     -53.933 -49.966  40.290  1.00  0.00    -0.504 OA
ATOM     22  H   UNL     1     -53.166 -50.624  40.218  1.00  0.00     0.293 HD
ENDBRANCH  16  21
ENDBRANCH   1  11
BRANCH  10  23
ATOM     23  O   UNL     1     -56.791 -48.051  36.825  1.00  0.00    -0.500 OA
ATOM     24  H   UNL     1     -57.299 -47.399  37.409  1.00  0.00     0.294 HD
ENDBRANCH  10  23
BRANCH   5  25
ATOM     25  O   UNL     1     -60.573 -53.634  32.970  1.00  0.00    -0.507 OA
ATOM     26  H   UNL     1     -60.173 -54.210  32.239  1.00  0.00     0.293 HD
ENDBRANCH   5  25
BRANCH   7  27
ATOM     27  O   UNL     1     -59.017 -49.155  32.218  1.00  0.00    -0.507 OA
ATOM     28  H   UNL     1     -58.527 -49.179  31.334  1.00  0.00     0.293 HD
ENDBRANCH   7  27
TORSDOF 7
ENDMDL
MODEL 4
REMARK VINA RESULT:    -5.673      8.482     12.952
REMARK INTER + INTRA:          -7.379
REMARK INTER:                  -7.054
REMARK INTRA:                  -0.325
REMARK UNBOUND:                -0.380
REMARK SMILES Oc1cc(O)c2cc(O)c(-c3cc(O)c(O)c(O)c3)[o+]c2c1
REMARK SMILES IDX 10 1 20 2 21 3 22 4 2 5 3 6 4 7 6 8 7 9 8 10 11 11 12 12
REMARK SMILES IDX 13 13 19 14 15 15 17 16 14 17 16 19 18 21 9 23 1 25 5 27
REMARK H PARENT 14 18 16 20 18 22 9 24 1 26 5 28
REMARK Flexibility Score: inf
ROOT
ATOM      1  C   UNL     1     -57.196 -49.364  37.100  1.00  0.00     0.402 A 
ATOM      2  O   UNL     1     -57.372 -50.239  36.113  1.00  0.00    -0.202 OA
ATOM      3  C   UNL     1     -57.739 -49.888  34.885  1.00  0.00     0.368 A 
ATOM      4  C   UNL     1     -57.896 -50.880  33.913  1.00  0.00     0.162 A 
ATOM      5  C   UNL     1     -58.277 -50.540  32.612  1.00  0.00     0.128 A 
ATOM      6  C   UNL     1     -58.503 -49.201  32.281  1.00  0.00     0.093 A 
ATOM      7  C   UNL     1     -58.351 -48.189  33.236  1.00  0.00     0.136 A 
ATOM      8  C   UNL     1     -57.967 -48.530  34.559  1.00  0.00     0.125 A 
ATOM      9  C   UNL     1     -57.805 -47.583  35.585  1.00  0.00     0.078 A 
ATOM     10  C   UNL     1     -57.428 -47.995  36.867  1.00  0.00     0.223 A 
ENDROOT
BRANCH   1  11
ATOM     11  C   UNL     1     -56.777 -49.877  38.425  1.00  0.00     0.091 A 
ATOM     12  C   UNL     1     -55.456 -49.686  38.852  1.00  0.00     0.068 A 
ATOM     13  C   UNL     1     -55.031 -50.139  40.106  1.00  0.00     0.162 A 
ATOM     14  C   UNL     1     -57.689 -50.501  39.288  1.00  0.00     0.068 A 
ATOM     15  C   UNL     1     -55.951 -50.788  40.964  1.00  0.00     0.200 A 
ATOM     16  C   UNL     1     -57.283 -50.959  40.544  1.00  0.00     0.162 A 
BRANCH  13  17
ATOM     17  O   UNL     1     -53.696 -49.922  40.455  1.00  0.00    -0.504 OA
ATOM     18  H   UNL     1     -53.399 -49.349  41.231  1.00  0.00     0.293 HD
ENDBRANCH  13  17
BRANCH  15  19
ATOM     19  O   UNL     1     -55.584 -51.269  42.223  1.00  0.00    -0.502 OA
ATOM     20  H   UNL     1     -56.212 -51.742  42.856  1.00  0.00     0.293 HD
ENDBRANCH  15  19
BRANCH  16  21
ATOM     21  O   UNL     1     -58.223 -51.580  41.368  1.00  0.00    -0.504 OA
ATOM     22  H   UNL     1     -59.212 -51.584  41.153  1.00  0.00     0.293 HD
ENDBRANCH  16  21
ENDBRANCH   1  11
BRANCH  10  23
ATOM     23  O   UNL     1     -57.315 -47.062  37.897  1.00  0.00    -0.500 OA
ATOM     24  H   UNL     1     -57.902 -47.106  38.722  1.00  0.00     0.294 HD
ENDBRANCH  10  23
BRANCH   5  25
ATOM     25  O   UNL     1     -58.436 -51.524  31.638  1.00  0.00    -0.507 OA
ATOM     26  H   UNL     1     -59.353 -51.859  31.369  1.00  0.00     0.293 HD
ENDBRANCH   5  25
BRANCH   7  27
ATOM     27  O   UNL     1     -58.592 -46.875  32.824  1.00  0.00    -0.507 OA
ATOM     28  H   UNL     1     -59.343 -46.296  33.172  1.00  0.00     0.293 HD
ENDBRANCH   7  27
TORSDOF 7
ENDMDL
MODEL 5
REMARK VINA RESULT:    -5.607      7.439     12.197
REMARK INTER + INTRA:          -7.298
REMARK INTER:                  -7.300
REMARK INTRA:                   0.002
REMARK UNBOUND:                -0.380
REMARK SMILES Oc1cc(O)c2cc(O)c(-c3cc(O)c(O)c(O)c3)[o+]c2c1
REMARK SMILES IDX 10 1 20 2 21 3 22 4 2 5 3 6 4 7 6 8 7 9 8 10 11 11 12 12
REMARK SMILES IDX 13 13 19 14 15 15 17 16 14 17 16 19 18 21 9 23 1 25 5 27
REMARK H PARENT 14 18 16 20 18 22 9 24 1 26 5 28
REMARK Flexibility Score: inf
ROOT
ATOM      1  C   UNL     1     -57.601 -50.390  36.918  1.00  0.00     0.402 A 
ATOM      2  O   UNL     1     -58.249 -51.408  36.357  1.00  0.00    -0.202 OA
ATOM      3  C   UNL     1     -58.743 -51.367  35.124  1.00  0.00     0.368 A 
ATOM      4  C   UNL     1     -59.407 -52.489  34.620  1.00  0.00     0.162 A 
ATOM      5  C   UNL     1     -59.932 -52.475  33.325  1.00  0.00     0.128 A 
ATOM      6  C   UNL     1     -59.795 -51.333  32.531  1.00  0.00     0.093 A 
ATOM      7  C   UNL     1     -59.134 -50.197  33.013  1.00  0.00     0.136 A 
ATOM      8  C   UNL     1     -58.600 -50.206  34.327  1.00  0.00     0.125 A 
ATOM      9  C   UNL     1     -57.935 -49.108  34.898  1.00  0.00     0.078 A 
ATOM     10  C   UNL     1     -57.439 -49.189  36.203  1.00  0.00     0.223 A 
ENDROOT
BRANCH   1  11
ATOM     11  C   UNL     1     -57.088 -50.561  38.298  1.00  0.00     0.091 A 
ATOM     12  C   UNL     1     -55.786 -50.144  38.606  1.00  0.00     0.068 A 
ATOM     13  C   UNL     1     -55.276 -50.272  39.903  1.00  0.00     0.162 A 
ATOM     14  C   UNL     1     -57.899 -51.078  39.319  1.00  0.00     0.068 A 
ATOM     15  C   UNL     1     -56.092 -50.816  40.925  1.00  0.00     0.200 A 
ATOM     16  C   UNL     1     -57.407 -51.211  40.620  1.00  0.00     0.162 A 
BRANCH  13  17
ATOM     17  O   UNL     1     -53.966 -49.845  40.130  1.00  0.00    -0.504 OA
ATOM     18  H   UNL     1     -53.452 -49.237  39.509  1.00  0.00     0.293 HD
ENDBRANCH  13  17
BRANCH  15  19
ATOM     19  O   UNL     1     -55.636 -50.974  42.236  1.00  0.00    -0.502 OA
ATOM     20  H   UNL     1     -56.236 -50.985  43.048  1.00  0.00     0.293 HD
ENDBRANCH  15  19
BRANCH  16  21
ATOM     21  O   UNL     1     -58.246 -51.737  41.604  1.00  0.00    -0.504 OA
ATOM     22  H   UNL     1     -58.665 -51.161  42.322  1.00  0.00     0.293 HD
ENDBRANCH  16  21
ENDBRANCH   1  11
BRANCH  10  23
ATOM     23  O   UNL     1     -56.822 -48.083  36.788  1.00  0.00    -0.500 OA
ATOM     24  H   UNL     1     -56.948 -47.147  36.420  1.00  0.00     0.294 HD
ENDBRANCH  10  23
BRANCH   5  25
ATOM     25  O   UNL     1     -60.595 -53.590  32.816  1.00  0.00    -0.507 OA
ATOM     26  H   UNL     1     -61.159 -54.187  33.409  1.00  0.00     0.293 HD
ENDBRANCH   5  25
BRANCH   7  27
ATOM     27  O   UNL     1     -59.036 -49.098  32.154  1.00  0.00    -0.507 OA
ATOM     28  H   UNL     1     -58.589 -48.224  32.394  1.00  0.00     0.293 HD
ENDBRANCH   7  27
TORSDOF 7
ENDMDL
MODEL 6
REMARK VINA RESULT:    -5.478      5.461     10.548
REMARK INTER + INTRA:          -7.138
REMARK INTER:                  -6.988
REMARK INTRA:                  -0.150
REMARK UNBOUND:                -0.380
REMARK SMILES Oc1cc(O)c2cc(O)c(-c3cc(O)c(O)c(O)c3)[o+]c2c1
REMARK SMILES IDX 10 1 20 2 21 3 22 4 2 5 3 6 4 7 6 8 7 9 8 10 11 11 12 12
REMARK SMILES IDX 13 13 19 14 15 15 17 16 14 17 16 19 18 21 9 23 1 25 5 27
REMARK H PARENT 14 18 16 20 18 22 9 24 1 26 5 28
REMARK Flexibility Score: inf
ROOT
ATOM      1  C   UNL     1     -59.074 -52.474  36.879  1.00  0.00     0.402 A 
ATOM      2  O   UNL     1     -59.568 -53.709  36.870  1.00  0.00    -0.202 OA
ATOM      3  C   UNL     1     -60.199 -54.235  35.825  1.00  0.00     0.368 A 
ATOM      4  C   UNL     1     -60.681 -55.544  35.911  1.00  0.00     0.162 A 
ATOM      5  C   UNL     1     -61.344 -56.123  34.826  1.00  0.00     0.128 A 
ATOM      6  C   UNL     1     -61.528 -55.390  33.650  1.00  0.00     0.093 A 
ATOM      7  C   UNL     1     -61.053 -54.078  33.539  1.00  0.00     0.136 A 
ATOM      8  C   UNL     1     -60.381 -53.484  34.639  1.00  0.00     0.125 A 
ATOM      9  C   UNL     1     -59.884 -52.170  34.623  1.00  0.00     0.078 A 
ATOM     10  C   UNL     1     -59.236 -51.651  35.748  1.00  0.00     0.223 A 
ENDROOT
BRANCH   1  11
ATOM     11  C   UNL     1     -58.383 -52.004  38.102  1.00  0.00     0.091 A 
ATOM     12  C   UNL     1     -59.021 -52.124  39.344  1.00  0.00     0.068 A 
ATOM     13  C   UNL     1     -58.390 -51.710  40.522  1.00  0.00     0.162 A 
ATOM     14  C   UNL     1     -57.077 -51.494  38.053  1.00  0.00     0.068 A 
ATOM     15  C   UNL     1     -57.081 -51.174  40.463  1.00  0.00     0.200 A 
ATOM     16  C   UNL     1     -56.431 -51.076  39.220  1.00  0.00     0.162 A 
BRANCH  13  17
ATOM     17  O   UNL     1     -59.095 -51.851  41.720  1.00  0.00    -0.504 OA
ATOM     18  H   UNL     1     -59.553 -51.090  42.201  1.00  0.00     0.293 HD
ENDBRANCH  13  17
BRANCH  15  19
ATOM     19  O   UNL     1     -56.403 -50.737  41.604  1.00  0.00    -0.502 OA
ATOM     20  H   UNL     1     -55.712 -51.283  42.098  1.00  0.00     0.293 HD
ENDBRANCH  15  19
BRANCH  16  21
ATOM     21  O   UNL     1     -55.135 -50.568  39.123  1.00  0.00    -0.504 OA
ATOM     22  H   UNL     1     -54.901 -49.795  38.513  1.00  0.00     0.293 HD
ENDBRANCH  16  21
ENDBRANCH   1  11
BRANCH  10  23
ATOM     23  O   UNL     1     -58.787 -50.331  35.751  1.00  0.00    -0.500 OA
ATOM     24  H   UNL     1     -59.035 -49.683  35.013  1.00  0.00     0.294 HD
ENDBRANCH  10  23
BRANCH   5  25
ATOM     25  O   UNL     1     -61.828 -57.428  34.904  1.00  0.00    -0.507 OA
ATOM     26  H   UNL     1     -61.711 -58.082  34.139  1.00  0.00     0.293 HD
ENDBRANCH   5  25
BRANCH   7  27
ATOM     27  O   UNL     1     -61.273 -53.415  32.329  1.00  0.00    -0.507 OA
ATOM     28  H   UNL     1     -61.581 -53.865  31.479  1.00  0.00     0.293 HD
ENDBRANCH   7  27
TORSDOF 7
ENDMDL
MODEL 7
REMARK VINA RESULT:    -5.375      6.947      9.479
REMARK INTER + INTRA:          -7.012
REMARK INTER:                  -7.164
REMARK INTRA:                   0.152
REMARK UNBOUND:                -0.380
REMARK SMILES Oc1cc(O)c2cc(O)c(-c3cc(O)c(O)c(O)c3)[o+]c2c1
REMARK SMILES IDX 10 1 20 2 21 3 22 4 2 5 3 6 4 7 6 8 7 9 8 10 11 11 12 12
REMARK SMILES IDX 13 13 19 14 15 15 17 16 14 17 16 19 18 21 9 23 1 25 5 27
REMARK H PARENT 14 18 16 20 18 22 9 24 1 26 5 28
REMARK Flexibility Score: inf
ROOT
ATOM      1  C   UNL     1     -58.366 -51.304  36.464  1.00  0.00     0.402 A 
ATOM      2  O   UNL     1     -57.189 -50.930  36.957  1.00  0.00    -0.202 OA
ATOM      3  C   UNL     1     -56.900 -50.957  38.254  1.00  0.00     0.368 A 
ATOM      4  C   UNL     1     -55.632 -50.547  38.677  1.00  0.00     0.162 A 
ATOM      5  C   UNL     1     -55.300 -50.570  40.034  1.00  0.00     0.128 A 
ATOM      6  C   UNL     1     -56.239 -51.003  40.973  1.00  0.00     0.093 A 
ATOM      7  C   UNL     1     -57.515 -51.420  40.575  1.00  0.00     0.136 A 
ATOM      8  C   UNL     1     -57.858 -51.397  39.198  1.00  0.00     0.125 A 
ATOM      9  C   UNL     1     -59.118 -51.783  38.709  1.00  0.00     0.078 A 
ATOM     10  C   UNL     1     -59.384 -51.729  37.338  1.00  0.00     0.223 A 
ENDROOT
BRANCH   1  11
ATOM     11  C   UNL     1     -58.565 -51.237  34.997  1.00  0.00     0.091 A 
ATOM     12  C   UNL     1     -57.839 -50.303  34.245  1.00  0.00     0.068 A 
ATOM     13  C   UNL     1     -57.985 -50.226  32.856  1.00  0.00     0.162 A 
ATOM     14  C   UNL     1     -59.422 -52.128  34.335  1.00  0.00     0.068 A 
ATOM     15  C   UNL     1     -58.870 -51.112  32.195  1.00  0.00     0.200 A 
ATOM     16  C   UNL     1     -59.580 -52.065  32.948  1.00  0.00     0.162 A 
BRANCH  13  17
ATOM     17  O   UNL     1     -57.237 -49.261  32.177  1.00  0.00    -0.504 OA
ATOM     18  H   UNL     1     -56.744 -49.431  31.313  1.00  0.00     0.293 HD
ENDBRANCH  13  17
BRANCH  15  19
ATOM     19  O   UNL     1     -59.064 -51.078  30.812  1.00  0.00    -0.502 OA
ATOM     20  H   UNL     1     -59.492 -51.822  30.280  1.00  0.00     0.293 HD
ENDBRANCH  15  19
BRANCH  16  21
ATOM     21  O   UNL     1     -60.449 -52.967  32.331  1.00  0.00    -0.504 OA
ATOM     22  H   UNL     1     -60.176 -53.519  31.528  1.00  0.00     0.293 HD
ENDBRANCH  16  21
ENDBRANCH   1  11
BRANCH  10  23
ATOM     23  O   UNL     1     -60.650 -52.065  36.857  1.00  0.00    -0.500 OA
ATOM     24  H   UNL     1     -61.149 -52.878  37.195  1.00  0.00     0.294 HD
ENDBRANCH  10  23
BRANCH   5  25
ATOM     25  O   UNL     1     -54.038 -50.162  40.463  1.00  0.00    -0.507 OA
ATOM     26  H   UNL     1     -53.392 -50.810  40.896  1.00  0.00     0.293 HD
ENDBRANCH   5  25
BRANCH   7  27
ATOM     27  O   UNL     1     -58.395 -51.843  41.576  1.00  0.00    -0.507 OA
ATOM     28  H   UNL     1     -58.567 -51.339  42.434  1.00  0.00     0.293 HD
ENDBRANCH   7  27
TORSDOF 7
ENDMDL
MODEL 8
REMARK VINA RESULT:    -5.305      7.150     11.410
REMARK INTER + INTRA:          -6.925
REMARK INTER:                  -6.652
REMARK INTRA:                  -0.273
REMARK UNBOUND:                -0.380
REMARK SMILES Oc1cc(O)c2cc(O)c(-c3cc(O)c(O)c(O)c3)[o+]c2c1
REMARK SMILES IDX 10 1 20 2 21 3 22 4 2 5 3 6 4 7 6 8 7 9 8 10 11 11 12 12
REMARK SMILES IDX 13 13 19 14 15 15 17 16 14 17 16 19 18 21 9 23 1 25 5 27
REMARK H PARENT 14 18 16 20 18 22 9 24 1 26 5 28
REMARK Flexibility Score: inf
ROOT
ATOM      1  C   UNL     1     -59.096 -52.238  39.394  1.00  0.00     0.402 A 
ATOM      2  O   UNL     1     -59.375 -53.113  38.431  1.00  0.00    -0.202 OA
ATOM      3  C   UNL     1     -60.438 -53.910  38.456  1.00  0.00     0.368 A 
ATOM      4  C   UNL     1     -60.649 -54.796  37.395  1.00  0.00     0.162 A 
ATOM      5  C   UNL     1     -61.760 -55.643  37.393  1.00  0.00     0.128 A 
ATOM      6  C   UNL     1     -62.665 -55.605  38.457  1.00  0.00     0.093 A 
ATOM      7  C   UNL     1     -62.477 -54.726  39.531  1.00  0.00     0.136 A 
ATOM      8  C   UNL     1     -61.349 -53.865  39.538  1.00  0.00     0.125 A 
ATOM      9  C   UNL     1     -61.073 -52.963  40.579  1.00  0.00     0.078 A 
ATOM     10  C   UNL     1     -59.937 -52.149  40.519  1.00  0.00     0.223 A 
ENDROOT
BRANCH   1  11
ATOM     11  C   UNL     1     -57.885 -51.397  39.247  1.00  0.00     0.091 A 
ATOM     12  C   UNL     1     -57.879 -50.354  38.311  1.00  0.00     0.068 A 
ATOM     13  C   UNL     1     -56.760 -49.527  38.161  1.00  0.00     0.162 A 
ATOM     14  C   UNL     1     -56.763 -51.585  40.067  1.00  0.00     0.068 A 
ATOM     15  C   UNL     1     -55.621 -49.736  38.975  1.00  0.00     0.200 A 
ATOM     16  C   UNL     1     -55.637 -50.768  39.931  1.00  0.00     0.162 A 
BRANCH  13  17
ATOM     17  O   UNL     1     -56.825 -48.517  37.198  1.00  0.00    -0.504 OA
ATOM     18  H   UNL     1     -57.094 -48.666  36.237  1.00  0.00     0.293 HD
ENDBRANCH  13  17
BRANCH  15  19
ATOM     19  O   UNL     1     -54.472 -48.948  38.866  1.00  0.00    -0.502 OA
ATOM     20  H   UNL     1     -53.530 -49.306  38.933  1.00  0.00     0.293 HD
ENDBRANCH  15  19
BRANCH  16  21
ATOM     21  O   UNL     1     -54.540 -50.995  40.763  1.00  0.00    -0.504 OA
ATOM     22  H   UNL     1     -54.441 -50.544  41.664  1.00  0.00     0.293 HD
ENDBRANCH  16  21
ENDBRANCH   1  11
BRANCH  10  23
ATOM     23  O   UNL     1     -59.636 -51.289  41.574  1.00  0.00    -0.500 OA
ATOM     24  H   UNL     1     -59.822 -50.294  41.520  1.00  0.00     0.294 HD
ENDBRANCH  10  23
BRANCH   5  25
ATOM     25  O   UNL     1     -61.976 -56.528  36.339  1.00  0.00    -0.507 OA
ATOM     26  H   UNL     1     -62.001 -56.210  35.378  1.00  0.00     0.293 HD
ENDBRANCH   5  25
BRANCH   7  27
ATOM     27  O   UNL     1     -63.430 -54.747  40.553  1.00  0.00    -0.507 OA
ATOM     28  H   UNL     1     -63.575 -53.997  41.214  1.00  0.00     0.293 HD
ENDBRANCH   7  27
TORSDOF 7
ENDMDL
MODEL 9
REMARK VINA RESULT:    -5.265      2.205      3.251
REMARK INTER + INTRA:          -6.876
REMARK INTER:                  -6.653
REMARK INTRA:                  -0.223
REMARK UNBOUND:                -0.380
REMARK SMILES Oc1cc(O)c2cc(O)c(-c3cc(O)c(O)c(O)c3)[o+]c2c1
REMARK SMILES IDX 10 1 20 2 21 3 22 4 2 5 3 6 4 7 6 8 7 9 8 10 11 11 12 12
REMARK SMILES IDX 13 13 19 14 15 15 17 16 14 17 16 19 18 21 9 23 1 25 5 27
REMARK H PARENT 14 18 16 20 18 22 9 24 1 26 5 28
REMARK Flexibility Score: inf
ROOT
ATOM      1  C   UNL     1     -62.312 -55.876  30.926  1.00  0.00     0.402 A 
ATOM      2  O   UNL     1     -61.968 -56.239  32.159  1.00  0.00    -0.202 OA
ATOM      3  C   UNL     1     -61.368 -55.422  33.019  1.00  0.00     0.368 A 
ATOM      4  C   UNL     1     -61.048 -55.894  34.295  1.00  0.00     0.162 A 
ATOM      5  C   UNL     1     -60.421 -55.056  35.221  1.00  0.00     0.128 A 
ATOM      6  C   UNL     1     -60.112 -53.739  34.869  1.00  0.00     0.093 A 
ATOM      7  C   UNL     1     -60.423 -53.242  33.598  1.00  0.00     0.136 A 
ATOM      8  C   UNL     1     -61.058 -54.090  32.654  1.00  0.00     0.125 A 
ATOM      9  C   UNL     1     -61.394 -53.682  31.352  1.00  0.00     0.078 A 
ATOM     10  C   UNL     1     -62.015 -54.576  30.474  1.00  0.00     0.223 A 
ENDROOT
BRANCH   1  11
ATOM     11  C   UNL     1     -62.985 -56.875  30.064  1.00  0.00     0.091 A 
ATOM     12  C   UNL     1     -62.320 -57.368  28.932  1.00  0.00     0.068 A 
ATOM     13  C   UNL     1     -62.917 -58.327  28.106  1.00  0.00     0.162 A 
ATOM     14  C   UNL     1     -64.251 -57.385  30.387  1.00  0.00     0.068 A 
ATOM     15  C   UNL     1     -64.205 -58.820  28.425  1.00  0.00     0.200 A 
ATOM     16  C   UNL     1     -64.861 -58.344  29.574  1.00  0.00     0.162 A 
BRANCH  13  17
ATOM     17  O   UNL     1     -62.197 -58.760  26.990  1.00  0.00    -0.504 OA
ATOM     18  H   UNL     1     -62.609 -59.229  26.197  1.00  0.00     0.293 HD
ENDBRANCH  13  17
BRANCH  15  19
ATOM     19  O   UNL     1     -64.854 -59.773  27.635  1.00  0.00    -0.502 OA
ATOM     20  H   UNL     1     -65.150 -60.680  27.967  1.00  0.00     0.293 HD
ENDBRANCH  15  19
BRANCH  16  21
ATOM     21  O   UNL     1     -66.125 -58.818  29.930  1.00  0.00    -0.504 OA
ATOM     22  H   UNL     1     -66.275 -59.402  30.743  1.00  0.00     0.293 HD
ENDBRANCH  16  21
ENDBRANCH   1  11
BRANCH  10  23
ATOM     23  O   UNL     1     -62.304 -54.187  29.167  1.00  0.00    -0.500 OA
ATOM     24  H   UNL     1     -61.693 -53.568  28.648  1.00  0.00     0.294 HD
ENDBRANCH  10  23
BRANCH   5  25
ATOM     25  O   UNL     1     -60.099 -55.520  36.494  1.00  0.00    -0.507 OA
ATOM     26  H   UNL     1     -60.262 -56.483  36.764  1.00  0.00     0.293 HD
ENDBRANCH   5  25
BRANCH   7  27
ATOM     27  O   UNL     1     -60.084 -51.914  33.327  1.00  0.00    -0.507 OA
ATOM     28  H   UNL     1     -60.694 -51.251  32.868  1.00  0.00     0.293 HD
ENDBRANCH   7  27
TORSDOF 7
ENDMDL
