MODEL 1
REMARK VINA RESULT:    -1.937      0.000      0.000
REMARK INTER + INTRA:          -1.937
REMARK INTER:                  -1.937
REMARK INTRA:                   0.000
REMARK UNBOUND:                 0.000
REMARK SMILES CC(=O)[O-]
REMARK SMILES IDX 1 1 2 2 3 3 4 4
REMARK H PARENT
REMARK Flexibility Score: inf
ROOT
ATOM      1  C   UNL     1     120.324 107.956 106.325  1.00  0.00     0.063 C 
ATOM      2  C   UNL     1     120.020 106.855 105.366  1.00  0.00     0.038 C 
ATOM      3  O   UNL     1     119.320 105.875 105.730  1.00  0.00    -0.550 OA
ATOM      4  O   UNL     1     120.465 106.934 104.053  1.00  0.00    -0.550 OA
ENDROOT
TORSDOF 0
ENDMDL
MODEL 2
REMARK VINA RESULT:    -1.899     13.482     13.757
REMARK INTER + INTRA:          -1.899
REMARK INTER:                  -1.899
REMARK INTRA:                   0.000
REMARK UNBOUND:                 0.000
REMARK SMILES CC(=O)[O-]
REMARK SMILES IDX 1 1 2 2 3 3 4 4
REMARK H PARENT
REMARK Flexibility Score: inf
ROOT
ATOM      1  C   UNL     1     117.274 114.287 117.149  1.00  0.00     0.063 C 
ATOM      2  C   UNL     1     118.485 113.437 117.335  1.00  0.00     0.038 C 
ATOM      3  O   UNL     1     118.452 112.453 118.119  1.00  0.00    -0.550 OA
ATOM      4  O   UNL     1     119.636 113.697 116.604  1.00  0.00    -0.550 OA
ENDROOT
TORSDOF 0
ENDMDL
MODEL 3
REMARK VINA RESULT:    -1.888      9.571     10.139
REMARK INTER + INTRA:          -1.888
REMARK INTER:                  -1.888
REMARK INTRA:                   0.000
REMARK UNBOUND:                 0.000
REMARK SMILES CC(=O)[O-]
REMARK SMILES IDX 1 1 2 2 3 3 4 4
REMARK H PARENT
REMARK Flexibility Score: inf
ROOT
ATOM      1  C   UNL     1     119.616 117.837 104.174  1.00  0.00     0.063 C 
ATOM      2  C   UNL     1     120.367 116.814 104.958  1.00  0.00     0.038 C 
ATOM      3  O   UNL     1     121.621 116.875 105.038  1.00  0.00    -0.550 OA
ATOM      4  O   UNL     1     119.681 115.822 105.645  1.00  0.00    -0.550 OA
ENDROOT
TORSDOF 0
ENDMDL
MODEL 4
REMARK VINA RESULT:    -1.859      1.303      1.690
REMARK INTER + INTRA:          -1.859
REMARK INTER:                  -1.859
REMARK INTRA:                   0.000
REMARK UNBOUND:                 0.000
REMARK SMILES CC(=O)[O-]
REMARK SMILES IDX 1 1 2 2 3 3 4 4
REMARK H PARENT
REMARK Flexibility Score: inf
ROOT
ATOM      1  C   UNL     1     120.037 107.695 106.099  1.00  0.00     0.063 C 
ATOM      2  C   UNL     1     120.831 106.960 105.072  1.00  0.00     0.038 C 
ATOM      3  O   UNL     1     120.442 106.930 103.876  1.00  0.00    -0.550 OA
ATOM      4  O   UNL     1     122.028 106.351 105.423  1.00  0.00    -0.550 OA
ENDROOT
TORSDOF 0
ENDMDL
MODEL 5
REMARK VINA RESULT:    -1.827      1.649      2.364
REMARK INTER + INTRA:          -1.827
REMARK INTER:                  -1.827
REMARK INTRA:                   0.000
REMARK UNBOUND:                 0.000
REMARK SMILES CC(=O)[O-]
REMARK SMILES IDX 1 1 2 2 3 3 4 4
REMARK H PARENT
REMARK Flexibility Score: inf
ROOT
ATOM      1  C   UNL     1     119.572 105.928 105.445  1.00  0.00     0.063 C 
ATOM      2  C   UNL     1     119.894 107.316 105.887  1.00  0.00     0.038 C 
ATOM      3  O   UNL     1     121.028 107.806 105.653  1.00  0.00    -0.550 OA
ATOM      4  O   UNL     1     118.923 108.089 106.510  1.00  0.00    -0.550 OA
ENDROOT
TORSDOF 0
ENDMDL
MODEL 6
REMARK VINA RESULT:    -1.821     13.471     13.867
REMARK INTER + INTRA:          -1.821
REMARK INTER:                  -1.821
REMARK INTRA:                   0.000
REMARK UNBOUND:                 0.000
REMARK SMILES CC(=O)[O-]
REMARK SMILES IDX 1 1 2 2 3 3 4 4
REMARK H PARENT
REMARK Flexibility Score: inf
ROOT
ATOM      1  C   UNL     1     118.795 112.785 118.138  1.00  0.00     0.063 C 
ATOM      2  C   UNL     1     118.214 113.723 117.135  1.00  0.00     0.038 C 
ATOM      3  O   UNL     1     118.936 114.193 116.217  1.00  0.00    -0.550 OA
ATOM      4  O   UNL     1     116.862 114.038 117.177  1.00  0.00    -0.550 OA
ENDROOT
TORSDOF 0
ENDMDL
MODEL 7
REMARK VINA RESULT:    -1.795      5.680      6.104
REMARK INTER + INTRA:          -1.795
REMARK INTER:                  -1.795
REMARK INTRA:                   0.000
REMARK UNBOUND:                 0.000
REMARK SMILES CC(=O)[O-]
REMARK SMILES IDX 1 1 2 2 3 3 4 4
REMARK H PARENT
REMARK Flexibility Score: inf
ROOT
ATOM      1  C   UNL     1     118.836 110.270 111.515  1.00  0.00     0.063 C 
ATOM      2  C   UNL     1     119.501 110.329 110.181  1.00  0.00     0.038 C 
ATOM      3  O   UNL     1     120.182 109.353 109.771  1.00  0.00    -0.550 OA
ATOM      4  O   UNL     1     119.327 111.439 109.366  1.00  0.00    -0.550 OA
ENDROOT
TORSDOF 0
ENDMDL
MODEL 8
REMARK VINA RESULT:    -1.791     13.100     13.460
REMARK INTER + INTRA:          -1.791
REMARK INTER:                  -1.791
REMARK INTRA:                   0.000
REMARK UNBOUND:                 0.000
REMARK SMILES CC(=O)[O-]
REMARK SMILES IDX 1 1 2 2 3 3 4 4
REMARK H PARENT
REMARK Flexibility Score: inf
ROOT
ATOM      1  C   UNL     1     117.025 114.089 116.992  1.00  0.00     0.063 C 
ATOM      2  C   UNL     1     118.192 114.496 116.156  1.00  0.00     0.038 C 
ATOM      3  O   UNL     1     118.148 115.559 115.485  1.00  0.00    -0.550 OA
ATOM      4  O   UNL     1     119.350 113.729 116.157  1.00  0.00    -0.550 OA
ENDROOT
TORSDOF 0
ENDMDL
MODEL 9
REMARK VINA RESULT:    -1.778     10.514     11.041
REMARK INTER + INTRA:          -1.778
REMARK INTER:                  -1.778
REMARK INTRA:                   0.000
REMARK UNBOUND:                 0.000
REMARK SMILES CC(=O)[O-]
REMARK SMILES IDX 1 1 2 2 3 3 4 4
REMARK H PARENT
REMARK Flexibility Score: inf
ROOT
ATOM      1  C   UNL     1     121.141 116.492 104.673  1.00  0.00     0.063 C 
ATOM      2  C   UNL     1     120.484 117.785 104.326  1.00  0.00     0.038 C 
ATOM      3  O   UNL     1     119.245 117.826 104.112  1.00  0.00    -0.550 OA
ATOM      4  O   UNL     1     121.228 118.956 104.291  1.00  0.00    -0.550 OA
ENDROOT
TORSDOF 0
ENDMDL
