MODEL 1
REMARK VINA RESULT:    -6.760      0.000      0.000
REMARK INTER + INTRA:          -6.760
REMARK INTER:                  -6.760
REMARK INTRA:                   0.000
REMARK UNBOUND:                 0.000
REMARK SMILES C=C1CCC[C@]2(C)CC(=O)C(=C(C)C)C[C@@H]12
REMARK SMILES IDX 13 1 12 2 11 3 15 4 16 5 2 6 1 7 3 8 4 9 5 10 6 11 8 12 9 13
REMARK SMILES IDX 10 14 7 15 14 16
REMARK H PARENT
REMARK Flexibility Score: inf
ROOT
ATOM      1  C   UNL     1      17.536  26.815 -14.818  1.00  0.00     0.039 C 
ATOM      2  C   UNL     1      18.497  27.931 -14.478  1.00  0.00    -0.070 C 
ATOM      3  C   UNL     1      19.040  28.059 -13.232  1.00  0.00    -0.006 C 
ATOM      4  C   UNL     1      20.052  29.154 -12.922  1.00  0.00     0.047 C 
ATOM      5  C   UNL     1      21.066  28.741 -11.825  1.00  0.00     0.025 C 
ATOM      6  C   UNL     1      22.083  29.817 -11.443  1.00  0.00    -0.073 C 
ATOM      7  C   UNL     1      22.121  31.048 -11.988  1.00  0.00     0.008 C 
ATOM      8  C   UNL     1      23.121  29.421 -10.419  1.00  0.00     0.031 C 
ATOM      9  C   UNL     1      22.445  28.853  -9.168  1.00  0.00     0.005 C 
ATOM     10  C   UNL     1      21.447  27.736  -9.518  1.00  0.00     0.008 C 
ATOM     11  C   UNL     1      20.365  28.185 -10.547  1.00  0.00    -0.018 C 
ATOM     12  C   UNL     1      19.531  26.942 -10.941  1.00  0.00     0.088 C 
ATOM     13  C   UNL     1      18.591  27.227 -12.078  1.00  0.00     0.159 C 
ATOM     14  O   UNL     1      17.422  26.761 -12.024  1.00  0.00    -0.295 OA
ATOM     15  C   UNL     1      19.432  29.242  -9.892  1.00  0.00     0.012 C 
ATOM     16  C   UNL     1      18.860  28.884 -15.593  1.00  0.00     0.039 C 
ENDROOT
TORSDOF 0
ENDMDL
MODEL 2
REMARK VINA RESULT:    -6.384      1.935      3.459
REMARK INTER + INTRA:          -6.384
REMARK INTER:                  -6.384
REMARK INTRA:                   0.000
REMARK UNBOUND:                 0.000
REMARK SMILES C=C1CCC[C@]2(C)CC(=O)C(=C(C)C)C[C@@H]12
REMARK SMILES IDX 13 1 12 2 11 3 15 4 16 5 2 6 1 7 3 8 4 9 5 10 6 11 8 12 9 13
REMARK SMILES IDX 10 14 7 15 14 16
REMARK H PARENT
REMARK Flexibility Score: inf
ROOT
ATOM      1  C   UNL     1      18.930  28.504 -14.738  1.00  0.00     0.039 C 
ATOM      2  C   UNL     1      19.353  28.249 -13.309  1.00  0.00    -0.070 C 
ATOM      3  C   UNL     1      20.625  28.500 -12.879  1.00  0.00    -0.006 C 
ATOM      4  C   UNL     1      21.019  28.294 -11.423  1.00  0.00     0.047 C 
ATOM      5  C   UNL     1      22.139  29.261 -10.962  1.00  0.00     0.025 C 
ATOM      6  C   UNL     1      22.604  29.074  -9.517  1.00  0.00    -0.073 C 
ATOM      7  C   UNL     1      22.110  28.142  -8.680  1.00  0.00     0.008 C 
ATOM      8  C   UNL     1      23.653  30.042  -9.023  1.00  0.00     0.031 C 
ATOM      9  C   UNL     1      24.852  30.061  -9.975  1.00  0.00     0.005 C 
ATOM     10  C   UNL     1      24.417  30.292 -11.432  1.00  0.00     0.008 C 
ATOM     11  C   UNL     1      23.364  29.255 -11.928  1.00  0.00    -0.018 C 
ATOM     12  C   UNL     1      22.887  29.688 -13.335  1.00  0.00     0.088 C 
ATOM     13  C   UNL     1      21.725  28.867 -13.817  1.00  0.00     0.159 C 
ATOM     14  O   UNL     1      21.713  28.489 -15.019  1.00  0.00    -0.295 OA
ATOM     15  C   UNL     1      24.022  27.849 -12.019  1.00  0.00     0.012 C 
ATOM     16  C   UNL     1      18.292  27.735 -12.364  1.00  0.00     0.039 C 
ENDROOT
TORSDOF 0
ENDMDL
MODEL 3
REMARK VINA RESULT:    -6.367      2.026      2.582
REMARK INTER + INTRA:          -6.367
REMARK INTER:                  -6.367
REMARK INTRA:                   0.000
REMARK UNBOUND:                 0.000
REMARK SMILES C=C1CCC[C@]2(C)CC(=O)C(=C(C)C)C[C@@H]12
REMARK SMILES IDX 13 1 12 2 11 3 15 4 16 5 2 6 1 7 3 8 4 9 5 10 6 11 8 12 9 13
REMARK SMILES IDX 10 14 7 15 14 16
REMARK H PARENT
REMARK Flexibility Score: inf
ROOT
ATOM      1  C   UNL     1      20.610  27.898 -16.922  1.00  0.00     0.039 C 
ATOM      2  C   UNL     1      21.610  28.318 -15.868  1.00  0.00    -0.070 C 
ATOM      3  C   UNL     1      21.246  28.509 -14.566  1.00  0.00    -0.006 C 
ATOM      4  C   UNL     1      22.276  28.874 -13.505  1.00  0.00     0.047 C 
ATOM      5  C   UNL     1      21.904  28.340 -12.099  1.00  0.00     0.025 C 
ATOM      6  C   UNL     1      22.883  28.711 -10.984  1.00  0.00    -0.073 C 
ATOM      7  C   UNL     1      23.991  29.454 -11.169  1.00  0.00     0.008 C 
ATOM      8  C   UNL     1      22.576  28.153  -9.614  1.00  0.00     0.031 C 
ATOM      9  C   UNL     1      21.142  28.501  -9.206  1.00  0.00     0.005 C 
ATOM     10  C   UNL     1      20.129  28.098 -10.291  1.00  0.00     0.008 C 
ATOM     11  C   UNL     1      20.448  28.719 -11.685  1.00  0.00    -0.018 C 
ATOM     12  C   UNL     1      19.467  28.114 -12.718  1.00  0.00     0.088 C 
ATOM     13  C   UNL     1      19.820  28.496 -14.127  1.00  0.00     0.159 C 
ATOM     14  O   UNL     1      18.890  28.815 -14.916  1.00  0.00    -0.295 OA
ATOM     15  C   UNL     1      20.246  30.259 -11.627  1.00  0.00     0.012 C 
ATOM     16  C   UNL     1      23.045  28.483 -16.314  1.00  0.00     0.039 C 
ENDROOT
TORSDOF 0
ENDMDL
MODEL 4
REMARK VINA RESULT:    -6.322      4.019      6.117
REMARK INTER + INTRA:          -6.322
REMARK INTER:                  -6.322
REMARK INTRA:                   0.000
REMARK UNBOUND:                 0.000
REMARK SMILES C=C1CCC[C@]2(C)CC(=O)C(=C(C)C)C[C@@H]12
REMARK SMILES IDX 13 1 12 2 11 3 15 4 16 5 2 6 1 7 3 8 4 9 5 10 6 11 8 12 9 13
REMARK SMILES IDX 10 14 7 15 14 16
REMARK H PARENT
REMARK Flexibility Score: inf
ROOT
ATOM      1  C   UNL     1      19.065  27.854 -13.236  1.00  0.00     0.039 C 
ATOM      2  C   UNL     1      19.204  28.330 -14.664  1.00  0.00    -0.070 C 
ATOM      3  C   UNL     1      20.426  28.501 -15.250  1.00  0.00    -0.006 C 
ATOM      4  C   UNL     1      20.549  28.924 -16.708  1.00  0.00     0.047 C 
ATOM      5  C   UNL     1      21.827  28.371 -17.388  1.00  0.00     0.025 C 
ATOM      6  C   UNL     1      22.024  28.797 -18.843  1.00  0.00    -0.073 C 
ATOM      7  C   UNL     1      21.178  29.600 -19.516  1.00  0.00     0.008 C 
ATOM      8  C   UNL     1      23.231  28.223 -19.548  1.00  0.00     0.031 C 
ATOM      9  C   UNL     1      24.500  28.490 -18.735  1.00  0.00     0.005 C 
ATOM     10  C   UNL     1      24.346  28.031 -17.275  1.00  0.00     0.008 C 
ATOM     11  C   UNL     1      23.116  28.668 -16.560  1.00  0.00    -0.018 C 
ATOM     12  C   UNL     1      22.973  28.008 -15.167  1.00  0.00     0.088 C 
ATOM     13  C   UNL     1      21.700  28.408 -14.479  1.00  0.00     0.159 C 
ATOM     14  O   UNL     1      21.739  28.674 -13.247  1.00  0.00    -0.295 OA
ATOM     15  C   UNL     1      23.351  30.194 -16.383  1.00  0.00     0.012 C 
ATOM     16  C   UNL     1      17.926  28.575 -15.431  1.00  0.00     0.039 C 
ENDROOT
TORSDOF 0
ENDMDL
MODEL 5
REMARK VINA RESULT:    -6.290     12.213     14.412
REMARK INTER + INTRA:          -6.290
REMARK INTER:                  -6.290
REMARK INTRA:                   0.000
REMARK UNBOUND:                 0.000
REMARK SMILES C=C1CCC[C@]2(C)CC(=O)C(=C(C)C)C[C@@H]12
REMARK SMILES IDX 13 1 12 2 11 3 15 4 16 5 2 6 1 7 3 8 4 9 5 10 6 11 8 12 9 13
REMARK SMILES IDX 10 14 7 15 14 16
REMARK H PARENT
REMARK Flexibility Score: inf
ROOT
ATOM      1  C   UNL     1      36.338  31.511 -14.480  1.00  0.00     0.039 C 
ATOM      2  C   UNL     1      36.017  31.936 -13.065  1.00  0.00    -0.070 C 
ATOM      3  C   UNL     1      34.894  31.503 -12.420  1.00  0.00    -0.006 C 
ATOM      4  C   UNL     1      34.616  31.893 -10.974  1.00  0.00     0.047 C 
ATOM      5  C   UNL     1      33.813  30.813 -10.205  1.00  0.00     0.025 C 
ATOM      6  C   UNL     1      33.470  31.168  -8.758  1.00  0.00    -0.073 C 
ATOM      7  C   UNL     1      33.811  32.326  -8.163  1.00  0.00     0.008 C 
ATOM      8  C   UNL     1      32.740  30.107  -7.967  1.00  0.00     0.031 C 
ATOM      9  C   UNL     1      31.487  29.649  -8.719  1.00  0.00     0.005 C 
ATOM     10  C   UNL     1      31.810  29.244 -10.167  1.00  0.00     0.008 C 
ATOM     11  C   UNL     1      32.528  30.370 -10.971  1.00  0.00    -0.018 C 
ATOM     12  C   UNL     1      32.946  29.790 -12.344  1.00  0.00     0.088 C 
ATOM     13  C   UNL     1      33.822  30.735 -13.116  1.00  0.00     0.159 C 
ATOM     14  O   UNL     1      33.618  30.871 -14.352  1.00  0.00    -0.295 OA
ATOM     15  C   UNL     1      31.549  31.556 -11.192  1.00  0.00     0.012 C 
ATOM     16  C   UNL     1      37.017  32.838 -12.379  1.00  0.00     0.039 C 
ENDROOT
TORSDOF 0
ENDMDL
MODEL 6
REMARK VINA RESULT:    -6.260     16.374     18.837
REMARK INTER + INTRA:          -6.260
REMARK INTER:                  -6.260
REMARK INTRA:                   0.000
REMARK UNBOUND:                 0.000
REMARK SMILES C=C1CCC[C@]2(C)CC(=O)C(=C(C)C)C[C@@H]12
REMARK SMILES IDX 13 1 12 2 11 3 15 4 16 5 2 6 1 7 3 8 4 9 5 10 6 11 8 12 9 13
REMARK SMILES IDX 10 14 7 15 14 16
REMARK H PARENT
REMARK Flexibility Score: inf
ROOT
ATOM      1  C   UNL     1      34.061  34.147 -21.594  1.00  0.00     0.039 C 
ATOM      2  C   UNL     1      32.811  34.951 -21.320  1.00  0.00    -0.070 C 
ATOM      3  C   UNL     1      32.498  36.065 -22.046  1.00  0.00    -0.006 C 
ATOM      4  C   UNL     1      31.205  36.830 -21.797  1.00  0.00     0.047 C 
ATOM      5  C   UNL     1      30.660  37.520 -23.074  1.00  0.00     0.025 C 
ATOM      6  C   UNL     1      29.384  38.337 -22.875  1.00  0.00    -0.073 C 
ATOM      7  C   UNL     1      28.755  38.481 -21.693  1.00  0.00     0.008 C 
ATOM      8  C   UNL     1      28.798  38.971 -24.115  1.00  0.00     0.031 C 
ATOM      9  C   UNL     1      29.859  39.801 -24.842  1.00  0.00     0.005 C 
ATOM     10  C   UNL     1      31.142  38.990 -25.094  1.00  0.00     0.008 C 
ATOM     11  C   UNL     1      31.745  38.380 -23.793  1.00  0.00    -0.018 C 
ATOM     12  C   UNL     1      32.923  37.458 -24.194  1.00  0.00     0.088 C 
ATOM     13  C   UNL     1      33.445  36.667 -23.029  1.00  0.00     0.159 C 
ATOM     14  O   UNL     1      34.692  36.539 -22.898  1.00  0.00    -0.295 OA
ATOM     15  C   UNL     1      32.275  39.522 -22.881  1.00  0.00     0.012 C 
ATOM     16  C   UNL     1      31.899  34.447 -20.225  1.00  0.00     0.039 C 
ENDROOT
TORSDOF 0
ENDMDL
MODEL 7
REMARK VINA RESULT:    -6.168     12.148     14.677
REMARK INTER + INTRA:          -6.168
REMARK INTER:                  -6.168
REMARK INTRA:                   0.000
REMARK UNBOUND:                 0.000
REMARK SMILES C=C1CCC[C@]2(C)CC(=O)C(=C(C)C)C[C@@H]12
REMARK SMILES IDX 13 1 12 2 11 3 15 4 16 5 2 6 1 7 3 8 4 9 5 10 6 11 8 12 9 13
REMARK SMILES IDX 10 14 7 15 14 16
REMARK H PARENT
REMARK Flexibility Score: inf
ROOT
ATOM      1  C   UNL     1      34.422  30.190 -10.566  1.00  0.00     0.039 C 
ATOM      2  C   UNL     1      33.288  30.656 -11.451  1.00  0.00    -0.070 C 
ATOM      3  C   UNL     1      33.505  31.116 -12.718  1.00  0.00    -0.006 C 
ATOM      4  C   UNL     1      32.347  31.525 -13.618  1.00  0.00     0.047 C 
ATOM      5  C   UNL     1      32.644  31.295 -15.121  1.00  0.00     0.025 C 
ATOM      6  C   UNL     1      31.530  31.727 -16.076  1.00  0.00    -0.073 C 
ATOM      7  C   UNL     1      30.368  32.279 -15.679  1.00  0.00     0.008 C 
ATOM      8  C   UNL     1      31.768  31.458 -17.544  1.00  0.00     0.031 C 
ATOM      9  C   UNL     1      33.110  32.051 -17.982  1.00  0.00     0.005 C 
ATOM     10  C   UNL     1      34.259  31.598 -17.064  1.00  0.00     0.008 C 
ATOM     11  C   UNL     1      34.003  31.922 -15.561  1.00  0.00    -0.018 C 
ATOM     12  C   UNL     1      35.138  31.276 -14.730  1.00  0.00     0.088 C 
ATOM     13  C   UNL     1      34.877  31.360 -13.253  1.00  0.00     0.159 C 
ATOM     14  O   UNL     1      35.834  31.652 -12.488  1.00  0.00    -0.295 OA
ATOM     15  C   UNL     1      34.025  33.462 -15.350  1.00  0.00     0.012 C 
ATOM     16  C   UNL     1      31.892  30.559 -10.881  1.00  0.00     0.039 C 
ENDROOT
TORSDOF 0
ENDMDL
MODEL 8
REMARK VINA RESULT:    -6.129     11.112     14.050
REMARK INTER + INTRA:          -6.129
REMARK INTER:                  -6.129
REMARK INTRA:                   0.000
REMARK UNBOUND:                 0.000
REMARK SMILES C=C1CCC[C@]2(C)CC(=O)C(=C(C)C)C[C@@H]12
REMARK SMILES IDX 13 1 12 2 11 3 15 4 16 5 2 6 1 7 3 8 4 9 5 10 6 11 8 12 9 13
REMARK SMILES IDX 10 14 7 15 14 16
REMARK H PARENT
REMARK Flexibility Score: inf
ROOT
ATOM      1  C   UNL     1      19.480  27.006 -22.615  1.00  0.00     0.039 C 
ATOM      2  C   UNL     1      20.810  26.289 -22.572  1.00  0.00    -0.070 C 
ATOM      3  C   UNL     1      21.173  25.387 -23.530  1.00  0.00    -0.006 C 
ATOM      4  C   UNL     1      22.540  24.717 -23.505  1.00  0.00     0.047 C 
ATOM      5  C   UNL     1      23.063  24.365 -24.921  1.00  0.00     0.025 C 
ATOM      6  C   UNL     1      24.416  23.653 -24.955  1.00  0.00    -0.073 C 
ATOM      7  C   UNL     1      25.126  23.329 -23.858  1.00  0.00     0.008 C 
ATOM      8  C   UNL     1      24.976  23.351 -26.326  1.00  0.00     0.031 C 
ATOM      9  C   UNL     1      23.948  22.589 -27.166  1.00  0.00     0.005 C 
ATOM     10  C   UNL     1      22.586  23.306 -27.186  1.00  0.00     0.008 C 
ATOM     11  C   UNL     1      22.014  23.570 -25.760  1.00  0.00    -0.018 C 
ATOM     12  C   UNL     1      20.738  24.434 -25.905  1.00  0.00     0.088 C 
ATOM     13  C   UNL     1      20.223  24.912 -24.578  1.00  0.00     0.159 C 
ATOM     14  O   UNL     1      18.980  24.887 -24.371  1.00  0.00    -0.295 OA
ATOM     15  C   UNL     1      21.643  22.217 -25.090  1.00  0.00     0.012 C 
ATOM     16  C   UNL     1      21.741  26.642 -21.435  1.00  0.00     0.039 C 
ENDROOT
TORSDOF 0
ENDMDL
MODEL 9
REMARK VINA RESULT:    -5.844      2.572      5.370
REMARK INTER + INTRA:          -5.844
REMARK INTER:                  -5.844
REMARK INTRA:                   0.000
REMARK UNBOUND:                 0.000
REMARK SMILES C=C1CCC[C@]2(C)CC(=O)C(=C(C)C)C[C@@H]12
REMARK SMILES IDX 13 1 12 2 11 3 15 4 16 5 2 6 1 7 3 8 4 9 5 10 6 11 8 12 9 13
REMARK SMILES IDX 10 14 7 15 14 16
REMARK H PARENT
REMARK Flexibility Score: inf
ROOT
ATOM      1  C   UNL     1      22.777  27.937  -8.223  1.00  0.00     0.039 C 
ATOM      2  C   UNL     1      21.675  28.199  -9.224  1.00  0.00    -0.070 C 
ATOM      3  C   UNL     1      21.942  28.441 -10.541  1.00  0.00    -0.006 C 
ATOM      4  C   UNL     1      20.819  28.644 -11.549  1.00  0.00     0.047 C 
ATOM      5  C   UNL     1      21.198  28.170 -12.975  1.00  0.00     0.025 C 
ATOM      6  C   UNL     1      20.120  28.386 -14.038  1.00  0.00    -0.073 C 
ATOM      7  C   UNL     1      18.923  28.953 -13.796  1.00  0.00     0.008 C 
ATOM      8  C   UNL     1      20.441  27.878 -15.425  1.00  0.00     0.031 C 
ATOM      9  C   UNL     1      21.784  28.438 -15.900  1.00  0.00     0.005 C 
ATOM     10  C   UNL     1      22.898  28.196 -14.867  1.00  0.00     0.008 C 
ATOM     11  C   UNL     1      22.557  28.764 -13.456  1.00  0.00    -0.018 C 
ATOM     12  C   UNL     1      23.668  28.316 -12.476  1.00  0.00     0.088 C 
ATOM     13  C   UNL     1      23.331  28.642 -11.049  1.00  0.00     0.159 C 
ATOM     14  O   UNL     1      24.239  29.100 -10.305  1.00  0.00    -0.295 OA
ATOM     15  C   UNL     1      22.522  30.316 -13.516  1.00  0.00     0.012 C 
ATOM     16  C   UNL     1      20.256  28.147  -8.708  1.00  0.00     0.039 C 
ENDROOT
TORSDOF 0
ENDMDL
