MODEL 1
REMARK VINA RESULT:    -0.084      0.000      0.000
REMARK INTER + INTRA:          -1.344
REMARK INTER:                  -0.182
REMARK INTRA:                  -1.162
REMARK UNBOUND:                -1.162
REMARK SMILES CCCCCCCCCCCCCCCCCCCCCC(=O)[O-]
REMARK SMILES IDX 12 1 11 2 10 3 9 4 8 5 7 6 6 7 5 8 4 9 3 10 2 11 1 12 13 13
REMARK SMILES IDX 14 14 15 15 16 16 17 17 18 18 19 19 20 20 21 21 22 22 23 23
REMARK SMILES IDX 24 24
REMARK H PARENT
REMARK Flexibility Score: inf
ROOT
ATOM      1  C   UNL     1     -11.473  36.194  -1.860  1.00  0.00     0.000 C 
ENDROOT
BRANCH   1   2
ATOM      2  C   UNL     1     -10.191  36.484  -1.058  1.00  0.00     0.000 C 
BRANCH   2   3
ATOM      3  C   UNL     1      -9.554  37.836  -1.410  1.00  0.00     0.000 C 
BRANCH   3   4
ATOM      4  C   UNL     1      -8.022  37.732  -1.421  1.00  0.00    -0.000 C 
BRANCH   4   5
ATOM      5  C   UNL     1      -7.401  37.863  -0.019  1.00  0.00    -0.000 C 
BRANCH   5   6
ATOM      6  C   UNL     1      -5.862  37.907   0.004  1.00  0.00    -0.000 C 
BRANCH   6   7
ATOM      7  C   UNL     1      -5.285  37.847   1.430  1.00  0.00    -0.000 C 
BRANCH   7   8
ATOM      8  C   UNL     1      -4.893  36.422   1.850  1.00  0.00    -0.000 C 
BRANCH   8   9
ATOM      9  C   UNL     1      -4.228  35.630   0.710  1.00  0.00    -0.000 C 
BRANCH   9  10
ATOM     10  C   UNL     1      -4.962  34.305   0.417  1.00  0.00    -0.000 C 
BRANCH  10  11
ATOM     11  C   UNL     1      -6.444  34.320   0.827  1.00  0.00    -0.003 C 
ATOM     12  C   UNL     1      -6.985  32.930   1.156  1.00  0.00     0.004 C 
ENDBRANCH  10  11
ENDBRANCH   9  10
ENDBRANCH   8   9
ENDBRANCH   7   8
ENDBRANCH   6   7
ENDBRANCH   5   6
ENDBRANCH   4   5
ENDBRANCH   3   4
ENDBRANCH   2   3
ENDBRANCH   1   2
BRANCH   1  13
ATOM     13  C   UNL     1     -11.316  36.279  -3.389  1.00  0.00     0.000 C 
BRANCH  13  14
ATOM     14  C   UNL     1     -12.660  36.241  -4.133  1.00  0.00     0.000 C 
BRANCH  14  15
ATOM     15  C   UNL     1     -12.505  35.613  -5.524  1.00  0.00     0.000 C 
BRANCH  15  16
ATOM     16  C   UNL     1     -13.325  36.386  -6.568  1.00  0.00     0.000 C 
BRANCH  16  17
ATOM     17  C   UNL     1     -13.877  35.477  -7.679  1.00  0.00     0.000 C 
BRANCH  17  18
ATOM     18  C   UNL     1     -13.008  35.506  -8.947  1.00  0.00     0.000 C 
BRANCH  18  19
ATOM     19  C   UNL     1     -13.794  35.135 -10.214  1.00  0.00     0.000 C 
BRANCH  19  20
ATOM     20  C   UNL     1     -15.006  34.237  -9.920  1.00  0.00     0.006 C 
BRANCH  20  21
ATOM     21  C   UNL     1     -15.547  33.604 -11.205  1.00  0.00     0.053 C 
BRANCH  21  22
ATOM     22  C   UNL     1     -16.990  33.245 -11.044  1.00  0.00     0.041 C 
ATOM     23  O   UNL     1     -17.616  33.585 -10.007  1.00  0.00    -0.550 OA
ATOM     24  O   UNL     1     -17.627  32.480 -12.013  1.00  0.00    -0.550 OA
ENDBRANCH  21  22
ENDBRANCH  20  21
ENDBRANCH  19  20
ENDBRANCH  18  19
ENDBRANCH  17  18
ENDBRANCH  16  17
ENDBRANCH  15  16
ENDBRANCH  14  15
ENDBRANCH  13  14
ENDBRANCH   1  13
TORSDOF 20
ENDMDL
MODEL 2
REMARK VINA RESULT:    -0.022      4.356     12.279
REMARK INTER + INTRA:          -1.210
REMARK INTER:                  -0.209
REMARK INTRA:                  -1.001
REMARK UNBOUND:                -1.162
REMARK SMILES CCCCCCCCCCCCCCCCCCCCCC(=O)[O-]
REMARK SMILES IDX 12 1 11 2 10 3 9 4 8 5 7 6 6 7 5 8 4 9 3 10 2 11 1 12 13 13
REMARK SMILES IDX 14 14 15 15 16 16 17 17 18 18 19 19 20 20 21 21 22 22 23 23
REMARK SMILES IDX 24 24
REMARK H PARENT
REMARK Flexibility Score: inf
ROOT
ATOM      1  C   UNL     1     -11.413  36.281  -3.330  1.00  0.00     0.000 C 
ENDROOT
BRANCH   1   2
ATOM      2  C   UNL     1     -12.702  36.403  -4.164  1.00  0.00     0.000 C 
BRANCH   2   3
ATOM      3  C   UNL     1     -12.671  35.556  -5.445  1.00  0.00     0.000 C 
BRANCH   3   4
ATOM      4  C   UNL     1     -13.188  36.363  -6.645  1.00  0.00    -0.000 C 
BRANCH   4   5
ATOM      5  C   UNL     1     -13.724  35.473  -7.780  1.00  0.00    -0.000 C 
BRANCH   5   6
ATOM      6  C   UNL     1     -12.931  35.556  -9.098  1.00  0.00    -0.000 C 
BRANCH   6   7
ATOM      7  C   UNL     1     -13.787  35.221 -10.332  1.00  0.00    -0.000 C 
BRANCH   7   8
ATOM      8  C   UNL     1     -14.947  34.269 -10.006  1.00  0.00    -0.000 C 
BRANCH   8   9
ATOM      9  C   UNL     1     -15.607  33.686 -11.269  1.00  0.00    -0.000 C 
BRANCH   9  10
ATOM     10  C   UNL     1     -16.975  33.041 -10.965  1.00  0.00    -0.000 C 
BRANCH  10  11
ATOM     11  C   UNL     1     -18.073  34.061 -10.619  1.00  0.00    -0.003 C 
ATOM     12  C   UNL     1     -18.820  33.720  -9.332  1.00  0.00     0.004 C 
ENDBRANCH  10  11
ENDBRANCH   9  10
ENDBRANCH   8   9
ENDBRANCH   7   8
ENDBRANCH   6   7
ENDBRANCH   5   6
ENDBRANCH   4   5
ENDBRANCH   3   4
ENDBRANCH   2   3
ENDBRANCH   1   2
BRANCH   1  13
ATOM     13  C   UNL     1     -11.624  36.281  -1.805  1.00  0.00     0.000 C 
BRANCH  13  14
ATOM     14  C   UNL     1     -10.307  36.368  -1.018  1.00  0.00     0.000 C 
BRANCH  14  15
ATOM     15  C   UNL     1      -9.376  37.432  -1.614  1.00  0.00     0.000 C 
BRANCH  15  16
ATOM     16  C   UNL     1      -8.536  38.100  -0.515  1.00  0.00     0.000 C 
BRANCH  16  17
ATOM     17  C   UNL     1      -7.159  37.440  -0.338  1.00  0.00     0.000 C 
BRANCH  17  18
ATOM     18  C   UNL     1      -6.543  37.728   1.041  1.00  0.00     0.000 C 
BRANCH  18  19
ATOM     19  C   UNL     1      -5.671  36.572   1.556  1.00  0.00     0.000 C 
BRANCH  19  20
ATOM     20  C   UNL     1      -5.777  35.313   0.680  1.00  0.00     0.006 C 
BRANCH  20  21
ATOM     21  C   UNL     1      -6.064  34.073   1.532  1.00  0.00     0.053 C 
BRANCH  21  22
ATOM     22  C   UNL     1      -7.317  33.399   1.069  1.00  0.00     0.041 C 
ATOM     23  O   UNL     1      -8.176  34.041   0.411  1.00  0.00    -0.550 OA
ATOM     24  O   UNL     1      -7.565  32.079   1.421  1.00  0.00    -0.550 OA
ENDBRANCH  21  22
ENDBRANCH  20  21
ENDBRANCH  19  20
ENDBRANCH  18  19
ENDBRANCH  17  18
ENDBRANCH  16  17
ENDBRANCH  15  16
ENDBRANCH  14  15
ENDBRANCH  13  14
ENDBRANCH   1  13
TORSDOF 20
ENDMDL
MODEL 3
REMARK VINA RESULT:     0.300      4.263     12.018
REMARK INTER + INTRA:          -0.511
REMARK INTER:                   0.421
REMARK INTRA:                  -0.932
REMARK UNBOUND:                -1.162
REMARK SMILES CCCCCCCCCCCCCCCCCCCCCC(=O)[O-]
REMARK SMILES IDX 12 1 11 2 10 3 9 4 8 5 7 6 6 7 5 8 4 9 3 10 2 11 1 12 13 13
REMARK SMILES IDX 14 14 15 15 16 16 17 17 18 18 19 19 20 20 21 21 22 22 23 23
REMARK SMILES IDX 24 24
REMARK H PARENT
REMARK Flexibility Score: inf
ROOT
ATOM      1  C   UNL     1     -10.330  36.469  -1.154  1.00  0.00     0.000 C 
ENDROOT
BRANCH   1   2
ATOM      2  C   UNL     1     -11.675  36.333  -1.892  1.00  0.00     0.000 C 
BRANCH   2   3
ATOM      3  C   UNL     1     -11.528  35.757  -3.307  1.00  0.00     0.000 C 
BRANCH   3   4
ATOM      4  C   UNL     1     -12.561  36.376  -4.259  1.00  0.00    -0.000 C 
BRANCH   4   5
ATOM      5  C   UNL     1     -12.732  35.577  -5.563  1.00  0.00    -0.000 C 
BRANCH   5   6
ATOM      6  C   UNL     1     -13.651  36.235  -6.609  1.00  0.00    -0.000 C 
BRANCH   6   7
ATOM      7  C   UNL     1     -13.525  35.593  -8.003  1.00  0.00    -0.000 C 
BRANCH   7   8
ATOM      8  C   UNL     1     -14.706  34.670  -8.338  1.00  0.00    -0.000 C 
BRANCH   8   9
ATOM      9  C   UNL     1     -14.617  34.088  -9.760  1.00  0.00    -0.000 C 
BRANCH   9  10
ATOM     10  C   UNL     1     -16.010  33.807 -10.362  1.00  0.00    -0.000 C 
BRANCH  10  11
ATOM     11  C   UNL     1     -16.002  33.670 -11.893  1.00  0.00    -0.003 C 
ATOM     12  C   UNL     1     -17.385  33.381 -12.473  1.00  0.00     0.004 C 
ENDBRANCH  10  11
ENDBRANCH   9  10
ENDBRANCH   8   9
ENDBRANCH   7   8
ENDBRANCH   6   7
ENDBRANCH   5   6
ENDBRANCH   4   5
ENDBRANCH   3   4
ENDBRANCH   2   3
ENDBRANCH   1   2
BRANCH   1  13
ATOM     13  C   UNL     1      -9.621  37.822  -1.339  1.00  0.00     0.000 C 
BRANCH  13  14
ATOM     14  C   UNL     1      -8.130  37.675  -1.681  1.00  0.00     0.000 C 
BRANCH  14  15
ATOM     15  C   UNL     1      -7.257  37.839  -0.429  1.00  0.00     0.000 C 
BRANCH  15  16
ATOM     16  C   UNL     1      -5.789  38.077  -0.814  1.00  0.00     0.000 C 
BRANCH  16  17
ATOM     17  C   UNL     1      -4.805  37.468   0.198  1.00  0.00     0.000 C 
BRANCH  17  18
ATOM     18  C   UNL     1      -4.505  35.988  -0.093  1.00  0.00     0.000 C 
BRANCH  18  19
ATOM     19  C   UNL     1      -4.202  35.183   1.181  1.00  0.00     0.000 C 
BRANCH  19  20
ATOM     20  C   UNL     1      -5.181  34.017   1.394  1.00  0.00     0.006 C 
BRANCH  20  21
ATOM     21  C   UNL     1      -6.609  34.529   1.604  1.00  0.00     0.053 C 
BRANCH  21  22
ATOM     22  C   UNL     1      -7.594  33.616   0.946  1.00  0.00     0.041 C 
ATOM     23  O   UNL     1      -8.381  34.059   0.070  1.00  0.00    -0.550 OA
ATOM     24  O   UNL     1      -7.685  32.288   1.345  1.00  0.00    -0.550 OA
ENDBRANCH  21  22
ENDBRANCH  20  21
ENDBRANCH  19  20
ENDBRANCH  18  19
ENDBRANCH  17  18
ENDBRANCH  16  17
ENDBRANCH  15  16
ENDBRANCH  14  15
ENDBRANCH  13  14
ENDBRANCH   1  13
TORSDOF 20
ENDMDL
MODEL 4
REMARK VINA RESULT:     2.626      7.867     12.784
REMARK INTER + INTRA:           4.534
REMARK INTER:                   1.664
REMARK INTRA:                   2.870
REMARK UNBOUND:                -1.162
REMARK SMILES CCCCCCCCCCCCCCCCCCCCCC(=O)[O-]
REMARK SMILES IDX 12 1 11 2 10 3 9 4 8 5 7 6 6 7 5 8 4 9 3 10 2 11 1 12 13 13
REMARK SMILES IDX 14 14 15 15 16 16 17 17 18 18 19 19 20 20 21 21 22 22 23 23
REMARK SMILES IDX 24 24
REMARK H PARENT
REMARK Flexibility Score: inf
ROOT
ATOM      1  C   UNL     1     -16.890  33.940  -8.301  1.00  0.00     0.000 C 
ENDROOT
BRANCH   1   2
ATOM      2  C   UNL     1     -17.774  33.437  -9.457  1.00  0.00     0.000 C 
BRANCH   2   3
ATOM      3  C   UNL     1     -19.183  34.047  -9.445  1.00  0.00     0.000 C 
BRANCH   3   4
ATOM      4  C   UNL     1     -19.853  33.845  -8.078  1.00  0.00    -0.000 C 
BRANCH   4   5
ATOM      5  C   UNL     1     -21.376  34.066  -8.117  1.00  0.00    -0.000 C 
BRANCH   5   6
ATOM      6  C   UNL     1     -22.150  33.441  -6.942  1.00  0.00    -0.000 C 
BRANCH   6   7
ATOM      7  C   UNL     1     -23.668  33.377  -7.194  1.00  0.00    -0.000 C 
BRANCH   7   8
ATOM      8  C   UNL     1     -24.125  34.340  -8.300  1.00  0.00    -0.000 C 
BRANCH   8   9
ATOM      9  C   UNL     1     -23.535  35.752  -8.137  1.00  0.00    -0.000 C 
BRANCH   9  10
ATOM     10  C   UNL     1     -24.080  36.736  -9.193  1.00  0.00    -0.000 C 
BRANCH  10  11
ATOM     11  C   UNL     1     -23.407  38.118  -9.152  1.00  0.00    -0.003 C 
ATOM     12  C   UNL     1     -21.966  38.063  -8.647  1.00  0.00     0.004 C 
ENDBRANCH  10  11
ENDBRANCH   9  10
ENDBRANCH   8   9
ENDBRANCH   7   8
ENDBRANCH   6   7
ENDBRANCH   5   6
ENDBRANCH   4   5
ENDBRANCH   3   4
ENDBRANCH   2   3
ENDBRANCH   1   2
BRANCH   1  13
ATOM     13  C   UNL     1     -15.422  34.213  -8.676  1.00  0.00     0.000 C 
BRANCH  13  14
ATOM     14  C   UNL     1     -14.637  34.911  -7.555  1.00  0.00     0.000 C 
BRANCH  14  15
ATOM     15  C   UNL     1     -13.530  35.805  -8.129  1.00  0.00     0.000 C 
BRANCH  15  16
ATOM     16  C   UNL     1     -13.136  35.349  -9.542  1.00  0.00     0.000 C 
BRANCH  16  17
ATOM     17  C   UNL     1     -14.243  34.536 -10.232  1.00  0.00     0.000 C 
BRANCH  17  18
ATOM     18  C   UNL     1     -14.187  34.651 -11.765  1.00  0.00     0.000 C 
BRANCH  18  19
ATOM     19  C   UNL     1     -14.971  33.536 -12.473  1.00  0.00     0.000 C 
BRANCH  19  20
ATOM     20  C   UNL     1     -16.349  33.283 -11.840  1.00  0.00     0.006 C 
BRANCH  20  21
ATOM     21  C   UNL     1     -17.394  32.955 -12.909  1.00  0.00     0.053 C 
BRANCH  21  22
ATOM     22  C   UNL     1     -18.349  34.094 -13.074  1.00  0.00     0.041 C 
ATOM     23  O   UNL     1     -19.418  33.938 -13.720  1.00  0.00    -0.550 OA
ATOM     24  O   UNL     1     -18.029  35.348 -12.568  1.00  0.00    -0.550 OA
ENDBRANCH  21  22
ENDBRANCH  20  21
ENDBRANCH  19  20
ENDBRANCH  18  19
ENDBRANCH  17  18
ENDBRANCH  16  17
ENDBRANCH  15  16
ENDBRANCH  14  15
ENDBRANCH  13  14
ENDBRANCH   1  13
TORSDOF 20
ENDMDL
MODEL 5
REMARK VINA RESULT:     2.750      8.035     12.128
REMARK INTER + INTRA:           4.804
REMARK INTER:                   5.777
REMARK INTRA:                  -0.973
REMARK UNBOUND:                -1.162
REMARK SMILES CCCCCCCCCCCCCCCCCCCCCC(=O)[O-]
REMARK SMILES IDX 12 1 11 2 10 3 9 4 8 5 7 6 6 7 5 8 4 9 3 10 2 11 1 12 13 13
REMARK SMILES IDX 14 14 15 15 16 16 17 17 18 18 19 19 20 20 21 21 22 22 23 23
REMARK SMILES IDX 24 24
REMARK H PARENT
REMARK Flexibility Score: inf
ROOT
ATOM      1  C   UNL     1     -15.477  34.158  -7.348  1.00  0.00     0.000 C 
ENDROOT
BRANCH   1   2
ATOM      2  C   UNL     1     -15.090  35.566  -7.838  1.00  0.00     0.000 C 
BRANCH   2   3
ATOM      3  C   UNL     1     -13.573  35.758  -7.974  1.00  0.00     0.000 C 
BRANCH   3   4
ATOM      4  C   UNL     1     -13.096  35.366  -9.380  1.00  0.00    -0.000 C 
BRANCH   4   5
ATOM      5  C   UNL     1     -14.138  34.547 -10.161  1.00  0.00    -0.000 C 
BRANCH   5   6
ATOM      6  C   UNL     1     -13.856  34.410 -11.669  1.00  0.00    -0.000 C 
BRANCH   6   7
ATOM      7  C   UNL     1     -15.051  33.834 -12.450  1.00  0.00    -0.000 C 
BRANCH   7   8
ATOM      8  C   UNL     1     -16.088  33.165 -11.535  1.00  0.00    -0.000 C 
BRANCH   8   9
ATOM      9  C   UNL     1     -17.339  32.698 -12.301  1.00  0.00    -0.000 C 
BRANCH   9  10
ATOM     10  C   UNL     1     -17.771  33.711 -13.382  1.00  0.00    -0.000 C 
BRANCH  10  11
ATOM     11  C   UNL     1     -19.016  34.528 -12.996  1.00  0.00    -0.003 C 
ATOM     12  C   UNL     1     -20.246  34.166 -13.826  1.00  0.00     0.004 C 
ENDBRANCH  10  11
ENDBRANCH   9  10
ENDBRANCH   8   9
ENDBRANCH   7   8
ENDBRANCH   6   7
ENDBRANCH   5   6
ENDBRANCH   4   5
ENDBRANCH   3   4
ENDBRANCH   2   3
ENDBRANCH   1   2
BRANCH   1  13
ATOM     13  C   UNL     1     -16.884  33.689  -7.760  1.00  0.00     0.000 C 
BRANCH  13  14
ATOM     14  C   UNL     1     -17.312  34.220  -9.137  1.00  0.00     0.000 C 
BRANCH  14  15
ATOM     15  C   UNL     1     -18.838  34.175  -9.297  1.00  0.00     0.000 C 
BRANCH  15  16
ATOM     16  C   UNL     1     -19.493  33.476  -8.097  1.00  0.00     0.000 C 
BRANCH  16  17
ATOM     17  C   UNL     1     -21.014  33.319  -8.260  1.00  0.00     0.000 C 
BRANCH  17  18
ATOM     18  C   UNL     1     -21.799  33.980  -7.115  1.00  0.00     0.000 C 
BRANCH  18  19
ATOM     19  C   UNL     1     -23.320  33.918  -7.325  1.00  0.00     0.000 C 
BRANCH  19  20
ATOM     20  C   UNL     1     -23.798  34.821  -8.473  1.00  0.00     0.006 C 
BRANCH  20  21
ATOM     21  C   UNL     1     -24.003  36.260  -7.991  1.00  0.00     0.053 C 
BRANCH  21  22
ATOM     22  C   UNL     1     -23.551  37.231  -9.036  1.00  0.00     0.041 C 
ATOM     23  O   UNL     1     -24.122  37.268 -10.156  1.00  0.00    -0.550 OA
ATOM     24  O   UNL     1     -22.455  38.050  -8.794  1.00  0.00    -0.550 OA
ENDBRANCH  21  22
ENDBRANCH  20  21
ENDBRANCH  19  20
ENDBRANCH  18  19
ENDBRANCH  17  18
ENDBRANCH  16  17
ENDBRANCH  15  16
ENDBRANCH  14  15
ENDBRANCH  13  14
ENDBRANCH   1  13
TORSDOF 20
ENDMDL
