MODEL 1
REMARK VINA RESULT:    -3.737      0.000      0.000
REMARK INTER + INTRA:          -5.644
REMARK INTER:                  -5.266
REMARK INTRA:                  -0.379
REMARK UNBOUND:                -0.379
REMARK SMILES CC1=CCC(=C(C)C)C(=O)CC(C)=CCC1
REMARK SMILES IDX 12 1 14 2 13 3 15 4 16 5 2 6 1 7 3 8 11 10 9 11 10 12 5 13
REMARK SMILES IDX 6 14 7 15 8 16 4 17
REMARK H PARENT
REMARK Flexibility Score: 60.00
ROOT
ATOM      1  C   UNL     1      32.997  33.436  30.667  1.00  0.00    -0.070 C 
ATOM      2  C   UNL     1      31.978  33.266  31.554  1.00  0.00    -0.027 C 
ATOM      3  C   UNL     1      34.334  32.857  31.069  1.00  0.00     0.039 C 
ENDROOT
BRANCH   2   4
ATOM      4  C   UNL     1      30.549  33.751  31.443  1.00  0.00     0.032 C 
BRANCH   4   5
ATOM      5  C   UNL     1      29.639  32.946  30.482  1.00  0.00     0.034 C 
BRANCH   5   6
ATOM      6  C   UNL     1      29.934  31.463  30.429  1.00  0.00    -0.077 C 
ATOM      7  C   UNL     1      29.649  30.629  31.652  1.00  0.00     0.039 C 
ATOM      8  C   UNL     1      30.394  30.833  29.326  1.00  0.00    -0.023 CG0
ATOM      9  G   UNL     1      30.771  31.469  28.006  1.00  0.00     0.000 G0
ENDBRANCH   5   6
ENDBRANCH   4   5
ENDBRANCH   2   4
BRANCH   1  10
ATOM     10  C   UNL     1      32.975  34.239  29.363  1.00  0.00     0.111 C 
BRANCH  10  11
ATOM     11  C   UNL     1      32.191  33.656  28.215  1.00  0.00     0.163 C 
ATOM     12  O   UNL     1      31.551  34.483  27.513  1.00  0.00    -0.294 OA
BRANCH  11  13
ATOM     13  C   UNL     1      32.130  32.175  27.903  1.00  0.00    -0.002 C 
ATOM     14  C   UNL     1      33.235  31.488  27.448  1.00  0.00    -0.069 C 
ATOM     15  C   UNL     1      34.607  32.121  27.338  1.00  0.00     0.039 C 
ATOM     16  C   UNL     1      33.154  30.034  27.028  1.00  0.00     0.039 C 
BRANCH  13  17
ATOM     17  C   UNL     1      30.774  31.458  27.990  1.00  0.00     0.066 CG0
ATOM     18  G   UNL     1      30.405  30.835  29.318  1.00  0.00     0.000 G0
ENDBRANCH  13  17
ENDBRANCH  11  13
ENDBRANCH  10  11
ENDBRANCH   1  10
TORSDOF 0
ENDMDL
MODEL 2
REMARK VINA RESULT:    -3.687     10.969     13.405
REMARK INTER + INTRA:          -5.575
REMARK INTER:                  -5.511
REMARK INTRA:                  -0.064
REMARK UNBOUND:                -0.379
REMARK SMILES CC1=CCC(=C(C)C)C(=O)CC(C)=CCC1
REMARK SMILES IDX 12 1 14 2 13 3 15 4 16 5 2 6 1 7 3 8 11 10 9 11 10 12 5 13
REMARK SMILES IDX 6 14 7 15 8 16 4 17
REMARK H PARENT
REMARK Flexibility Score: 60.00
ROOT
ATOM      1  C   UNL     1      18.181  26.696  28.020  1.00  0.00    -0.070 C 
ATOM      2  C   UNL     1      19.141  25.730  27.987  1.00  0.00    -0.027 C 
ATOM      3  C   UNL     1      16.753  26.223  27.875  1.00  0.00     0.039 C 
ENDROOT
BRANCH   2   4
ATOM      4  C   UNL     1      20.642  25.897  28.080  1.00  0.00     0.032 C 
BRANCH   4   5
ATOM      5  C   UNL     1      21.163  26.576  29.370  1.00  0.00     0.034 C 
BRANCH   5   6
ATOM      6  C   UNL     1      22.040  27.788  29.135  1.00  0.00    -0.077 C 
ATOM      7  C   UNL     1      23.252  27.637  28.252  1.00  0.00     0.039 C 
ATOM      8  C   UNL     1      21.768  29.013  29.635  1.00  0.00    -0.023 CG0
ATOM      9  G   UNL     1      20.630  29.387  30.560  1.00  0.00     0.000 G0
ENDBRANCH   5   6
ENDBRANCH   4   5
ENDBRANCH   2   4
BRANCH   1  10
ATOM     10  C   UNL     1      18.386  28.213  28.074  1.00  0.00     0.111 C 
BRANCH  10  11
ATOM     11  C   UNL     1      18.318  28.863  29.432  1.00  0.00     0.163 C 
ATOM     12  O   UNL     1      17.350  28.513  30.159  1.00  0.00    -0.294 OA
BRANCH  11  13
ATOM     13  C   UNL     1      19.313  29.894  29.924  1.00  0.00    -0.002 C 
ATOM     14  C   UNL     1      19.114  31.243  29.720  1.00  0.00    -0.069 C 
ATOM     15  C   UNL     1      17.848  31.802  29.104  1.00  0.00     0.039 C 
ATOM     16  C   UNL     1      20.157  32.271  30.109  1.00  0.00     0.039 C 
BRANCH  13  17
ATOM     17  C   UNL     1      20.625  29.408  30.561  1.00  0.00     0.066 CG0
ATOM     18  G   UNL     1      21.751  29.032  29.623  1.00  0.00     0.000 G0
ENDBRANCH  13  17
ENDBRANCH  11  13
ENDBRANCH  10  11
ENDBRANCH   1  10
TORSDOF 0
ENDMDL
MODEL 3
REMARK VINA RESULT:    -3.511     10.796     12.946
REMARK INTER + INTRA:          -5.327
REMARK INTER:                  -5.481
REMARK INTRA:                   0.154
REMARK UNBOUND:                -0.379
REMARK SMILES CC1=CCC(=C(C)C)C(=O)CC(C)=CCC1
REMARK SMILES IDX 12 1 14 2 13 3 15 4 16 5 2 6 1 7 3 8 11 10 9 11 10 12 5 13
REMARK SMILES IDX 6 14 7 15 8 16 4 17
REMARK H PARENT
REMARK Flexibility Score: 60.00
ROOT
ATOM      1  C   UNL     1      20.560  25.653  28.257  1.00  0.00    -0.070 C 
ATOM      2  C   UNL     1      19.313  25.424  27.759  1.00  0.00    -0.027 C 
ATOM      3  C   UNL     1      21.670  24.795  27.696  1.00  0.00     0.039 C 
ENDROOT
BRANCH   2   4
ATOM      4  C   UNL     1      18.014  26.099  28.141  1.00  0.00     0.032 C 
BRANCH   4   5
ATOM      5  C   UNL     1      17.882  27.586  27.726  1.00  0.00     0.034 C 
BRANCH   5   6
ATOM      6  C   UNL     1      17.671  28.545  28.878  1.00  0.00    -0.077 C 
ATOM      7  C   UNL     1      16.388  28.454  29.664  1.00  0.00     0.039 C 
ATOM      8  C   UNL     1      18.594  29.449  29.274  1.00  0.00    -0.023 CG0
ATOM      9  G   UNL     1      19.930  29.731  28.622  1.00  0.00     0.000 G0
ENDBRANCH   5   6
ENDBRANCH   4   5
ENDBRANCH   2   4
BRANCH   1  10
ATOM     10  C   UNL     1      20.950  26.598  29.398  1.00  0.00     0.111 C 
BRANCH  10  11
ATOM     11  C   UNL     1      21.700  27.850  29.021  1.00  0.00     0.163 C 
ATOM     12  O   UNL     1      22.810  27.673  28.452  1.00  0.00    -0.294 OA
BRANCH  11  13
ATOM     13  C   UNL     1      21.199  29.251  29.309  1.00  0.00    -0.002 C 
ATOM     14  C   UNL     1      21.800  30.049  30.258  1.00  0.00    -0.069 C 
ATOM     15  C   UNL     1      23.061  29.645  30.992  1.00  0.00     0.039 C 
ATOM     16  C   UNL     1      21.238  31.407  30.630  1.00  0.00     0.039 C 
BRANCH  13  17
ATOM     17  C   UNL     1      19.923  29.737  28.604  1.00  0.00     0.066 CG0
ATOM     18  G   UNL     1      18.604  29.451  29.287  1.00  0.00     0.000 G0
ENDBRANCH  13  17
ENDBRANCH  11  13
ENDBRANCH  10  11
ENDBRANCH   1  10
TORSDOF 0
ENDMDL
MODEL 4
REMARK VINA RESULT:    -3.506     11.158     13.233
REMARK INTER + INTRA:          -5.320
REMARK INTER:                  -5.206
REMARK INTRA:                  -0.113
REMARK UNBOUND:                -0.379
REMARK SMILES CC1=CCC(=C(C)C)C(=O)CC(C)=CCC1
REMARK SMILES IDX 12 1 14 2 13 3 15 4 16 5 2 6 1 7 3 8 11 10 9 11 10 12 5 13
REMARK SMILES IDX 6 14 7 15 8 16 4 17
REMARK H PARENT
REMARK Flexibility Score: 60.00
ROOT
ATOM      1  C   UNL     1      21.909  30.430  30.104  1.00  0.00    -0.070 C 
ATOM      2  C   UNL     1      21.938  29.083  29.907  1.00  0.00    -0.027 C 
ATOM      3  C   UNL     1      22.973  30.994  31.015  1.00  0.00     0.039 C 
ENDROOT
BRANCH   2   4
ATOM      4  C   UNL     1      20.997  28.236  29.078  1.00  0.00     0.032 C 
BRANCH   4   5
ATOM      5  C   UNL     1      19.606  27.969  29.703  1.00  0.00     0.034 C 
BRANCH   5   6
ATOM      6  C   UNL     1      18.435  28.329  28.813  1.00  0.00    -0.077 C 
ATOM      7  C   UNL     1      18.221  27.533  27.551  1.00  0.00     0.039 C 
ATOM      8  C   UNL     1      17.539  29.293  29.114  1.00  0.00    -0.023 CG0
ATOM      9  G   UNL     1      17.571  30.226  30.305  1.00  0.00     0.000 G0
ENDBRANCH   5   6
ENDBRANCH   4   5
ENDBRANCH   2   4
BRANCH   1  10
ATOM     10  C   UNL     1      20.858  31.424  29.599  1.00  0.00     0.111 C 
BRANCH  10  11
ATOM     11  C   UNL     1      19.711  31.735  30.526  1.00  0.00     0.163 C 
ATOM     12  O   UNL     1      20.030  32.106  31.686  1.00  0.00    -0.294 OA
BRANCH  11  13
ATOM     13  C   UNL     1      18.253  31.599  30.136  1.00  0.00    -0.002 C 
ATOM     14  C   UNL     1      17.510  32.689  29.737  1.00  0.00    -0.069 C 
ATOM     15  C   UNL     1      18.111  34.066  29.542  1.00  0.00     0.039 C 
ATOM     16  C   UNL     1      16.025  32.582  29.454  1.00  0.00     0.039 C 
BRANCH  13  17
ATOM     17  C   UNL     1      17.568  30.234  30.305  1.00  0.00     0.066 CG0
ATOM     18  G   UNL     1      17.546  29.318  29.102  1.00  0.00     0.000 G0
ENDBRANCH  13  17
ENDBRANCH  11  13
ENDBRANCH  10  11
ENDBRANCH   1  10
TORSDOF 0
ENDMDL
MODEL 5
REMARK VINA RESULT:    -3.434      1.759      3.896
REMARK INTER + INTRA:          -5.219
REMARK INTER:                  -5.090
REMARK INTRA:                  -0.129
REMARK UNBOUND:                -0.379
REMARK SMILES CC1=CCC(=C(C)C)C(=O)CC(C)=CCC1
REMARK SMILES IDX 12 1 14 2 13 3 15 4 16 5 2 6 1 7 3 8 11 10 9 11 10 12 5 13
REMARK SMILES IDX 6 14 7 15 8 16 4 17
REMARK H PARENT
REMARK Flexibility Score: 60.00
ROOT
ATOM      1  C   UNL     1      30.323  32.358  31.447  1.00  0.00    -0.070 C 
ATOM      2  C   UNL     1      31.599  32.615  31.045  1.00  0.00    -0.027 C 
ATOM      3  C   UNL     1      30.124  31.114  32.279  1.00  0.00     0.039 C 
ENDROOT
BRANCH   2   4
ATOM      4  C   UNL     1      32.101  33.759  30.190  1.00  0.00     0.032 C 
BRANCH   4   5
ATOM      5  C   UNL     1      32.422  33.405  28.717  1.00  0.00     0.034 C 
BRANCH   5   6
ATOM      6  C   UNL     1      32.316  31.932  28.385  1.00  0.00    -0.077 C 
ATOM      7  C   UNL     1      33.511  31.050  28.640  1.00  0.00     0.039 C 
ATOM      8  C   UNL     1      31.188  31.353  27.917  1.00  0.00    -0.023 CG0
ATOM      9  G   UNL     1      29.889  32.044  27.565  1.00  0.00     0.000 G0
ENDBRANCH   5   6
ENDBRANCH   4   5
ENDBRANCH   2   4
BRANCH   1  10
ATOM     10  C   UNL     1      29.053  33.121  31.060  1.00  0.00     0.111 C 
BRANCH  10  11
ATOM     11  C   UNL     1      28.759  33.256  29.588  1.00  0.00     0.163 C 
ATOM     12  O   UNL     1      28.469  34.417  29.192  1.00  0.00    -0.294 OA
BRANCH  11  13
ATOM     13  C   UNL     1      28.775  32.094  28.615  1.00  0.00    -0.002 C 
ATOM     14  C   UNL     1      27.895  31.041  28.737  1.00  0.00    -0.069 C 
ATOM     15  C   UNL     1      26.781  31.016  29.763  1.00  0.00     0.039 C 
ATOM     16  C   UNL     1      27.978  29.824  27.837  1.00  0.00     0.039 C 
BRANCH  13  17
ATOM     17  C   UNL     1      29.876  32.045  27.544  1.00  0.00     0.066 CG0
ATOM     18  G   UNL     1      31.172  31.359  27.916  1.00  0.00     0.000 G0
ENDBRANCH  13  17
ENDBRANCH  11  13
ENDBRANCH  10  11
ENDBRANCH   1  10
TORSDOF 0
ENDMDL
MODEL 6
REMARK VINA RESULT:    -3.411     12.776     14.884
REMARK INTER + INTRA:          -5.186
REMARK INTER:                  -4.887
REMARK INTRA:                  -0.299
REMARK UNBOUND:                -0.379
REMARK SMILES CC1=CCC(=C(C)C)C(=O)CC(C)=CCC1
REMARK SMILES IDX 12 1 14 2 13 3 15 4 16 5 2 6 1 7 3 8 11 10 9 11 10 12 5 13
REMARK SMILES IDX 6 14 7 15 8 16 4 17
REMARK H PARENT
REMARK Flexibility Score: 60.00
ROOT
ATOM      1  C   UNL     1      19.877  29.164  29.614  1.00  0.00    -0.070 C 
ATOM      2  C   UNL     1      19.750  28.294  28.573  1.00  0.00    -0.027 C 
ATOM      3  C   UNL     1      20.789  30.346  29.387  1.00  0.00     0.039 C 
ENDROOT
BRANCH   2   4
ATOM      4  C   UNL     1      18.938  27.019  28.512  1.00  0.00     0.032 C 
BRANCH   4   5
ATOM      5  C   UNL     1      17.478  27.176  28.020  1.00  0.00     0.034 C 
BRANCH   5   6
ATOM      6  C   UNL     1      16.433  27.103  29.113  1.00  0.00    -0.077 C 
ATOM      7  C   UNL     1      15.999  25.745  29.603  1.00  0.00     0.039 C 
ATOM      8  C   UNL     1      15.902  28.192  29.710  1.00  0.00    -0.023 CG0
ATOM      9  G   UNL     1      16.168  29.641  29.364  1.00  0.00     0.000 G0
ENDBRANCH   5   6
ENDBRANCH   4   5
ENDBRANCH   2   4
BRANCH   1  10
ATOM     10  C   UNL     1      19.291  29.025  31.022  1.00  0.00     0.111 C 
BRANCH  10  11
ATOM     11  C   UNL     1      17.961  29.685  31.277  1.00  0.00     0.163 C 
ATOM     12  O   UNL     1      17.506  29.568  32.446  1.00  0.00    -0.294 OA
BRANCH  11  13
ATOM     13  C   UNL     1      17.174  30.432  30.218  1.00  0.00    -0.002 C 
ATOM     14  C   UNL     1      17.276  31.799  30.077  1.00  0.00    -0.069 C 
ATOM     15  C   UNL     1      18.255  32.637  30.873  1.00  0.00     0.039 C 
ATOM     16  C   UNL     1      16.411  32.566  29.096  1.00  0.00     0.039 C 
BRANCH  13  17
ATOM     17  C   UNL     1      16.159  29.654  29.368  1.00  0.00     0.066 CG0
ATOM     18  G   UNL     1      15.918  28.206  29.732  1.00  0.00     0.000 G0
ENDBRANCH  13  17
ENDBRANCH  11  13
ENDBRANCH  10  11
ENDBRANCH   1  10
TORSDOF 0
ENDMDL
MODEL 7
REMARK VINA RESULT:    -3.373     11.055     13.463
REMARK INTER + INTRA:          -5.132
REMARK INTER:                  -5.013
REMARK INTRA:                  -0.119
REMARK UNBOUND:                -0.379
REMARK SMILES CC1=CCC(=C(C)C)C(=O)CC(C)=CCC1
REMARK SMILES IDX 12 1 14 2 13 3 15 4 16 5 2 6 1 7 3 8 11 10 9 11 10 12 5 13
REMARK SMILES IDX 6 14 7 15 8 16 4 17
REMARK H PARENT
REMARK Flexibility Score: 60.00
ROOT
ATOM      1  C   UNL     1      19.000  28.298  29.159  1.00  0.00    -0.070 C 
ATOM      2  C   UNL     1      20.353  28.415  29.058  1.00  0.00    -0.027 C 
ATOM      3  C   UNL     1      18.250  28.093  27.863  1.00  0.00     0.039 C 
ENDROOT
BRANCH   2   4
ATOM      4  C   UNL     1      21.358  28.650  30.165  1.00  0.00     0.032 C 
BRANCH   4   5
ATOM      5  C   UNL     1      22.080  30.020  30.136  1.00  0.00     0.034 C 
BRANCH   5   6
ATOM      6  C   UNL     1      21.614  31.001  31.190  1.00  0.00    -0.077 C 
ATOM      7  C   UNL     1      22.453  31.174  32.431  1.00  0.00     0.039 C 
ATOM      8  C   UNL     1      20.512  31.770  31.057  1.00  0.00    -0.023 CG0
ATOM      9  G   UNL     1      19.517  31.745  29.918  1.00  0.00     0.000 G0
ENDBRANCH   5   6
ENDBRANCH   4   5
ENDBRANCH   2   4
BRANCH   1  10
ATOM     10  C   UNL     1      18.140  28.460  30.417  1.00  0.00     0.111 C 
BRANCH  10  11
ATOM     11  C   UNL     1      18.073  29.837  31.025  1.00  0.00     0.163 C 
ATOM     12  O   UNL     1      17.948  29.876  32.278  1.00  0.00    -0.294 OA
BRANCH  11  13
ATOM     13  C   UNL     1      18.126  31.118  30.218  1.00  0.00    -0.002 C 
ATOM     14  C   UNL     1      16.990  31.666  29.661  1.00  0.00    -0.069 C 
ATOM     15  C   UNL     1      15.604  31.108  29.907  1.00  0.00     0.039 C 
ATOM     16  C   UNL     1      17.051  32.884  28.761  1.00  0.00     0.039 C 
BRANCH  13  17
ATOM     17  C   UNL     1      19.496  31.748  29.923  1.00  0.00     0.066 CG0
ATOM     18  G   UNL     1      20.505  31.769  31.051  1.00  0.00     0.000 G0
ENDBRANCH  13  17
ENDBRANCH  11  13
ENDBRANCH  10  11
ENDBRANCH   1  10
TORSDOF 0
ENDMDL
MODEL 8
REMARK VINA RESULT:    -3.367      1.587      2.258
REMARK INTER + INTRA:          -5.124
REMARK INTER:                  -5.119
REMARK INTRA:                  -0.005
REMARK UNBOUND:                -0.379
REMARK SMILES CC1=CCC(=C(C)C)C(=O)CC(C)=CCC1
REMARK SMILES IDX 12 1 14 2 13 3 15 4 16 5 2 6 1 7 3 8 11 10 9 11 10 12 5 13
REMARK SMILES IDX 6 14 7 15 8 16 4 17
REMARK H PARENT
REMARK Flexibility Score: 60.00
ROOT
ATOM      1  C   UNL     1      31.552  34.078  28.896  1.00  0.00    -0.070 C 
ATOM      2  C   UNL     1      30.350  33.678  29.394  1.00  0.00    -0.027 C 
ATOM      3  C   UNL     1      31.535  34.667  27.505  1.00  0.00     0.039 C 
ENDROOT
BRANCH   2   4
ATOM      4  C   UNL     1      30.057  33.035  30.733  1.00  0.00     0.032 C 
BRANCH   4   5
ATOM      5  C   UNL     1      29.645  31.544  30.685  1.00  0.00     0.034 C 
BRANCH   5   6
ATOM      6  C   UNL     1      29.540  30.962  29.292  1.00  0.00    -0.077 C 
ATOM      7  C   UNL     1      28.191  30.948  28.619  1.00  0.00     0.039 C 
ATOM      8  C   UNL     1      30.601  30.499  28.595  1.00  0.00    -0.023 CG0
ATOM      9  G   UNL     1      32.031  30.393  29.079  1.00  0.00     0.000 G0
ENDBRANCH   5   6
ENDBRANCH   4   5
ENDBRANCH   2   4
BRANCH   1  10
ATOM     10  C   UNL     1      32.933  33.900  29.535  1.00  0.00     0.111 C 
BRANCH  10  11
ATOM     11  C   UNL     1      33.527  32.515  29.501  1.00  0.00     0.163 C 
ATOM     12  O   UNL     1      34.479  32.308  30.299  1.00  0.00    -0.294 OA
BRANCH  11  13
ATOM     13  C   UNL     1      33.056  31.419  28.567  1.00  0.00    -0.002 C 
ATOM     14  C   UNL     1      33.440  31.386  27.244  1.00  0.00    -0.069 C 
ATOM     15  C   UNL     1      34.443  32.357  26.655  1.00  0.00     0.039 C 
ATOM     16  C   UNL     1      32.886  30.358  26.277  1.00  0.00     0.039 C 
BRANCH  13  17
ATOM     17  C   UNL     1      32.037  30.393  29.088  1.00  0.00     0.066 CG0
ATOM     18  G   UNL     1      30.615  30.516  28.587  1.00  0.00     0.000 G0
ENDBRANCH  13  17
ENDBRANCH  11  13
ENDBRANCH  10  11
ENDBRANCH   1  10
TORSDOF 0
ENDMDL
MODEL 9
REMARK VINA RESULT:    -3.358     10.023     12.164
REMARK INTER + INTRA:          -5.110
REMARK INTER:                  -5.002
REMARK INTRA:                  -0.109
REMARK UNBOUND:                -0.379
REMARK SMILES CC1=CCC(=C(C)C)C(=O)CC(C)=CCC1
REMARK SMILES IDX 12 1 14 2 13 3 15 4 16 5 2 6 1 7 3 8 11 10 9 11 10 12 5 13
REMARK SMILES IDX 6 14 7 15 8 16 4 17
REMARK H PARENT
REMARK Flexibility Score: 60.00
ROOT
ATOM      1  C   UNL     1      18.416  28.191  28.517  1.00  0.00    -0.070 C 
ATOM      2  C   UNL     1      17.539  28.879  29.300  1.00  0.00    -0.027 C 
ATOM      3  C   UNL     1      17.914  26.889  27.940  1.00  0.00     0.039 C 
ENDROOT
BRANCH   2   4
ATOM      4  C   UNL     1      17.760  30.186  30.030  1.00  0.00     0.032 C 
BRANCH   4   5
ATOM      5  C   UNL     1      18.785  30.142  31.190  1.00  0.00     0.034 C 
BRANCH   5   6
ATOM      6  C   UNL     1      19.910  31.148  31.077  1.00  0.00    -0.077 C 
ATOM      7  C   UNL     1      19.560  32.612  31.002  1.00  0.00     0.039 C 
ATOM      8  C   UNL     1      21.218  30.809  31.089  1.00  0.00    -0.023 CG0
ATOM      9  G   UNL     1      21.794  29.411  31.129  1.00  0.00     0.000 G0
ENDBRANCH   5   6
ENDBRANCH   4   5
ENDBRANCH   2   4
BRANCH   1  10
ATOM     10  C   UNL     1      19.886  28.527  28.246  1.00  0.00     0.111 C 
BRANCH  10  11
ATOM     11  C   UNL     1      20.907  27.924  29.175  1.00  0.00     0.163 C 
ATOM     12  O   UNL     1      20.750  26.703  29.443  1.00  0.00    -0.294 OA
BRANCH  11  13
ATOM     13  C   UNL     1      22.051  28.704  29.790  1.00  0.00    -0.002 C 
ATOM     14  C   UNL     1      23.308  28.706  29.224  1.00  0.00    -0.069 C 
ATOM     15  C   UNL     1      23.613  28.038  27.899  1.00  0.00     0.039 C 
ATOM     16  C   UNL     1      24.483  29.391  29.893  1.00  0.00     0.039 C 
BRANCH  13  17
ATOM     17  C   UNL     1      21.823  29.410  31.136  1.00  0.00     0.066 CG0
ATOM     18  G   UNL     1      21.221  30.798  31.095  1.00  0.00     0.000 G0
ENDBRANCH  13  17
ENDBRANCH  11  13
ENDBRANCH  10  11
ENDBRANCH   1  10
TORSDOF 0
ENDMDL
