MODEL 1
REMARK VINA RESULT:    -4.369      0.000      0.000
REMARK INTER + INTRA:          -6.435
REMARK INTER:                  -6.029
REMARK INTRA:                  -0.406
REMARK UNBOUND:                -0.406
REMARK SMILES OC[C@@H](O)[C@@H](O)[C@@H](O)CO
REMARK SMILES IDX 5 1 3 2 2 3 1 4 4 6 7 8 9 9 10 10 8 12 6 14
REMARK H PARENT 1 5 4 7 10 11 8 13 6 15
REMARK Flexibility Score: inf
ROOT
ATOM      1  C   UNL     1      29.543   1.141  23.294  1.00  0.00     0.176 C 
ENDROOT
BRANCH   1   2
ATOM      2  C   UNL     1      29.130   0.343  22.028  1.00  0.00     0.171 C 
BRANCH   2   3
ATOM      3  C   UNL     1      29.057  -1.174  22.295  1.00  0.00     0.190 C 
BRANCH   3   4
ATOM      4  O   UNL     1      30.298  -1.676  22.716  1.00  0.00    -0.394 OA
ATOM      5  H   UNL     1      30.872  -1.730  21.907  1.00  0.00     0.210 HD
ENDBRANCH   3   4
ENDBRANCH   2   3
BRANCH   2   6
ATOM      6  O   UNL     1      27.893   0.791  21.530  1.00  0.00    -0.388 OA
ATOM      7  H   UNL     1      27.180   0.363  22.073  1.00  0.00     0.211 HD
ENDBRANCH   2   6
ENDBRANCH   1   2
BRANCH   1   8
ATOM      8  C   UNL     1      28.761   2.472  23.470  1.00  0.00     0.171 C 
BRANCH   8   9
ATOM      9  C   UNL     1      29.351   3.390  24.558  1.00  0.00     0.190 C 
BRANCH   9  10
ATOM     10  O   UNL     1      28.909   4.706  24.379  1.00  0.00    -0.394 OA
ATOM     11  H   UNL     1      28.113   4.653  23.788  1.00  0.00     0.210 HD
ENDBRANCH   9  10
ENDBRANCH   8   9
BRANCH   8  12
ATOM     12  O   UNL     1      27.429   2.162  23.800  1.00  0.00    -0.388 OA
ATOM     13  H   UNL     1      26.857   2.869  23.399  1.00  0.00     0.211 HD
ENDBRANCH   8  12
ENDBRANCH   1   8
BRANCH   1  14
ATOM     14  O   UNL     1      30.925   1.397  23.257  1.00  0.00    -0.388 OA
ATOM     15  H   UNL     1      31.096   1.965  22.461  1.00  0.00     0.211 HD
ENDBRANCH   1  14
TORSDOF 9
ENDMDL
MODEL 2
REMARK VINA RESULT:    -4.330      1.547      4.199
REMARK INTER + INTRA:          -6.381
REMARK INTER:                  -5.886
REMARK INTRA:                  -0.495
REMARK UNBOUND:                -0.406
REMARK SMILES OC[C@@H](O)[C@@H](O)[C@@H](O)CO
REMARK SMILES IDX 5 1 3 2 2 3 1 4 4 6 7 8 9 9 10 10 8 12 6 14
REMARK H PARENT 1 5 4 7 10 11 8 13 6 15
REMARK Flexibility Score: inf
ROOT
ATOM      1  C   UNL     1      28.817   2.469  23.726  1.00  0.00     0.176 C 
ENDROOT
BRANCH   1   2
ATOM      2  C   UNL     1      29.654   2.650  25.020  1.00  0.00     0.171 C 
BRANCH   2   3
ATOM      3  C   UNL     1      29.599   4.097  25.550  1.00  0.00     0.190 C 
BRANCH   3   4
ATOM      4  O   UNL     1      28.993   4.956  24.621  1.00  0.00    -0.394 OA
ATOM      5  H   UNL     1      28.430   5.587  25.141  1.00  0.00     0.210 HD
ENDBRANCH   3   4
ENDBRANCH   2   3
BRANCH   2   6
ATOM      6  O   UNL     1      29.226   1.766  26.026  1.00  0.00    -0.388 OA
ATOM      7  H   UNL     1      28.239   1.688  25.956  1.00  0.00     0.211 HD
ENDBRANCH   2   6
ENDBRANCH   1   2
BRANCH   1   8
ATOM      8  C   UNL     1      28.098   1.095  23.640  1.00  0.00     0.171 C 
BRANCH   8   9
ATOM      9  C   UNL     1      28.569   0.228  22.456  1.00  0.00     0.190 C 
BRANCH   9  10
ATOM     10  O   UNL     1      28.104   0.758  21.247  1.00  0.00    -0.394 OA
ATOM     11  H   UNL     1      27.876   1.707  21.429  1.00  0.00     0.210 HD
ENDBRANCH   9  10
ENDBRANCH   8   9
BRANCH   8  12
ATOM     12  O   UNL     1      26.715   1.326  23.521  1.00  0.00    -0.388 OA
ATOM     13  H   UNL     1      26.438   1.854  24.316  1.00  0.00     0.211 HD
ENDBRANCH   8  12
ENDBRANCH   1   8
BRANCH   1  14
ATOM     14  O   UNL     1      29.645   2.649  22.603  1.00  0.00    -0.388 OA
ATOM     15  H   UNL     1      29.237   2.141  21.854  1.00  0.00     0.211 HD
ENDBRANCH   1  14
TORSDOF 9
ENDMDL
MODEL 3
REMARK VINA RESULT:    -4.277      1.242      2.438
REMARK INTER + INTRA:          -6.308
REMARK INTER:                  -5.593
REMARK INTRA:                  -0.715
REMARK UNBOUND:                -0.406
REMARK SMILES OC[C@@H](O)[C@@H](O)[C@@H](O)CO
REMARK SMILES IDX 5 1 3 2 2 3 1 4 4 6 7 8 9 9 10 10 8 12 6 14
REMARK H PARENT 1 5 4 7 10 11 8 13 6 15
REMARK Flexibility Score: inf
ROOT
ATOM      1  C   UNL     1      29.207   2.477  23.794  1.00  0.00     0.176 C 
ENDROOT
BRANCH   1   2
ATOM      2  C   UNL     1      29.750   1.098  23.332  1.00  0.00     0.171 C 
BRANCH   2   3
ATOM      3  C   UNL     1      28.972   0.543  22.121  1.00  0.00     0.190 C 
BRANCH   3   4
ATOM      4  O   UNL     1      27.840  -0.178  22.531  1.00  0.00    -0.394 OA
ATOM      5  H   UNL     1      27.664   0.081  23.474  1.00  0.00     0.210 HD
ENDBRANCH   3   4
ENDBRANCH   2   3
BRANCH   2   6
ATOM      6  O   UNL     1      31.118   1.174  23.015  1.00  0.00    -0.388 OA
ATOM      7  H   UNL     1      31.405   0.273  22.712  1.00  0.00     0.211 HD
ENDBRANCH   2   6
ENDBRANCH   1   2
BRANCH   1   8
ATOM      8  C   UNL     1      29.442   2.762  25.303  1.00  0.00     0.171 C 
BRANCH   8   9
ATOM      9  C   UNL     1      29.679   4.252  25.616  1.00  0.00     0.190 C 
BRANCH   9  10
ATOM     10  O   UNL     1      29.029   5.059  24.674  1.00  0.00    -0.394 OA
ATOM     11  H   UNL     1      29.325   5.989  24.856  1.00  0.00     0.210 HD
ENDBRANCH   9  10
ENDBRANCH   8   9
BRANCH   8  12
ATOM     12  O   UNL     1      30.558   2.017  25.725  1.00  0.00    -0.388 OA
ATOM     13  H   UNL     1      30.278   1.499  26.525  1.00  0.00     0.211 HD
ENDBRANCH   8  12
ENDBRANCH   1   8
BRANCH   1  14
ATOM     14  O   UNL     1      27.835   2.565  23.496  1.00  0.00    -0.388 OA
ATOM     15  H   UNL     1      27.340   2.325  24.322  1.00  0.00     0.211 HD
ENDBRANCH   1  14
TORSDOF 9
ENDMDL
MODEL 4
REMARK VINA RESULT:    -4.251      1.381      4.277
REMARK INTER + INTRA:          -6.273
REMARK INTER:                  -5.811
REMARK INTRA:                  -0.462
REMARK UNBOUND:                -0.406
REMARK SMILES OC[C@@H](O)[C@@H](O)[C@@H](O)CO
REMARK SMILES IDX 5 1 3 2 2 3 1 4 4 6 7 8 9 9 10 10 8 12 6 14
REMARK H PARENT 1 5 4 7 10 11 8 13 6 15
REMARK Flexibility Score: inf
ROOT
ATOM      1  C   UNL     1      27.969   1.596  24.079  1.00  0.00     0.176 C 
ENDROOT
BRANCH   1   2
ATOM      2  C   UNL     1      28.738   2.846  23.573  1.00  0.00     0.171 C 
BRANCH   2   3
ATOM      3  C   UNL     1      29.363   3.651  24.729  1.00  0.00     0.190 C 
BRANCH   3   4
ATOM      4  O   UNL     1      29.021   5.010  24.646  1.00  0.00    -0.394 OA
ATOM      5  H   UNL     1      29.762   5.460  24.162  1.00  0.00     0.210 HD
ENDBRANCH   3   4
ENDBRANCH   2   3
BRANCH   2   6
ATOM      6  O   UNL     1      29.741   2.484  22.656  1.00  0.00    -0.388 OA
ATOM      7  H   UNL     1      29.328   2.461  21.754  1.00  0.00     0.211 HD
ENDBRANCH   2   6
ENDBRANCH   1   2
BRANCH   1   8
ATOM      8  C   UNL     1      28.485   0.263  23.472  1.00  0.00     0.171 C 
BRANCH   8   9
ATOM      9  C   UNL     1      27.635  -0.243  22.290  1.00  0.00     0.190 C 
BRANCH   9  10
ATOM     10  O   UNL     1      27.836   0.564  21.164  1.00  0.00    -0.394 OA
ATOM     11  H   UNL     1      28.284  -0.010  20.488  1.00  0.00     0.210 HD
ENDBRANCH   9  10
ENDBRANCH   8   9
BRANCH   8  12
ATOM     12  O   UNL     1      28.491  -0.712  24.487  1.00  0.00    -0.388 OA
ATOM     13  H   UNL     1      28.888  -1.536  24.097  1.00  0.00     0.211 HD
ENDBRANCH   8  12
ENDBRANCH   1   8
BRANCH   1  14
ATOM     14  O   UNL     1      26.597   1.748  23.810  1.00  0.00    -0.388 OA
ATOM     15  H   UNL     1      26.103   1.354  24.576  1.00  0.00     0.211 HD
ENDBRANCH   1  14
TORSDOF 9
ENDMDL
MODEL 5
REMARK VINA RESULT:    -4.225      0.754      4.260
REMARK INTER + INTRA:          -6.236
REMARK INTER:                  -5.700
REMARK INTRA:                  -0.537
REMARK UNBOUND:                -0.406
REMARK SMILES OC[C@@H](O)[C@@H](O)[C@@H](O)CO
REMARK SMILES IDX 5 1 3 2 2 3 1 4 4 6 7 8 9 9 10 10 8 12 6 14
REMARK H PARENT 1 5 4 7 10 11 8 13 6 15
REMARK Flexibility Score: inf
ROOT
ATOM      1  C   UNL     1      28.188   1.157  23.491  1.00  0.00     0.176 C 
ENDROOT
BRANCH   1   2
ATOM      2  C   UNL     1      29.223   2.295  23.278  1.00  0.00     0.171 C 
BRANCH   2   3
ATOM      3  C   UNL     1      29.317   3.230  24.501  1.00  0.00     0.190 C 
BRANCH   3   4
ATOM      4  O   UNL     1      28.926   4.537  24.172  1.00  0.00    -0.394 OA
ATOM      5  H   UNL     1      29.426   4.785  23.351  1.00  0.00     0.210 HD
ENDBRANCH   3   4
ENDBRANCH   2   3
BRANCH   2   6
ATOM      6  O   UNL     1      30.496   1.772  22.989  1.00  0.00    -0.388 OA
ATOM      7  H   UNL     1      30.988   1.691  23.847  1.00  0.00     0.211 HD
ENDBRANCH   2   6
ENDBRANCH   1   2
BRANCH   1   8
ATOM      8  C   UNL     1      28.079   0.185  22.284  1.00  0.00     0.171 C 
BRANCH   8   9
ATOM      9  C   UNL     1      28.784  -1.165  22.519  1.00  0.00     0.190 C 
BRANCH   9  10
ATOM     10  O   UNL     1      30.169  -1.025  22.373  1.00  0.00    -0.394 OA
ATOM     11  H   UNL     1      30.530  -0.876  23.286  1.00  0.00     0.210 HD
ENDBRANCH   9  10
ENDBRANCH   8   9
BRANCH   8  12
ATOM     12  O   UNL     1      28.644   0.812  21.159  1.00  0.00    -0.388 OA
ATOM     13  H   UNL     1      28.147   0.485  20.363  1.00  0.00     0.211 HD
ENDBRANCH   8  12
ENDBRANCH   1   8
BRANCH   1  14
ATOM     14  O   UNL     1      26.929   1.715  23.775  1.00  0.00    -0.388 OA
ATOM     15  H   UNL     1      26.843   2.538  23.227  1.00  0.00     0.211 HD
ENDBRANCH   1  14
TORSDOF 9
ENDMDL
MODEL 6
REMARK VINA RESULT:    -4.189      1.851      2.602
REMARK INTER + INTRA:          -6.187
REMARK INTER:                  -5.725
REMARK INTRA:                  -0.461
REMARK UNBOUND:                -0.406
REMARK SMILES OC[C@@H](O)[C@@H](O)[C@@H](O)CO
REMARK SMILES IDX 5 1 3 2 2 3 1 4 4 6 7 8 9 9 10 10 8 12 6 14
REMARK H PARENT 1 5 4 7 10 11 8 13 6 15
REMARK Flexibility Score: inf
ROOT
ATOM      1  C   UNL     1      28.282   1.448  24.729  1.00  0.00     0.176 C 
ENDROOT
BRANCH   1   2
ATOM      2  C   UNL     1      27.793   0.373  23.720  1.00  0.00     0.171 C 
BRANCH   2   3
ATOM      3  C   UNL     1      26.261   0.396  23.544  1.00  0.00     0.190 C 
BRANCH   3   4
ATOM      4  O   UNL     1      25.727   1.644  23.897  1.00  0.00    -0.394 OA
ATOM      5  H   UNL     1      25.845   2.237  23.110  1.00  0.00     0.210 HD
ENDBRANCH   3   4
ENDBRANCH   2   3
BRANCH   2   6
ATOM      6  O   UNL     1      28.412   0.538  22.468  1.00  0.00    -0.388 OA
ATOM      7  H   UNL     1      27.833   1.134  21.925  1.00  0.00     0.211 HD
ENDBRANCH   2   6
ENDBRANCH   1   2
BRANCH   1   8
ATOM      8  C   UNL     1      29.056   2.617  24.062  1.00  0.00     0.171 C 
BRANCH   8   9
ATOM      9  C   UNL     1      29.454   3.731  25.050  1.00  0.00     0.190 C 
BRANCH   9  10
ATOM     10  O   UNL     1      28.980   4.971  24.605  1.00  0.00    -0.394 OA
ATOM     11  H   UNL     1      28.301   5.262  25.268  1.00  0.00     0.210 HD
ENDBRANCH   9  10
ENDBRANCH   8   9
BRANCH   8  12
ATOM     12  O   UNL     1      28.247   3.164  23.050  1.00  0.00    -0.388 OA
ATOM     13  H   UNL     1      28.220   2.504  22.309  1.00  0.00     0.211 HD
ENDBRANCH   8  12
ENDBRANCH   1   8
BRANCH   1  14
ATOM     14  O   UNL     1      29.082   0.839  25.712  1.00  0.00    -0.388 OA
ATOM     15  H   UNL     1      28.868   1.277  26.576  1.00  0.00     0.211 HD
ENDBRANCH   1  14
TORSDOF 9
ENDMDL
MODEL 7
REMARK VINA RESULT:    -4.061      3.516      5.189
REMARK INTER + INTRA:          -6.011
REMARK INTER:                  -5.230
REMARK INTRA:                  -0.781
REMARK UNBOUND:                -0.406
REMARK SMILES OC[C@@H](O)[C@@H](O)[C@@H](O)CO
REMARK SMILES IDX 5 1 3 2 2 3 1 4 4 6 7 8 9 9 10 10 8 12 6 14
REMARK H PARENT 1 5 4 7 10 11 8 13 6 15
REMARK Flexibility Score: inf
ROOT
ATOM      1  C   UNL     1      27.731  -0.285  19.191  1.00  0.00     0.176 C 
ENDROOT
BRANCH   1   2
ATOM      2  C   UNL     1      26.859  -1.507  18.792  1.00  0.00     0.171 C 
BRANCH   2   3
ATOM      3  C   UNL     1      25.505  -1.082  18.188  1.00  0.00     0.190 C 
BRANCH   3   4
ATOM      4  O   UNL     1      24.579  -0.762  19.192  1.00  0.00    -0.394 OA
ATOM      5  H   UNL     1      24.455   0.223  19.161  1.00  0.00     0.210 HD
ENDBRANCH   3   4
ENDBRANCH   2   3
BRANCH   2   6
ATOM      6  O   UNL     1      27.539  -2.336  17.882  1.00  0.00    -0.388 OA
ATOM      7  H   UNL     1      28.461  -2.465  18.226  1.00  0.00     0.211 HD
ENDBRANCH   2   6
ENDBRANCH   1   2
BRANCH   1   8
ATOM      8  C   UNL     1      28.242  -0.341  20.656  1.00  0.00     0.171 C 
BRANCH   8   9
ATOM      9  C   UNL     1      27.216  -0.932  21.642  1.00  0.00     0.190 C 
BRANCH   9  10
ATOM     10  O   UNL     1      26.119  -0.073  21.781  1.00  0.00    -0.394 OA
ATOM     11  H   UNL     1      25.385  -0.473  21.245  1.00  0.00     0.210 HD
ENDBRANCH   9  10
ENDBRANCH   8   9
BRANCH   8  12
ATOM     12  O   UNL     1      28.570   0.966  21.060  1.00  0.00    -0.388 OA
ATOM     13  H   UNL     1      27.849   1.564  20.729  1.00  0.00     0.211 HD
ENDBRANCH   8  12
ENDBRANCH   1   8
BRANCH   1  14
ATOM     14  O   UNL     1      27.003   0.899  18.980  1.00  0.00    -0.388 OA
ATOM     15  H   UNL     1      26.889   1.334  19.865  1.00  0.00     0.211 HD
ENDBRANCH   1  14
TORSDOF 9
ENDMDL
MODEL 8
REMARK VINA RESULT:    -4.035      1.115      3.924
REMARK INTER + INTRA:          -5.974
REMARK INTER:                  -5.313
REMARK INTRA:                  -0.661
REMARK UNBOUND:                -0.406
REMARK SMILES OC[C@@H](O)[C@@H](O)[C@@H](O)CO
REMARK SMILES IDX 5 1 3 2 2 3 1 4 4 6 7 8 9 9 10 10 8 12 6 14
REMARK H PARENT 1 5 4 7 10 11 8 13 6 15
REMARK Flexibility Score: inf
ROOT
ATOM      1  C   UNL     1      29.189   1.356  22.683  1.00  0.00     0.176 C 
ENDROOT
BRANCH   1   2
ATOM      2  C   UNL     1      28.444   1.681  24.006  1.00  0.00     0.171 C 
BRANCH   2   3
ATOM      3  C   UNL     1      29.122   2.825  24.788  1.00  0.00     0.190 C 
BRANCH   3   4
ATOM      4  O   UNL     1      29.022   4.042  24.097  1.00  0.00    -0.394 OA
ATOM      5  H   UNL     1      29.560   4.703  24.606  1.00  0.00     0.210 HD
ENDBRANCH   3   4
ENDBRANCH   2   3
BRANCH   2   6
ATOM      6  O   UNL     1      27.100   2.013  23.761  1.00  0.00    -0.388 OA
ATOM      7  H   UNL     1      26.950   2.930  24.111  1.00  0.00     0.211 HD
ENDBRANCH   2   6
ENDBRANCH   1   2
BRANCH   1   8
ATOM      8  C   UNL     1      28.950  -0.093  22.177  1.00  0.00     0.171 C 
BRANCH   8   9
ATOM      9  C   UNL     1      28.040  -0.167  20.935  1.00  0.00     0.190 C 
BRANCH   9  10
ATOM     10  O   UNL     1      26.715   0.122  21.282  1.00  0.00    -0.394 OA
ATOM     11  H   UNL     1      26.621   1.109  21.217  1.00  0.00     0.210 HD
ENDBRANCH   9  10
ENDBRANCH   8   9
BRANCH   8  12
ATOM     12  O   UNL     1      28.369  -0.836  23.220  1.00  0.00    -0.388 OA
ATOM     13  H   UNL     1      28.770  -0.511  24.069  1.00  0.00     0.211 HD
ENDBRANCH   8  12
ENDBRANCH   1   8
BRANCH   1  14
ATOM     14  O   UNL     1      30.566   1.587  22.850  1.00  0.00    -0.388 OA
ATOM     15  H   UNL     1      31.038   1.046  22.165  1.00  0.00     0.211 HD
ENDBRANCH   1  14
TORSDOF 9
ENDMDL
MODEL 9
REMARK VINA RESULT:    -3.978      5.603      7.284
REMARK INTER + INTRA:          -5.896
REMARK INTER:                  -5.433
REMARK INTRA:                  -0.462
REMARK UNBOUND:                -0.406
REMARK SMILES OC[C@@H](O)[C@@H](O)[C@@H](O)CO
REMARK SMILES IDX 5 1 3 2 2 3 1 4 4 6 7 8 9 9 10 10 8 12 6 14
REMARK H PARENT 1 5 4 7 10 11 8 13 6 15
REMARK Flexibility Score: inf
ROOT
ATOM      1  C   UNL     1      25.928  -1.328  17.475  1.00  0.00     0.176 C 
ENDROOT
BRANCH   1   2
ATOM      2  C   UNL     1      26.033  -2.798  16.987  1.00  0.00     0.171 C 
BRANCH   2   3
ATOM      3  C   UNL     1      25.082  -3.088  15.808  1.00  0.00     0.190 C 
BRANCH   3   4
ATOM      4  O   UNL     1      23.841  -2.459  15.989  1.00  0.00    -0.394 OA
ATOM      5  H   UNL     1      23.801  -1.714  15.334  1.00  0.00     0.210 HD
ENDBRANCH   3   4
ENDBRANCH   2   3
BRANCH   2   6
ATOM      6  O   UNL     1      27.351  -3.114  16.614  1.00  0.00    -0.388 OA
ATOM      7  H   UNL     1      27.914  -2.317  16.801  1.00  0.00     0.211 HD
ENDBRANCH   2   6
ENDBRANCH   1   2
BRANCH   1   8
ATOM      8  C   UNL     1      27.250  -0.780  18.079  1.00  0.00     0.171 C 
BRANCH   8   9
ATOM      9  C   UNL     1      27.040   0.057  19.356  1.00  0.00     0.190 C 
BRANCH   9  10
ATOM     10  O   UNL     1      27.138   1.423  19.067  1.00  0.00    -0.394 OA
ATOM     11  H   UNL     1      26.608   1.892  19.764  1.00  0.00     0.210 HD
ENDBRANCH   9  10
ENDBRANCH   8   9
BRANCH   8  12
ATOM     12  O   UNL     1      27.885   0.014  17.106  1.00  0.00    -0.388 OA
ATOM     13  H   UNL     1      27.394   0.876  17.067  1.00  0.00     0.211 HD
ENDBRANCH   8  12
ENDBRANCH   1   8
BRANCH   1  14
ATOM     14  O   UNL     1      24.888  -1.219  18.415  1.00  0.00    -0.388 OA
ATOM     15  H   UNL     1      24.305  -2.014  18.300  1.00  0.00     0.211 HD
ENDBRANCH   1  14
TORSDOF 9
ENDMDL
