MODEL 1
REMARK VINA RESULT:    -3.062      0.000      0.000
REMARK INTER + INTRA:          -5.172
REMARK INTER:                  -4.315
REMARK INTRA:                  -0.857
REMARK UNBOUND:                -0.857
REMARK SMILES C=CCCCCCCC(=O)[O-]
REMARK SMILES IDX 6 1 7 2 8 3 9 4 10 5 11 6 5 7 4 8 3 9 2 10 1 11
REMARK H PARENT
REMARK Flexibility Score: inf
ROOT
ATOM      1  C   UNL     1       7.176  17.092  -7.625  1.00  0.00     0.000 C 
ENDROOT
BRANCH   1   2
ATOM      2  C   UNL     1       5.708  16.898  -7.216  1.00  0.00     0.006 C 
BRANCH   2   3
ATOM      3  C   UNL     1       5.216  18.006  -6.275  1.00  0.00     0.053 C 
BRANCH   3   4
ATOM      4  C   UNL     1       6.067  18.112  -5.048  1.00  0.00     0.041 C 
ATOM      5  O   UNL     1       6.576  19.218  -4.725  1.00  0.00    -0.550 OA
ATOM      6  O   UNL     1       6.325  16.985  -4.279  1.00  0.00    -0.550 OA
ENDBRANCH   3   4
ENDBRANCH   2   3
ENDBRANCH   1   2
BRANCH   1   7
ATOM      7  C   UNL     1       7.288  17.488  -9.101  1.00  0.00     0.000 C 
BRANCH   7   8
ATOM      8  C   UNL     1       7.973  18.853  -9.256  1.00  0.00     0.004 C 
BRANCH   8   9
ATOM      9  C   UNL     1       8.419  19.433  -7.909  1.00  0.00     0.027 C 
BRANCH   9  10
ATOM     10  C   UNL     1       7.782  20.772  -7.645  1.00  0.00    -0.035 C 
ATOM     11  C   UNL     1       6.622  21.124  -8.205  1.00  0.00     0.004 C 
ENDBRANCH   9  10
ENDBRANCH   8   9
ENDBRANCH   7   8
ENDBRANCH   1   7
TORSDOF 7
ENDMDL
MODEL 2
REMARK VINA RESULT:    -3.058      1.696      3.068
REMARK INTER + INTRA:          -5.166
REMARK INTER:                  -4.421
REMARK INTRA:                  -0.745
REMARK UNBOUND:                -0.857
REMARK SMILES C=CCCCCCCC(=O)[O-]
REMARK SMILES IDX 6 1 7 2 8 3 9 4 10 5 11 6 5 7 4 8 3 9 2 10 1 11
REMARK H PARENT
REMARK Flexibility Score: inf
ROOT
ATOM      1  C   UNL     1       5.190  18.161  -5.545  1.00  0.00     0.000 C 
ENDROOT
BRANCH   1   2
ATOM      2  C   UNL     1       6.557  18.479  -4.919  1.00  0.00     0.006 C 
BRANCH   2   3
ATOM      3  C   UNL     1       6.566  19.834  -4.201  1.00  0.00     0.053 C 
BRANCH   3   4
ATOM      4  C   UNL     1       7.549  20.783  -4.815  1.00  0.00     0.041 C 
ATOM      5  O   UNL     1       8.696  20.380  -5.145  1.00  0.00    -0.550 OA
ATOM      6  O   UNL     1       7.211  22.118  -4.993  1.00  0.00    -0.550 OA
ENDBRANCH   3   4
ENDBRANCH   2   3
ENDBRANCH   1   2
BRANCH   1   7
ATOM      7  C   UNL     1       5.323  17.107  -6.649  1.00  0.00     0.000 C 
BRANCH   7   8
ATOM      8  C   UNL     1       6.791  16.914  -7.054  1.00  0.00     0.004 C 
BRANCH   8   9
ATOM      9  C   UNL     1       7.074  17.430  -8.469  1.00  0.00     0.027 C 
BRANCH   9  10
ATOM     10  C   UNL     1       7.889  18.696  -8.444  1.00  0.00    -0.035 C 
ATOM     11  C   UNL     1       7.317  19.901  -8.372  1.00  0.00     0.004 C 
ENDBRANCH   9  10
ENDBRANCH   8   9
ENDBRANCH   7   8
ENDBRANCH   1   7
TORSDOF 7
ENDMDL
MODEL 3
REMARK VINA RESULT:    -2.982     18.093     18.844
REMARK INTER + INTRA:          -5.059
REMARK INTER:                  -4.670
REMARK INTRA:                  -0.389
REMARK UNBOUND:                -0.857
REMARK SMILES C=CCCCCCCC(=O)[O-]
REMARK SMILES IDX 6 1 7 2 8 3 9 4 10 5 11 6 5 7 4 8 3 9 2 10 1 11
REMARK H PARENT
REMARK Flexibility Score: inf
ROOT
ATOM      1  C   UNL     1      -3.283  31.573 -16.578  1.00  0.00     0.000 C 
ENDROOT
BRANCH   1   2
ATOM      2  C   UNL     1      -2.324  32.642 -16.032  1.00  0.00     0.006 C 
BRANCH   2   3
ATOM      3  C   UNL     1      -2.883  33.344 -14.788  1.00  0.00     0.053 C 
BRANCH   3   4
ATOM      4  C   UNL     1      -2.356  32.739 -13.524  1.00  0.00     0.041 C 
ATOM      5  O   UNL     1      -3.152  32.291 -12.656  1.00  0.00    -0.550 OA
ATOM      6  O   UNL     1      -0.988  32.699 -13.288  1.00  0.00    -0.550 OA
ENDBRANCH   3   4
ENDBRANCH   2   3
ENDBRANCH   1   2
BRANCH   1   7
ATOM      7  C   UNL     1      -3.124  31.414 -18.094  1.00  0.00     0.000 C 
BRANCH   7   8
ATOM      8  C   UNL     1      -1.709  31.806 -18.544  1.00  0.00     0.004 C 
BRANCH   8   9
ATOM      9  C   UNL     1      -1.097  30.772 -19.496  1.00  0.00     0.027 C 
BRANCH   9  10
ATOM     10  C   UNL     1      -1.855  29.471 -19.461  1.00  0.00    -0.035 C 
ATOM     11  C   UNL     1      -1.993  28.704 -20.546  1.00  0.00     0.004 C 
ENDBRANCH   9  10
ENDBRANCH   8   9
ENDBRANCH   7   8
ENDBRANCH   1   7
TORSDOF 7
ENDMDL
MODEL 4
REMARK VINA RESULT:    -2.980      2.364      3.217
REMARK INTER + INTRA:          -5.056
REMARK INTER:                  -4.513
REMARK INTRA:                  -0.544
REMARK UNBOUND:                -0.857
REMARK SMILES C=CCCCCCCC(=O)[O-]
REMARK SMILES IDX 6 1 7 2 8 3 9 4 10 5 11 6 5 7 4 8 3 9 2 10 1 11
REMARK H PARENT
REMARK Flexibility Score: inf
ROOT
ATOM      1  C   UNL     1       6.749  19.486  -7.411  1.00  0.00     0.000 C 
ENDROOT
BRANCH   1   2
ATOM      2  C   UNL     1       7.506  18.212  -7.006  1.00  0.00     0.006 C 
BRANCH   2   3
ATOM      3  C   UNL     1       6.561  17.028  -6.762  1.00  0.00     0.053 C 
BRANCH   3   4
ATOM      4  C   UNL     1       5.830  17.159  -5.461  1.00  0.00     0.041 C 
ATOM      5  O   UNL     1       4.634  17.552  -5.444  1.00  0.00    -0.550 OA
ATOM      6  O   UNL     1       6.479  16.877  -4.266  1.00  0.00    -0.550 OA
ENDBRANCH   3   4
ENDBRANCH   2   3
ENDBRANCH   1   2
BRANCH   1   7
ATOM      7  C   UNL     1       7.262  20.701  -6.629  1.00  0.00     0.000 C 
BRANCH   7   8
ATOM      8  C   UNL     1       7.945  20.268  -5.324  1.00  0.00     0.004 C 
BRANCH   8   9
ATOM      9  C   UNL     1       7.101  20.604  -4.089  1.00  0.00     0.027 C 
BRANCH   9  10
ATOM     10  C   UNL     1       6.915  22.090  -3.933  1.00  0.00    -0.035 C 
ATOM     11  C   UNL     1       7.954  22.928  -3.876  1.00  0.00     0.004 C 
ENDBRANCH   9  10
ENDBRANCH   8   9
ENDBRANCH   7   8
ENDBRANCH   1   7
TORSDOF 7
ENDMDL
MODEL 5
REMARK VINA RESULT:    -2.972      2.427      4.162
REMARK INTER + INTRA:          -5.045
REMARK INTER:                  -4.331
REMARK INTRA:                  -0.714
REMARK UNBOUND:                -0.857
REMARK SMILES C=CCCCCCCC(=O)[O-]
REMARK SMILES IDX 6 1 7 2 8 3 9 4 10 5 11 6 5 7 4 8 3 9 2 10 1 11
REMARK H PARENT
REMARK Flexibility Score: inf
ROOT
ATOM      1  C   UNL     1       7.082  20.045  -7.000  1.00  0.00     0.000 C 
ENDROOT
BRANCH   1   2
ATOM      2  C   UNL     1       8.067  19.854  -5.836  1.00  0.00     0.006 C 
BRANCH   2   3
ATOM      3  C   UNL     1       7.611  20.580  -4.564  1.00  0.00     0.053 C 
BRANCH   3   4
ATOM      4  C   UNL     1       7.847  22.056  -4.651  1.00  0.00     0.041 C 
ATOM      5  O   UNL     1       9.014  22.502  -4.814  1.00  0.00    -0.550 OA
ATOM      6  O   UNL     1       6.784  22.941  -4.520  1.00  0.00    -0.550 OA
ENDBRANCH   3   4
ENDBRANCH   2   3
ENDBRANCH   1   2
BRANCH   1   7
ATOM      7  C   UNL     1       7.139  18.859  -7.969  1.00  0.00     0.000 C 
BRANCH   7   8
ATOM      8  C   UNL     1       6.648  17.571  -7.294  1.00  0.00     0.004 C 
BRANCH   8   9
ATOM      9  C   UNL     1       5.201  17.691  -6.802  1.00  0.00     0.027 C 
BRANCH   9  10
ATOM     10  C   UNL     1       5.092  17.406  -5.327  1.00  0.00    -0.035 C 
ATOM     11  C   UNL     1       6.158  17.080  -4.592  1.00  0.00     0.004 C 
ENDBRANCH   9  10
ENDBRANCH   8   9
ENDBRANCH   7   8
ENDBRANCH   1   7
TORSDOF 7
ENDMDL
MODEL 6
REMARK VINA RESULT:    -2.937     13.890     15.243
REMARK INTER + INTRA:          -4.996
REMARK INTER:                  -4.321
REMARK INTRA:                  -0.674
REMARK UNBOUND:                -0.857
REMARK SMILES C=CCCCCCCC(=O)[O-]
REMARK SMILES IDX 6 1 7 2 8 3 9 4 10 5 11 6 5 7 4 8 3 9 2 10 1 11
REMARK H PARENT
REMARK Flexibility Score: inf
ROOT
ATOM      1  C   UNL     1      -7.671  22.856  -8.822  1.00  0.00     0.000 C 
ENDROOT
BRANCH   1   2
ATOM      2  C   UNL     1      -9.097  22.838  -8.251  1.00  0.00     0.006 C 
BRANCH   2   3
ATOM      3  C   UNL     1      -9.181  22.078  -6.920  1.00  0.00     0.053 C 
BRANCH   3   4
ATOM      4  C   UNL     1      -8.273  22.668  -5.885  1.00  0.00     0.041 C 
ATOM      5  O   UNL     1      -7.326  21.986  -5.412  1.00  0.00    -0.550 OA
ATOM      6  O   UNL     1      -8.492  23.958  -5.420  1.00  0.00    -0.550 OA
ENDBRANCH   3   4
ENDBRANCH   2   3
ENDBRANCH   1   2
BRANCH   1   7
ATOM      7  C   UNL     1      -7.334  21.525  -9.503  1.00  0.00     0.000 C 
BRANCH   7   8
ATOM      8  C   UNL     1      -6.204  20.797  -8.761  1.00  0.00     0.004 C 
BRANCH   8   9
ATOM      9  C   UNL     1      -6.707  19.555  -8.017  1.00  0.00     0.027 C 
BRANCH   9  10
ATOM     10  C   UNL     1      -7.571  18.693  -8.899  1.00  0.00    -0.035 C 
ATOM     11  C   UNL     1      -7.625  17.366  -8.754  1.00  0.00     0.004 C 
ENDBRANCH   9  10
ENDBRANCH   8   9
ENDBRANCH   7   8
ENDBRANCH   1   7
TORSDOF 7
ENDMDL
MODEL 7
REMARK VINA RESULT:    -2.905     17.179     18.535
REMARK INTER + INTRA:          -4.951
REMARK INTER:                  -4.594
REMARK INTRA:                  -0.357
REMARK UNBOUND:                -0.857
REMARK SMILES C=CCCCCCCC(=O)[O-]
REMARK SMILES IDX 6 1 7 2 8 3 9 4 10 5 11 6 5 7 4 8 3 9 2 10 1 11
REMARK H PARENT
REMARK Flexibility Score: inf
ROOT
ATOM      1  C   UNL     1      -1.705  32.912 -13.475  1.00  0.00     0.000 C 
ENDROOT
BRANCH   1   2
ATOM      2  C   UNL     1      -1.661  32.334 -14.897  1.00  0.00     0.006 C 
BRANCH   2   3
ATOM      3  C   UNL     1      -2.864  32.774 -15.741  1.00  0.00     0.053 C 
BRANCH   3   4
ATOM      4  C   UNL     1      -3.337  31.681 -16.649  1.00  0.00     0.041 C 
ATOM      5  O   UNL     1      -3.889  30.656 -16.170  1.00  0.00    -0.550 OA
ATOM      6  O   UNL     1      -3.139  31.780 -18.020  1.00  0.00    -0.550 OA
ENDBRANCH   3   4
ENDBRANCH   2   3
ENDBRANCH   1   2
BRANCH   1   7
ATOM      7  C   UNL     1      -1.522  31.808 -12.427  1.00  0.00     0.000 C 
BRANCH   7   8
ATOM      8  C   UNL     1      -2.823  31.018 -12.225  1.00  0.00     0.004 C 
BRANCH   8   9
ATOM      9  C   UNL     1      -3.939  31.884 -11.629  1.00  0.00     0.027 C 
BRANCH   9  10
ATOM     10  C   UNL     1      -4.228  31.507 -10.200  1.00  0.00    -0.035 C 
ATOM     11  C   UNL     1      -4.997  32.264  -9.413  1.00  0.00     0.004 C 
ENDBRANCH   9  10
ENDBRANCH   8   9
ENDBRANCH   7   8
ENDBRANCH   1   7
TORSDOF 7
ENDMDL
MODEL 8
REMARK VINA RESULT:    -2.898      2.382      3.538
REMARK INTER + INTRA:          -4.941
REMARK INTER:                  -4.196
REMARK INTRA:                  -0.745
REMARK UNBOUND:                -0.857
REMARK SMILES C=CCCCCCCC(=O)[O-]
REMARK SMILES IDX 6 1 7 2 8 3 9 4 10 5 11 6 5 7 4 8 3 9 2 10 1 11
REMARK H PARENT
REMARK Flexibility Score: inf
ROOT
ATOM      1  C   UNL     1       5.206  18.098  -5.483  1.00  0.00     0.000 C 
ENDROOT
BRANCH   1   2
ATOM      2  C   UNL     1       5.542  17.563  -6.883  1.00  0.00     0.006 C 
BRANCH   2   3
ATOM      3  C   UNL     1       6.913  16.876  -6.929  1.00  0.00     0.053 C 
BRANCH   3   4
ATOM      4  C   UNL     1       7.715  17.313  -8.116  1.00  0.00     0.041 C 
ATOM      5  O   UNL     1       8.907  17.690  -7.971  1.00  0.00    -0.550 OA
ATOM      6  O   UNL     1       7.136  17.334  -9.379  1.00  0.00    -0.550 OA
ENDBRANCH   3   4
ENDBRANCH   2   3
ENDBRANCH   1   2
BRANCH   1   7
ATOM      7  C   UNL     1       6.481  18.361  -4.674  1.00  0.00     0.000 C 
BRANCH   7   8
ATOM      8  C   UNL     1       6.567  19.833  -4.244  1.00  0.00     0.004 C 
BRANCH   8   9
ATOM      9  C   UNL     1       7.879  20.489  -4.686  1.00  0.00     0.027 C 
BRANCH   9  10
ATOM     10  C   UNL     1       8.053  20.427  -6.180  1.00  0.00    -0.035 C 
ATOM     11  C   UNL     1       7.365  21.223  -7.004  1.00  0.00     0.004 C 
ENDBRANCH   9  10
ENDBRANCH   8   9
ENDBRANCH   7   8
ENDBRANCH   1   7
TORSDOF 7
ENDMDL
MODEL 9
REMARK VINA RESULT:    -2.867      2.928      4.715
REMARK INTER + INTRA:          -4.897
REMARK INTER:                  -4.429
REMARK INTRA:                  -0.468
REMARK UNBOUND:                -0.857
REMARK SMILES C=CCCCCCCC(=O)[O-]
REMARK SMILES IDX 6 1 7 2 8 3 9 4 10 5 11 6 5 7 4 8 3 9 2 10 1 11
REMARK H PARENT
REMARK Flexibility Score: inf
ROOT
ATOM      1  C   UNL     1       8.488  19.566  -6.514  1.00  0.00     0.000 C 
ENDROOT
BRANCH   1   2
ATOM      2  C   UNL     1       8.947  18.844  -7.790  1.00  0.00     0.006 C 
BRANCH   2   3
ATOM      3  C   UNL     1       7.768  18.441  -8.686  1.00  0.00     0.053 C 
BRANCH   3   4
ATOM      4  C   UNL     1       7.806  19.148 -10.006  1.00  0.00     0.041 C 
ATOM      5  O   UNL     1       7.549  20.379 -10.073  1.00  0.00    -0.550 OA
ATOM      6  O   UNL     1       8.092  18.440 -11.167  1.00  0.00    -0.550 OA
ENDBRANCH   3   4
ENDBRANCH   2   3
ENDBRANCH   1   2
BRANCH   1   7
ATOM      7  C   UNL     1       6.959  19.572  -6.406  1.00  0.00     0.000 C 
BRANCH   7   8
ATOM      8  C   UNL     1       6.504  19.167  -4.996  1.00  0.00     0.004 C 
BRANCH   8   9
ATOM      9  C   UNL     1       6.266  17.657  -4.876  1.00  0.00     0.027 C 
BRANCH   9  10
ATOM     10  C   UNL     1       5.002  17.239  -5.580  1.00  0.00    -0.035 C 
ATOM     11  C   UNL     1       4.997  16.876  -6.865  1.00  0.00     0.004 C 
ENDBRANCH   9  10
ENDBRANCH   8   9
ENDBRANCH   7   8
ENDBRANCH   1   7
TORSDOF 7
ENDMDL
