MODEL 1
REMARK VINA RESULT:    -3.807      0.000      0.000
REMARK INTER + INTRA:          -5.899
REMARK INTER:                  -5.810
REMARK INTRA:                  -0.089
REMARK UNBOUND:                -0.089
REMARK SMILES CC1=CCC[C@@H](C)C(=O)C[C@@H](C(C)C)C(=O)C1
REMARK SMILES IDX 8 1 9 2 6 3 7 4 5 5 4 6 3 7 2 8 1 9 10 11 11 12 15 13 16 14
REMARK SMILES IDX 17 15 12 17 13 18 14 19
REMARK H PARENT
REMARK Flexibility Score: 70.00
ROOT
ATOM      1  C   UNL     1       8.926 -29.659  14.601  1.00  0.00     0.136 C 
ATOM      2  O   UNL     1       9.983 -29.145  14.943  1.00  0.00    -0.299 OA
ENDROOT
BRANCH   1   3
ATOM      3  C   UNL     1       8.785 -30.225  13.188  1.00  0.00     0.053 C 
ATOM      4  C   UNL     1       9.955 -29.804  12.282  1.00  0.00     0.016 C 
BRANCH   3   5
ATOM      5  C   UNL     1       7.431 -29.837  12.525  1.00  0.00     0.015 C 
BRANCH   5   6
ATOM      6  C   UNL     1       6.316 -30.881  12.718  1.00  0.00     0.028 C 
BRANCH   6   7
ATOM      7  C   UNL     1       6.812 -32.274  13.044  1.00  0.00    -0.028 C 
ATOM      8  C   UNL     1       6.780 -32.873  14.260  1.00  0.00    -0.070 CG0
ATOM      9  C   UNL     1       7.301 -34.282  14.367  1.00  0.00     0.039 C 
ATOM     10  G   UNL     1       6.258 -32.199  15.515  1.00  0.00     0.000 G0
ENDBRANCH   6   7
ENDBRANCH   5   6
ENDBRANCH   3   5
ENDBRANCH   1   3
BRANCH   1  11
ATOM     11  C   UNL     1       7.812 -29.744  15.630  1.00  0.00     0.087 C 
BRANCH  11  12
ATOM     12  C   UNL     1       8.116 -30.726  16.808  1.00  0.00     0.066 C 
BRANCH  12  13
ATOM     13  C   UNL     1       7.285 -31.996  16.621  1.00  0.00     0.140 C 
ATOM     14  O   UNL     1       7.428 -32.904  17.428  1.00  0.00    -0.299 OA
BRANCH  13  15
ATOM     15  C   UNL     1       6.255 -32.194  15.521  1.00  0.00     0.106 CG0
ATOM     16  G   UNL     1       6.774 -32.865  14.264  1.00  0.00     0.000 G0
ENDBRANCH  13  15
ENDBRANCH  12  13
BRANCH  12  17
ATOM     17  C   UNL     1       7.852 -30.065  18.199  1.00  0.00    -0.006 C 
ATOM     18  C   UNL     1       8.894 -28.985  18.539  1.00  0.00     0.008 C 
ATOM     19  C   UNL     1       6.451 -29.426  18.257  1.00  0.00     0.008 C 
ENDBRANCH  12  17
ENDBRANCH  11  12
ENDBRANCH   1  11
TORSDOF 1
ENDMDL
MODEL 2
REMARK VINA RESULT:    -3.314      1.482      4.091
REMARK INTER + INTRA:          -5.147
REMARK INTER:                  -5.235
REMARK INTRA:                   0.088
REMARK UNBOUND:                -0.089
REMARK SMILES CC1=CCC[C@@H](C)C(=O)C[C@@H](C(C)C)C(=O)C1
REMARK SMILES IDX 8 1 9 2 6 3 7 4 5 5 4 6 3 7 2 8 1 9 10 11 11 12 15 13 16 14
REMARK SMILES IDX 17 15 12 17 13 18 14 19
REMARK H PARENT
REMARK Flexibility Score: 70.00
ROOT
ATOM      1  C   UNL     1       8.553 -30.004  16.439  1.00  0.00     0.136 C 
ATOM      2  O   UNL     1       9.250 -29.172  17.004  1.00  0.00    -0.299 OA
ENDROOT
BRANCH   1   3
ATOM      3  C   UNL     1       7.229 -30.433  17.071  1.00  0.00     0.053 C 
ATOM      4  C   UNL     1       7.067 -29.881  18.498  1.00  0.00     0.016 C 
BRANCH   3   5
ATOM      5  C   UNL     1       7.044 -31.979  17.074  1.00  0.00     0.015 C 
BRANCH   5   6
ATOM      6  C   UNL     1       5.998 -32.487  16.066  1.00  0.00     0.028 C 
BRANCH   6   7
ATOM      7  C   UNL     1       6.578 -33.009  14.768  1.00  0.00    -0.028 C 
ATOM      8  C   UNL     1       6.839 -32.279  13.656  1.00  0.00    -0.070 CG0
ATOM      9  C   UNL     1       7.445 -32.986  12.473  1.00  0.00     0.039 C 
ATOM     10  G   UNL     1       6.546 -30.795  13.537  1.00  0.00     0.000 G0
ENDBRANCH   6   7
ENDBRANCH   5   6
ENDBRANCH   3   5
ENDBRANCH   1   3
BRANCH   1  11
ATOM     11  C   UNL     1       9.033 -30.542  15.103  1.00  0.00     0.087 C 
BRANCH  11  12
ATOM     12  C   UNL     1       8.905 -29.516  13.929  1.00  0.00     0.066 C 
BRANCH  12  13
ATOM     13  C   UNL     1       7.710 -29.906  13.059  1.00  0.00     0.140 C 
ATOM     14  O   UNL     1       7.694 -29.525  11.897  1.00  0.00    -0.299 OA
BRANCH  13  15
ATOM     15  C   UNL     1       6.554 -30.775  13.525  1.00  0.00     0.106 CG0
ATOM     16  G   UNL     1       6.864 -32.256  13.636  1.00  0.00     0.000 G0
ENDBRANCH  13  15
ENDBRANCH  12  13
BRANCH  12  17
ATOM     17  C   UNL     1      10.221 -29.425  13.092  1.00  0.00    -0.006 C 
ATOM     18  C   UNL     1      11.320 -28.628  13.817  1.00  0.00     0.008 C 
ATOM     19  C   UNL     1      10.773 -30.826  12.762  1.00  0.00     0.008 C 
ENDBRANCH  12  17
ENDBRANCH  11  12
ENDBRANCH   1  11
TORSDOF 1
ENDMDL
MODEL 3
REMARK VINA RESULT:    -3.281      1.919      4.903
REMARK INTER + INTRA:          -5.096
REMARK INTER:                  -4.760
REMARK INTRA:                  -0.336
REMARK UNBOUND:                -0.089
REMARK SMILES CC1=CCC[C@@H](C)C(=O)C[C@@H](C(C)C)C(=O)C1
REMARK SMILES IDX 8 1 9 2 6 3 7 4 5 5 4 6 3 7 2 8 1 9 10 11 11 12 15 13 16 14
REMARK SMILES IDX 17 15 12 17 13 18 14 19
REMARK H PARENT
REMARK Flexibility Score: 70.00
ROOT
ATOM      1  C   UNL     1       6.804 -32.342  16.597  1.00  0.00     0.136 C 
ATOM      2  O   UNL     1       7.042 -33.347  17.254  1.00  0.00    -0.299 OA
ENDROOT
BRANCH   1   3
ATOM      3  C   UNL     1       6.993 -30.964  17.232  1.00  0.00     0.053 C 
ATOM      4  C   UNL     1       6.071 -29.908  16.598  1.00  0.00     0.016 C 
BRANCH   3   5
ATOM      5  C   UNL     1       8.472 -30.482  17.177  1.00  0.00     0.015 C 
BRANCH   5   6
ATOM      6  C   UNL     1       8.695 -29.243  16.290  1.00  0.00     0.028 C 
BRANCH   6   7
ATOM      7  C   UNL     1       9.610 -29.475  15.106  1.00  0.00    -0.028 C 
ATOM      8  C   UNL     1       9.224 -29.738  13.834  1.00  0.00    -0.070 CG0
ATOM      9  C   UNL     1      10.297 -29.911  12.792  1.00  0.00     0.039 C 
ATOM     10  G   UNL     1       7.775 -29.876  13.407  1.00  0.00     0.000 G0
ENDBRANCH   6   7
ENDBRANCH   5   6
ENDBRANCH   3   5
ENDBRANCH   1   3
BRANCH   1  11
ATOM     11  C   UNL     1       6.366 -32.524  15.155  1.00  0.00     0.087 C 
BRANCH  11  12
ATOM     12  C   UNL     1       7.543 -32.463  14.127  1.00  0.00     0.066 C 
BRANCH  12  13
ATOM     13  C   UNL     1       7.299 -31.302  13.163  1.00  0.00     0.140 C 
ATOM     14  O   UNL     1       6.648 -31.520  12.150  1.00  0.00    -0.299 OA
BRANCH  13  15
ATOM     15  C   UNL     1       7.773 -29.877  13.395  1.00  0.00     0.106 CG0
ATOM     16  G   UNL     1       9.223 -29.741  13.820  1.00  0.00     0.000 G0
ENDBRANCH  13  15
ENDBRANCH  12  13
BRANCH  12  17
ATOM     17  C   UNL     1       7.719 -33.816  13.366  1.00  0.00    -0.006 C 
ATOM     18  C   UNL     1       9.178 -34.306  13.378  1.00  0.00     0.008 C 
ATOM     19  C   UNL     1       6.830 -34.920  13.972  1.00  0.00     0.008 C 
ENDBRANCH  12  17
ENDBRANCH  11  12
ENDBRANCH   1  11
TORSDOF 1
ENDMDL
MODEL 4
REMARK VINA RESULT:    -3.160      1.908      3.989
REMARK INTER + INTRA:          -4.911
REMARK INTER:                  -4.979
REMARK INTRA:                   0.068
REMARK UNBOUND:                -0.089
REMARK SMILES CC1=CCC[C@@H](C)C(=O)C[C@@H](C(C)C)C(=O)C1
REMARK SMILES IDX 8 1 9 2 6 3 7 4 5 5 4 6 3 7 2 8 1 9 10 11 11 12 15 13 16 14
REMARK SMILES IDX 17 15 12 17 13 18 14 19
REMARK H PARENT
REMARK Flexibility Score: 70.00
ROOT
ATOM      1  C   UNL     1       6.995 -29.713  17.488  1.00  0.00     0.136 C 
ATOM      2  O   UNL     1       6.366 -28.923  18.179  1.00  0.00    -0.299 OA
ENDROOT
BRANCH   1   3
ATOM      3  C   UNL     1       8.524 -29.681  17.506  1.00  0.00     0.053 C 
ATOM      4  C   UNL     1       9.071 -29.156  18.845  1.00  0.00     0.016 C 
BRANCH   3   5
ATOM      5  C   UNL     1       9.115 -28.853  16.328  1.00  0.00     0.015 C 
BRANCH   5   6
ATOM      6  C   UNL     1       9.747 -29.710  15.215  1.00  0.00     0.028 C 
BRANCH   6   7
ATOM      7  C   UNL     1       9.071 -29.582  13.866  1.00  0.00    -0.028 C 
ATOM      8  C   UNL     1       8.354 -30.543  13.234  1.00  0.00    -0.070 CG0
ATOM      9  C   UNL     1       7.738 -30.205  11.902  1.00  0.00     0.039 C 
ATOM     10  G   UNL     1       8.147 -31.939  13.791  1.00  0.00     0.000 G0
ENDBRANCH   6   7
ENDBRANCH   5   6
ENDBRANCH   3   5
ENDBRANCH   1   3
BRANCH   1  11
ATOM     11  C   UNL     1       6.209 -30.723  16.670  1.00  0.00     0.087 C 
BRANCH  11  12
ATOM     12  C   UNL     1       7.044 -31.972  16.240  1.00  0.00     0.066 C 
BRANCH  12  13
ATOM     13  C   UNL     1       6.975 -32.116  14.719  1.00  0.00     0.140 C 
ATOM     14  O   UNL     1       5.887 -32.343  14.210  1.00  0.00    -0.299 OA
BRANCH  13  15
ATOM     15  C   UNL     1       8.163 -31.951  13.785  1.00  0.00     0.106 CG0
ATOM     16  G   UNL     1       8.348 -30.558  13.215  1.00  0.00     0.000 G0
ENDBRANCH  13  15
ENDBRANCH  12  13
BRANCH  12  17
ATOM     17  C   UNL     1       6.561 -33.271  16.963  1.00  0.00    -0.006 C 
ATOM     18  C   UNL     1       6.523 -34.485  16.018  1.00  0.00     0.008 C 
ATOM     19  C   UNL     1       7.469 -33.615  18.160  1.00  0.00     0.008 C 
ENDBRANCH  12  17
ENDBRANCH  11  12
ENDBRANCH   1  11
TORSDOF 1
ENDMDL
MODEL 5
REMARK VINA RESULT:    -3.037      1.663      4.058
REMARK INTER + INTRA:          -4.723
REMARK INTER:                  -4.653
REMARK INTRA:                  -0.070
REMARK UNBOUND:                -0.089
REMARK SMILES CC1=CCC[C@@H](C)C(=O)C[C@@H](C(C)C)C(=O)C1
REMARK SMILES IDX 8 1 9 2 6 3 7 4 5 5 4 6 3 7 2 8 1 9 10 11 11 12 15 13 16 14
REMARK SMILES IDX 17 15 12 17 13 18 14 19
REMARK H PARENT
REMARK Flexibility Score: 70.00
ROOT
ATOM      1  C   UNL     1       9.767 -29.370  15.414  1.00  0.00     0.136 C 
ATOM      2  O   UNL     1      10.701 -28.890  14.786  1.00  0.00    -0.299 OA
ENDROOT
BRANCH   1   3
ATOM      3  C   UNL     1       9.293 -28.689  16.699  1.00  0.00     0.053 C 
ATOM      4  C   UNL     1      10.273 -27.597  17.165  1.00  0.00     0.016 C 
BRANCH   3   5
ATOM      5  C   UNL     1       9.039 -29.704  17.851  1.00  0.00     0.015 C 
BRANCH   5   6
ATOM      6  C   UNL     1       7.563 -30.108  18.017  1.00  0.00     0.028 C 
BRANCH   6   7
ATOM      7  C   UNL     1       7.286 -31.580  17.797  1.00  0.00    -0.028 C 
ATOM      8  C   UNL     1       6.609 -32.123  16.757  1.00  0.00    -0.070 CG0
ATOM      9  C   UNL     1       6.465 -33.621  16.711  1.00  0.00     0.039 C 
ATOM     10  G   UNL     1       5.980 -31.304  15.645  1.00  0.00     0.000 G0
ENDBRANCH   6   7
ENDBRANCH   5   6
ENDBRANCH   3   5
ENDBRANCH   1   3
BRANCH   1  11
ATOM     11  C   UNL     1       9.095 -30.610  14.851  1.00  0.00     0.087 C 
BRANCH  11  12
ATOM     12  C   UNL     1       7.843 -30.301  13.967  1.00  0.00     0.066 C 
BRANCH  12  13
ATOM     13  C   UNL     1       6.736 -31.299  14.310  1.00  0.00     0.140 C 
ATOM     14  O   UNL     1       6.472 -32.170  13.492  1.00  0.00    -0.299 OA
BRANCH  13  15
ATOM     15  C   UNL     1       5.967 -31.314  15.620  1.00  0.00     0.106 CG0
ATOM     16  G   UNL     1       6.618 -32.099  16.743  1.00  0.00     0.000 G0
ENDBRANCH  13  15
ENDBRANCH  12  13
BRANCH  12  17
ATOM     17  C   UNL     1       8.187 -30.324  12.443  1.00  0.00    -0.006 C 
ATOM     18  C   UNL     1       8.678 -28.957  11.935  1.00  0.00     0.008 C 
ATOM     19  C   UNL     1       9.269 -31.377  12.131  1.00  0.00     0.008 C 
ENDBRANCH  12  17
ENDBRANCH  11  12
ENDBRANCH   1  11
TORSDOF 1
ENDMDL
MODEL 6
REMARK VINA RESULT:    -3.008      1.716      4.070
REMARK INTER + INTRA:          -4.679
REMARK INTER:                  -4.948
REMARK INTRA:                   0.270
REMARK UNBOUND:                -0.089
REMARK SMILES CC1=CCC[C@@H](C)C(=O)C[C@@H](C(C)C)C(=O)C1
REMARK SMILES IDX 8 1 9 2 6 3 7 4 5 5 4 6 3 7 2 8 1 9 10 11 11 12 15 13 16 14
REMARK SMILES IDX 17 15 12 17 13 18 14 19
REMARK H PARENT
REMARK Flexibility Score: 70.00
ROOT
ATOM      1  C   UNL     1       8.495 -29.797  16.122  1.00  0.00     0.136 C 
ATOM      2  O   UNL     1       8.996 -29.125  17.014  1.00  0.00    -0.299 OA
ENDROOT
BRANCH   1   3
ATOM      3  C   UNL     1       7.132 -30.453  16.346  1.00  0.00     0.053 C 
ATOM      4  C   UNL     1       6.120 -29.475  16.969  1.00  0.00     0.016 C 
BRANCH   3   5
ATOM      5  C   UNL     1       7.228 -31.743  17.211  1.00  0.00     0.015 C 
BRANCH   5   6
ATOM      6  C   UNL     1       7.819 -32.954  16.467  1.00  0.00     0.028 C 
BRANCH   6   7
ATOM      7  C   UNL     1       6.987 -33.438  15.297  1.00  0.00    -0.028 C 
ATOM      8  C   UNL     1       7.444 -33.728  14.054  1.00  0.00    -0.070 CG0
ATOM      9  C   UNL     1       6.452 -34.223  13.035  1.00  0.00     0.039 C 
ATOM     10  G   UNL     1       8.893 -33.572  13.634  1.00  0.00     0.000 G0
ENDBRANCH   6   7
ENDBRANCH   5   6
ENDBRANCH   3   5
ENDBRANCH   1   3
BRANCH   1  11
ATOM     11  C   UNL     1       9.250 -29.909  14.809  1.00  0.00     0.087 C 
BRANCH  11  12
ATOM     12  C   UNL     1       8.591 -30.891  13.786  1.00  0.00     0.066 C 
BRANCH  12  13
ATOM     13  C   UNL     1       9.444 -32.157  13.695  1.00  0.00     0.140 C 
ATOM     14  O   UNL     1      10.661 -32.037  13.733  1.00  0.00    -0.299 OA
BRANCH  13  15
ATOM     15  C   UNL     1       8.883 -33.566  13.605  1.00  0.00     0.106 CG0
ATOM     16  G   UNL     1       7.437 -33.715  14.039  1.00  0.00     0.000 G0
ENDBRANCH  13  15
ENDBRANCH  12  13
BRANCH  12  17
ATOM     17  C   UNL     1       8.397 -30.227  12.385  1.00  0.00    -0.006 C 
ATOM     18  C   UNL     1       7.017 -29.561  12.240  1.00  0.00     0.008 C 
ATOM     19  C   UNL     1       9.481 -29.164  12.115  1.00  0.00     0.008 C 
ENDBRANCH  12  17
ENDBRANCH  11  12
ENDBRANCH   1  11
TORSDOF 1
ENDMDL
MODEL 7
REMARK VINA RESULT:    -2.876      1.504      2.238
REMARK INTER + INTRA:          -4.478
REMARK INTER:                  -5.235
REMARK INTRA:                   0.757
REMARK UNBOUND:                -0.089
REMARK SMILES CC1=CCC[C@@H](C)C(=O)C[C@@H](C(C)C)C(=O)C1
REMARK SMILES IDX 8 1 9 2 6 3 7 4 5 5 4 6 3 7 2 8 1 9 10 11 11 12 15 13 16 14
REMARK SMILES IDX 17 15 12 17 13 18 14 19
REMARK H PARENT
REMARK Flexibility Score: 70.00
ROOT
ATOM      1  C   UNL     1       8.746 -30.285  14.215  1.00  0.00     0.136 C 
ATOM      2  O   UNL     1       9.833 -30.834  14.339  1.00  0.00    -0.299 OA
ENDROOT
BRANCH   1   3
ATOM      3  C   UNL     1       7.798 -30.730  13.101  1.00  0.00     0.053 C 
ATOM      4  C   UNL     1       7.715 -29.692  11.969  1.00  0.00     0.016 C 
BRANCH   3   5
ATOM      5  C   UNL     1       6.371 -31.058  13.630  1.00  0.00     0.015 C 
BRANCH   5   6
ATOM      6  C   UNL     1       6.146 -32.548  13.944  1.00  0.00     0.028 C 
BRANCH   6   7
ATOM      7  C   UNL     1       6.849 -33.039  15.192  1.00  0.00    -0.028 C 
ATOM      8  C   UNL     1       6.873 -32.418  16.396  1.00  0.00    -0.070 CG0
ATOM      9  C   UNL     1       7.611 -33.089  17.524  1.00  0.00     0.039 C 
ATOM     10  G   UNL     1       6.206 -31.082  16.666  1.00  0.00     0.000 G0
ENDBRANCH   6   7
ENDBRANCH   5   6
ENDBRANCH   3   5
ENDBRANCH   1   3
BRANCH   1  11
ATOM     11  C   UNL     1       8.379 -29.204  15.216  1.00  0.00     0.087 C 
BRANCH  11  12
ATOM     12  C   UNL     1       8.509 -29.656  16.707  1.00  0.00     0.066 C 
BRANCH  12  13
ATOM     13  C   UNL     1       7.119 -30.001  17.243  1.00  0.00     0.140 C 
ATOM     14  O   UNL     1       6.687 -29.354  18.187  1.00  0.00    -0.299 OA
BRANCH  13  15
ATOM     15  C   UNL     1       6.212 -31.070  16.655  1.00  0.00     0.106 CG0
ATOM     16  G   UNL     1       6.873 -32.412  16.405  1.00  0.00     0.000 G0
ENDBRANCH  13  15
ENDBRANCH  12  13
BRANCH  12  17
ATOM     17  C   UNL     1       9.210 -28.570  17.585  1.00  0.00    -0.006 C 
ATOM     18  C   UNL     1       9.553 -29.089  18.992  1.00  0.00     0.008 C 
ATOM     19  C   UNL     1      10.508 -28.068  16.922  1.00  0.00     0.008 C 
ENDBRANCH  12  17
ENDBRANCH  11  12
ENDBRANCH   1  11
TORSDOF 1
ENDMDL
MODEL 8
REMARK VINA RESULT:    -2.669      1.882      2.579
REMARK INTER + INTRA:          -4.161
REMARK INTER:                  -4.486
REMARK INTRA:                   0.325
REMARK UNBOUND:                -0.089
REMARK SMILES CC1=CCC[C@@H](C)C(=O)C[C@@H](C(C)C)C(=O)C1
REMARK SMILES IDX 8 1 9 2 6 3 7 4 5 5 4 6 3 7 2 8 1 9 10 11 11 12 15 13 16 14
REMARK SMILES IDX 17 15 12 17 13 18 14 19
REMARK H PARENT
REMARK Flexibility Score: 70.00
ROOT
ATOM      1  C   UNL     1       9.862 -30.861  13.389  1.00  0.00     0.136 C 
ATOM      2  O   UNL     1      10.437 -30.315  12.456  1.00  0.00    -0.299 OA
ENDROOT
BRANCH   1   3
ATOM      3  C   UNL     1       9.772 -32.387  13.429  1.00  0.00     0.053 C 
ATOM      4  C   UNL     1      11.131 -33.035  13.745  1.00  0.00     0.016 C 
BRANCH   3   5
ATOM      5  C   UNL     1       9.191 -32.983  12.113  1.00  0.00     0.015 C 
BRANCH   5   6
ATOM      6  C   UNL     1       7.887 -33.779  12.308  1.00  0.00     0.028 C 
BRANCH   6   7
ATOM      7  C   UNL     1       7.540 -34.069  13.753  1.00  0.00    -0.028 C 
ATOM      8  C   UNL     1       6.737 -33.323  14.550  1.00  0.00    -0.070 CG0
ATOM      9  C   UNL     1       6.496 -33.801  15.958  1.00  0.00     0.039 C 
ATOM     10  G   UNL     1       6.077 -32.031  14.105  1.00  0.00     0.000 G0
ENDBRANCH   6   7
ENDBRANCH   5   6
ENDBRANCH   3   5
ENDBRANCH   1   3
BRANCH   1  11
ATOM     11  C   UNL     1       9.300 -29.980  14.490  1.00  0.00     0.087 C 
BRANCH  11  12
ATOM     12  C   UNL     1       8.069 -30.601  15.227  1.00  0.00     0.066 C 
BRANCH  12  13
ATOM     13  C   UNL     1       6.928 -30.776  14.223  1.00  0.00     0.140 C 
ATOM     14  O   UNL     1       6.708 -29.867  13.435  1.00  0.00    -0.299 OA
BRANCH  13  15
ATOM     15  C   UNL     1       6.071 -32.025  14.107  1.00  0.00     0.106 CG0
ATOM     16  G   UNL     1       6.744 -33.314  14.539  1.00  0.00     0.000 G0
ENDBRANCH  13  15
ENDBRANCH  12  13
BRANCH  12  17
ATOM     17  C   UNL     1       7.629 -29.738  16.453  1.00  0.00    -0.006 C 
ATOM     18  C   UNL     1       6.140 -29.924  16.793  1.00  0.00     0.008 C 
ATOM     19  C   UNL     1       8.462 -30.080  17.704  1.00  0.00     0.008 C 
ENDBRANCH  12  17
ENDBRANCH  11  12
ENDBRANCH   1  11
TORSDOF 1
ENDMDL
MODEL 9
REMARK VINA RESULT:    -2.644      2.149      3.811
REMARK INTER + INTRA:          -4.124
REMARK INTER:                  -4.399
REMARK INTRA:                   0.275
REMARK UNBOUND:                -0.089
REMARK SMILES CC1=CCC[C@@H](C)C(=O)C[C@@H](C(C)C)C(=O)C1
REMARK SMILES IDX 8 1 9 2 6 3 7 4 5 5 4 6 3 7 2 8 1 9 10 11 11 12 15 13 16 14
REMARK SMILES IDX 17 15 12 17 13 18 14 19
REMARK H PARENT
REMARK Flexibility Score: 70.00
ROOT
ATOM      1  C   UNL     1       9.440 -32.771  14.127  1.00  0.00     0.136 C 
ATOM      2  O   UNL     1      10.652 -32.935  14.162  1.00  0.00    -0.299 OA
ENDROOT
BRANCH   1   3
ATOM      3  C   UNL     1       8.739 -32.614  12.777  1.00  0.00     0.053 C 
ATOM      4  C   UNL     1       8.729 -33.929  11.979  1.00  0.00     0.016 C 
BRANCH   3   5
ATOM      5  C   UNL     1       9.357 -31.473  11.916  1.00  0.00     0.015 C 
BRANCH   5   6
ATOM      6  C   UNL     1       8.947 -30.058  12.364  1.00  0.00     0.028 C 
BRANCH   6   7
ATOM      7  C   UNL     1       9.505 -29.639  13.708  1.00  0.00    -0.028 C 
ATOM      8  C   UNL     1       8.808 -29.519  14.864  1.00  0.00    -0.070 CG0
ATOM      9  C   UNL     1       9.560 -29.113  16.104  1.00  0.00     0.039 C 
ATOM     10  G   UNL     1       7.314 -29.762  14.974  1.00  0.00     0.000 G0
ENDBRANCH   6   7
ENDBRANCH   5   6
ENDBRANCH   3   5
ENDBRANCH   1   3
BRANCH   1  11
ATOM     11  C   UNL     1       8.684 -32.774  15.444  1.00  0.00     0.087 C 
BRANCH  11  12
ATOM     12  C   UNL     1       7.162 -32.448  15.298  1.00  0.00     0.066 C 
BRANCH  12  13
ATOM     13  C   UNL     1       6.917 -31.010  15.758  1.00  0.00     0.140 C 
ATOM     14  O   UNL     1       6.402 -30.834  16.852  1.00  0.00    -0.299 OA
BRANCH  13  15
ATOM     15  C   UNL     1       7.311 -29.775  14.965  1.00  0.00     0.106 CG0
ATOM     16  G   UNL     1       8.804 -29.526  14.856  1.00  0.00     0.000 G0
ENDBRANCH  13  15
ENDBRANCH  12  13
BRANCH  12  17
ATOM     17  C   UNL     1       6.272 -33.463  16.084  1.00  0.00    -0.006 C 
ATOM     18  C   UNL     1       5.922 -34.704  15.246  1.00  0.00     0.008 C 
ATOM     19  C   UNL     1       6.967 -33.930  17.379  1.00  0.00     0.008 C 
ENDBRANCH  12  17
ENDBRANCH  11  12
ENDBRANCH   1  11
TORSDOF 1
ENDMDL
