MODEL 1
REMARK VINA RESULT:    -3.578      0.000      0.000
REMARK INTER + INTRA:          -4.224
REMARK INTER:                  -4.206
REMARK INTRA:                  -0.018
REMARK UNBOUND:                -0.018
REMARK SMILES CCCCC(=O)[O-]
REMARK SMILES IDX 4 1 5 2 6 3 7 4 3 5 2 6 1 7
REMARK H PARENT
REMARK Flexibility Score: inf
ROOT
ATOM      1  C   UNL     1      -2.777 -25.445  10.891  1.00  0.00     0.053 C 
ENDROOT
BRANCH   1   2
ATOM      2  C   UNL     1      -4.190 -25.036  10.608  1.00  0.00     0.041 C 
ATOM      3  O   UNL     1      -4.619 -23.921  11.004  1.00  0.00    -0.550 OA
ATOM      4  O   UNL     1      -5.025 -25.873   9.877  1.00  0.00    -0.550 OA
ENDBRANCH   1   2
BRANCH   1   5
ATOM      5  C   UNL     1      -2.273 -26.537   9.931  1.00  0.00     0.006 C 
BRANCH   5   6
ATOM      6  C   UNL     1      -0.742 -26.581   9.786  1.00  0.00    -0.003 C 
ATOM      7  C   UNL     1      -0.279 -26.860   8.357  1.00  0.00     0.004 C 
ENDBRANCH   5   6
ENDBRANCH   1   5
TORSDOF 3
ENDMDL
MODEL 2
REMARK VINA RESULT:    -3.511      3.097      4.389
REMARK INTER + INTRA:          -4.144
REMARK INTER:                  -4.127
REMARK INTRA:                  -0.017
REMARK UNBOUND:                -0.018
REMARK SMILES CCCCC(=O)[O-]
REMARK SMILES IDX 4 1 5 2 6 3 7 4 3 5 2 6 1 7
REMARK H PARENT
REMARK Flexibility Score: inf
ROOT
ATOM      1  C   UNL     1      -1.644 -26.822   9.502  1.00  0.00     0.053 C 
ENDROOT
BRANCH   1   2
ATOM      2  C   UNL     1      -0.171 -26.556   9.476  1.00  0.00     0.041 C 
ATOM      3  O   UNL     1       0.462 -26.597   8.388  1.00  0.00    -0.550 OA
ATOM      4  O   UNL     1       0.500 -26.230  10.649  1.00  0.00    -0.550 OA
ENDBRANCH   1   2
BRANCH   1   5
ATOM      5  C   UNL     1      -2.361 -26.070  10.637  1.00  0.00     0.006 C 
BRANCH   5   6
ATOM      6  C   UNL     1      -3.780 -25.597  10.272  1.00  0.00    -0.003 C 
ATOM      7  C   UNL     1      -4.113 -24.211  10.820  1.00  0.00     0.004 C 
ENDBRANCH   5   6
ENDBRANCH   1   5
TORSDOF 3
ENDMDL
MODEL 3
REMARK VINA RESULT:    -3.481      8.748      9.836
REMARK INTER + INTRA:          -4.109
REMARK INTER:                  -4.060
REMARK INTRA:                  -0.049
REMARK UNBOUND:                -0.018
REMARK SMILES CCCCC(=O)[O-]
REMARK SMILES IDX 4 1 5 2 6 3 7 4 3 5 2 6 1 7
REMARK H PARENT
REMARK Flexibility Score: inf
ROOT
ATOM      1  C   UNL     1      -2.004 -26.155   0.114  1.00  0.00     0.053 C 
ENDROOT
BRANCH   1   2
ATOM      2  C   UNL     1      -2.730 -25.221  -0.804  1.00  0.00     0.041 C 
ATOM      3  O   UNL     1      -2.526 -23.980  -0.736  1.00  0.00    -0.550 OA
ATOM      4  O   UNL     1      -3.610 -25.721  -1.757  1.00  0.00    -0.550 OA
ENDBRANCH   1   2
BRANCH   1   5
ATOM      5  C   UNL     1      -2.408 -25.970   1.587  1.00  0.00     0.006 C 
BRANCH   5   6
ATOM      6  C   UNL     1      -1.332 -25.282   2.446  1.00  0.00    -0.003 C 
ATOM      7  C   UNL     1      -1.293 -25.792   3.886  1.00  0.00     0.004 C 
ENDBRANCH   5   6
ENDBRANCH   1   5
TORSDOF 3
ENDMDL
MODEL 4
REMARK VINA RESULT:    -3.446      8.738      9.903
REMARK INTER + INTRA:          -4.068
REMARK INTER:                  -4.026
REMARK INTRA:                  -0.042
REMARK UNBOUND:                -0.018
REMARK SMILES CCCCC(=O)[O-]
REMARK SMILES IDX 4 1 5 2 6 3 7 4 3 5 2 6 1 7
REMARK H PARENT
REMARK Flexibility Score: inf
ROOT
ATOM      1  C   UNL     1      -1.899 -26.082   0.120  1.00  0.00     0.053 C 
ENDROOT
BRANCH   1   2
ATOM      2  C   UNL     1      -2.676 -25.223  -0.831  1.00  0.00     0.041 C 
ATOM      3  O   UNL     1      -3.544 -25.737  -1.584  1.00  0.00    -0.550 OA
ATOM      4  O   UNL     1      -2.464 -23.850  -0.865  1.00  0.00    -0.550 OA
ENDBRANCH   1   2
BRANCH   1   5
ATOM      5  C   UNL     1      -2.362 -25.916   1.578  1.00  0.00     0.006 C 
BRANCH   5   6
ATOM      6  C   UNL     1      -1.306 -25.275   2.497  1.00  0.00    -0.003 C 
ATOM      7  C   UNL     1      -1.273 -25.889   3.896  1.00  0.00     0.004 C 
ENDBRANCH   5   6
ENDBRANCH   1   5
TORSDOF 3
ENDMDL
MODEL 5
REMARK VINA RESULT:    -3.435      9.670     10.348
REMARK INTER + INTRA:          -4.055
REMARK INTER:                  -4.015
REMARK INTRA:                  -0.040
REMARK UNBOUND:                -0.018
REMARK SMILES CCCCC(=O)[O-]
REMARK SMILES IDX 4 1 5 2 6 3 7 4 3 5 2 6 1 7
REMARK H PARENT
REMARK Flexibility Score: inf
ROOT
ATOM      1  C   UNL     1      -1.527 -25.620  -0.023  1.00  0.00     0.053 C 
ENDROOT
BRANCH   1   2
ATOM      2  C   UNL     1      -2.429 -24.924  -0.996  1.00  0.00     0.041 C 
ATOM      3  O   UNL     1      -3.504 -25.466  -1.363  1.00  0.00    -0.550 OA
ATOM      4  O   UNL     1      -2.098 -23.661  -1.473  1.00  0.00    -0.550 OA
ENDBRANCH   1   2
BRANCH   1   5
ATOM      5  C   UNL     1      -2.280 -26.137   1.216  1.00  0.00     0.006 C 
BRANCH   5   6
ATOM      6  C   UNL     1      -1.878 -27.560   1.640  1.00  0.00    -0.003 C 
ATOM      7  C   UNL     1      -0.378 -27.823   1.524  1.00  0.00     0.004 C 
ENDBRANCH   5   6
ENDBRANCH   1   5
TORSDOF 3
ENDMDL
MODEL 6
REMARK VINA RESULT:    -3.353      9.327      9.594
REMARK INTER + INTRA:          -3.959
REMARK INTER:                  -3.912
REMARK INTRA:                  -0.047
REMARK UNBOUND:                -0.018
REMARK SMILES CCCCC(=O)[O-]
REMARK SMILES IDX 4 1 5 2 6 3 7 4 3 5 2 6 1 7
REMARK H PARENT
REMARK Flexibility Score: inf
ROOT
ATOM      1  C   UNL     1      -2.098 -26.424   1.597  1.00  0.00     0.053 C 
ENDROOT
BRANCH   1   2
ATOM      2  C   UNL     1      -1.871 -25.791   0.259  1.00  0.00     0.041 C 
ATOM      3  O   UNL     1      -0.816 -25.140   0.035  1.00  0.00    -0.550 OA
ATOM      4  O   UNL     1      -2.810 -25.944  -0.754  1.00  0.00    -0.550 OA
ENDBRANCH   1   2
BRANCH   1   5
ATOM      5  C   UNL     1      -1.698 -27.910   1.623  1.00  0.00     0.006 C 
BRANCH   5   6
ATOM      6  C   UNL     1      -0.182 -28.145   1.746  1.00  0.00    -0.003 C 
ATOM      7  C   UNL     1       0.195 -29.623   1.815  1.00  0.00     0.004 C 
ENDBRANCH   5   6
ENDBRANCH   1   5
TORSDOF 3
ENDMDL
MODEL 7
REMARK VINA RESULT:    -3.252      8.974      9.913
REMARK INTER + INTRA:          -3.840
REMARK INTER:                  -3.777
REMARK INTRA:                  -0.063
REMARK UNBOUND:                -0.018
REMARK SMILES CCCCC(=O)[O-]
REMARK SMILES IDX 4 1 5 2 6 3 7 4 3 5 2 6 1 7
REMARK H PARENT
REMARK Flexibility Score: inf
ROOT
ATOM      1  C   UNL     1      -1.857 -27.895   1.770  1.00  0.00     0.053 C 
ENDROOT
BRANCH   1   2
ATOM      2  C   UNL     1      -0.405 -28.265   1.758  1.00  0.00     0.041 C 
ATOM      3  O   UNL     1      -0.024 -29.317   1.179  1.00  0.00    -0.550 OA
ATOM      4  O   UNL     1       0.532 -27.433   2.357  1.00  0.00    -0.550 OA
ENDBRANCH   1   2
BRANCH   1   5
ATOM      5  C   UNL     1      -2.087 -26.398   1.500  1.00  0.00     0.006 C 
BRANCH   5   6
ATOM      6  C   UNL     1      -1.671 -25.948   0.088  1.00  0.00    -0.003 C 
ATOM      7  C   UNL     1      -2.847 -25.479  -0.766  1.00  0.00     0.004 C 
ENDBRANCH   5   6
ENDBRANCH   1   5
TORSDOF 3
ENDMDL
MODEL 8
REMARK VINA RESULT:    -3.233      8.367      9.494
REMARK INTER + INTRA:          -3.818
REMARK INTER:                  -3.799
REMARK INTRA:                  -0.019
REMARK UNBOUND:                -0.018
REMARK SMILES CCCCC(=O)[O-]
REMARK SMILES IDX 4 1 5 2 6 3 7 4 3 5 2 6 1 7
REMARK H PARENT
REMARK Flexibility Score: inf
ROOT
ATOM      1  C   UNL     1      -1.992 -25.487   1.611  1.00  0.00     0.053 C 
ENDROOT
BRANCH   1   2
ATOM      2  C   UNL     1      -1.688 -26.548   2.624  1.00  0.00     0.041 C 
ATOM      3  O   UNL     1      -1.487 -26.237   3.827  1.00  0.00    -0.550 OA
ATOM      4  O   UNL     1      -1.658 -27.885   2.246  1.00  0.00    -0.550 OA
ENDBRANCH   1   2
BRANCH   1   5
ATOM      5  C   UNL     1      -2.187 -26.059   0.196  1.00  0.00     0.006 C 
BRANCH   5   6
ATOM      6  C   UNL     1      -2.532 -24.997  -0.863  1.00  0.00    -0.003 C 
ATOM      7  C   UNL     1      -3.571 -25.472  -1.877  1.00  0.00     0.004 C 
ENDBRANCH   5   6
ENDBRANCH   1   5
TORSDOF 3
ENDMDL
MODEL 9
REMARK VINA RESULT:    -3.199      7.655      9.148
REMARK INTER + INTRA:          -3.778
REMARK INTER:                  -3.669
REMARK INTRA:                  -0.109
REMARK UNBOUND:                -0.018
REMARK SMILES CCCCC(=O)[O-]
REMARK SMILES IDX 4 1 5 2 6 3 7 4 3 5 2 6 1 7
REMARK H PARENT
REMARK Flexibility Score: inf
ROOT
ATOM      1  C   UNL     1      -0.294 -28.214   1.428  1.00  0.00     0.053 C 
ENDROOT
BRANCH   1   2
ATOM      2  C   UNL     1       0.657 -28.947   2.324  1.00  0.00     0.041 C 
ATOM      3  O   UNL     1       0.709 -30.205   2.300  1.00  0.00    -0.550 OA
ATOM      4  O   UNL     1       1.508 -28.241   3.165  1.00  0.00    -0.550 OA
ENDBRANCH   1   2
BRANCH   1   5
ATOM      5  C   UNL     1      -1.592 -27.810   2.148  1.00  0.00     0.006 C 
BRANCH   5   6
ATOM      6  C   UNL     1      -1.671 -26.313   2.496  1.00  0.00    -0.003 C 
ATOM      7  C   UNL     1      -1.229 -26.002   3.925  1.00  0.00     0.004 C 
ENDBRANCH   5   6
ENDBRANCH   1   5
TORSDOF 3
ENDMDL
