MODEL 1
REMARK VINA RESULT:    -4.269      0.000      0.000
REMARK INTER + INTRA:          -8.131
REMARK INTER:                  -7.264
REMARK INTRA:                  -0.867
REMARK UNBOUND:                -0.867
REMARK SMILES CCCCCCCCCCCCCC(=O)[O-]
REMARK SMILES IDX 8 1 9 2 10 3 11 4 12 5 13 6 14 7 15 8 16 9 7 10 6 11 5 12
REMARK SMILES IDX 4 13 3 14 2 15 1 16
REMARK H PARENT
REMARK Flexibility Score: inf
ROOT
ATOM      1  C   UNL     1      -9.173  -6.765  -5.567  1.00  0.00     0.000 C 
ENDROOT
BRANCH   1   2
ATOM      2  C   UNL     1     -10.398  -6.024  -4.991  1.00  0.00     0.000 C 
BRANCH   2   3
ATOM      3  C   UNL     1     -10.621  -4.603  -5.540  1.00  0.00     0.000 C 
BRANCH   3   4
ATOM      4  C   UNL     1     -11.056  -3.607  -4.456  1.00  0.00     0.000 C 
BRANCH   4   5
ATOM      5  C   UNL     1     -11.040  -4.264  -3.067  1.00  0.00     0.006 C 
BRANCH   5   6
ATOM      6  C   UNL     1     -10.453  -3.339  -1.993  1.00  0.00     0.053 C 
BRANCH   6   7
ATOM      7  C   UNL     1      -8.974  -3.525  -1.847  1.00  0.00     0.041 C 
ATOM      8  O   UNL     1      -8.495  -4.674  -1.656  1.00  0.00    -0.550 OA
ATOM      9  O   UNL     1      -8.121  -2.433  -1.954  1.00  0.00    -0.550 OA
ENDBRANCH   6   7
ENDBRANCH   5   6
ENDBRANCH   4   5
ENDBRANCH   3   4
ENDBRANCH   2   3
ENDBRANCH   1   2
BRANCH   1  10
ATOM     10  C   UNL     1      -8.653  -6.228  -6.912  1.00  0.00     0.000 C 
BRANCH  10  11
ATOM     11  C   UNL     1      -7.166  -5.837  -6.864  1.00  0.00    -0.000 C 
BRANCH  11  12
ATOM     12  C   UNL     1      -6.438  -6.440  -5.652  1.00  0.00    -0.000 C 
BRANCH  12  13
ATOM     13  C   UNL     1      -4.945  -6.064  -5.608  1.00  0.00    -0.000 C 
BRANCH  13  14
ATOM     14  C   UNL     1      -4.691  -4.607  -6.021  1.00  0.00    -0.000 C 
BRANCH  14  15
ATOM     15  C   UNL     1      -3.286  -4.121  -5.636  1.00  0.00    -0.003 C 
ATOM     16  C   UNL     1      -3.288  -2.627  -5.323  1.00  0.00     0.004 C 
ENDBRANCH  14  15
ENDBRANCH  13  14
ENDBRANCH  12  13
ENDBRANCH  11  12
ENDBRANCH  10  11
ENDBRANCH   1  10
TORSDOF 12
ENDMDL
MODEL 2
REMARK VINA RESULT:    -4.164      2.085      3.834
REMARK INTER + INTRA:          -7.953
REMARK INTER:                  -6.459
REMARK INTRA:                  -1.494
REMARK UNBOUND:                -0.867
REMARK SMILES CCCCCCCCCCCCCC(=O)[O-]
REMARK SMILES IDX 8 1 9 2 10 3 11 4 12 5 13 6 14 7 15 8 16 9 7 10 6 11 5 12
REMARK SMILES IDX 4 13 3 14 2 15 1 16
REMARK H PARENT
REMARK Flexibility Score: inf
ROOT
ATOM      1  C   UNL     1      -8.519  -6.003  -5.321  1.00  0.00     0.000 C 
ENDROOT
BRANCH   1   2
ATOM      2  C   UNL     1     -10.019  -6.357  -5.256  1.00  0.00     0.000 C 
BRANCH   2   3
ATOM      3  C   UNL     1     -10.981  -5.169  -5.433  1.00  0.00     0.000 C 
BRANCH   3   4
ATOM      4  C   UNL     1     -10.712  -4.032  -4.436  1.00  0.00     0.000 C 
BRANCH   4   5
ATOM      5  C   UNL     1     -11.122  -4.442  -3.013  1.00  0.00     0.006 C 
BRANCH   5   6
ATOM      6  C   UNL     1     -10.511  -3.525  -1.946  1.00  0.00     0.053 C 
BRANCH   6   7
ATOM      7  C   UNL     1      -9.018  -3.642  -1.901  1.00  0.00     0.041 C 
ATOM      8  O   UNL     1      -8.476  -4.754  -1.669  1.00  0.00    -0.550 OA
ATOM      9  O   UNL     1      -8.225  -2.528  -2.150  1.00  0.00    -0.550 OA
ENDBRANCH   6   7
ENDBRANCH   5   6
ENDBRANCH   4   5
ENDBRANCH   3   4
ENDBRANCH   2   3
ENDBRANCH   1   2
BRANCH   1  10
ATOM     10  C   UNL     1      -7.742  -6.642  -6.486  1.00  0.00     0.000 C 
BRANCH  10  11
ATOM     11  C   UNL     1      -7.065  -5.601  -7.394  1.00  0.00    -0.000 C 
BRANCH  11  12
ATOM     12  C   UNL     1      -7.501  -5.729  -8.863  1.00  0.00    -0.000 C 
BRANCH  12  13
ATOM     13  C   UNL     1      -8.310  -4.513  -9.350  1.00  0.00    -0.000 C 
BRANCH  13  14
ATOM     14  C   UNL     1      -9.715  -4.452  -8.733  1.00  0.00    -0.000 C 
BRANCH  14  15
ATOM     15  C   UNL     1     -10.736  -5.302  -9.505  1.00  0.00    -0.003 C 
ATOM     16  C   UNL     1     -10.950  -6.652  -8.828  1.00  0.00     0.004 C 
ENDBRANCH  14  15
ENDBRANCH  13  14
ENDBRANCH  12  13
ENDBRANCH  11  12
ENDBRANCH  10  11
ENDBRANCH   1  10
TORSDOF 12
ENDMDL
MODEL 3
REMARK VINA RESULT:    -4.032      1.257      2.331
REMARK INTER + INTRA:          -7.728
REMARK INTER:                  -6.665
REMARK INTRA:                  -1.063
REMARK UNBOUND:                -0.867
REMARK SMILES CCCCCCCCCCCCCC(=O)[O-]
REMARK SMILES IDX 8 1 9 2 10 3 11 4 12 5 13 6 14 7 15 8 16 9 7 10 6 11 5 12
REMARK SMILES IDX 4 13 3 14 2 15 1 16
REMARK H PARENT
REMARK Flexibility Score: inf
ROOT
ATOM      1  C   UNL     1     -10.923  -5.865  -7.390  1.00  0.00     0.000 C 
ENDROOT
BRANCH   1   2
ATOM      2  C   UNL     1     -10.885  -6.323  -5.917  1.00  0.00     0.000 C 
BRANCH   2   3
ATOM      3  C   UNL     1     -10.217  -5.336  -4.942  1.00  0.00     0.000 C 
BRANCH   3   4
ATOM      4  C   UNL     1     -11.091  -5.025  -3.719  1.00  0.00     0.000 C 
BRANCH   4   5
ATOM      5  C   UNL     1     -10.968  -3.547  -3.318  1.00  0.00     0.006 C 
BRANCH   5   6
ATOM      6  C   UNL     1     -10.433  -3.375  -1.890  1.00  0.00     0.053 C 
BRANCH   6   7
ATOM      7  C   UNL     1      -8.946  -3.549  -1.829  1.00  0.00     0.041 C 
ATOM      8  O   UNL     1      -8.184  -2.567  -2.032  1.00  0.00    -0.550 OA
ATOM      9  O   UNL     1      -8.403  -4.788  -1.515  1.00  0.00    -0.550 OA
ENDBRANCH   6   7
ENDBRANCH   5   6
ENDBRANCH   4   5
ENDBRANCH   3   4
ENDBRANCH   2   3
ENDBRANCH   1   2
BRANCH   1  10
ATOM     10  C   UNL     1     -10.470  -6.917  -8.418  1.00  0.00     0.000 C 
BRANCH  10  11
ATOM     11  C   UNL     1      -8.946  -6.927  -8.629  1.00  0.00    -0.000 C 
BRANCH  11  12
ATOM     12  C   UNL     1      -8.318  -5.535  -8.453  1.00  0.00    -0.000 C 
BRANCH  12  13
ATOM     13  C   UNL     1      -6.989  -5.576  -7.678  1.00  0.00    -0.000 C 
BRANCH  13  14
ATOM     14  C   UNL     1      -7.128  -6.246  -6.303  1.00  0.00    -0.000 C 
BRANCH  14  15
ATOM     15  C   UNL     1      -5.811  -6.252  -5.513  1.00  0.00    -0.003 C 
ATOM     16  C   UNL     1      -4.819  -5.248  -6.093  1.00  0.00     0.004 C 
ENDBRANCH  14  15
ENDBRANCH  13  14
ENDBRANCH  12  13
ENDBRANCH  11  12
ENDBRANCH  10  11
ENDBRANCH   1  10
TORSDOF 12
ENDMDL
MODEL 4
REMARK VINA RESULT:    -3.986      2.635      5.717
REMARK INTER + INTRA:          -7.649
REMARK INTER:                  -6.801
REMARK INTRA:                  -0.848
REMARK UNBOUND:                -0.867
REMARK SMILES CCCCCCCCCCCCCC(=O)[O-]
REMARK SMILES IDX 8 1 9 2 10 3 11 4 12 5 13 6 14 7 15 8 16 9 7 10 6 11 5 12
REMARK SMILES IDX 4 13 3 14 2 15 1 16
REMARK H PARENT
REMARK Flexibility Score: inf
ROOT
ATOM      1  C   UNL     1     -10.364  -4.665  -7.712  1.00  0.00     0.000 C 
ENDROOT
BRANCH   1   2
ATOM      2  C   UNL     1      -9.860  -4.658  -9.170  1.00  0.00     0.000 C 
BRANCH   2   3
ATOM      3  C   UNL     1      -8.342  -4.463  -9.336  1.00  0.00     0.000 C 
BRANCH   3   4
ATOM      4  C   UNL     1      -7.538  -5.723  -8.985  1.00  0.00     0.000 C 
BRANCH   4   5
ATOM      5  C   UNL     1      -6.894  -5.594  -7.596  1.00  0.00     0.006 C 
BRANCH   5   6
ATOM      6  C   UNL     1      -7.545  -6.524  -6.565  1.00  0.00     0.053 C 
BRANCH   6   7
ATOM      7  C   UNL     1      -6.661  -6.741  -5.375  1.00  0.00     0.041 C 
ATOM      8  O   UNL     1      -7.156  -7.097  -4.273  1.00  0.00    -0.550 OA
ATOM      9  O   UNL     1      -5.285  -6.583  -5.492  1.00  0.00    -0.550 OA
ENDBRANCH   6   7
ENDBRANCH   5   6
ENDBRANCH   4   5
ENDBRANCH   3   4
ENDBRANCH   2   3
ENDBRANCH   1   2
BRANCH   1  10
ATOM     10  C   UNL     1     -10.890  -6.020  -7.205  1.00  0.00     0.000 C 
BRANCH  10  11
ATOM     11  C   UNL     1     -11.014  -6.076  -5.672  1.00  0.00    -0.000 C 
BRANCH  11  12
ATOM     12  C   UNL     1     -11.045  -4.678  -5.033  1.00  0.00    -0.000 C 
BRANCH  12  13
ATOM     13  C   UNL     1     -10.181  -4.587  -3.761  1.00  0.00    -0.000 C 
BRANCH  13  14
ATOM     14  C   UNL     1     -10.676  -3.506  -2.788  1.00  0.00    -0.000 C 
BRANCH  14  15
ATOM     15  C   UNL     1     -10.004  -3.602  -1.410  1.00  0.00    -0.003 C 
ATOM     16  C   UNL     1     -11.041  -3.790  -0.306  1.00  0.00     0.004 C 
ENDBRANCH  14  15
ENDBRANCH  13  14
ENDBRANCH  12  13
ENDBRANCH  11  12
ENDBRANCH  10  11
ENDBRANCH   1  10
TORSDOF 12
ENDMDL
MODEL 5
REMARK VINA RESULT:    -3.890      1.778      3.073
REMARK INTER + INTRA:          -7.486
REMARK INTER:                  -6.461
REMARK INTRA:                  -1.025
REMARK UNBOUND:                -0.867
REMARK SMILES CCCCCCCCCCCCCC(=O)[O-]
REMARK SMILES IDX 8 1 9 2 10 3 11 4 12 5 13 6 14 7 15 8 16 9 7 10 6 11 5 12
REMARK SMILES IDX 4 13 3 14 2 15 1 16
REMARK H PARENT
REMARK Flexibility Score: inf
ROOT
ATOM      1  C   UNL     1     -10.562  -6.749  -7.223  1.00  0.00     0.000 C 
ENDROOT
BRANCH   1   2
ATOM      2  C   UNL     1     -11.006  -5.662  -6.223  1.00  0.00     0.000 C 
BRANCH   2   3
ATOM      3  C   UNL     1     -10.257  -5.664  -4.878  1.00  0.00     0.000 C 
BRANCH   3   4
ATOM      4  C   UNL     1     -11.108  -5.121  -3.721  1.00  0.00     0.000 C 
BRANCH   4   5
ATOM      5  C   UNL     1     -10.853  -3.621  -3.508  1.00  0.00     0.006 C 
BRANCH   5   6
ATOM      6  C   UNL     1     -10.413  -3.304  -2.074  1.00  0.00     0.053 C 
BRANCH   6   7
ATOM      7  C   UNL     1      -8.949  -3.553  -1.874  1.00  0.00     0.041 C 
ATOM      8  O   UNL     1      -8.126  -2.606  -1.976  1.00  0.00    -0.550 OA
ATOM      9  O   UNL     1      -8.498  -4.825  -1.541  1.00  0.00    -0.550 OA
ENDBRANCH   6   7
ENDBRANCH   5   6
ENDBRANCH   4   5
ENDBRANCH   3   4
ENDBRANCH   2   3
ENDBRANCH   1   2
BRANCH   1  10
ATOM     10  C   UNL     1     -10.525  -6.310  -8.698  1.00  0.00     0.000 C 
BRANCH  10  11
ATOM     11  C   UNL     1     -10.385  -4.787  -8.865  1.00  0.00    -0.000 C 
BRANCH  11  12
ATOM     12  C   UNL     1      -9.064  -4.388  -9.542  1.00  0.00    -0.000 C 
BRANCH  12  13
ATOM     13  C   UNL     1      -8.174  -5.601  -9.869  1.00  0.00    -0.000 C 
BRANCH  13  14
ATOM     14  C   UNL     1      -6.878  -5.621  -9.044  1.00  0.00    -0.000 C 
BRANCH  14  15
ATOM     15  C   UNL     1      -7.142  -5.627  -7.530  1.00  0.00    -0.003 C 
ATOM     16  C   UNL     1      -5.874  -5.294  -6.750  1.00  0.00     0.004 C 
ENDBRANCH  14  15
ENDBRANCH  13  14
ENDBRANCH  12  13
ENDBRANCH  11  12
ENDBRANCH  10  11
ENDBRANCH   1  10
TORSDOF 12
ENDMDL
MODEL 6
REMARK VINA RESULT:    -3.854      2.295      3.289
REMARK INTER + INTRA:          -7.425
REMARK INTER:                  -6.106
REMARK INTRA:                  -1.319
REMARK UNBOUND:                -0.867
REMARK SMILES CCCCCCCCCCCCCC(=O)[O-]
REMARK SMILES IDX 8 1 9 2 10 3 11 4 12 5 13 6 14 7 15 8 16 9 7 10 6 11 5 12
REMARK SMILES IDX 4 13 3 14 2 15 1 16
REMARK H PARENT
REMARK Flexibility Score: inf
ROOT
ATOM      1  C   UNL     1     -10.713  -4.502  -7.053  1.00  0.00     0.000 C 
ENDROOT
BRANCH   1   2
ATOM      2  C   UNL     1     -11.125  -5.900  -6.548  1.00  0.00     0.000 C 
BRANCH   2   3
ATOM      3  C   UNL     1     -10.577  -6.283  -5.162  1.00  0.00     0.000 C 
BRANCH   3   4
ATOM      4  C   UNL     1     -10.856  -5.215  -4.095  1.00  0.00     0.000 C 
BRANCH   4   5
ATOM      5  C   UNL     1      -9.593  -4.391  -3.798  1.00  0.00     0.006 C 
BRANCH   5   6
ATOM      6  C   UNL     1      -9.314  -4.276  -2.295  1.00  0.00     0.053 C 
BRANCH   6   7
ATOM      7  C   UNL     1     -10.291  -3.367  -1.615  1.00  0.00     0.041 C 
ATOM      8  O   UNL     1     -10.682  -3.617  -0.445  1.00  0.00    -0.550 OA
ATOM      9  O   UNL     1     -10.745  -2.224  -2.263  1.00  0.00    -0.550 OA
ENDBRANCH   6   7
ENDBRANCH   5   6
ENDBRANCH   4   5
ENDBRANCH   3   4
ENDBRANCH   2   3
ENDBRANCH   1   2
BRANCH   1  10
ATOM     10  C   UNL     1     -11.014  -4.222  -8.536  1.00  0.00     0.000 C 
BRANCH  10  11
ATOM     11  C   UNL     1      -9.741  -4.019  -9.376  1.00  0.00    -0.000 C 
BRANCH  11  12
ATOM     12  C   UNL     1      -8.901  -5.301  -9.491  1.00  0.00    -0.000 C 
BRANCH  12  13
ATOM     13  C   UNL     1      -7.640  -5.267  -8.607  1.00  0.00    -0.000 C 
BRANCH  13  14
ATOM     14  C   UNL     1      -7.614  -6.403  -7.574  1.00  0.00    -0.000 C 
BRANCH  14  15
ATOM     15  C   UNL     1      -7.061  -5.950  -6.214  1.00  0.00    -0.003 C 
ATOM     16  C   UNL     1      -7.014  -7.112  -5.226  1.00  0.00     0.004 C 
ENDBRANCH  14  15
ENDBRANCH  13  14
ENDBRANCH  12  13
ENDBRANCH  11  12
ENDBRANCH  10  11
ENDBRANCH   1  10
TORSDOF 12
ENDMDL
MODEL 7
REMARK VINA RESULT:    -3.551      3.750      6.035
REMARK INTER + INTRA:          -6.909
REMARK INTER:                  -5.797
REMARK INTRA:                  -1.112
REMARK UNBOUND:                -0.867
REMARK SMILES CCCCCCCCCCCCCC(=O)[O-]
REMARK SMILES IDX 8 1 9 2 10 3 11 4 12 5 13 6 14 7 15 8 16 9 7 10 6 11 5 12
REMARK SMILES IDX 4 13 3 14 2 15 1 16
REMARK H PARENT
REMARK Flexibility Score: inf
ROOT
ATOM      1  C   UNL     1      -9.348  -5.737  -5.232  1.00  0.00     0.000 C 
ENDROOT
BRANCH   1   2
ATOM      2  C   UNL     1      -9.515  -6.747  -6.386  1.00  0.00     0.000 C 
BRANCH   2   3
ATOM      3  C   UNL     1     -10.407  -6.273  -7.547  1.00  0.00     0.000 C 
BRANCH   3   4
ATOM      4  C   UNL     1     -10.031  -4.873  -8.053  1.00  0.00     0.000 C 
BRANCH   4   5
ATOM      5  C   UNL     1      -9.729  -4.896  -9.560  1.00  0.00     0.006 C 
BRANCH   5   6
ATOM      6  C   UNL     1      -8.269  -4.541  -9.865  1.00  0.00     0.053 C 
BRANCH   6   7
ATOM      7  C   UNL     1      -7.319  -5.542  -9.282  1.00  0.00     0.041 C 
ATOM      8  O   UNL     1      -7.161  -6.663  -9.835  1.00  0.00    -0.550 OA
ATOM      9  O   UNL     1      -6.582  -5.225  -8.147  1.00  0.00    -0.550 OA
ENDBRANCH   6   7
ENDBRANCH   5   6
ENDBRANCH   4   5
ENDBRANCH   3   4
ENDBRANCH   2   3
ENDBRANCH   1   2
BRANCH   1  10
ATOM     10  C   UNL     1     -10.643  -5.374  -4.483  1.00  0.00     0.000 C 
BRANCH  10  11
ATOM     11  C   UNL     1     -11.043  -3.899  -4.662  1.00  0.00    -0.000 C 
BRANCH  11  12
ATOM     12  C   UNL     1     -11.043  -3.124  -3.335  1.00  0.00    -0.000 C 
BRANCH  12  13
ATOM     13  C   UNL     1     -11.068  -4.050  -2.105  1.00  0.00    -0.000 C 
BRANCH  13  14
ATOM     14  C   UNL     1      -9.906  -3.779  -1.138  1.00  0.00    -0.000 C 
BRANCH  14  15
ATOM     15  C   UNL     1      -8.620  -3.358  -1.865  1.00  0.00    -0.003 C 
ATOM     16  C   UNL     1      -8.102  -2.023  -1.336  1.00  0.00     0.004 C 
ENDBRANCH  14  15
ENDBRANCH  13  14
ENDBRANCH  12  13
ENDBRANCH  11  12
ENDBRANCH  10  11
ENDBRANCH   1  10
TORSDOF 12
ENDMDL
MODEL 8
REMARK VINA RESULT:    -3.448      4.062      6.822
REMARK INTER + INTRA:          -6.734
REMARK INTER:                  -5.695
REMARK INTRA:                  -1.039
REMARK UNBOUND:                -0.867
REMARK SMILES CCCCCCCCCCCCCC(=O)[O-]
REMARK SMILES IDX 8 1 9 2 10 3 11 4 12 5 13 6 14 7 15 8 16 9 7 10 6 11 5 12
REMARK SMILES IDX 4 13 3 14 2 15 1 16
REMARK H PARENT
REMARK Flexibility Score: inf
ROOT
ATOM      1  C   UNL     1      -8.377  -6.593  -5.452  1.00  0.00     0.000 C 
ENDROOT
BRANCH   1   2
ATOM      2  C   UNL     1      -7.356  -6.005  -6.448  1.00  0.00     0.000 C 
BRANCH   2   3
ATOM      3  C   UNL     1      -7.955  -5.478  -7.764  1.00  0.00     0.000 C 
BRANCH   3   4
ATOM      4  C   UNL     1      -6.998  -5.627  -8.956  1.00  0.00     0.000 C 
BRANCH   4   5
ATOM      5  C   UNL     1      -7.685  -6.351 -10.124  1.00  0.00     0.006 C 
BRANCH   5   6
ATOM      6  C   UNL     1      -9.090  -6.843  -9.758  1.00  0.00     0.053 C 
BRANCH   6   7
ATOM      7  C   UNL     1      -9.175  -8.339  -9.764  1.00  0.00     0.041 C 
ATOM      8  O   UNL     1      -8.125  -9.033  -9.754  1.00  0.00    -0.550 OA
ATOM      9  O   UNL     1     -10.415  -8.966  -9.747  1.00  0.00    -0.550 OA
ENDBRANCH   6   7
ENDBRANCH   5   6
ENDBRANCH   4   5
ENDBRANCH   3   4
ENDBRANCH   2   3
ENDBRANCH   1   2
BRANCH   1  10
ATOM     10  C   UNL     1      -9.770  -6.889  -6.035  1.00  0.00     0.000 C 
BRANCH  10  11
ATOM     11  C   UNL     1     -10.911  -6.338  -5.163  1.00  0.00    -0.000 C 
BRANCH  11  12
ATOM     12  C   UNL     1     -10.748  -4.840  -4.858  1.00  0.00    -0.000 C 
BRANCH  12  13
ATOM     13  C   UNL     1     -10.852  -4.525  -3.354  1.00  0.00    -0.000 C 
BRANCH  13  14
ATOM     14  C   UNL     1      -9.658  -3.706  -2.840  1.00  0.00    -0.000 C 
BRANCH  14  15
ATOM     15  C   UNL     1      -9.589  -3.665  -1.306  1.00  0.00    -0.003 C 
ATOM     16  C   UNL     1     -10.983  -3.744  -0.691  1.00  0.00     0.004 C 
ENDBRANCH  14  15
ENDBRANCH  13  14
ENDBRANCH  12  13
ENDBRANCH  11  12
ENDBRANCH  10  11
ENDBRANCH   1  10
TORSDOF 12
ENDMDL
MODEL 9
REMARK VINA RESULT:    -3.403      3.272      6.160
REMARK INTER + INTRA:          -6.658
REMARK INTER:                  -5.529
REMARK INTRA:                  -1.129
REMARK UNBOUND:                -0.867
REMARK SMILES CCCCCCCCCCCCCC(=O)[O-]
REMARK SMILES IDX 8 1 9 2 10 3 11 4 12 5 13 6 14 7 15 8 16 9 7 10 6 11 5 12
REMARK SMILES IDX 4 13 3 14 2 15 1 16
REMARK H PARENT
REMARK Flexibility Score: inf
ROOT
ATOM      1  C   UNL     1      -7.809  -6.981  -6.322  1.00  0.00     0.000 C 
ENDROOT
BRANCH   1   2
ATOM      2  C   UNL     1      -7.555  -5.652  -7.062  1.00  0.00     0.000 C 
BRANCH   2   3
ATOM      3  C   UNL     1      -7.409  -5.770  -8.589  1.00  0.00     0.000 C 
BRANCH   3   4
ATOM      4  C   UNL     1      -8.471  -6.683  -9.220  1.00  0.00     0.000 C 
BRANCH   4   5
ATOM      5  C   UNL     1      -9.807  -5.943  -9.380  1.00  0.00     0.006 C 
BRANCH   5   6
ATOM      6  C   UNL     1      -9.619  -4.503  -9.874  1.00  0.00     0.053 C 
BRANCH   6   7
ATOM      7  C   UNL     1     -10.383  -3.524  -9.038  1.00  0.00     0.041 C 
ATOM      8  O   UNL     1     -10.670  -3.798  -7.843  1.00  0.00    -0.550 OA
ATOM      9  O   UNL     1     -10.751  -2.292  -9.568  1.00  0.00    -0.550 OA
ENDBRANCH   6   7
ENDBRANCH   5   6
ENDBRANCH   4   5
ENDBRANCH   3   4
ENDBRANCH   2   3
ENDBRANCH   1   2
BRANCH   1  10
ATOM     10  C   UNL     1      -8.836  -6.912  -5.177  1.00  0.00     0.000 C 
BRANCH  10  11
ATOM     11  C   UNL     1     -10.201  -6.368  -5.632  1.00  0.00    -0.000 C 
BRANCH  11  12
ATOM     12  C   UNL     1     -10.900  -5.543  -4.539  1.00  0.00    -0.000 C 
BRANCH  12  13
ATOM     13  C   UNL     1      -9.943  -4.570  -3.826  1.00  0.00    -0.000 C 
BRANCH  13  14
ATOM     14  C   UNL     1     -10.679  -3.597  -2.892  1.00  0.00    -0.000 C 
BRANCH  14  15
ATOM     15  C   UNL     1     -10.018  -3.494  -1.509  1.00  0.00    -0.003 C 
ATOM     16  C   UNL     1     -11.022  -3.787  -0.398  1.00  0.00     0.004 C 
ENDBRANCH  14  15
ENDBRANCH  13  14
ENDBRANCH  12  13
ENDBRANCH  11  12
ENDBRANCH  10  11
ENDBRANCH   1  10
TORSDOF 12
ENDMDL
