MODEL 1
REMARK VINA RESULT:    -6.838      0.000      0.000
REMARK INTER + INTRA:          -8.941
REMARK INTER:                  -8.637
REMARK INTRA:                  -0.305
REMARK UNBOUND:                -0.305
REMARK SMILES CC(C)=CCCC(C)=CCO
REMARK SMILES IDX 7 1 9 2 8 3 6 4 5 5 4 6 1 7 2 8 3 9 10 10 11 11
REMARK H PARENT 11 12
REMARK Flexibility Score: inf
ROOT
ATOM      1  C   UNL     1      -3.532  44.928  12.889  1.00  0.00    -0.075 C 
ATOM      2  C   UNL     1      -2.828  43.836  12.511  1.00  0.00    -0.000 C 
ATOM      3  C   UNL     1      -3.603  46.096  11.939  1.00  0.00     0.039 C 
ENDROOT
BRANCH   1   4
ATOM      4  C   UNL     1      -4.280  45.016  14.208  1.00  0.00     0.034 C 
BRANCH   4   5
ATOM      5  C   UNL     1      -3.813  46.208  15.056  1.00  0.00     0.032 C 
BRANCH   5   6
ATOM      6  C   UNL     1      -3.047  45.768  16.281  1.00  0.00    -0.028 C 
ATOM      7  C   UNL     1      -2.038  45.965  18.512  1.00  0.00     0.039 C 
ATOM      8  C   UNL     1      -2.862  46.527  17.384  1.00  0.00    -0.080 C 
ATOM      9  C   UNL     1      -3.458  47.910  17.513  1.00  0.00     0.039 C 
ENDBRANCH   5   6
ENDBRANCH   4   5
ENDBRANCH   1   4
BRANCH   2  10
ATOM     10  C   UNL     1      -2.661  42.605  13.358  1.00  0.00     0.183 C 
BRANCH  10  11
ATOM     11  O   UNL     1      -3.690  41.699  13.077  1.00  0.00    -0.392 OA
ATOM     12  H   UNL     1      -3.380  40.817  13.414  1.00  0.00     0.210 HD
ENDBRANCH  10  11
ENDBRANCH   2  10
TORSDOF 5
ENDMDL
MODEL 2
REMARK VINA RESULT:    -6.406      3.634      6.201
REMARK INTER + INTRA:          -8.395
REMARK INTER:                  -7.964
REMARK INTRA:                  -0.431
REMARK UNBOUND:                -0.305
REMARK SMILES CC(C)=CCCC(C)=CCO
REMARK SMILES IDX 7 1 9 2 8 3 6 4 5 5 4 6 1 7 2 8 3 9 10 10 11 11
REMARK H PARENT 11 12
REMARK Flexibility Score: inf
ROOT
ATOM      1  C   UNL     1       1.235  45.993  18.935  1.00  0.00    -0.075 C 
ATOM      2  C   UNL     1       2.032  46.316  17.890  1.00  0.00    -0.000 C 
ATOM      3  C   UNL     1       1.444  44.662  19.608  1.00  0.00     0.039 C 
ENDROOT
BRANCH   1   4
ATOM      4  C   UNL     1       0.166  46.925  19.480  1.00  0.00     0.034 C 
BRANCH   4   5
ATOM      5  C   UNL     1      -1.203  46.235  19.579  1.00  0.00     0.032 C 
BRANCH   5   6
ATOM      6  C   UNL     1      -1.746  45.854  18.222  1.00  0.00    -0.028 C 
ATOM      7  C   UNL     1      -3.192  45.994  16.241  1.00  0.00     0.039 C 
ATOM      8  C   UNL     1      -2.726  46.521  17.573  1.00  0.00    -0.080 C 
ATOM      9  C   UNL     1      -3.355  47.771  18.142  1.00  0.00     0.039 C 
ENDBRANCH   5   6
ENDBRANCH   4   5
ENDBRANCH   1   4
BRANCH   2  10
ATOM     10  C   UNL     1       1.929  47.602  17.116  1.00  0.00     0.183 C 
BRANCH  10  11
ATOM     11  O   UNL     1       1.537  47.329  15.802  1.00  0.00    -0.392 OA
ATOM     12  H   UNL     1       2.015  46.499  15.538  1.00  0.00     0.210 HD
ENDBRANCH  10  11
ENDBRANCH   2  10
TORSDOF 5
ENDMDL
MODEL 3
REMARK VINA RESULT:    -6.216      1.835      2.766
REMARK INTER + INTRA:          -8.155
REMARK INTER:                  -8.100
REMARK INTRA:                  -0.055
REMARK UNBOUND:                -0.305
REMARK SMILES CC(C)=CCCC(C)=CCO
REMARK SMILES IDX 7 1 9 2 8 3 6 4 5 5 4 6 1 7 2 8 3 9 10 10 11 11
REMARK H PARENT 11 12
REMARK Flexibility Score: inf
ROOT
ATOM      1  C   UNL     1      -3.754  44.693  12.885  1.00  0.00    -0.075 C 
ATOM      2  C   UNL     1      -3.798  45.760  12.054  1.00  0.00    -0.000 C 
ATOM      3  C   UNL     1      -3.206  43.395  12.353  1.00  0.00     0.039 C 
ENDROOT
BRANCH   1   4
ATOM      4  C   UNL     1      -4.199  44.756  14.336  1.00  0.00     0.034 C 
BRANCH   4   5
ATOM      5  C   UNL     1      -3.070  45.230  15.264  1.00  0.00     0.032 C 
BRANCH   5   6
ATOM      6  C   UNL     1      -3.438  46.491  16.008  1.00  0.00    -0.028 C 
ATOM      7  C   UNL     1      -3.518  48.068  17.890  1.00  0.00     0.039 C 
ATOM      8  C   UNL     1      -3.033  46.787  17.263  1.00  0.00    -0.080 C 
ATOM      9  C   UNL     1      -2.111  45.878  18.042  1.00  0.00     0.039 C 
ENDBRANCH   5   6
ENDBRANCH   4   5
ENDBRANCH   1   4
BRANCH   2  10
ATOM     10  C   UNL     1      -4.329  47.112  12.443  1.00  0.00     0.183 C 
BRANCH  10  11
ATOM     11  O   UNL     1      -5.656  46.990  12.869  1.00  0.00    -0.392 OA
ATOM     12  H   UNL     1      -6.204  47.498  12.214  1.00  0.00     0.210 HD
ENDBRANCH  10  11
ENDBRANCH   2  10
TORSDOF 5
ENDMDL
MODEL 4
REMARK VINA RESULT:    -6.129      2.947      5.743
REMARK INTER + INTRA:          -8.046
REMARK INTER:                  -7.809
REMARK INTRA:                  -0.237
REMARK UNBOUND:                -0.305
REMARK SMILES CC(C)=CCCC(C)=CCO
REMARK SMILES IDX 7 1 9 2 8 3 6 4 5 5 4 6 1 7 2 8 3 9 10 10 11 11
REMARK H PARENT 11 12
REMARK Flexibility Score: inf
ROOT
ATOM      1  C   UNL     1      -2.540  47.207  18.212  1.00  0.00    -0.075 C 
ATOM      2  C   UNL     1      -1.633  47.295  19.212  1.00  0.00    -0.000 C 
ATOM      3  C   UNL     1      -3.326  48.440  17.849  1.00  0.00     0.039 C 
ENDROOT
BRANCH   1   4
ATOM      4  C   UNL     1      -2.776  45.933  17.417  1.00  0.00     0.034 C 
BRANCH   4   5
ATOM      5  C   UNL     1      -3.542  46.203  16.113  1.00  0.00     0.032 C 
BRANCH   5   6
ATOM      6  C   UNL     1      -3.190  45.209  15.032  1.00  0.00    -0.028 C 
ATOM      7  C   UNL     1      -3.272  44.148  12.818  1.00  0.00     0.039 C 
ATOM      8  C   UNL     1      -3.686  45.235  13.775  1.00  0.00    -0.080 C 
ATOM      9  C   UNL     1      -4.631  46.318  13.310  1.00  0.00     0.039 C 
ENDBRANCH   5   6
ENDBRANCH   4   5
ENDBRANCH   1   4
BRANCH   2  10
ATOM     10  C   UNL     1      -0.788  46.146  19.688  1.00  0.00     0.183 C 
BRANCH  10  11
ATOM     11  O   UNL     1      -1.293  45.663  20.901  1.00  0.00    -0.392 OA
ATOM     12  H   UNL     1      -0.636  45.927  21.598  1.00  0.00     0.210 HD
ENDBRANCH  10  11
ENDBRANCH   2  10
TORSDOF 5
ENDMDL
MODEL 5
REMARK VINA RESULT:    -6.125      2.928      5.373
REMARK INTER + INTRA:          -8.041
REMARK INTER:                  -7.764
REMARK INTRA:                  -0.277
REMARK UNBOUND:                -0.305
REMARK SMILES CC(C)=CCCC(C)=CCO
REMARK SMILES IDX 7 1 9 2 8 3 6 4 5 5 4 6 1 7 2 8 3 9 10 10 11 11
REMARK H PARENT 11 12
REMARK Flexibility Score: inf
ROOT
ATOM      1  C   UNL     1      -1.781  47.656  17.430  1.00  0.00    -0.075 C 
ATOM      2  C   UNL     1      -0.484  48.005  17.268  1.00  0.00    -0.000 C 
ATOM      3  C   UNL     1      -2.780  48.742  17.735  1.00  0.00     0.039 C 
ENDROOT
BRANCH   1   4
ATOM      4  C   UNL     1      -2.280  46.229  17.282  1.00  0.00     0.034 C 
BRANCH   4   5
ATOM      5  C   UNL     1      -3.425  46.122  16.263  1.00  0.00     0.032 C 
BRANCH   5   6
ATOM      6  C   UNL     1      -3.060  45.244  15.089  1.00  0.00    -0.028 C 
ATOM      7  C   UNL     1      -3.240  44.292  12.832  1.00  0.00     0.039 C 
ATOM      8  C   UNL     1      -3.692  45.259  13.895  1.00  0.00    -0.080 C 
ATOM      9  C   UNL     1      -4.827  46.212  13.601  1.00  0.00     0.039 C 
ENDBRANCH   5   6
ENDBRANCH   4   5
ENDBRANCH   1   4
BRANCH   2  10
ATOM     10  C   UNL     1       0.621  47.029  16.973  1.00  0.00     0.183 C 
BRANCH  10  11
ATOM     11  O   UNL     1       1.370  47.484  15.882  1.00  0.00    -0.392 OA
ATOM     12  H   UNL     1       0.896  48.286  15.537  1.00  0.00     0.210 HD
ENDBRANCH  10  11
ENDBRANCH   2  10
TORSDOF 5
ENDMDL
MODEL 6
REMARK VINA RESULT:    -6.086      3.685      5.986
REMARK INTER + INTRA:          -7.992
REMARK INTER:                  -7.797
REMARK INTRA:                  -0.195
REMARK UNBOUND:                -0.305
REMARK SMILES CC(C)=CCCC(C)=CCO
REMARK SMILES IDX 7 1 9 2 8 3 6 4 5 5 4 6 1 7 2 8 3 9 10 10 11 11
REMARK H PARENT 11 12
REMARK Flexibility Score: inf
ROOT
ATOM      1  C   UNL     1       0.976  46.624  18.336  1.00  0.00    -0.075 C 
ATOM      2  C   UNL     1       1.642  45.501  18.690  1.00  0.00    -0.000 C 
ATOM      3  C   UNL     1       1.272  47.237  16.992  1.00  0.00     0.039 C 
ENDROOT
BRANCH   1   4
ATOM      4  C   UNL     1      -0.080  47.273  19.216  1.00  0.00     0.034 C 
BRANCH   4   5
ATOM      5  C   UNL     1      -1.316  46.377  19.386  1.00  0.00     0.032 C 
BRANCH   5   6
ATOM      6  C   UNL     1      -1.849  45.886  18.062  1.00  0.00    -0.028 C 
ATOM      7  C   UNL     1      -3.292  45.850  16.075  1.00  0.00     0.039 C 
ATOM      8  C   UNL     1      -2.840  46.483  17.364  1.00  0.00    -0.080 C 
ATOM      9  C   UNL     1      -3.495  47.759  17.838  1.00  0.00     0.039 C 
ENDBRANCH   5   6
ENDBRANCH   4   5
ENDBRANCH   1   4
BRANCH   2  10
ATOM     10  C   UNL     1       1.459  44.788  20.002  1.00  0.00     0.183 C 
BRANCH  10  11
ATOM     11  O   UNL     1       1.776  43.434  19.849  1.00  0.00    -0.392 OA
ATOM     12  H   UNL     1       2.762  43.393  19.732  1.00  0.00     0.210 HD
ENDBRANCH  10  11
ENDBRANCH   2  10
TORSDOF 5
ENDMDL
MODEL 7
REMARK VINA RESULT:    -5.981      2.388      4.426
REMARK INTER + INTRA:          -7.859
REMARK INTER:                  -7.356
REMARK INTRA:                  -0.504
REMARK UNBOUND:                -0.305
REMARK SMILES CC(C)=CCCC(C)=CCO
REMARK SMILES IDX 7 1 9 2 8 3 6 4 5 5 4 6 1 7 2 8 3 9 10 10 11 11
REMARK H PARENT 11 12
REMARK Flexibility Score: inf
ROOT
ATOM      1  C   UNL     1      -3.021  46.987  17.178  1.00  0.00    -0.075 C 
ATOM      2  C   UNL     1      -3.423  46.693  15.920  1.00  0.00    -0.000 C 
ATOM      3  C   UNL     1      -2.991  48.434  17.598  1.00  0.00     0.039 C 
ENDROOT
BRANCH   1   4
ATOM      4  C   UNL     1      -2.635  45.926  18.194  1.00  0.00     0.034 C 
BRANCH   4   5
ATOM      5  C   UNL     1      -1.494  46.395  19.110  1.00  0.00     0.032 C 
BRANCH   5   6
ATOM      6  C   UNL     1      -0.154  45.859  18.667  1.00  0.00    -0.028 C 
ATOM      7  C   UNL     1       2.169  45.945  17.872  1.00  0.00     0.039 C 
ATOM      8  C   UNL     1       0.908  46.626  18.336  1.00  0.00    -0.080 C 
ATOM      9  C   UNL     1       0.864  48.134  18.423  1.00  0.00     0.039 C 
ENDBRANCH   5   6
ENDBRANCH   4   5
ENDBRANCH   1   4
BRANCH   2  10
ATOM     10  C   UNL     1      -3.492  45.298  15.361  1.00  0.00     0.183 C 
BRANCH  10  11
ATOM     11  O   UNL     1      -4.245  45.302  14.181  1.00  0.00    -0.392 OA
ATOM     12  H   UNL     1      -3.690  44.841  13.498  1.00  0.00     0.210 HD
ENDBRANCH  10  11
ENDBRANCH   2  10
TORSDOF 5
ENDMDL
MODEL 8
REMARK VINA RESULT:    -5.939      3.153      5.912
REMARK INTER + INTRA:          -7.806
REMARK INTER:                  -7.513
REMARK INTRA:                  -0.293
REMARK UNBOUND:                -0.305
REMARK SMILES CC(C)=CCCC(C)=CCO
REMARK SMILES IDX 7 1 9 2 8 3 6 4 5 5 4 6 1 7 2 8 3 9 10 10 11 11
REMARK H PARENT 11 12
REMARK Flexibility Score: inf
ROOT
ATOM      1  C   UNL     1      -3.051  46.799  17.352  1.00  0.00    -0.075 C 
ATOM      2  C   UNL     1      -2.933  47.998  17.967  1.00  0.00    -0.000 C 
ATOM      3  C   UNL     1      -3.641  45.652  18.131  1.00  0.00     0.039 C 
ENDROOT
BRANCH   1   4
ATOM      4  C   UNL     1      -2.652  46.567  15.905  1.00  0.00     0.034 C 
BRANCH   4   5
ATOM      5  C   UNL     1      -3.821  46.034  15.063  1.00  0.00     0.032 C 
BRANCH   5   6
ATOM      6  C   UNL     1      -3.487  44.725  14.390  1.00  0.00    -0.028 C 
ATOM      7  C   UNL     1      -3.041  43.185  12.529  1.00  0.00     0.039 C 
ATOM      8  C   UNL     1      -3.334  44.565  13.057  1.00  0.00    -0.080 C 
ATOM      9  C   UNL     1      -3.444  45.724  12.094  1.00  0.00     0.039 C 
ENDBRANCH   5   6
ENDBRANCH   4   5
ENDBRANCH   1   4
BRANCH   2  10
ATOM     10  C   UNL     1      -2.354  49.226  17.319  1.00  0.00     0.183 C 
BRANCH  10  11
ATOM     11  O   UNL     1      -1.902  50.109  18.306  1.00  0.00    -0.392 OA
ATOM     12  H   UNL     1      -1.116  50.577  17.919  1.00  0.00     0.210 HD
ENDBRANCH  10  11
ENDBRANCH   2  10
TORSDOF 5
ENDMDL
MODEL 9
REMARK VINA RESULT:    -5.927      5.550      6.541
REMARK INTER + INTRA:          -7.791
REMARK INTER:                  -7.267
REMARK INTRA:                  -0.524
REMARK UNBOUND:                -0.305
REMARK SMILES CC(C)=CCCC(C)=CCO
REMARK SMILES IDX 7 1 9 2 8 3 6 4 5 5 4 6 1 7 2 8 3 9 10 10 11 11
REMARK H PARENT 11 12
REMARK Flexibility Score: inf
ROOT
ATOM      1  C   UNL     1       0.913  46.444  18.180  1.00  0.00    -0.075 C 
ATOM      2  C   UNL     1       1.785  45.708  18.907  1.00  0.00    -0.000 C 
ATOM      3  C   UNL     1       1.462  47.350  17.109  1.00  0.00     0.039 C 
ENDROOT
BRANCH   1   4
ATOM      4  C   UNL     1      -0.593  46.370  18.370  1.00  0.00     0.034 C 
BRANCH   4   5
ATOM      5  C   UNL     1      -1.058  47.173  19.593  1.00  0.00     0.032 C 
BRANCH   5   6
ATOM      6  C   UNL     1      -1.312  48.624  19.257  1.00  0.00    -0.028 C 
ATOM      7  C   UNL     1      -1.005  51.059  19.359  1.00  0.00     0.039 C 
ATOM      8  C   UNL     1      -0.605  49.661  19.757  1.00  0.00    -0.080 C 
ATOM      9  C   UNL     1       0.565  49.458  20.690  1.00  0.00     0.039 C 
ENDBRANCH   5   6
ENDBRANCH   4   5
ENDBRANCH   1   4
BRANCH   2  10
ATOM     10  C   UNL     1       1.383  44.772  20.013  1.00  0.00     0.183 C 
BRANCH  10  11
ATOM     11  O   UNL     1       1.777  43.469  19.692  1.00  0.00    -0.392 OA
ATOM     12  H   UNL     1       2.744  43.519  19.471  1.00  0.00     0.210 HD
ENDBRANCH  10  11
ENDBRANCH   2  10
TORSDOF 5
ENDMDL
