MODEL 1
REMARK VINA RESULT:    -3.364      0.000      0.000
REMARK INTER + INTRA:          -5.338
REMARK INTER:                  -4.642
REMARK INTRA:                  -0.697
REMARK UNBOUND:                -0.697
REMARK SMILES OC[C@@H](O)[C@@H](O)[C@@H](O)CO
REMARK SMILES IDX 5 1 7 2 9 3 10 4 8 6 3 8 2 9 1 10 4 12 6 14
REMARK H PARENT 10 5 8 7 1 11 4 13 6 15
REMARK Flexibility Score: inf
ROOT
ATOM      1  C   UNL     1      17.432   2.022  45.154  1.00  0.00     0.176 C 
ENDROOT
BRANCH   1   2
ATOM      2  C   UNL     1      17.940   2.814  46.399  1.00  0.00     0.171 C 
BRANCH   2   3
ATOM      3  C   UNL     1      18.805   4.045  46.065  1.00  0.00     0.190 C 
BRANCH   3   4
ATOM      4  O   UNL     1      20.167   3.719  45.985  1.00  0.00    -0.394 OA
ATOM      5  H   UNL     1      20.263   2.788  46.313  1.00  0.00     0.210 HD
ENDBRANCH   3   4
ENDBRANCH   2   3
BRANCH   2   6
ATOM      6  O   UNL     1      18.607   1.977  47.310  1.00  0.00    -0.388 OA
ATOM      7  H   UNL     1      19.240   2.546  47.821  1.00  0.00     0.211 HD
ENDBRANCH   2   6
ENDBRANCH   1   2
BRANCH   1   8
ATOM      8  C   UNL     1      18.505   1.285  44.297  1.00  0.00     0.171 C 
BRANCH   8   9
ATOM      9  C   UNL     1      19.018   2.088  43.079  1.00  0.00     0.190 C 
BRANCH   9  10
ATOM     10  O   UNL     1      20.329   2.542  43.291  1.00  0.00    -0.394 OA
ATOM     11  H   UNL     1      20.280   3.531  43.363  1.00  0.00     0.210 HD
ENDBRANCH   9  10
ENDBRANCH   8   9
BRANCH   8  12
ATOM     12  O   UNL     1      19.560   0.790  45.082  1.00  0.00    -0.388 OA
ATOM     13  H   UNL     1      20.415   1.048  44.652  1.00  0.00     0.211 HD
ENDBRANCH   8  12
ENDBRANCH   1   8
BRANCH   1  14
ATOM     14  O   UNL     1      16.494   1.065  45.586  1.00  0.00    -0.388 OA
ATOM     15  H   UNL     1      15.961   1.480  46.312  1.00  0.00     0.211 HD
ENDBRANCH   1  14
TORSDOF 9
ENDMDL
MODEL 2
REMARK VINA RESULT:    -3.341      1.231      3.602
REMARK INTER + INTRA:          -5.307
REMARK INTER:                  -4.646
REMARK INTRA:                  -0.661
REMARK UNBOUND:                -0.697
REMARK SMILES OC[C@@H](O)[C@@H](O)[C@@H](O)CO
REMARK SMILES IDX 5 1 7 2 9 3 10 4 8 6 3 8 2 9 1 10 4 12 6 14
REMARK H PARENT 10 5 8 7 1 11 4 13 6 15
REMARK Flexibility Score: inf
ROOT
ATOM      1  C   UNL     1      18.058   3.584  44.490  1.00  0.00     0.176 C 
ENDROOT
BRANCH   1   2
ATOM      2  C   UNL     1      18.727   2.478  43.617  1.00  0.00     0.171 C 
BRANCH   2   3
ATOM      3  C   UNL     1      18.527   1.042  44.137  1.00  0.00     0.190 C 
BRANCH   3   4
ATOM      4  O   UNL     1      19.498   0.691  45.087  1.00  0.00    -0.394 OA
ATOM      5  H   UNL     1      19.313   1.224  45.902  1.00  0.00     0.210 HD
ENDBRANCH   3   4
ENDBRANCH   2   3
BRANCH   2   6
ATOM      6  O   UNL     1      20.092   2.739  43.405  1.00  0.00    -0.388 OA
ATOM      7  H   UNL     1      20.159   3.647  43.009  1.00  0.00     0.211 HD
ENDBRANCH   2   6
ENDBRANCH   1   2
BRANCH   1   8
ATOM      8  C   UNL     1      18.691   3.862  45.888  1.00  0.00     0.171 C 
BRANCH   8   9
ATOM      9  C   UNL     1      17.937   3.217  47.075  1.00  0.00     0.190 C 
BRANCH   9  10
ATOM     10  O   UNL     1      18.535   2.005  47.452  1.00  0.00    -0.394 OA
ATOM     11  H   UNL     1      19.505   2.092  47.258  1.00  0.00     0.210 HD
ENDBRANCH   9  10
ENDBRANCH   8   9
BRANCH   8  12
ATOM     12  O   UNL     1      20.064   3.566  45.915  1.00  0.00    -0.388 OA
ATOM     13  H   UNL     1      20.206   2.804  46.534  1.00  0.00     0.211 HD
ENDBRANCH   8  12
ENDBRANCH   1   8
BRANCH   1  14
ATOM     14  O   UNL     1      18.066   4.791  43.767  1.00  0.00    -0.388 OA
ATOM     15  H   UNL     1      17.200   4.855  43.288  1.00  0.00     0.211 HD
ENDBRANCH   1  14
TORSDOF 9
ENDMDL
MODEL 3
REMARK VINA RESULT:    -3.310      1.405      2.398
REMARK INTER + INTRA:          -5.265
REMARK INTER:                  -4.583
REMARK INTRA:                  -0.682
REMARK UNBOUND:                -0.697
REMARK SMILES OC[C@@H](O)[C@@H](O)[C@@H](O)CO
REMARK SMILES IDX 5 1 7 2 9 3 10 4 8 6 3 8 2 9 1 10 4 12 6 14
REMARK H PARENT 10 5 8 7 1 11 4 13 6 15
REMARK Flexibility Score: inf
ROOT
ATOM      1  C   UNL     1      18.795   2.366  45.606  1.00  0.00     0.176 C 
ENDROOT
BRANCH   1   2
ATOM      2  C   UNL     1      18.889   3.830  46.137  1.00  0.00     0.171 C 
BRANCH   2   3
ATOM      3  C   UNL     1      17.804   4.779  45.594  1.00  0.00     0.190 C 
BRANCH   3   4
ATOM      4  O   UNL     1      18.131   5.273  44.323  1.00  0.00    -0.394 OA
ATOM      5  H   UNL     1      19.106   5.139  44.202  1.00  0.00     0.210 HD
ENDBRANCH   3   4
ENDBRANCH   2   3
BRANCH   2   6
ATOM      6  O   UNL     1      20.168   4.375  45.932  1.00  0.00    -0.388 OA
ATOM      7  H   UNL     1      20.563   3.909  45.149  1.00  0.00     0.211 HD
ENDBRANCH   2   6
ENDBRANCH   1   2
BRANCH   1   8
ATOM      8  C   UNL     1      19.677   2.002  44.372  1.00  0.00     0.171 C 
BRANCH   8   9
ATOM      9  C   UNL     1      19.400   0.604  43.772  1.00  0.00     0.190 C 
BRANCH   9  10
ATOM     10  O   UNL     1      19.543  -0.398  44.743  1.00  0.00    -0.394 OA
ATOM     11  H   UNL     1      20.287  -0.983  44.442  1.00  0.00     0.210 HD
ENDBRANCH   9  10
ENDBRANCH   8   9
BRANCH   8  12
ATOM     12  O   UNL     1      19.654   3.009  43.392  1.00  0.00    -0.388 OA
ATOM     13  H   UNL     1      20.577   3.352  43.278  1.00  0.00     0.211 HD
ENDBRANCH   8  12
ENDBRANCH   1   8
BRANCH   1  14
ATOM     14  O   UNL     1      19.135   1.488  46.651  1.00  0.00    -0.388 OA
ATOM     15  H   UNL     1      18.358   1.444  47.266  1.00  0.00     0.211 HD
ENDBRANCH   1  14
TORSDOF 9
ENDMDL
MODEL 4
REMARK VINA RESULT:    -3.294      9.156     10.536
REMARK INTER + INTRA:          -5.243
REMARK INTER:                  -4.642
REMARK INTRA:                  -0.600
REMARK UNBOUND:                -0.697
REMARK SMILES OC[C@@H](O)[C@@H](O)[C@@H](O)CO
REMARK SMILES IDX 5 1 7 2 9 3 10 4 8 6 3 8 2 9 1 10 4 12 6 14
REMARK H PARENT 10 5 8 7 1 11 4 13 6 15
REMARK Flexibility Score: inf
ROOT
ATOM      1  C   UNL     1      14.921   0.487  35.839  1.00  0.00     0.176 C 
ENDROOT
BRANCH   1   2
ATOM      2  C   UNL     1      15.074   1.382  37.107  1.00  0.00     0.171 C 
BRANCH   2   3
ATOM      3  C   UNL     1      14.128   1.016  38.267  1.00  0.00     0.190 C 
BRANCH   3   4
ATOM      4  O   UNL     1      12.791   0.946  37.849  1.00  0.00    -0.394 OA
ATOM      5  H   UNL     1      12.621   0.007  37.576  1.00  0.00     0.210 HD
ENDBRANCH   3   4
ENDBRANCH   2   3
BRANCH   2   6
ATOM      6  O   UNL     1      14.962   2.749  36.794  1.00  0.00    -0.388 OA
ATOM      7  H   UNL     1      14.409   3.167  37.505  1.00  0.00     0.211 HD
ENDBRANCH   2   6
ENDBRANCH   1   2
BRANCH   1   8
ATOM      8  C   UNL     1      15.969   0.686  34.701  1.00  0.00     0.171 C 
BRANCH   8   9
ATOM      9  C   UNL     1      15.742  -0.202  33.455  1.00  0.00     0.190 C 
BRANCH   9  10
ATOM     10  O   UNL     1      14.391  -0.558  33.330  1.00  0.00    -0.394 OA
ATOM     11  H   UNL     1      14.254  -1.360  33.899  1.00  0.00     0.210 HD
ENDBRANCH   9  10
ENDBRANCH   8   9
BRANCH   8  12
ATOM     12  O   UNL     1      16.127   2.040  34.360  1.00  0.00    -0.388 OA
ATOM     13  H   UNL     1      16.928   2.123  33.782  1.00  0.00     0.211 HD
ENDBRANCH   8  12
ENDBRANCH   1   8
BRANCH   1  14
ATOM     14  O   UNL     1      14.968  -0.862  36.236  1.00  0.00    -0.388 OA
ATOM     15  H   UNL     1      14.618  -0.911  37.162  1.00  0.00     0.211 HD
ENDBRANCH   1  14
TORSDOF 9
ENDMDL
MODEL 5
REMARK VINA RESULT:    -3.274      1.118      3.737
REMARK INTER + INTRA:          -5.215
REMARK INTER:                  -4.538
REMARK INTRA:                  -0.678
REMARK UNBOUND:                -0.697
REMARK SMILES OC[C@@H](O)[C@@H](O)[C@@H](O)CO
REMARK SMILES IDX 5 1 7 2 9 3 10 4 8 6 3 8 2 9 1 10 4 12 6 14
REMARK H PARENT 10 5 8 7 1 11 4 13 6 15
REMARK Flexibility Score: inf
ROOT
ATOM      1  C   UNL     1      18.941   1.748  45.185  1.00  0.00     0.176 C 
ENDROOT
BRANCH   1   2
ATOM      2  C   UNL     1      19.476   1.608  43.726  1.00  0.00     0.171 C 
BRANCH   2   3
ATOM      3  C   UNL     1      19.848   0.171  43.314  1.00  0.00     0.190 C 
BRANCH   3   4
ATOM      4  O   UNL     1      19.727  -0.727  44.386  1.00  0.00    -0.394 OA
ATOM      5  H   UNL     1      18.769  -0.744  44.644  1.00  0.00     0.210 HD
ENDBRANCH   3   4
ENDBRANCH   2   3
BRANCH   2   6
ATOM      6  O   UNL     1      20.548   2.483  43.480  1.00  0.00    -0.388 OA
ATOM      7  H   UNL     1      21.192   2.375  44.228  1.00  0.00     0.211 HD
ENDBRANCH   2   6
ENDBRANCH   1   2
BRANCH   1   8
ATOM      8  C   UNL     1      18.892   3.185  45.787  1.00  0.00     0.171 C 
BRANCH   8   9
ATOM      9  C   UNL     1      18.081   3.306  47.098  1.00  0.00     0.190 C 
BRANCH   9  10
ATOM     10  O   UNL     1      18.183   2.135  47.863  1.00  0.00    -0.394 OA
ATOM     11  H   UNL     1      19.152   1.963  47.995  1.00  0.00     0.210 HD
ENDBRANCH   9  10
ENDBRANCH   8   9
BRANCH   8  12
ATOM     12  O   UNL     1      20.172   3.752  45.906  1.00  0.00    -0.388 OA
ATOM     13  H   UNL     1      20.150   4.417  46.642  1.00  0.00     0.211 HD
ENDBRANCH   8  12
ENDBRANCH   1   8
BRANCH   1  14
ATOM     14  O   UNL     1      17.641   1.214  45.238  1.00  0.00    -0.388 OA
ATOM     15  H   UNL     1      17.607   0.593  46.010  1.00  0.00     0.211 HD
ENDBRANCH   1  14
TORSDOF 9
ENDMDL
MODEL 6
REMARK VINA RESULT:    -3.250      1.681      3.768
REMARK INTER + INTRA:          -5.181
REMARK INTER:                  -4.487
REMARK INTRA:                  -0.695
REMARK UNBOUND:                -0.697
REMARK SMILES OC[C@@H](O)[C@@H](O)[C@@H](O)CO
REMARK SMILES IDX 5 1 7 2 9 3 10 4 8 6 3 8 2 9 1 10 4 12 6 14
REMARK H PARENT 10 5 8 7 1 11 4 13 6 15
REMARK Flexibility Score: inf
ROOT
ATOM      1  C   UNL     1      19.292   1.794  44.704  1.00  0.00     0.176 C 
ENDROOT
BRANCH   1   2
ATOM      2  C   UNL     1      18.681   0.617  43.881  1.00  0.00     0.171 C 
BRANCH   2   3
ATOM      3  C   UNL     1      19.640  -0.566  43.646  1.00  0.00     0.190 C 
BRANCH   3   4
ATOM      4  O   UNL     1      19.713  -1.409  44.765  1.00  0.00    -0.394 OA
ATOM      5  H   UNL     1      19.775  -0.825  45.564  1.00  0.00     0.210 HD
ENDBRANCH   3   4
ENDBRANCH   2   3
BRANCH   2   6
ATOM      6  O   UNL     1      18.141   1.063  42.661  1.00  0.00    -0.388 OA
ATOM      7  H   UNL     1      18.861   0.996  41.981  1.00  0.00     0.211 HD
ENDBRANCH   2   6
ENDBRANCH   1   2
BRANCH   1   8
ATOM      8  C   UNL     1      18.450   3.102  44.801  1.00  0.00     0.171 C 
BRANCH   8   9
ATOM      9  C   UNL     1      18.854   4.043  45.960  1.00  0.00     0.190 C 
BRANCH   9  10
ATOM     10  O   UNL     1      20.250   4.148  46.060  1.00  0.00    -0.394 OA
ATOM     11  H   UNL     1      20.606   4.106  45.135  1.00  0.00     0.210 HD
ENDBRANCH   9  10
ENDBRANCH   8   9
BRANCH   8  12
ATOM     12  O   UNL     1      18.384   3.781  43.572  1.00  0.00    -0.388 OA
ATOM     13  H   UNL     1      17.828   3.244  42.951  1.00  0.00     0.211 HD
ENDBRANCH   8  12
ENDBRANCH   1   8
BRANCH   1  14
ATOM     14  O   UNL     1      19.539   1.342  46.013  1.00  0.00    -0.388 OA
ATOM     15  H   UNL     1      18.751   0.811  46.297  1.00  0.00     0.211 HD
ENDBRANCH   1  14
TORSDOF 9
ENDMDL
MODEL 7
REMARK VINA RESULT:    -3.241      1.380      2.313
REMARK INTER + INTRA:          -5.170
REMARK INTER:                  -4.677
REMARK INTRA:                  -0.493
REMARK UNBOUND:                -0.697
REMARK SMILES OC[C@@H](O)[C@@H](O)[C@@H](O)CO
REMARK SMILES IDX 5 1 7 2 9 3 10 4 8 6 3 8 2 9 1 10 4 12 6 14
REMARK H PARENT 10 5 8 7 1 11 4 13 6 15
REMARK Flexibility Score: inf
ROOT
ATOM      1  C   UNL     1      19.344   1.901  44.387  1.00  0.00     0.176 C 
ENDROOT
BRANCH   1   2
ATOM      2  C   UNL     1      18.705   2.403  45.719  1.00  0.00     0.171 C 
BRANCH   2   3
ATOM      3  C   UNL     1      18.993   3.880  46.051  1.00  0.00     0.190 C 
BRANCH   3   4
ATOM      4  O   UNL     1      20.367   4.163  46.019  1.00  0.00    -0.394 OA
ATOM      5  H   UNL     1      20.477   5.099  46.329  1.00  0.00     0.210 HD
ENDBRANCH   3   4
ENDBRANCH   2   3
BRANCH   2   6
ATOM      6  O   UNL     1      19.050   1.578  46.803  1.00  0.00    -0.388 OA
ATOM      7  H   UNL     1      18.770   0.655  46.569  1.00  0.00     0.211 HD
ENDBRANCH   2   6
ENDBRANCH   1   2
BRANCH   1   8
ATOM      8  C   UNL     1      18.745   0.607  43.757  1.00  0.00     0.171 C 
BRANCH   8   9
ATOM      9  C   UNL     1      19.750  -0.559  43.605  1.00  0.00     0.190 C 
BRANCH   9  10
ATOM     10  O   UNL     1      19.713  -1.405  44.724  1.00  0.00    -0.394 OA
ATOM     11  H   UNL     1      18.935  -1.120  45.271  1.00  0.00     0.210 HD
ENDBRANCH   9  10
ENDBRANCH   8   9
BRANCH   8  12
ATOM     12  O   UNL     1      17.564   0.202  44.403  1.00  0.00    -0.388 OA
ATOM     13  H   UNL     1      17.419   0.797  45.184  1.00  0.00     0.211 HD
ENDBRANCH   8  12
ENDBRANCH   1   8
BRANCH   1  14
ATOM     14  O   UNL     1      19.249   2.929  43.430  1.00  0.00    -0.388 OA
ATOM     15  H   UNL     1      18.591   3.589  43.769  1.00  0.00     0.211 HD
ENDBRANCH   1  14
TORSDOF 9
ENDMDL
MODEL 8
REMARK VINA RESULT:    -3.188      1.158      3.602
REMARK INTER + INTRA:          -5.097
REMARK INTER:                  -4.361
REMARK INTRA:                  -0.736
REMARK UNBOUND:                -0.697
REMARK SMILES OC[C@@H](O)[C@@H](O)[C@@H](O)CO
REMARK SMILES IDX 5 1 7 2 9 3 10 4 8 6 3 8 2 9 1 10 4 12 6 14
REMARK H PARENT 10 5 8 7 1 11 4 13 6 15
REMARK Flexibility Score: inf
ROOT
ATOM      1  C   UNL     1      19.064   3.123  45.378  1.00  0.00     0.176 C 
ENDROOT
BRANCH   1   2
ATOM      2  C   UNL     1      19.454   1.871  44.532  1.00  0.00     0.171 C 
BRANCH   2   3
ATOM      3  C   UNL     1      18.651   1.704  43.229  1.00  0.00     0.190 C 
BRANCH   3   4
ATOM      4  O   UNL     1      17.703   0.673  43.328  1.00  0.00    -0.394 OA
ATOM      5  H   UNL     1      17.060   0.798  42.583  1.00  0.00     0.210 HD
ENDBRANCH   3   4
ENDBRANCH   2   3
BRANCH   2   6
ATOM      6  O   UNL     1      19.403   0.692  45.297  1.00  0.00    -0.388 OA
ATOM      7  H   UNL     1      20.306   0.557  45.687  1.00  0.00     0.211 HD
ENDBRANCH   2   6
ENDBRANCH   1   2
BRANCH   1   8
ATOM      8  C   UNL     1      18.066   2.900  46.555  1.00  0.00     0.171 C 
BRANCH   8   9
ATOM      9  C   UNL     1      16.626   2.544  46.119  1.00  0.00     0.190 C 
BRANCH   9  10
ATOM     10  O   UNL     1      16.455   1.155  46.030  1.00  0.00    -0.394 OA
ATOM     11  H   UNL     1      15.700   0.999  45.405  1.00  0.00     0.210 HD
ENDBRANCH   9  10
ENDBRANCH   8   9
BRANCH   8  12
ATOM     12  O   UNL     1      18.565   1.996  47.508  1.00  0.00    -0.388 OA
ATOM     13  H   UNL     1      19.556   2.049  47.497  1.00  0.00     0.211 HD
ENDBRANCH   8  12
ENDBRANCH   1   8
BRANCH   1  14
ATOM     14  O   UNL     1      20.239   3.686  45.911  1.00  0.00    -0.388 OA
ATOM     15  H   UNL     1      20.034   4.627  46.149  1.00  0.00     0.211 HD
ENDBRANCH   1  14
TORSDOF 9
ENDMDL
MODEL 9
REMARK VINA RESULT:    -3.188      1.820      2.620
REMARK INTER + INTRA:          -5.097
REMARK INTER:                  -4.604
REMARK INTRA:                  -0.492
REMARK UNBOUND:                -0.697
REMARK SMILES OC[C@@H](O)[C@@H](O)[C@@H](O)CO
REMARK SMILES IDX 5 1 7 2 9 3 10 4 8 6 3 8 2 9 1 10 4 12 6 14
REMARK H PARENT 10 5 8 7 1 11 4 13 6 15
REMARK Flexibility Score: inf
ROOT
ATOM      1  C   UNL     1      18.893   3.747  46.019  1.00  0.00     0.176 C 
ENDROOT
BRANCH   1   2
ATOM      2  C   UNL     1      18.058   4.883  45.351  1.00  0.00     0.171 C 
BRANCH   2   3
ATOM      3  C   UNL     1      18.189   6.259  46.031  1.00  0.00     0.190 C 
BRANCH   3   4
ATOM      4  O   UNL     1      19.514   6.721  46.023  1.00  0.00    -0.394 OA
ATOM      5  H   UNL     1      19.504   7.622  45.608  1.00  0.00     0.210 HD
ENDBRANCH   3   4
ENDBRANCH   2   3
BRANCH   2   6
ATOM      6  O   UNL     1      16.704   4.524  45.222  1.00  0.00    -0.388 OA
ATOM      7  H   UNL     1      16.467   4.616  44.263  1.00  0.00     0.211 HD
ENDBRANCH   2   6
ENDBRANCH   1   2
BRANCH   1   8
ATOM      8  C   UNL     1      18.790   2.325  45.386  1.00  0.00     0.171 C 
BRANCH   8   9
ATOM      9  C   UNL     1      19.116   2.268  43.875  1.00  0.00     0.190 C 
BRANCH   9  10
ATOM     10  O   UNL     1      20.460   2.594  43.638  1.00  0.00    -0.394 OA
ATOM     11  H   UNL     1      20.701   3.305  44.288  1.00  0.00     0.210 HD
ENDBRANCH   9  10
ENDBRANCH   8   9
BRANCH   8  12
ATOM     12  O   UNL     1      19.514   1.368  46.117  1.00  0.00    -0.388 OA
ATOM     13  H   UNL     1      20.417   1.289  45.715  1.00  0.00     0.211 HD
ENDBRANCH   8  12
ENDBRANCH   1   8
BRANCH   1  14
ATOM     14  O   UNL     1      20.248   4.124  46.010  1.00  0.00    -0.388 OA
ATOM     15  H   UNL     1      20.665   3.751  46.830  1.00  0.00     0.211 HD
ENDBRANCH   1  14
TORSDOF 9
ENDMDL
