MODEL 1
REMARK VINA RESULT:    -3.428      0.000      0.000
REMARK INTER + INTRA:          -4.772
REMARK INTER:                  -4.429
REMARK INTRA:                  -0.342
REMARK UNBOUND:                -0.342
REMARK SMILES CCO[C@@H]1O[C@@H](CO)[C@H](O)[C@@H](O)[C@@H]1O
REMARK SMILES IDX 4 1 13 2 11 3 9 4 6 5 5 6 3 7 2 8 1 9 14 10 12 12 7 14 8 15
REMARK SMILES IDX 10 17
REMARK H PARENT 14 11 12 13 8 16 10 18
REMARK Flexibility Score: inf
ROOT
ATOM      1  C   UNL     1      30.017  12.309  22.048  1.00  0.00     0.281 C 
ATOM      2  C   UNL     1      31.406  12.899  22.348  1.00  0.00     0.202 C 
ATOM      3  C   UNL     1      32.084  13.357  21.043  1.00  0.00     0.179 C 
ATOM      4  C   UNL     1      31.138  14.270  20.240  1.00  0.00     0.177 C 
ATOM      5  C   UNL     1      29.766  13.574  20.079  1.00  0.00     0.178 C 
ATOM      6  O   UNL     1      29.211  13.247  21.345  1.00  0.00    -0.341 OA
ENDROOT
BRANCH   1   7
ATOM      7  O   UNL     1      30.145  11.090  21.332  1.00  0.00    -0.350 OA
BRANCH   7   8
ATOM      8  C   UNL     1      29.593  10.025  22.078  1.00  0.00     0.160 C 
ATOM      9  C   UNL     1      28.084  10.022  21.897  1.00  0.00     0.035 C 
ENDBRANCH   7   8
ENDBRANCH   1   7
BRANCH   2  10
ATOM     10  O   UNL     1      32.194  11.933  22.994  1.00  0.00    -0.385 OA
ATOM     11  H   UNL     1      32.743  12.413  23.668  1.00  0.00     0.211 HD
ENDBRANCH   2  10
BRANCH   3  12
ATOM     12  O   UNL     1      33.302  14.008  21.311  1.00  0.00    -0.387 OA
ATOM     13  H   UNL     1      33.994  13.309  21.446  1.00  0.00     0.211 HD
ENDBRANCH   3  12
BRANCH   5  14
ATOM     14  C   UNL     1      28.769  14.466  19.323  1.00  0.00     0.191 C 
BRANCH  14  15
ATOM     15  O   UNL     1      29.025  14.459  17.943  1.00  0.00    -0.394 OA
ATOM     16  H   UNL     1      28.746  13.569  17.604  1.00  0.00     0.210 HD
ENDBRANCH  14  15
ENDBRANCH   5  14
BRANCH   4  17
ATOM     17  O   UNL     1      31.689  14.528  18.974  1.00  0.00    -0.387 OA
ATOM     18  H   UNL     1      32.092  15.433  19.015  1.00  0.00     0.211 HD
ENDBRANCH   4  17
TORSDOF 7
ENDMDL
MODEL 2
REMARK VINA RESULT:    -3.380     17.800     19.008
REMARK INTER + INTRA:          -4.710
REMARK INTER:                  -4.664
REMARK INTRA:                  -0.046
REMARK UNBOUND:                -0.342
REMARK SMILES CCO[C@@H]1O[C@@H](CO)[C@H](O)[C@@H](O)[C@@H]1O
REMARK SMILES IDX 4 1 13 2 11 3 9 4 6 5 5 6 3 7 2 8 1 9 14 10 12 12 7 14 8 15
REMARK SMILES IDX 10 17
REMARK H PARENT 14 11 12 13 8 16 10 18
REMARK Flexibility Score: inf
ROOT
ATOM      1  C   UNL     1      29.166   1.992   5.113  1.00  0.00     0.281 C 
ATOM      2  C   UNL     1      28.502   2.434   3.797  1.00  0.00     0.202 C 
ATOM      3  C   UNL     1      27.422   3.497   4.076  1.00  0.00     0.179 C 
ATOM      4  C   UNL     1      28.001   4.634   4.940  1.00  0.00     0.177 C 
ATOM      5  C   UNL     1      28.693   4.033   6.185  1.00  0.00     0.178 C 
ATOM      6  O   UNL     1      29.704   3.109   5.809  1.00  0.00    -0.341 OA
ENDROOT
BRANCH   1   7
ATOM      7  O   UNL     1      28.239   1.275   5.915  1.00  0.00    -0.350 OA
BRANCH   7   8
ATOM      8  C   UNL     1      28.765   0.010   6.257  1.00  0.00     0.160 C 
ATOM      9  C   UNL     1      28.756  -0.881   5.025  1.00  0.00     0.035 C 
ENDBRANCH   7   8
ENDBRANCH   1   7
BRANCH   2  10
ATOM     10  O   UNL     1      27.935   1.318   3.161  1.00  0.00    -0.385 OA
ATOM     11  H   UNL     1      28.257   1.328   2.222  1.00  0.00     0.211 HD
ENDBRANCH   2  10
BRANCH   3  12
ATOM     12  O   UNL     1      26.890   4.000   2.875  1.00  0.00    -0.387 OA
ATOM     13  H   UNL     1      26.150   3.399   2.598  1.00  0.00     0.211 HD
ENDBRANCH   3  12
BRANCH   5  14
ATOM     14  C   UNL     1      29.328   5.126   7.059  1.00  0.00     0.191 C 
BRANCH  14  15
ATOM     15  O   UNL     1      29.654   6.259   6.297  1.00  0.00    -0.394 OA
ATOM     16  H   UNL     1      29.057   6.991   6.602  1.00  0.00     0.210 HD
ENDBRANCH  14  15
ENDBRANCH   5  14
BRANCH   4  17
ATOM     17  O   UNL     1      26.967   5.497   5.342  1.00  0.00    -0.387 OA
ATOM     18  H   UNL     1      27.375   6.173   5.943  1.00  0.00     0.211 HD
ENDBRANCH   4  17
TORSDOF 7
ENDMDL
MODEL 3
REMARK VINA RESULT:    -3.273      2.470      5.086
REMARK INTER + INTRA:          -4.572
REMARK INTER:                  -4.210
REMARK INTRA:                  -0.362
REMARK UNBOUND:                -0.342
REMARK SMILES CCO[C@@H]1O[C@@H](CO)[C@H](O)[C@@H](O)[C@@H]1O
REMARK SMILES IDX 4 1 13 2 11 3 9 4 6 5 5 6 3 7 2 8 1 9 14 10 12 12 7 14 8 15
REMARK SMILES IDX 10 17
REMARK H PARENT 14 11 12 13 8 16 10 18
REMARK Flexibility Score: inf
ROOT
ATOM      1  C   UNL     1      30.557  15.494  18.997  1.00  0.00     0.281 C 
ATOM      2  C   UNL     1      30.334  14.086  19.577  1.00  0.00     0.202 C 
ATOM      3  C   UNL     1      31.652  13.530  20.148  1.00  0.00     0.179 C 
ATOM      4  C   UNL     1      32.290  14.549  21.112  1.00  0.00     0.177 C 
ATOM      5  C   UNL     1      32.385  15.925  20.415  1.00  0.00     0.178 C 
ATOM      6  O   UNL     1      31.107  16.364  19.978  1.00  0.00    -0.341 OA
ENDROOT
BRANCH   1   7
ATOM      7  O   UNL     1      31.380  15.424  17.841  1.00  0.00    -0.350 OA
BRANCH   7   8
ATOM      8  C   UNL     1      30.815  16.184  16.793  1.00  0.00     0.160 C 
ATOM      9  C   UNL     1      31.343  15.666  15.465  1.00  0.00     0.035 C 
ENDBRANCH   7   8
ENDBRANCH   1   7
BRANCH   2  10
ATOM     10  O   UNL     1      29.842  13.238  18.571  1.00  0.00    -0.385 OA
ATOM     11  H   UNL     1      30.035  12.308  18.859  1.00  0.00     0.211 HD
ENDBRANCH   2  10
BRANCH   3  12
ATOM     12  O   UNL     1      31.441  12.296  20.790  1.00  0.00    -0.387 OA
ATOM     13  H   UNL     1      32.291  11.783  20.744  1.00  0.00     0.211 HD
ENDBRANCH   3  12
BRANCH   5  14
ATOM     14  C   UNL     1      32.974  16.991  21.353  1.00  0.00     0.191 C 
BRANCH  14  15
ATOM     15  O   UNL     1      34.361  17.114  21.176  1.00  0.00    -0.394 OA
ATOM     16  H   UNL     1      34.498  17.714  20.398  1.00  0.00     0.210 HD
ENDBRANCH  14  15
ENDBRANCH   5  14
BRANCH   4  17
ATOM     17  O   UNL     1      33.575  14.114  21.479  1.00  0.00    -0.387 OA
ATOM     18  H   UNL     1      34.139  14.925  21.567  1.00  0.00     0.211 HD
ENDBRANCH   4  17
TORSDOF 7
ENDMDL
MODEL 4
REMARK VINA RESULT:    -3.251      1.526      4.389
REMARK INTER + INTRA:          -4.544
REMARK INTER:                  -4.134
REMARK INTRA:                  -0.411
REMARK UNBOUND:                -0.342
REMARK SMILES CCO[C@@H]1O[C@@H](CO)[C@H](O)[C@@H](O)[C@@H]1O
REMARK SMILES IDX 4 1 13 2 11 3 9 4 6 5 5 6 3 7 2 8 1 9 14 10 12 12 7 14 8 15
REMARK SMILES IDX 10 17
REMARK H PARENT 14 11 12 13 8 16 10 18
REMARK Flexibility Score: inf
ROOT
ATOM      1  C   UNL     1      29.867  14.087  19.566  1.00  0.00     0.281 C 
ATOM      2  C   UNL     1      29.119  13.085  20.464  1.00  0.00     0.202 C 
ATOM      3  C   UNL     1      30.123  12.183  21.206  1.00  0.00     0.179 C 
ATOM      4  C   UNL     1      31.190  13.039  21.916  1.00  0.00     0.177 C 
ATOM      5  C   UNL     1      31.801  14.038  20.906  1.00  0.00     0.178 C 
ATOM      6  O   UNL     1      30.793  14.853  20.325  1.00  0.00    -0.341 OA
ENDROOT
BRANCH   1   7
ATOM      7  O   UNL     1      30.506  13.405  18.496  1.00  0.00    -0.350 OA
BRANCH   7   8
ATOM      8  C   UNL     1      30.503  14.207  17.334  1.00  0.00     0.160 C 
ATOM      9  C   UNL     1      29.153  14.896  17.210  1.00  0.00     0.035 C 
ENDBRANCH   7   8
ENDBRANCH   1   7
BRANCH   2  10
ATOM     10  O   UNL     1      28.253  12.309  19.678  1.00  0.00    -0.385 OA
ATOM     11  H   UNL     1      27.809  11.665  20.290  1.00  0.00     0.211 HD
ENDBRANCH   2  10
BRANCH   3  12
ATOM     12  O   UNL     1      29.462  11.344  22.122  1.00  0.00    -0.387 OA
ATOM     13  H   UNL     1      29.431  11.817  22.996  1.00  0.00     0.211 HD
ENDBRANCH   3  12
BRANCH   5  14
ATOM     14  C   UNL     1      32.841  14.949  21.577  1.00  0.00     0.191 C 
BRANCH  14  15
ATOM     15  O   UNL     1      33.949  14.213  22.023  1.00  0.00    -0.394 OA
ATOM     16  H   UNL     1      34.324  14.701  22.802  1.00  0.00     0.210 HD
ENDBRANCH  14  15
ENDBRANCH   5  14
BRANCH   4  17
ATOM     17  O   UNL     1      32.200  12.207  22.429  1.00  0.00    -0.387 OA
ATOM     18  H   UNL     1      32.632  11.768  21.652  1.00  0.00     0.211 HD
ENDBRANCH   4  17
TORSDOF 7
ENDMDL
MODEL 5
REMARK VINA RESULT:    -3.237      1.473      1.848
REMARK INTER + INTRA:          -4.525
REMARK INTER:                  -4.093
REMARK INTRA:                  -0.432
REMARK UNBOUND:                -0.342
REMARK SMILES CCO[C@@H]1O[C@@H](CO)[C@H](O)[C@@H](O)[C@@H]1O
REMARK SMILES IDX 4 1 13 2 11 3 9 4 6 5 5 6 3 7 2 8 1 9 14 10 12 12 7 14 8 15
REMARK SMILES IDX 10 17
REMARK H PARENT 14 11 12 13 8 16 10 18
REMARK Flexibility Score: inf
ROOT
ATOM      1  C   UNL     1      28.787  13.546  20.753  1.00  0.00     0.281 C 
ATOM      2  C   UNL     1      30.218  13.836  21.242  1.00  0.00     0.202 C 
ATOM      3  C   UNL     1      31.182  13.929  20.044  1.00  0.00     0.179 C 
ATOM      4  C   UNL     1      30.632  14.908  18.989  1.00  0.00     0.177 C 
ATOM      5  C   UNL     1      29.171  14.532  18.651  1.00  0.00     0.178 C 
ATOM      6  O   UNL     1      28.363  14.530  19.818  1.00  0.00    -0.341 OA
ENDROOT
BRANCH   1   7
ATOM      7  O   UNL     1      28.712  12.238  20.204  1.00  0.00    -0.350 OA
BRANCH   7   8
ATOM      8  C   UNL     1      27.589  11.555  20.722  1.00  0.00     0.160 C 
ATOM      9  C   UNL     1      28.065  10.463  21.666  1.00  0.00     0.035 C 
ENDBRANCH   7   8
ENDBRANCH   1   7
BRANCH   2  10
ATOM     10  O   UNL     1      30.627  12.819  22.120  1.00  0.00    -0.385 OA
ATOM     11  H   UNL     1      31.358  13.196  22.675  1.00  0.00     0.211 HD
ENDBRANCH   2  10
BRANCH   3  12
ATOM     12  O   UNL     1      32.469  14.313  20.464  1.00  0.00    -0.387 OA
ATOM     13  H   UNL     1      32.401  14.609  21.410  1.00  0.00     0.211 HD
ENDBRANCH   3  12
BRANCH   5  14
ATOM     14  C   UNL     1      28.560  15.509  17.633  1.00  0.00     0.191 C 
BRANCH  14  15
ATOM     15  O   UNL     1      28.936  15.179  16.323  1.00  0.00    -0.394 OA
ATOM     16  H   UNL     1      29.837  15.569  16.175  1.00  0.00     0.210 HD
ENDBRANCH  14  15
ENDBRANCH   5  14
BRANCH   4  17
ATOM     17  O   UNL     1      31.420  14.843  17.827  1.00  0.00    -0.387 OA
ATOM     18  H   UNL     1      32.029  14.068  17.936  1.00  0.00     0.211 HD
ENDBRANCH   4  17
TORSDOF 7
ENDMDL
MODEL 6
REMARK VINA RESULT:    -3.216      1.700      3.564
REMARK INTER + INTRA:          -4.498
REMARK INTER:                  -4.056
REMARK INTRA:                  -0.442
REMARK UNBOUND:                -0.342
REMARK SMILES CCO[C@@H]1O[C@@H](CO)[C@H](O)[C@@H](O)[C@@H]1O
REMARK SMILES IDX 4 1 13 2 11 3 9 4 6 5 5 6 3 7 2 8 1 9 14 10 12 12 7 14 8 15
REMARK SMILES IDX 10 17
REMARK H PARENT 14 11 12 13 8 16 10 18
REMARK Flexibility Score: inf
ROOT
ATOM      1  C   UNL     1      30.553  12.724  20.449  1.00  0.00     0.281 C 
ATOM      2  C   UNL     1      30.987  13.467  19.173  1.00  0.00     0.202 C 
ATOM      3  C   UNL     1      31.268  14.948  19.489  1.00  0.00     0.179 C 
ATOM      4  C   UNL     1      32.234  15.067  20.685  1.00  0.00     0.177 C 
ATOM      5  C   UNL     1      31.701  14.217  21.861  1.00  0.00     0.178 C 
ATOM      6  O   UNL     1      31.531  12.862  21.473  1.00  0.00    -0.341 OA
ENDROOT
BRANCH   1   7
ATOM      7  O   UNL     1      29.281  13.187  20.878  1.00  0.00    -0.350 OA
BRANCH   7   8
ATOM      8  C   UNL     1      28.553  12.133  21.475  1.00  0.00     0.160 C 
ATOM      9  C   UNL     1      27.583  11.560  20.454  1.00  0.00     0.035 C 
ENDBRANCH   7   8
ENDBRANCH   1   7
BRANCH   2  10
ATOM     10  O   UNL     1      29.979  13.358  18.203  1.00  0.00    -0.385 OA
ATOM     11  H   UNL     1      29.602  14.267  18.076  1.00  0.00     0.211 HD
ENDBRANCH   2  10
BRANCH   3  12
ATOM     12  O   UNL     1      31.783  15.614  18.361  1.00  0.00    -0.387 OA
ATOM     13  H   UNL     1      32.409  16.314  18.684  1.00  0.00     0.211 HD
ENDBRANCH   3  12
BRANCH   5  14
ATOM     14  C   UNL     1      32.654  14.266  23.066  1.00  0.00     0.191 C 
BRANCH  14  15
ATOM     15  O   UNL     1      33.961  14.585  22.668  1.00  0.00    -0.394 OA
ATOM     16  H   UNL     1      33.892  15.367  22.060  1.00  0.00     0.210 HD
ENDBRANCH  14  15
ENDBRANCH   5  14
BRANCH   4  17
ATOM     17  O   UNL     1      32.334  16.412  21.080  1.00  0.00    -0.387 OA
ATOM     18  H   UNL     1      32.644  16.412  22.022  1.00  0.00     0.211 HD
ENDBRANCH   4  17
TORSDOF 7
ENDMDL
MODEL 7
REMARK VINA RESULT:    -3.074      1.584      4.120
REMARK INTER + INTRA:          -4.315
REMARK INTER:                  -3.867
REMARK INTRA:                  -0.448
REMARK UNBOUND:                -0.342
REMARK SMILES CCO[C@@H]1O[C@@H](CO)[C@H](O)[C@@H](O)[C@@H]1O
REMARK SMILES IDX 4 1 13 2 11 3 9 4 6 5 5 6 3 7 2 8 1 9 14 10 12 12 7 14 8 15
REMARK SMILES IDX 10 17
REMARK H PARENT 14 11 12 13 8 16 10 18
REMARK Flexibility Score: inf
ROOT
ATOM      1  C   UNL     1      29.809  13.629  19.225  1.00  0.00     0.281 C 
ATOM      2  C   UNL     1      31.173  13.256  19.833  1.00  0.00     0.202 C 
ATOM      3  C   UNL     1      31.029  12.997  21.345  1.00  0.00     0.179 C 
ATOM      4  C   UNL     1      29.891  11.993  21.610  1.00  0.00     0.177 C 
ATOM      5  C   UNL     1      28.610  12.465  20.883  1.00  0.00     0.178 C 
ATOM      6  O   UNL     1      28.844  12.619  19.491  1.00  0.00    -0.341 OA
ENDROOT
BRANCH   1   7
ATOM      7  O   UNL     1      29.385  14.895  19.709  1.00  0.00    -0.350 OA
BRANCH   7   8
ATOM      8  C   UNL     1      28.601  15.553  18.735  1.00  0.00     0.160 C 
ATOM      9  C   UNL     1      29.227  15.336  17.366  1.00  0.00     0.035 C 
ENDBRANCH   7   8
ENDBRANCH   1   7
BRANCH   2  10
ATOM     10  O   UNL     1      32.088  14.295  19.601  1.00  0.00    -0.385 OA
ATOM     11  H   UNL     1      31.835  15.042  20.204  1.00  0.00     0.211 HD
ENDBRANCH   2  10
BRANCH   3  12
ATOM     12  O   UNL     1      32.241  12.538  21.893  1.00  0.00    -0.387 OA
ATOM     13  H   UNL     1      32.084  12.350  22.856  1.00  0.00     0.211 HD
ENDBRANCH   3  12
BRANCH   5  14
ATOM     14  C   UNL     1      27.454  11.472  21.079  1.00  0.00     0.191 C 
BRANCH  14  15
ATOM     15  O   UNL     1      27.921  10.234  21.547  1.00  0.00    -0.394 OA
ATOM     16  H   UNL     1      27.795   9.583  20.809  1.00  0.00     0.210 HD
ENDBRANCH  14  15
ENDBRANCH   5  14
BRANCH   4  17
ATOM     17  O   UNL     1      29.647  11.908  22.992  1.00  0.00    -0.387 OA
ATOM     18  H   UNL     1      29.921  12.777  23.386  1.00  0.00     0.211 HD
ENDBRANCH   4  17
TORSDOF 7
ENDMDL
MODEL 8
REMARK VINA RESULT:    -3.026      2.661      5.780
REMARK INTER + INTRA:          -4.253
REMARK INTER:                  -3.828
REMARK INTRA:                  -0.426
REMARK UNBOUND:                -0.342
REMARK SMILES CCO[C@@H]1O[C@@H](CO)[C@H](O)[C@@H](O)[C@@H]1O
REMARK SMILES IDX 4 1 13 2 11 3 9 4 6 5 5 6 3 7 2 8 1 9 14 10 12 12 7 14 8 15
REMARK SMILES IDX 10 17
REMARK H PARENT 14 11 12 13 8 16 10 18
REMARK Flexibility Score: inf
ROOT
ATOM      1  C   UNL     1      30.517  16.156  17.880  1.00  0.00     0.281 C 
ATOM      2  C   UNL     1      29.377  15.133  18.034  1.00  0.00     0.202 C 
ATOM      3  C   UNL     1      29.908  13.836  18.674  1.00  0.00     0.179 C 
ATOM      4  C   UNL     1      30.688  14.156  19.964  1.00  0.00     0.177 C 
ATOM      5  C   UNL     1      31.747  15.243  19.668  1.00  0.00     0.178 C 
ATOM      6  O   UNL     1      31.141  16.411  19.133  1.00  0.00    -0.341 OA
ENDROOT
BRANCH   1   7
ATOM      7  O   UNL     1      31.455  15.705  16.913  1.00  0.00    -0.350 OA
BRANCH   7   8
ATOM      8  C   UNL     1      31.797  16.758  16.037  1.00  0.00     0.160 C 
ATOM      9  C   UNL     1      31.094  16.544  14.706  1.00  0.00     0.035 C 
ENDBRANCH   7   8
ENDBRANCH   1   7
BRANCH   2  10
ATOM     10  O   UNL     1      28.818  14.863  16.775  1.00  0.00    -0.385 OA
ATOM     11  H   UNL     1      29.357  15.363  16.108  1.00  0.00     0.211 HD
ENDBRANCH   2  10
BRANCH   3  12
ATOM     12  O   UNL     1      28.857  12.937  18.933  1.00  0.00    -0.387 OA
ATOM     13  H   UNL     1      28.457  13.185  19.808  1.00  0.00     0.211 HD
ENDBRANCH   3  12
BRANCH   5  14
ATOM     14  C   UNL     1      32.524  15.631  20.936  1.00  0.00     0.191 C 
BRANCH  14  15
ATOM     15  O   UNL     1      33.453  14.639  21.286  1.00  0.00    -0.394 OA
ATOM     16  H   UNL     1      34.198  14.702  20.633  1.00  0.00     0.210 HD
ENDBRANCH  14  15
ENDBRANCH   5  14
BRANCH   4  17
ATOM     17  O   UNL     1      31.322  12.993  20.434  1.00  0.00    -0.387 OA
ATOM     18  H   UNL     1      30.650  12.264  20.397  1.00  0.00     0.211 HD
ENDBRANCH   4  17
TORSDOF 7
ENDMDL
MODEL 9
REMARK VINA RESULT:    -2.994      1.595      4.078
REMARK INTER + INTRA:          -4.211
REMARK INTER:                  -3.748
REMARK INTRA:                  -0.464
REMARK UNBOUND:                -0.342
REMARK SMILES CCO[C@@H]1O[C@@H](CO)[C@H](O)[C@@H](O)[C@@H]1O
REMARK SMILES IDX 4 1 13 2 11 3 9 4 6 5 5 6 3 7 2 8 1 9 14 10 12 12 7 14 8 15
REMARK SMILES IDX 10 17
REMARK H PARENT 14 11 12 13 8 16 10 18
REMARK Flexibility Score: inf
ROOT
ATOM      1  C   UNL     1      31.551  14.632  20.151  1.00  0.00     0.281 C 
ATOM      2  C   UNL     1      32.464  13.731  21.002  1.00  0.00     0.202 C 
ATOM      3  C   UNL     1      31.637  12.991  22.070  1.00  0.00     0.179 C 
ATOM      4  C   UNL     1      30.432  12.284  21.419  1.00  0.00     0.177 C 
ATOM      5  C   UNL     1      29.654  13.296  20.546  1.00  0.00     0.178 C 
ATOM      6  O   UNL     1      30.500  13.875  19.563  1.00  0.00    -0.341 OA
ENDROOT
BRANCH   1   7
ATOM      7  O   UNL     1      31.047  15.702  20.937  1.00  0.00    -0.350 OA
BRANCH   7   8
ATOM      8  C   UNL     1      30.832  16.841  20.130  1.00  0.00     0.160 C 
ATOM      9  C   UNL     1      32.041  17.047  19.230  1.00  0.00     0.035 C 
ENDBRANCH   7   8
ENDBRANCH   1   7
BRANCH   2  10
ATOM     10  O   UNL     1      33.458  14.514  21.611  1.00  0.00    -0.385 OA
ATOM     11  H   UNL     1      34.283  14.402  21.071  1.00  0.00     0.211 HD
ENDBRANCH   2  10
BRANCH   3  12
ATOM     12  O   UNL     1      32.435  12.072  22.777  1.00  0.00    -0.387 OA
ATOM     13  H   UNL     1      32.563  12.428  23.695  1.00  0.00     0.211 HD
ENDBRANCH   3  12
BRANCH   5  14
ATOM     14  C   UNL     1      28.465  12.628  19.836  1.00  0.00     0.191 C 
BRANCH  14  15
ATOM     15  O   UNL     1      27.390  12.437  20.717  1.00  0.00    -0.394 OA
ATOM     16  H   UNL     1      26.771  11.796  20.279  1.00  0.00     0.210 HD
ENDBRANCH  14  15
ENDBRANCH   5  14
BRANCH   4  17
ATOM     17  O   UNL     1      29.586  11.773  22.418  1.00  0.00    -0.387 OA
ATOM     18  H   UNL     1      29.374  12.526  23.028  1.00  0.00     0.211 HD
ENDBRANCH   4  17
TORSDOF 7
ENDMDL
