MODEL 1
REMARK VINA RESULT:    -3.581      0.000      0.000
REMARK INTER + INTRA:         -12.228
REMARK INTER:                  -9.442
REMARK INTRA:                  -2.786
REMARK UNBOUND:                -2.786
REMARK SMILES CCCCCCCCCCCCCCCCCCCCCCCCCCCCCC(=O)[O-]
REMARK SMILES IDX 16 1 17 2 18 3 19 4 20 5 21 6 22 7 23 8 24 9 25 10 26 11
REMARK SMILES IDX 27 12 28 13 29 14 30 15 31 16 32 17 15 18 14 19 13 20 12 21
REMARK SMILES IDX 11 22 10 23 9 24 8 25 7 26 6 27 5 28 4 29 3 30 2 31 1 32
REMARK H PARENT
REMARK Flexibility Score: inf
ROOT
ATOM      1  C   UNL     1       0.297   5.175 -57.712  1.00  0.00     0.000 C 
ENDROOT
BRANCH   1   2
ATOM      2  C   UNL     1      -0.371   4.875 -56.363  1.00  0.00     0.000 C 
BRANCH   2   3
ATOM      3  C   UNL     1       0.067   5.841 -55.247  1.00  0.00     0.000 C 
BRANCH   3   4
ATOM      4  C   UNL     1       0.100   5.234 -53.832  1.00  0.00     0.000 C 
BRANCH   4   5
ATOM      5  C   UNL     1      -0.856   5.941 -52.852  1.00  0.00     0.000 C 
BRANCH   5   6
ATOM      6  C   UNL     1      -0.912   5.245 -51.479  1.00  0.00     0.000 C 
BRANCH   6   7
ATOM      7  C   UNL     1      -0.054   5.938 -50.403  1.00  0.00     0.000 C 
BRANCH   7   8
ATOM      8  C   UNL     1      -0.500   5.578 -48.974  1.00  0.00     0.000 C 
BRANCH   8   9
ATOM      9  C   UNL     1      -2.025   5.719 -48.767  1.00  0.00     0.000 C 
BRANCH   9  10
ATOM     10  C   UNL     1      -2.461   5.769 -47.291  1.00  0.00     0.000 C 
BRANCH  10  11
ATOM     11  C   UNL     1      -1.771   6.843 -46.430  1.00  0.00     0.000 C 
BRANCH  11  12
ATOM     12  C   UNL     1      -2.720   7.761 -45.638  1.00  0.00     0.000 C 
BRANCH  12  13
ATOM     13  C   UNL     1      -3.508   8.730 -46.536  1.00  0.00     0.006 C 
BRANCH  13  14
ATOM     14  C   UNL     1      -5.025   8.575 -46.364  1.00  0.00     0.053 C 
BRANCH  14  15
ATOM     15  C   UNL     1      -5.690   8.178 -47.648  1.00  0.00     0.041 C 
ATOM     16  O   UNL     1      -5.930   6.966 -47.889  1.00  0.00    -0.550 OA
ATOM     17  O   UNL     1      -6.064   9.151 -48.567  1.00  0.00    -0.550 OA
ENDBRANCH  14  15
ENDBRANCH  13  14
ENDBRANCH  12  13
ENDBRANCH  11  12
ENDBRANCH  10  11
ENDBRANCH   9  10
ENDBRANCH   8   9
ENDBRANCH   7   8
ENDBRANCH   6   7
ENDBRANCH   5   6
ENDBRANCH   4   5
ENDBRANCH   3   4
ENDBRANCH   2   3
ENDBRANCH   1   2
BRANCH   1  18
ATOM     18  C   UNL     1      -0.353   6.395 -58.380  1.00  0.00     0.000 C 
BRANCH  18  19
ATOM     19  C   UNL     1      -1.837   6.175 -58.726  1.00  0.00     0.000 C 
BRANCH  19  20
ATOM     20  C   UNL     1      -2.145   5.986 -60.226  1.00  0.00     0.000 C 
BRANCH  20  21
ATOM     21  C   UNL     1      -3.577   5.523 -60.551  1.00  0.00     0.000 C 
BRANCH  21  22
ATOM     22  C   UNL     1      -4.605   6.667 -60.497  1.00  0.00     0.000 C 
BRANCH  22  23
ATOM     23  C   UNL     1      -5.481   6.611 -59.228  1.00  0.00     0.000 C 
BRANCH  23  24
ATOM     24  C   UNL     1      -5.450   5.250 -58.506  1.00  0.00    -0.000 C 
BRANCH  24  25
ATOM     25  C   UNL     1      -5.800   5.290 -57.008  1.00  0.00    -0.000 C 
BRANCH  25  26
ATOM     26  C   UNL     1      -4.611   5.082 -56.049  1.00  0.00    -0.000 C 
BRANCH  26  27
ATOM     27  C   UNL     1      -3.385   5.962 -56.376  1.00  0.00    -0.000 C 
BRANCH  27  28
ATOM     28  C   UNL     1      -3.345   7.254 -55.540  1.00  0.00    -0.000 C 
BRANCH  28  29
ATOM     29  C   UNL     1      -3.097   8.506 -56.408  1.00  0.00    -0.000 C 
BRANCH  29  30
ATOM     30  C   UNL     1      -4.372   9.082 -57.048  1.00  0.00    -0.000 C 
BRANCH  30  31
ATOM     31  C   UNL     1      -4.165   9.525 -58.502  1.00  0.00    -0.003 C 
ATOM     32  C   UNL     1      -2.681   9.637 -58.839  1.00  0.00     0.004 C 
ENDBRANCH  30  31
ENDBRANCH  29  30
ENDBRANCH  28  29
ENDBRANCH  27  28
ENDBRANCH  26  27
ENDBRANCH  25  26
ENDBRANCH  24  25
ENDBRANCH  23  24
ENDBRANCH  22  23
ENDBRANCH  21  22
ENDBRANCH  20  21
ENDBRANCH  19  20
ENDBRANCH  18  19
ENDBRANCH   1  18
TORSDOF 28
ENDMDL
MODEL 2
REMARK VINA RESULT:    -3.343      2.250      7.453
REMARK INTER + INTRA:         -11.601
REMARK INTER:                  -8.728
REMARK INTRA:                  -2.873
REMARK UNBOUND:                -2.786
REMARK SMILES CCCCCCCCCCCCCCCCCCCCCCCCCCCCCC(=O)[O-]
REMARK SMILES IDX 16 1 17 2 18 3 19 4 20 5 21 6 22 7 23 8 24 9 25 10 26 11
REMARK SMILES IDX 27 12 28 13 29 14 30 15 31 16 32 17 15 18 14 19 13 20 12 21
REMARK SMILES IDX 11 22 10 23 9 24 8 25 7 26 6 27 5 28 4 29 3 30 2 31 1 32
REMARK H PARENT
REMARK Flexibility Score: inf
ROOT
ATOM      1  C   UNL     1       0.466   7.916 -46.665  1.00  0.00     0.000 C 
ENDROOT
BRANCH   1   2
ATOM      2  C   UNL     1       0.846   8.649 -45.372  1.00  0.00     0.000 C 
BRANCH   2   3
ATOM      3  C   UNL     1       1.231  10.121 -45.606  1.00  0.00     0.000 C 
BRANCH   3   4
ATOM      4  C   UNL     1       0.197  11.153 -45.117  1.00  0.00     0.000 C 
BRANCH   4   5
ATOM      5  C   UNL     1      -0.435  11.961 -46.266  1.00  0.00     0.000 C 
BRANCH   5   6
ATOM      6  C   UNL     1      -1.974  11.898 -46.253  1.00  0.00     0.000 C 
BRANCH   6   7
ATOM      7  C   UNL     1      -2.560  11.455 -44.898  1.00  0.00     0.000 C 
BRANCH   7   8
ATOM      8  C   UNL     1      -3.090  10.009 -44.932  1.00  0.00     0.000 C 
BRANCH   8   9
ATOM      9  C   UNL     1      -3.369   9.505 -46.365  1.00  0.00     0.000 C 
BRANCH   9  10
ATOM     10  C   UNL     1      -3.203   7.984 -46.545  1.00  0.00     0.000 C 
BRANCH  10  11
ATOM     11  C   UNL     1      -3.373   7.143 -45.267  1.00  0.00     0.000 C 
BRANCH  11  12
ATOM     12  C   UNL     1      -3.647   5.645 -45.497  1.00  0.00     0.000 C 
BRANCH  12  13
ATOM     13  C   UNL     1      -4.935   5.385 -46.297  1.00  0.00     0.006 C 
BRANCH  13  14
ATOM     14  C   UNL     1      -4.716   5.528 -47.809  1.00  0.00     0.053 C 
BRANCH  14  15
ATOM     15  C   UNL     1      -5.937   6.063 -48.497  1.00  0.00     0.041 C 
ATOM     16  O   UNL     1      -6.628   5.313 -49.236  1.00  0.00    -0.550 OA
ATOM     17  O   UNL     1      -6.321   7.384 -48.303  1.00  0.00    -0.550 OA
ENDBRANCH  14  15
ENDBRANCH  13  14
ENDBRANCH  12  13
ENDBRANCH  11  12
ENDBRANCH  10  11
ENDBRANCH   9  10
ENDBRANCH   8   9
ENDBRANCH   7   8
ENDBRANCH   6   7
ENDBRANCH   5   6
ENDBRANCH   4   5
ENDBRANCH   3   4
ENDBRANCH   2   3
ENDBRANCH   1   2
BRANCH   1  18
ATOM     18  C   UNL     1       1.169   6.554 -46.744  1.00  0.00     0.000 C 
BRANCH  18  19
ATOM     19  C   UNL     1       0.188   5.370 -46.796  1.00  0.00     0.000 C 
BRANCH  19  20
ATOM     20  C   UNL     1      -0.860   5.428 -47.927  1.00  0.00     0.000 C 
BRANCH  20  21
ATOM     21  C   UNL     1      -0.289   5.585 -49.348  1.00  0.00     0.000 C 
BRANCH  21  22
ATOM     22  C   UNL     1      -1.244   5.071 -50.440  1.00  0.00     0.000 C 
BRANCH  22  23
ATOM     23  C   UNL     1      -0.571   5.003 -51.826  1.00  0.00     0.000 C 
BRANCH  23  24
ATOM     24  C   UNL     1      -0.990   6.138 -52.782  1.00  0.00    -0.000 C 
BRANCH  24  25
ATOM     25  C   UNL     1       0.165   6.854 -53.502  1.00  0.00    -0.000 C 
BRANCH  25  26
ATOM     26  C   UNL     1       0.145   6.750 -55.041  1.00  0.00    -0.000 C 
BRANCH  26  27
ATOM     27  C   UNL     1      -0.482   5.442 -55.569  1.00  0.00    -0.000 C 
BRANCH  27  28
ATOM     28  C   UNL     1      -0.541   5.393 -57.107  1.00  0.00    -0.000 C 
BRANCH  28  29
ATOM     29  C   UNL     1      -1.508   6.445 -57.690  1.00  0.00    -0.000 C 
BRANCH  29  30
ATOM     30  C   UNL     1      -2.793   6.634 -56.865  1.00  0.00    -0.000 C 
BRANCH  30  31
ATOM     31  C   UNL     1      -3.076   8.102 -56.523  1.00  0.00    -0.003 C 
ATOM     32  C   UNL     1      -3.242   8.941 -57.786  1.00  0.00     0.004 C 
ENDBRANCH  30  31
ENDBRANCH  29  30
ENDBRANCH  28  29
ENDBRANCH  27  28
ENDBRANCH  26  27
ENDBRANCH  25  26
ENDBRANCH  24  25
ENDBRANCH  23  24
ENDBRANCH  22  23
ENDBRANCH  21  22
ENDBRANCH  20  21
ENDBRANCH  19  20
ENDBRANCH  18  19
ENDBRANCH   1  18
TORSDOF 28
ENDMDL
MODEL 3
REMARK VINA RESULT:    -3.204      1.828      2.571
REMARK INTER + INTRA:         -11.235
REMARK INTER:                  -9.129
REMARK INTRA:                  -2.106
REMARK UNBOUND:                -2.786
REMARK SMILES CCCCCCCCCCCCCCCCCCCCCCCCCCCCCC(=O)[O-]
REMARK SMILES IDX 16 1 17 2 18 3 19 4 20 5 21 6 22 7 23 8 24 9 25 10 26 11
REMARK SMILES IDX 27 12 28 13 29 14 30 15 31 16 32 17 15 18 14 19 13 20 12 21
REMARK SMILES IDX 11 22 10 23 9 24 8 25 7 26 6 27 5 28 4 29 3 30 2 31 1 32
REMARK H PARENT
REMARK Flexibility Score: inf
ROOT
ATOM      1  C   UNL     1       0.092   5.250 -57.595  1.00  0.00     0.000 C 
ENDROOT
BRANCH   1   2
ATOM      2  C   UNL     1      -0.701   5.317 -56.283  1.00  0.00     0.000 C 
BRANCH   2   3
ATOM      3  C   UNL     1      -0.084   6.286 -55.257  1.00  0.00     0.000 C 
BRANCH   3   4
ATOM      4  C   UNL     1       0.262   5.661 -53.893  1.00  0.00     0.000 C 
BRANCH   4   5
ATOM      5  C   UNL     1      -0.650   6.157 -52.756  1.00  0.00     0.000 C 
BRANCH   5   6
ATOM      6  C   UNL     1      -0.665   5.198 -51.550  1.00  0.00     0.000 C 
BRANCH   6   7
ATOM      7  C   UNL     1      -0.094   5.820 -50.262  1.00  0.00     0.000 C 
BRANCH   7   8
ATOM      8  C   UNL     1      -0.880   5.396 -49.006  1.00  0.00     0.000 C 
BRANCH   8   9
ATOM      9  C   UNL     1      -2.411   5.471 -49.202  1.00  0.00     0.000 C 
BRANCH   9  10
ATOM     10  C   UNL     1      -3.209   5.632 -47.895  1.00  0.00     0.000 C 
BRANCH  10  11
ATOM     11  C   UNL     1      -2.673   6.695 -46.917  1.00  0.00     0.000 C 
BRANCH  11  12
ATOM     12  C   UNL     1      -3.571   7.931 -46.733  1.00  0.00     0.000 C 
BRANCH  12  13
ATOM     13  C   UNL     1      -3.181   8.782 -45.511  1.00  0.00     0.006 C 
BRANCH  13  14
ATOM     14  C   UNL     1      -3.369  10.282 -45.768  1.00  0.00     0.053 C 
BRANCH  14  15
ATOM     15  C   UNL     1      -2.056  10.978 -45.972  1.00  0.00     0.041 C 
ATOM     16  O   UNL     1      -2.024  12.212 -46.222  1.00  0.00    -0.550 OA
ATOM     17  O   UNL     1      -0.868  10.265 -45.865  1.00  0.00    -0.550 OA
ENDBRANCH  14  15
ENDBRANCH  13  14
ENDBRANCH  12  13
ENDBRANCH  11  12
ENDBRANCH  10  11
ENDBRANCH   9  10
ENDBRANCH   8   9
ENDBRANCH   7   8
ENDBRANCH   6   7
ENDBRANCH   5   6
ENDBRANCH   4   5
ENDBRANCH   3   4
ENDBRANCH   2   3
ENDBRANCH   1   2
BRANCH   1  18
ATOM     18  C   UNL     1      -0.366   6.349 -58.563  1.00  0.00     0.000 C 
BRANCH  18  19
ATOM     19  C   UNL     1      -1.896   6.472 -58.659  1.00  0.00     0.000 C 
BRANCH  19  20
ATOM     20  C   UNL     1      -2.541   5.777 -59.875  1.00  0.00     0.000 C 
BRANCH  20  21
ATOM     21  C   UNL     1      -4.031   6.092 -60.103  1.00  0.00     0.000 C 
BRANCH  21  22
ATOM     22  C   UNL     1      -4.309   7.596 -60.267  1.00  0.00     0.000 C 
BRANCH  22  23
ATOM     23  C   UNL     1      -5.240   8.146 -59.166  1.00  0.00     0.000 C 
BRANCH  23  24
ATOM     24  C   UNL     1      -6.710   7.706 -59.312  1.00  0.00    -0.000 C 
BRANCH  24  25
ATOM     25  C   UNL     1      -7.557   7.802 -58.031  1.00  0.00    -0.000 C 
BRANCH  25  26
ATOM     26  C   UNL     1      -7.678   6.493 -57.224  1.00  0.00    -0.000 C 
BRANCH  26  27
ATOM     27  C   UNL     1      -6.597   5.446 -57.568  1.00  0.00    -0.000 C 
BRANCH  27  28
ATOM     28  C   UNL     1      -5.907   4.875 -56.315  1.00  0.00    -0.000 C 
BRANCH  28  29
ATOM     29  C   UNL     1      -4.519   5.503 -56.072  1.00  0.00    -0.000 C 
BRANCH  29  30
ATOM     30  C   UNL     1      -4.365   6.918 -56.656  1.00  0.00    -0.000 C 
BRANCH  30  31
ATOM     31  C   UNL     1      -3.346   7.774 -55.893  1.00  0.00    -0.003 C 
ATOM     32  C   UNL     1      -3.322   9.206 -56.420  1.00  0.00     0.004 C 
ENDBRANCH  30  31
ENDBRANCH  29  30
ENDBRANCH  28  29
ENDBRANCH  27  28
ENDBRANCH  26  27
ENDBRANCH  25  26
ENDBRANCH  24  25
ENDBRANCH  23  24
ENDBRANCH  22  23
ENDBRANCH  21  22
ENDBRANCH  20  21
ENDBRANCH  19  20
ENDBRANCH  18  19
ENDBRANCH   1  18
TORSDOF 28
ENDMDL
MODEL 4
REMARK VINA RESULT:    -2.842      2.003      7.054
REMARK INTER + INTRA:         -10.279
REMARK INTER:                  -8.097
REMARK INTRA:                  -2.182
REMARK UNBOUND:                -2.786
REMARK SMILES CCCCCCCCCCCCCCCCCCCCCCCCCCCCCC(=O)[O-]
REMARK SMILES IDX 16 1 17 2 18 3 19 4 20 5 21 6 22 7 23 8 24 9 25 10 26 11
REMARK SMILES IDX 27 12 28 13 29 14 30 15 31 16 32 17 15 18 14 19 13 20 12 21
REMARK SMILES IDX 11 22 10 23 9 24 8 25 7 26 6 27 5 28 4 29 3 30 2 31 1 32
REMARK H PARENT
REMARK Flexibility Score: inf
ROOT
ATOM      1  C   UNL     1      -2.065   6.757 -47.133  1.00  0.00     0.000 C 
ENDROOT
BRANCH   1   2
ATOM      2  C   UNL     1      -3.039   6.449 -45.988  1.00  0.00     0.000 C 
BRANCH   2   3
ATOM      3  C   UNL     1      -3.016   7.514 -44.877  1.00  0.00     0.000 C 
BRANCH   3   4
ATOM      4  C   UNL     1      -3.886   8.757 -45.145  1.00  0.00     0.000 C 
BRANCH   4   5
ATOM      5  C   UNL     1      -3.143  10.079 -44.876  1.00  0.00     0.000 C 
BRANCH   5   6
ATOM      6  C   UNL     1      -2.161  10.443 -46.006  1.00  0.00     0.000 C 
BRANCH   6   7
ATOM      7  C   UNL     1      -2.807  11.256 -47.144  1.00  0.00     0.000 C 
BRANCH   7   8
ATOM      8  C   UNL     1      -4.346  11.213 -47.097  1.00  0.00     0.000 C 
BRANCH   8   9
ATOM      9  C   UNL     1      -4.980  10.940 -48.480  1.00  0.00     0.000 C 
BRANCH   9  10
ATOM     10  C   UNL     1      -5.910   9.712 -48.517  1.00  0.00     0.000 C 
BRANCH  10  11
ATOM     11  C   UNL     1      -5.257   8.373 -48.127  1.00  0.00     0.000 C 
BRANCH  11  12
ATOM     12  C   UNL     1      -6.179   7.143 -48.212  1.00  0.00     0.000 C 
BRANCH  12  13
ATOM     13  C   UNL     1      -6.139   6.272 -46.944  1.00  0.00     0.006 C 
BRANCH  13  14
ATOM     14  C   UNL     1      -7.038   5.034 -47.064  1.00  0.00     0.053 C 
BRANCH  14  15
ATOM     15  C   UNL     1      -8.394   5.276 -46.472  1.00  0.00     0.041 C 
ATOM     16  O   UNL     1      -9.366   5.574 -47.215  1.00  0.00    -0.550 OA
ATOM     17  O   UNL     1      -8.587   5.151 -45.101  1.00  0.00    -0.550 OA
ENDBRANCH  14  15
ENDBRANCH  13  14
ENDBRANCH  12  13
ENDBRANCH  11  12
ENDBRANCH  10  11
ENDBRANCH   9  10
ENDBRANCH   8   9
ENDBRANCH   7   8
ENDBRANCH   6   7
ENDBRANCH   5   6
ENDBRANCH   4   5
ENDBRANCH   3   4
ENDBRANCH   2   3
ENDBRANCH   1   2
BRANCH   1  18
ATOM     18  C   UNL     1      -1.225   5.520 -47.479  1.00  0.00     0.000 C 
BRANCH  18  19
ATOM     19  C   UNL     1      -0.885   5.420 -48.977  1.00  0.00     0.000 C 
BRANCH  19  20
ATOM     20  C   UNL     1      -2.098   5.370 -49.929  1.00  0.00     0.000 C 
BRANCH  20  21
ATOM     21  C   UNL     1      -1.774   5.018 -51.393  1.00  0.00     0.000 C 
BRANCH  21  22
ATOM     22  C   UNL     1      -0.641   5.879 -51.980  1.00  0.00     0.000 C 
BRANCH  22  23
ATOM     23  C   UNL     1      -0.527   5.734 -53.512  1.00  0.00     0.000 C 
BRANCH  23  24
ATOM     24  C   UNL     1      -1.012   6.971 -54.295  1.00  0.00    -0.000 C 
BRANCH  24  25
ATOM     25  C   UNL     1      -1.464   6.699 -55.741  1.00  0.00    -0.000 C 
BRANCH  25  26
ATOM     26  C   UNL     1      -0.531   5.786 -56.561  1.00  0.00    -0.000 C 
BRANCH  26  27
ATOM     27  C   UNL     1      -0.853   5.760 -58.070  1.00  0.00    -0.000 C 
BRANCH  27  28
ATOM     28  C   UNL     1      -1.795   6.901 -58.494  1.00  0.00    -0.000 C 
BRANCH  28  29
ATOM     29  C   UNL     1      -2.787   6.465 -59.594  1.00  0.00    -0.000 C 
BRANCH  29  30
ATOM     30  C   UNL     1      -4.174   7.119 -59.476  1.00  0.00    -0.000 C 
BRANCH  30  31
ATOM     31  C   UNL     1      -4.159   8.414 -58.652  1.00  0.00    -0.003 C 
ATOM     32  C   UNL     1      -4.992   8.271 -57.383  1.00  0.00     0.004 C 
ENDBRANCH  30  31
ENDBRANCH  29  30
ENDBRANCH  28  29
ENDBRANCH  27  28
ENDBRANCH  26  27
ENDBRANCH  25  26
ENDBRANCH  24  25
ENDBRANCH  23  24
ENDBRANCH  22  23
ENDBRANCH  21  22
ENDBRANCH  20  21
ENDBRANCH  19  20
ENDBRANCH  18  19
ENDBRANCH   1  18
TORSDOF 28
ENDMDL
MODEL 5
REMARK VINA RESULT:    -2.508      4.132     11.461
REMARK INTER + INTRA:          -9.399
REMARK INTER:                  -7.503
REMARK INTRA:                  -1.896
REMARK UNBOUND:                -2.786
REMARK SMILES CCCCCCCCCCCCCCCCCCCCCCCCCCCCCC(=O)[O-]
REMARK SMILES IDX 16 1 17 2 18 3 19 4 20 5 21 6 22 7 23 8 24 9 25 10 26 11
REMARK SMILES IDX 27 12 28 13 29 14 30 15 31 16 32 17 15 18 14 19 13 20 12 21
REMARK SMILES IDX 11 22 10 23 9 24 8 25 7 26 6 27 5 28 4 29 3 30 2 31 1 32
REMARK H PARENT
REMARK Flexibility Score: inf
ROOT
ATOM      1  C   UNL     1      -3.012  10.154 -46.154  1.00  0.00     0.000 C 
ENDROOT
BRANCH   1   2
ATOM      2  C   UNL     1      -3.805   9.619 -47.354  1.00  0.00     0.000 C 
BRANCH   2   3
ATOM      3  C   UNL     1      -5.135   8.957 -46.948  1.00  0.00     0.000 C 
BRANCH   3   4
ATOM      4  C   UNL     1      -5.142   7.418 -46.999  1.00  0.00     0.000 C 
BRANCH   4   5
ATOM      5  C   UNL     1      -5.966   6.859 -48.174  1.00  0.00     0.000 C 
BRANCH   5   6
ATOM      6  C   UNL     1      -5.213   5.764 -48.953  1.00  0.00     0.000 C 
BRANCH   6   7
ATOM      7  C   UNL     1      -3.684   5.953 -48.956  1.00  0.00     0.000 C 
BRANCH   7   8
ATOM      8  C   UNL     1      -2.960   4.875 -49.785  1.00  0.00     0.000 C 
BRANCH   8   9
ATOM      9  C   UNL     1      -3.082   5.107 -51.308  1.00  0.00     0.000 C 
BRANCH   9  10
ATOM     10  C   UNL     1      -1.768   5.530 -51.991  1.00  0.00     0.000 C 
BRANCH  10  11
ATOM     11  C   UNL     1      -1.535   4.950 -53.398  1.00  0.00     0.000 C 
BRANCH  11  12
ATOM     12  C   UNL     1      -0.600   5.775 -54.302  1.00  0.00     0.000 C 
BRANCH  12  13
ATOM     13  C   UNL     1      -1.348   6.516 -55.424  1.00  0.00     0.006 C 
BRANCH  13  14
ATOM     14  C   UNL     1      -2.311   5.595 -56.184  1.00  0.00     0.053 C 
BRANCH  14  15
ATOM     15  C   UNL     1      -2.695   6.173 -57.514  1.00  0.00     0.041 C 
ATOM     16  O   UNL     1      -1.816   6.664 -58.270  1.00  0.00    -0.550 OA
ATOM     17  O   UNL     1      -4.023   6.148 -57.925  1.00  0.00    -0.550 OA
ENDBRANCH  14  15
ENDBRANCH  13  14
ENDBRANCH  12  13
ENDBRANCH  11  12
ENDBRANCH  10  11
ENDBRANCH   9  10
ENDBRANCH   8   9
ENDBRANCH   7   8
ENDBRANCH   6   7
ENDBRANCH   5   6
ENDBRANCH   4   5
ENDBRANCH   3   4
ENDBRANCH   2   3
ENDBRANCH   1   2
BRANCH   1  18
ATOM     18  C   UNL     1      -3.157   9.219 -44.946  1.00  0.00     0.000 C 
BRANCH  18  19
ATOM     19  C   UNL     1      -2.375   7.903 -45.102  1.00  0.00     0.000 C 
BRANCH  19  20
ATOM     20  C   UNL     1      -0.842   8.028 -44.983  1.00  0.00     0.000 C 
BRANCH  20  21
ATOM     21  C   UNL     1      -0.041   6.806 -45.471  1.00  0.00     0.000 C 
BRANCH  21  22
ATOM     22  C   UNL     1      -0.621   6.180 -46.751  1.00  0.00     0.000 C 
BRANCH  22  23
ATOM     23  C   UNL     1       0.390   6.180 -47.917  1.00  0.00     0.000 C 
BRANCH  23  24
ATOM     24  C   UNL     1       1.453   5.067 -47.824  1.00  0.00    -0.000 C 
BRANCH  24  25
ATOM     25  C   UNL     1       2.141   4.925 -46.455  1.00  0.00    -0.000 C 
BRANCH  25  26
ATOM     26  C   UNL     1       3.681   4.992 -46.484  1.00  0.00    -0.000 C 
BRANCH  26  27
ATOM     27  C   UNL     1       4.305   5.562 -45.192  1.00  0.00    -0.000 C 
BRANCH  27  28
ATOM     28  C   UNL     1       5.450   6.551 -45.475  1.00  0.00    -0.000 C 
BRANCH  28  29
ATOM     29  C   UNL     1       5.029   8.018 -45.243  1.00  0.00    -0.000 C 
BRANCH  29  30
ATOM     30  C   UNL     1       3.674   8.383 -45.873  1.00  0.00    -0.000 C 
BRANCH  30  31
ATOM     31  C   UNL     1       2.719   9.069 -44.887  1.00  0.00    -0.003 C 
ATOM     32  C   UNL     1       2.930  10.580 -44.875  1.00  0.00     0.004 C 
ENDBRANCH  30  31
ENDBRANCH  29  30
ENDBRANCH  28  29
ENDBRANCH  27  28
ENDBRANCH  26  27
ENDBRANCH  25  26
ENDBRANCH  24  25
ENDBRANCH  23  24
ENDBRANCH  22  23
ENDBRANCH  21  22
ENDBRANCH  20  21
ENDBRANCH  19  20
ENDBRANCH  18  19
ENDBRANCH   1  18
TORSDOF 28
ENDMDL
MODEL 6
REMARK VINA RESULT:    -2.362     14.410     18.630
REMARK INTER + INTRA:          -9.015
REMARK INTER:                  -7.208
REMARK INTRA:                  -1.806
REMARK UNBOUND:                -2.786
REMARK SMILES CCCCCCCCCCCCCCCCCCCCCCCCCCCCCC(=O)[O-]
REMARK SMILES IDX 16 1 17 2 18 3 19 4 20 5 21 6 22 7 23 8 24 9 25 10 26 11
REMARK SMILES IDX 27 12 28 13 29 14 30 15 31 16 32 17 15 18 14 19 13 20 12 21
REMARK SMILES IDX 11 22 10 23 9 24 8 25 7 26 6 27 5 28 4 29 3 30 2 31 1 32
REMARK H PARENT
REMARK Flexibility Score: inf
ROOT
ATOM      1  C   UNL     1      -4.782  23.589 -59.538  1.00  0.00     0.000 C 
ENDROOT
BRANCH   1   2
ATOM      2  C   UNL     1      -5.739  23.702 -60.733  1.00  0.00     0.000 C 
BRANCH   2   3
ATOM      3  C   UNL     1      -5.464  24.940 -61.607  1.00  0.00     0.000 C 
BRANCH   3   4
ATOM      4  C   UNL     1      -6.424  25.125 -62.797  1.00  0.00     0.000 C 
BRANCH   4   5
ATOM      5  C   UNL     1      -5.979  24.352 -64.053  1.00  0.00     0.000 C 
BRANCH   5   6
ATOM      6  C   UNL     1      -7.099  24.244 -65.105  1.00  0.00     0.000 C 
BRANCH   6   7
ATOM      7  C   UNL     1      -7.804  22.874 -65.114  1.00  0.00     0.000 C 
BRANCH   7   8
ATOM      8  C   UNL     1      -7.056  21.823 -64.273  1.00  0.00     0.000 C 
BRANCH   8   9
ATOM      9  C   UNL     1      -6.149  20.907 -65.125  1.00  0.00     0.000 C 
BRANCH   9  10
ATOM     10  C   UNL     1      -6.384  19.401 -64.905  1.00  0.00     0.000 C 
BRANCH  10  11
ATOM     11  C   UNL     1      -7.846  18.988 -64.650  1.00  0.00     0.000 C 
BRANCH  11  12
ATOM     12  C   UNL     1      -8.163  17.503 -64.903  1.00  0.00     0.000 C 
BRANCH  12  13
ATOM     13  C   UNL     1      -9.520  17.070 -64.321  1.00  0.00     0.006 C 
BRANCH  13  14
ATOM     14  C   UNL     1      -9.380  15.904 -63.334  1.00  0.00     0.053 C 
BRANCH  14  15
ATOM     15  C   UNL     1      -8.528  16.274 -62.157  1.00  0.00     0.041 C 
ATOM     16  O   UNL     1      -9.062  16.617 -61.070  1.00  0.00    -0.550 OA
ATOM     17  O   UNL     1      -7.143  16.219 -62.258  1.00  0.00    -0.550 OA
ENDBRANCH  14  15
ENDBRANCH  13  14
ENDBRANCH  12  13
ENDBRANCH  11  12
ENDBRANCH  10  11
ENDBRANCH   9  10
ENDBRANCH   8   9
ENDBRANCH   7   8
ENDBRANCH   6   7
ENDBRANCH   5   6
ENDBRANCH   4   5
ENDBRANCH   3   4
ENDBRANCH   2   3
ENDBRANCH   1   2
BRANCH   1  18
ATOM     18  C   UNL     1      -4.258  24.972 -59.128  1.00  0.00     0.000 C 
BRANCH  18  19
ATOM     19  C   UNL     1      -3.863  25.053 -57.643  1.00  0.00     0.000 C 
BRANCH  19  20
ATOM     20  C   UNL     1      -4.998  24.757 -56.640  1.00  0.00     0.000 C 
BRANCH  20  21
ATOM     21  C   UNL     1      -4.620  23.824 -55.474  1.00  0.00     0.000 C 
BRANCH  21  22
ATOM     22  C   UNL     1      -4.234  22.409 -55.937  1.00  0.00     0.000 C 
BRANCH  22  23
ATOM     23  C   UNL     1      -5.079  21.932 -57.138  1.00  0.00     0.000 C 
BRANCH  23  24
ATOM     24  C   UNL     1      -4.438  20.779 -57.935  1.00  0.00    -0.000 C 
BRANCH  24  25
ATOM     25  C   UNL     1      -5.330  20.153 -59.021  1.00  0.00    -0.000 C 
BRANCH  25  26
ATOM     26  C   UNL     1      -4.696  18.980 -59.796  1.00  0.00    -0.000 C 
BRANCH  26  27
ATOM     27  C   UNL     1      -5.060  18.955 -61.296  1.00  0.00    -0.000 C 
BRANCH  27  28
ATOM     28  C   UNL     1      -3.865  18.571 -62.188  1.00  0.00    -0.000 C 
BRANCH  28  29
ATOM     29  C   UNL     1      -3.529  19.665 -63.222  1.00  0.00    -0.000 C 
BRANCH  29  30
ATOM     30  C   UNL     1      -2.386  19.287 -64.180  1.00  0.00    -0.000 C 
BRANCH  30  31
ATOM     31  C   UNL     1      -0.995  19.545 -63.585  1.00  0.00    -0.003 C 
ATOM     32  C   UNL     1      -0.104  18.314 -63.711  1.00  0.00     0.004 C 
ENDBRANCH  30  31
ENDBRANCH  29  30
ENDBRANCH  28  29
ENDBRANCH  27  28
ENDBRANCH  26  27
ENDBRANCH  25  26
ENDBRANCH  24  25
ENDBRANCH  23  24
ENDBRANCH  22  23
ENDBRANCH  21  22
ENDBRANCH  20  21
ENDBRANCH  19  20
ENDBRANCH  18  19
ENDBRANCH   1  18
TORSDOF 28
ENDMDL
MODEL 7
REMARK VINA RESULT:    -2.114     13.808     17.757
REMARK INTER + INTRA:          -8.359
REMARK INTER:                  -6.589
REMARK INTRA:                  -1.770
REMARK UNBOUND:                -2.786
REMARK SMILES CCCCCCCCCCCCCCCCCCCCCCCCCCCCCC(=O)[O-]
REMARK SMILES IDX 16 1 17 2 18 3 19 4 20 5 21 6 22 7 23 8 24 9 25 10 26 11
REMARK SMILES IDX 27 12 28 13 29 14 30 15 31 16 32 17 15 18 14 19 13 20 12 21
REMARK SMILES IDX 11 22 10 23 9 24 8 25 7 26 6 27 5 28 4 29 3 30 2 31 1 32
REMARK H PARENT
REMARK Flexibility Score: inf
ROOT
ATOM      1  C   UNL     1      -5.767  22.025 -61.593  1.00  0.00     0.000 C 
ENDROOT
BRANCH   1   2
ATOM      2  C   UNL     1      -6.506  20.803 -61.031  1.00  0.00     0.000 C 
BRANCH   2   3
ATOM      3  C   UNL     1      -6.063  20.437 -59.602  1.00  0.00     0.000 C 
BRANCH   3   4
ATOM      4  C   UNL     1      -4.623  19.904 -59.481  1.00  0.00     0.000 C 
BRANCH   4   5
ATOM      5  C   UNL     1      -4.561  18.376 -59.301  1.00  0.00     0.000 C 
BRANCH   5   6
ATOM      6  C   UNL     1      -4.794  17.618 -60.621  1.00  0.00     0.000 C 
BRANCH   6   7
ATOM      7  C   UNL     1      -6.282  17.468 -60.990  1.00  0.00     0.000 C 
BRANCH   7   8
ATOM      8  C   UNL     1      -6.582  16.134 -61.699  1.00  0.00     0.000 C 
BRANCH   8   9
ATOM      9  C   UNL     1      -7.807  15.402 -61.109  1.00  0.00     0.000 C 
BRANCH   9  10
ATOM     10  C   UNL     1      -9.130  16.182 -61.233  1.00  0.00     0.000 C 
BRANCH  10  11
ATOM     11  C   UNL     1     -10.033  15.774 -62.412  1.00  0.00     0.000 C 
BRANCH  11  12
ATOM     12  C   UNL     1      -9.290  15.343 -63.690  1.00  0.00     0.000 C 
BRANCH  12  13
ATOM     13  C   UNL     1      -9.418  16.365 -64.833  1.00  0.00     0.006 C 
BRANCH  13  14
ATOM     14  C   UNL     1      -8.198  17.291 -64.921  1.00  0.00     0.053 C 
BRANCH  14  15
ATOM     15  C   UNL     1      -8.556  18.710 -64.594  1.00  0.00     0.041 C 
ATOM     16  O   UNL     1      -9.761  19.074 -64.583  1.00  0.00    -0.550 OA
ATOM     17  O   UNL     1      -7.557  19.624 -64.282  1.00  0.00    -0.550 OA
ENDBRANCH  14  15
ENDBRANCH  13  14
ENDBRANCH  12  13
ENDBRANCH  11  12
ENDBRANCH  10  11
ENDBRANCH   9  10
ENDBRANCH   8   9
ENDBRANCH   7   8
ENDBRANCH   6   7
ENDBRANCH   5   6
ENDBRANCH   4   5
ENDBRANCH   3   4
ENDBRANCH   2   3
ENDBRANCH   1   2
BRANCH   1  18
ATOM     18  C   UNL     1      -4.974  22.736 -60.488  1.00  0.00     0.000 C 
BRANCH  18  19
ATOM     19  C   UNL     1      -5.396  24.202 -60.288  1.00  0.00     0.000 C 
BRANCH  19  20
ATOM     20  C   UNL     1      -5.568  25.023 -61.583  1.00  0.00     0.000 C 
BRANCH  20  21
ATOM     21  C   UNL     1      -7.011  25.125 -62.113  1.00  0.00     0.000 C 
BRANCH  21  22
ATOM     22  C   UNL     1      -7.093  25.069 -63.648  1.00  0.00     0.000 C 
BRANCH  22  23
ATOM     23  C   UNL     1      -5.749  24.673 -64.295  1.00  0.00     0.000 C 
BRANCH  23  24
ATOM     24  C   UNL     1      -5.812  23.374 -65.123  1.00  0.00    -0.000 C 
BRANCH  24  25
ATOM     25  C   UNL     1      -5.348  22.103 -64.391  1.00  0.00    -0.000 C 
BRANCH  25  26
ATOM     26  C   UNL     1      -4.273  21.277 -65.125  1.00  0.00    -0.000 C 
BRANCH  26  27
ATOM     27  C   UNL     1      -3.886  19.971 -64.399  1.00  0.00    -0.000 C 
BRANCH  27  28
ATOM     28  C   UNL     1      -2.520  19.424 -64.853  1.00  0.00    -0.000 C 
BRANCH  28  29
ATOM     29  C   UNL     1      -1.481  20.545 -65.065  1.00  0.00    -0.000 C 
BRANCH  29  30
ATOM     30  C   UNL     1      -0.040  20.132 -64.717  1.00  0.00    -0.000 C 
BRANCH  30  31
ATOM     31  C   UNL     1       0.030  19.099 -63.584  1.00  0.00    -0.003 C 
ATOM     32  C   UNL     1       0.461  17.733 -64.108  1.00  0.00     0.004 C 
ENDBRANCH  30  31
ENDBRANCH  29  30
ENDBRANCH  28  29
ENDBRANCH  27  28
ENDBRANCH  26  27
ENDBRANCH  25  26
ENDBRANCH  24  25
ENDBRANCH  23  24
ENDBRANCH  22  23
ENDBRANCH  21  22
ENDBRANCH  20  21
ENDBRANCH  19  20
ENDBRANCH  18  19
ENDBRANCH   1  18
TORSDOF 28
ENDMDL
MODEL 8
REMARK VINA RESULT:    -1.308      1.995      3.150
REMARK INTER + INTRA:          -6.234
REMARK INTER:                  -5.297
REMARK INTRA:                  -0.937
REMARK UNBOUND:                -2.786
REMARK SMILES CCCCCCCCCCCCCCCCCCCCCCCCCCCCCC(=O)[O-]
REMARK SMILES IDX 16 1 17 2 18 3 19 4 20 5 21 6 22 7 23 8 24 9 25 10 26 11
REMARK SMILES IDX 27 12 28 13 29 14 30 15 31 16 32 17 15 18 14 19 13 20 12 21
REMARK SMILES IDX 11 22 10 23 9 24 8 25 7 26 6 27 5 28 4 29 3 30 2 31 1 32
REMARK H PARENT
REMARK Flexibility Score: inf
ROOT
ATOM      1  C   UNL     1       0.088   5.406 -57.233  1.00  0.00     0.000 C 
ENDROOT
BRANCH   1   2
ATOM      2  C   UNL     1      -0.285   4.994 -55.802  1.00  0.00     0.000 C 
BRANCH   2   3
ATOM      3  C   UNL     1       0.585   5.680 -54.734  1.00  0.00     0.000 C 
BRANCH   3   4
ATOM      4  C   UNL     1       0.167   5.408 -53.276  1.00  0.00     0.000 C 
BRANCH   4   5
ATOM      5  C   UNL     1      -1.264   5.882 -52.963  1.00  0.00     0.000 C 
BRANCH   5   6
ATOM      6  C   UNL     1      -1.836   5.229 -51.690  1.00  0.00     0.000 C 
BRANCH   6   7
ATOM      7  C   UNL     1      -1.116   5.664 -50.400  1.00  0.00     0.000 C 
BRANCH   7   8
ATOM      8  C   UNL     1      -1.632   4.914 -49.157  1.00  0.00     0.000 C 
BRANCH   8   9
ATOM      9  C   UNL     1      -2.733   5.691 -48.402  1.00  0.00     0.000 C 
BRANCH   9  10
ATOM     10  C   UNL     1      -2.386   6.018 -46.937  1.00  0.00     0.000 C 
BRANCH  10  11
ATOM     11  C   UNL     1      -1.207   6.989 -46.736  1.00  0.00     0.000 C 
BRANCH  11  12
ATOM     12  C   UNL     1      -1.369   7.986 -45.574  1.00  0.00     0.000 C 
BRANCH  12  13
ATOM     13  C   UNL     1      -0.305   9.097 -45.582  1.00  0.00     0.006 C 
BRANCH  13  14
ATOM     14  C   UNL     1      -0.791  10.369 -44.875  1.00  0.00     0.053 C 
BRANCH  14  15
ATOM     15  C   UNL     1      -1.526  11.279 -45.815  1.00  0.00     0.041 C 
ATOM     16  O   UNL     1      -2.238  10.798 -46.735  1.00  0.00    -0.550 OA
ATOM     17  O   UNL     1      -1.438  12.657 -45.658  1.00  0.00    -0.550 OA
ENDBRANCH  14  15
ENDBRANCH  13  14
ENDBRANCH  12  13
ENDBRANCH  11  12
ENDBRANCH  10  11
ENDBRANCH   9  10
ENDBRANCH   8   9
ENDBRANCH   7   8
ENDBRANCH   6   7
ENDBRANCH   5   6
ENDBRANCH   4   5
ENDBRANCH   3   4
ENDBRANCH   2   3
ENDBRANCH   1   2
BRANCH   1  18
ATOM     18  C   UNL     1      -0.635   6.700 -57.631  1.00  0.00     0.000 C 
BRANCH  18  19
ATOM     19  C   UNL     1      -1.872   6.993 -56.765  1.00  0.00     0.000 C 
BRANCH  19  20
ATOM     20  C   UNL     1      -3.189   6.354 -57.255  1.00  0.00     0.000 C 
BRANCH  20  21
ATOM     21  C   UNL     1      -4.374   6.453 -56.276  1.00  0.00     0.000 C 
BRANCH  21  22
ATOM     22  C   UNL     1      -5.091   5.108 -56.064  1.00  0.00     0.000 C 
BRANCH  22  23
ATOM     23  C   UNL     1      -6.222   4.876 -57.087  1.00  0.00     0.000 C 
BRANCH  23  24
ATOM     24  C   UNL     1      -7.200   6.060 -57.218  1.00  0.00    -0.000 C 
BRANCH  24  25
ATOM     25  C   UNL     1      -7.022   6.926 -58.477  1.00  0.00    -0.000 C 
BRANCH  25  26
ATOM     26  C   UNL     1      -6.940   8.445 -58.224  1.00  0.00    -0.000 C 
BRANCH  26  27
ATOM     27  C   UNL     1      -5.723   8.871 -57.374  1.00  0.00    -0.000 C 
BRANCH  27  28
ATOM     28  C   UNL     1      -4.742   9.765 -58.152  1.00  0.00    -0.000 C 
BRANCH  28  29
ATOM     29  C   UNL     1      -4.249   9.100 -59.455  1.00  0.00    -0.000 C 
BRANCH  29  30
ATOM     30  C   UNL     1      -2.814   8.553 -59.370  1.00  0.00    -0.000 C 
BRANCH  30  31
ATOM     31  C   UNL     1      -2.574   7.352 -60.294  1.00  0.00    -0.003 C 
ATOM     32  C   UNL     1      -3.852   6.541 -60.489  1.00  0.00     0.004 C 
ENDBRANCH  30  31
ENDBRANCH  29  30
ENDBRANCH  28  29
ENDBRANCH  27  28
ENDBRANCH  26  27
ENDBRANCH  25  26
ENDBRANCH  24  25
ENDBRANCH  23  24
ENDBRANCH  22  23
ENDBRANCH  21  22
ENDBRANCH  20  21
ENDBRANCH  19  20
ENDBRANCH  18  19
ENDBRANCH   1  18
TORSDOF 28
ENDMDL
