MODEL 1
REMARK VINA RESULT:    -7.071      0.000      0.000
REMARK INTER + INTRA:         -11.328
REMARK INTER:                 -10.379
REMARK INTRA:                  -0.950
REMARK UNBOUND:                -0.950
REMARK SMILES Cc1cc2c(C(C)C)c(O)c(O)c(C=O)c2c(O)c1-c1c(C)cc2c(C(C)C)c(O)c(O)c(C=O)c2c1O
REMARK SMILES IDX 1 1 2 2 3 3 4 4 16 5 13 6 11 7 9 8 5 9 17 10 19 11 20 12
REMARK SMILES IDX 37 13 21 14 36 15 23 16 22 17 24 18 33 19 25 20 31 21 29 22
REMARK SMILES IDX 38 23 34 25 35 26 26 27 27 28 28 29 32 30 30 32 18 34 6 36
REMARK SMILES IDX 7 37 8 38 14 39 15 40 10 41 12 43
REMARK H PARENT 38 24 32 31 30 33 18 35 10 42 12 44
REMARK Flexibility Score: inf
ROOT
ATOM      1  C   UNL     1      13.243  17.846  30.934  1.00  0.00     0.045 C 
ATOM      2  C   UNL     1      13.895  16.998  29.869  1.00  0.00    -0.039 A 
ATOM      3  C   UNL     1      13.132  16.542  28.793  1.00  0.00     0.013 A 
ATOM      4  C   UNL     1      13.681  15.747  27.767  1.00  0.00    -0.006 A 
ATOM      5  C   UNL     1      15.089  15.498  27.778  1.00  0.00     0.039 A 
ATOM      6  C   UNL     1      15.684  14.845  26.657  1.00  0.00     0.072 A 
ATOM      7  C   UNL     1      14.880  14.433  25.576  1.00  0.00     0.169 A 
ATOM      8  C   UNL     1      13.493  14.592  25.620  1.00  0.00     0.162 A 
ATOM      9  C   UNL     1      12.863  15.205  26.725  1.00  0.00     0.008 A 
ATOM     10  C   UNL     1      15.850  15.897  28.920  1.00  0.00     0.132 A 
ATOM     11  C   UNL     1      15.250  16.646  29.953  1.00  0.00     0.031 A 
ENDROOT
BRANCH  11  12
ATOM     12  C   UNL     1      16.048  17.074  31.132  1.00  0.00     0.031 A 
ATOM     13  C   UNL     1      15.954  16.364  32.349  1.00  0.00     0.132 A 
ATOM     14  C   UNL     1      16.869  18.208  31.040  1.00  0.00    -0.039 A 
ATOM     15  C   UNL     1      16.735  16.758  33.480  1.00  0.00     0.039 A 
ATOM     16  C   UNL     1      17.615  18.611  32.148  1.00  0.00     0.013 A 
ATOM     17  C   UNL     1      16.923  19.027  29.774  1.00  0.00     0.045 C 
ATOM     18  C   UNL     1      17.614  17.878  33.356  1.00  0.00    -0.006 A 
ATOM     19  C   UNL     1      16.637  16.097  34.743  1.00  0.00     0.072 A 
ATOM     20  C   UNL     1      18.441  18.270  34.453  1.00  0.00     0.008 A 
ATOM     21  C   UNL     1      17.345  16.597  35.855  1.00  0.00     0.169 A 
ATOM     22  C   UNL     1      18.203  17.693  35.718  1.00  0.00     0.162 A 
BRANCH  13  23
ATOM     23  O   UNL     1      15.072  15.281  32.437  1.00  0.00    -0.507 OA
ATOM     24  H   UNL     1      15.215  14.481  33.039  1.00  0.00     0.293 HD
ENDBRANCH  13  23
BRANCH  19  25
ATOM     25  C   UNL     1      15.800  14.896  34.934  1.00  0.00     0.264 C 
ATOM     26  O   UNL     1      14.740  14.954  35.613  1.00  0.00    -0.298 OA
ENDBRANCH  19  25
BRANCH  20  27
ATOM     27  C   UNL     1      19.563  19.312  34.292  1.00  0.00     0.017 C 
ATOM     28  C   UNL     1      19.259  20.573  35.105  1.00  0.00     0.012 C 
ATOM     29  C   UNL     1      20.969  18.768  34.608  1.00  0.00     0.012 C 
ENDBRANCH  20  27
BRANCH  21  30
ATOM     30  O   UNL     1      17.243  16.001  37.118  1.00  0.00    -0.504 OA
ATOM     31  H   UNL     1      17.166  15.005  37.273  1.00  0.00     0.293 HD
ENDBRANCH  21  30
BRANCH  22  32
ATOM     32  O   UNL     1      18.831  18.213  36.851  1.00  0.00    -0.504 OA
ATOM     33  H   UNL     1      19.295  17.635  37.541  1.00  0.00     0.293 HD
ENDBRANCH  22  32
ENDBRANCH  11  12
BRANCH  10  34
ATOM     34  O   UNL     1      17.195  15.526  29.041  1.00  0.00    -0.507 OA
ATOM     35  H   UNL     1      17.516  14.568  29.081  1.00  0.00     0.293 HD
ENDBRANCH  10  34
BRANCH   9  36
ATOM     36  C   UNL     1      11.321  15.238  26.734  1.00  0.00     0.017 C 
ATOM     37  C   UNL     1      10.715  13.898  27.174  1.00  0.00     0.012 C 
ATOM     38  C   UNL     1      10.688  15.793  25.441  1.00  0.00     0.012 C 
ENDBRANCH   9  36
BRANCH   6  39
ATOM     39  C   UNL     1      17.146  14.649  26.554  1.00  0.00     0.264 C 
ATOM     40  O   UNL     1      17.884  15.560  26.095  1.00  0.00    -0.298 OA
ENDBRANCH   6  39
BRANCH   8  41
ATOM     41  O   UNL     1      12.722  14.151  24.538  1.00  0.00    -0.504 OA
ATOM     42  H   UNL     1      12.589  13.173  24.315  1.00  0.00     0.293 HD
ENDBRANCH   8  41
BRANCH   7  43
ATOM     43  O   UNL     1      15.438  13.875  24.419  1.00  0.00    -0.504 OA
ATOM     44  H   UNL     1      15.768  14.415  23.630  1.00  0.00     0.293 HD
ENDBRANCH   7  43
TORSDOF 11
ENDMDL
MODEL 2
REMARK VINA RESULT:    -6.989      0.452      9.311
REMARK INTER + INTRA:         -11.207
REMARK INTER:                 -10.244
REMARK INTRA:                  -0.963
REMARK UNBOUND:                -0.950
REMARK SMILES Cc1cc2c(C(C)C)c(O)c(O)c(C=O)c2c(O)c1-c1c(C)cc2c(C(C)C)c(O)c(O)c(C=O)c2c1O
REMARK SMILES IDX 1 1 2 2 3 3 4 4 16 5 13 6 11 7 9 8 5 9 17 10 19 11 20 12
REMARK SMILES IDX 37 13 21 14 36 15 23 16 22 17 24 18 33 19 25 20 31 21 29 22
REMARK SMILES IDX 38 23 34 25 35 26 26 27 27 28 28 29 32 30 30 32 18 34 6 36
REMARK SMILES IDX 7 37 8 38 14 39 15 40 10 41 12 43
REMARK H PARENT 38 24 32 31 30 33 18 35 10 42 12 44
REMARK Flexibility Score: inf
ROOT
ATOM      1  C   UNL     1      16.564  18.971  30.183  1.00  0.00     0.045 C 
ATOM      2  C   UNL     1      16.537  18.094  31.411  1.00  0.00    -0.039 A 
ATOM      3  C   UNL     1      17.288  18.458  32.530  1.00  0.00     0.013 A 
ATOM      4  C   UNL     1      17.306  17.682  33.706  1.00  0.00    -0.006 A 
ATOM      5  C   UNL     1      16.438  16.548  33.787  1.00  0.00     0.039 A 
ATOM      6  C   UNL     1      16.317  15.859  35.031  1.00  0.00     0.072 A 
ATOM      7  C   UNL     1      17.067  16.283  36.146  1.00  0.00     0.169 A 
ATOM      8  C   UNL     1      17.986  17.329  36.028  1.00  0.00     0.162 A 
ATOM      9  C   UNL     1      18.158  18.016  34.806  1.00  0.00     0.008 A 
ATOM     10  C   UNL     1      15.734  16.134  32.614  1.00  0.00     0.132 A 
ATOM     11  C   UNL     1      15.786  16.911  31.439  1.00  0.00     0.031 A 
ENDROOT
BRANCH  11  12
ATOM     12  C   UNL     1      15.039  16.486  30.225  1.00  0.00     0.031 A 
ATOM     13  C   UNL     1      15.712  15.833  29.169  1.00  0.00     0.132 A 
ATOM     14  C   UNL     1      13.669  16.768  30.119  1.00  0.00    -0.039 A 
ATOM     15  C   UNL     1      14.996  15.404  28.009  1.00  0.00     0.039 A 
ATOM     16  C   UNL     1      12.970  16.373  28.978  1.00  0.00     0.013 A 
ATOM     17  C   UNL     1      12.947  17.535  31.200  1.00  0.00     0.045 C 
ATOM     18  C   UNL     1      13.588  15.642  27.939  1.00  0.00    -0.006 A 
ATOM     19  C   UNL     1      15.644  14.781  26.899  1.00  0.00     0.072 A 
ATOM     20  C   UNL     1      12.835  15.186  26.813  1.00  0.00     0.008 A 
ATOM     21  C   UNL     1      14.909  14.480  25.733  1.00  0.00     0.169 A 
ATOM     22  C   UNL     1      13.532  14.718  25.680  1.00  0.00     0.162 A 
BRANCH  13  23
ATOM     23  O   UNL     1      17.093  15.629  29.268  1.00  0.00    -0.507 OA
ATOM     24  H   UNL     1      17.521  14.925  29.854  1.00  0.00     0.293 HD
ENDBRANCH  13  23
BRANCH  19  25
ATOM     25  C   UNL     1      17.081  14.445  26.921  1.00  0.00     0.264 C 
ATOM     26  O   UNL     1      17.912  15.136  26.274  1.00  0.00    -0.298 OA
ENDBRANCH  19  25
BRANCH  20  27
ATOM     27  C   UNL     1      11.295  15.212  26.803  1.00  0.00     0.017 C 
ATOM     28  C   UNL     1      10.766  15.694  25.449  1.00  0.00     0.012 C 
ATOM     29  C   UNL     1      10.648  13.875  27.213  1.00  0.00     0.012 C 
ENDBRANCH  20  27
BRANCH  21  30
ATOM     30  O   UNL     1      15.517  13.907  24.609  1.00  0.00    -0.504 OA
ATOM     31  H   UNL     1      15.455  14.286  23.674  1.00  0.00     0.293 HD
ENDBRANCH  21  30
BRANCH  22  32
ATOM     32  O   UNL     1      12.845  14.482  24.487  1.00  0.00    -0.504 OA
ATOM     33  H   UNL     1      12.287  13.652  24.325  1.00  0.00     0.293 HD
ENDBRANCH  22  32
ENDBRANCH  11  12
BRANCH  10  34
ATOM     34  O   UNL     1      15.006  14.938  32.610  1.00  0.00    -0.507 OA
ATOM     35  H   UNL     1      14.667  14.479  33.444  1.00  0.00     0.293 HD
ENDBRANCH  10  34
BRANCH   9  36
ATOM     36  C   UNL     1      19.271  19.082  34.744  1.00  0.00     0.017 C 
ATOM     37  C   UNL     1      18.706  20.504  34.627  1.00  0.00     0.012 C 
ATOM     38  C   UNL     1      20.381  18.784  33.714  1.00  0.00     0.012 C 
ENDBRANCH   9  36
BRANCH   6  39
ATOM     39  C   UNL     1      15.362  14.746  35.217  1.00  0.00     0.264 C 
ATOM     40  O   UNL     1      14.333  14.895  35.926  1.00  0.00    -0.298 OA
ENDBRANCH   6  39
BRANCH   8  41
ATOM     41  O   UNL     1      18.732  17.710  37.150  1.00  0.00    -0.504 OA
ATOM     42  H   UNL     1      19.723  17.911  37.114  1.00  0.00     0.293 HD
ENDBRANCH   8  41
BRANCH   7  43
ATOM     43  O   UNL     1      16.906  15.692  37.406  1.00  0.00    -0.504 OA
ATOM     44  H   UNL     1      17.658  15.279  37.939  1.00  0.00     0.293 HD
ENDBRANCH   7  43
TORSDOF 11
ENDMDL
MODEL 3
REMARK VINA RESULT:    -6.843      2.454      9.124
REMARK INTER + INTRA:         -10.993
REMARK INTER:                  -9.642
REMARK INTRA:                  -1.351
REMARK UNBOUND:                -0.950
REMARK SMILES Cc1cc2c(C(C)C)c(O)c(O)c(C=O)c2c(O)c1-c1c(C)cc2c(C(C)C)c(O)c(O)c(C=O)c2c1O
REMARK SMILES IDX 1 1 2 2 3 3 4 4 16 5 13 6 11 7 9 8 5 9 17 10 19 11 20 12
REMARK SMILES IDX 37 13 21 14 36 15 23 16 22 17 24 18 33 19 25 20 31 21 29 22
REMARK SMILES IDX 38 23 34 25 35 26 26 27 27 28 28 29 32 30 30 32 18 34 6 36
REMARK SMILES IDX 7 37 8 38 14 39 15 40 10 41 12 43
REMARK H PARENT 38 24 32 31 30 33 18 35 10 42 12 44
REMARK Flexibility Score: inf
ROOT
ATOM      1  C   UNL     1      15.381  19.246  32.330  1.00  0.00     0.045 C 
ATOM      2  C   UNL     1      16.511  18.297  32.648  1.00  0.00    -0.039 A 
ATOM      3  C   UNL     1      17.263  18.490  33.807  1.00  0.00     0.013 A 
ATOM      4  C   UNL     1      18.330  17.640  34.159  1.00  0.00    -0.006 A 
ATOM      5  C   UNL     1      18.572  16.482  33.356  1.00  0.00     0.039 A 
ATOM      6  C   UNL     1      19.533  15.524  33.798  1.00  0.00     0.072 A 
ATOM      7  C   UNL     1      20.244  15.741  34.994  1.00  0.00     0.169 A 
ATOM      8  C   UNL     1      20.071  16.923  35.719  1.00  0.00     0.162 A 
ATOM      9  C   UNL     1      19.154  17.910  35.298  1.00  0.00     0.008 A 
ATOM     10  C   UNL     1      17.855  16.333  32.128  1.00  0.00     0.132 A 
ATOM     11  C   UNL     1      16.829  17.238  31.786  1.00  0.00     0.031 A 
ENDROOT
BRANCH  11  12
ATOM     12  C   UNL     1      16.074  17.070  30.516  1.00  0.00     0.031 A 
ATOM     13  C   UNL     1      16.520  17.702  29.335  1.00  0.00     0.132 A 
ATOM     14  C   UNL     1      14.895  16.309  30.505  1.00  0.00    -0.039 A 
ATOM     15  C   UNL     1      15.810  17.529  28.107  1.00  0.00     0.039 A 
ATOM     16  C   UNL     1      14.185  16.157  29.314  1.00  0.00     0.013 A 
ATOM     17  C   UNL     1      14.357  15.691  31.773  1.00  0.00     0.045 C 
ATOM     18  C   UNL     1      14.645  16.701  28.094  1.00  0.00    -0.006 A 
ATOM     19  C   UNL     1      16.201  18.186  26.900  1.00  0.00     0.072 A 
ATOM     20  C   UNL     1      13.937  16.471  26.874  1.00  0.00     0.008 A 
ATOM     21  C   UNL     1      15.400  18.069  25.745  1.00  0.00     0.169 A 
ATOM     22  C   UNL     1      14.263  17.255  25.748  1.00  0.00     0.162 A 
BRANCH  13  23
ATOM     23  O   UNL     1      17.658  18.516  29.390  1.00  0.00    -0.507 OA
ATOM     24  H   UNL     1      18.492  18.361  28.838  1.00  0.00     0.293 HD
ENDBRANCH  13  23
BRANCH  19  25
ATOM     25  C   UNL     1      17.426  19.005  26.817  1.00  0.00     0.264 C 
ATOM     26  O   UNL     1      17.367  20.259  26.922  1.00  0.00    -0.298 OA
ENDBRANCH  19  25
BRANCH  20  27
ATOM     27  C   UNL     1      12.827  15.410  26.768  1.00  0.00     0.017 C 
ATOM     28  C   UNL     1      13.424  14.002  26.685  1.00  0.00     0.012 C 
ATOM     29  C   UNL     1      11.767  15.503  27.883  1.00  0.00     0.012 C 
ENDBRANCH  20  27
BRANCH  21  30
ATOM     30  O   UNL     1      15.727  18.730  24.555  1.00  0.00    -0.504 OA
ATOM     31  H   UNL     1      15.136  18.751  23.735  1.00  0.00     0.293 HD
ENDBRANCH  21  30
BRANCH  22  32
ATOM     32  O   UNL     1      13.447  17.219  24.615  1.00  0.00    -0.504 OA
ATOM     33  H   UNL     1      13.808  17.287  23.671  1.00  0.00     0.293 HD
ENDBRANCH  22  32
ENDBRANCH  11  12
BRANCH  10  34
ATOM     34  O   UNL     1      18.180  15.302  31.238  1.00  0.00    -0.507 OA
ATOM     35  H   UNL     1      19.127  15.027  31.013  1.00  0.00     0.293 HD
ENDBRANCH  10  34
BRANCH   9  36
ATOM     36  C   UNL     1      19.112  19.227  36.101  1.00  0.00     0.017 C 
ATOM     37  C   UNL     1      17.753  19.449  36.779  1.00  0.00     0.012 C 
ATOM     38  C   UNL     1      19.612  20.463  35.325  1.00  0.00     0.012 C 
ENDBRANCH   9  36
BRANCH   6  39
ATOM     39  C   UNL     1      19.759  14.254  33.073  1.00  0.00     0.264 C 
ATOM     40  O   UNL     1      20.791  14.092  32.371  1.00  0.00    -0.298 OA
ENDBRANCH   6  39
BRANCH   8  41
ATOM     41  O   UNL     1      20.811  17.116  36.892  1.00  0.00    -0.504 OA
ATOM     42  H   UNL     1      20.386  17.191  37.808  1.00  0.00     0.293 HD
ENDBRANCH   8  41
BRANCH   7  43
ATOM     43  O   UNL     1      21.125  14.781  35.508  1.00  0.00    -0.504 OA
ATOM     44  H   UNL     1      21.329  13.899  35.058  1.00  0.00     0.293 HD
ENDBRANCH   7  43
TORSDOF 11
ENDMDL
MODEL 4
REMARK VINA RESULT:    -6.734      2.541      8.621
REMARK INTER + INTRA:         -10.834
REMARK INTER:                  -9.613
REMARK INTRA:                  -1.221
REMARK UNBOUND:                -0.950
REMARK SMILES Cc1cc2c(C(C)C)c(O)c(O)c(C=O)c2c(O)c1-c1c(C)cc2c(C(C)C)c(O)c(O)c(C=O)c2c1O
REMARK SMILES IDX 1 1 2 2 3 3 4 4 16 5 13 6 11 7 9 8 5 9 17 10 19 11 20 12
REMARK SMILES IDX 37 13 21 14 36 15 23 16 22 17 24 18 33 19 25 20 31 21 29 22
REMARK SMILES IDX 38 23 34 25 35 26 26 27 27 28 28 29 32 30 30 32 18 34 6 36
REMARK SMILES IDX 7 37 8 38 14 39 15 40 10 41 12 43
REMARK H PARENT 38 24 32 31 30 33 18 35 10 42 12 44
REMARK Flexibility Score: inf
ROOT
ATOM      1  C   UNL     1      15.536  19.741  32.987  1.00  0.00     0.045 C 
ATOM      2  C   UNL     1      16.620  18.710  33.188  1.00  0.00    -0.039 A 
ATOM      3  C   UNL     1      17.426  18.773  34.324  1.00  0.00     0.013 A 
ATOM      4  C   UNL     1      18.454  17.841  34.569  1.00  0.00    -0.006 A 
ATOM      5  C   UNL     1      18.595  16.733  33.676  1.00  0.00     0.039 A 
ATOM      6  C   UNL     1      19.514  15.692  34.007  1.00  0.00     0.072 A 
ATOM      7  C   UNL     1      20.282  15.781  35.184  1.00  0.00     0.169 A 
ATOM      8  C   UNL     1      20.208  16.914  35.998  1.00  0.00     0.162 A 
ATOM      9  C   UNL     1      19.335  17.980  35.688  1.00  0.00     0.008 A 
ATOM     10  C   UNL     1      17.824  16.716  32.473  1.00  0.00     0.132 A 
ATOM     11  C   UNL     1      16.841  17.699  32.240  1.00  0.00     0.031 A 
ENDROOT
BRANCH  11  12
ATOM     12  C   UNL     1      16.028  17.669  30.995  1.00  0.00     0.031 A 
ATOM     13  C   UNL     1      14.814  16.949  30.957  1.00  0.00     0.132 A 
ATOM     14  C   UNL     1      16.491  18.330  29.848  1.00  0.00    -0.039 A 
ATOM     15  C   UNL     1      14.018  16.933  29.770  1.00  0.00     0.039 A 
ATOM     16  C   UNL     1      15.730  18.297  28.679  1.00  0.00     0.013 A 
ATOM     17  C   UNL     1      17.824  19.038  29.843  1.00  0.00     0.045 C 
ATOM     18  C   UNL     1      14.469  17.661  28.626  1.00  0.00    -0.006 A 
ATOM     19  C   UNL     1      12.807  16.182  29.673  1.00  0.00     0.072 A 
ATOM     20  C   UNL     1      13.676  17.702  27.438  1.00  0.00     0.008 A 
ATOM     21  C   UNL     1      12.120  16.110  28.444  1.00  0.00     0.169 A 
ATOM     22  C   UNL     1      12.573  16.829  27.333  1.00  0.00     0.162 A 
BRANCH  13  23
ATOM     23  O   UNL     1      14.411  16.238  32.093  1.00  0.00    -0.507 OA
ATOM     24  H   UNL     1      13.472  15.891  32.241  1.00  0.00     0.293 HD
ENDBRANCH  13  23
BRANCH  19  25
ATOM     25  C   UNL     1      12.242  15.456  30.828  1.00  0.00     0.264 C 
ATOM     26  O   UNL     1      11.704  16.083  31.780  1.00  0.00    -0.298 OA
ENDBRANCH  19  25
BRANCH  20  27
ATOM     27  C   UNL     1      14.005  18.657  26.275  1.00  0.00     0.017 C 
ATOM     28  C   UNL     1      14.106  20.103  26.768  1.00  0.00     0.012 C 
ATOM     29  C   UNL     1      15.255  18.250  25.471  1.00  0.00     0.012 C 
ENDBRANCH  20  27
BRANCH  21  30
ATOM     30  O   UNL     1      10.952  15.352  28.298  1.00  0.00    -0.504 OA
ATOM     31  H   UNL     1      10.017  15.735  28.329  1.00  0.00     0.293 HD
ENDBRANCH  21  30
BRANCH  22  32
ATOM     32  O   UNL     1      11.918  16.678  26.109  1.00  0.00    -0.504 OA
ATOM     33  H   UNL     1      10.924  16.834  25.991  1.00  0.00     0.293 HD
ENDBRANCH  22  32
ENDBRANCH  11  12
BRANCH  10  34
ATOM     34  O   UNL     1      18.052  15.737  31.498  1.00  0.00    -0.507 OA
ATOM     35  H   UNL     1      18.581  14.890  31.660  1.00  0.00     0.293 HD
ENDBRANCH  10  34
BRANCH   9  36
ATOM     36  C   UNL     1      19.403  19.234  36.583  1.00  0.00     0.017 C 
ATOM     37  C   UNL     1      18.043  19.575  37.207  1.00  0.00     0.012 C 
ATOM     38  C   UNL     1      20.091  20.449  35.927  1.00  0.00     0.012 C 
ENDBRANCH   9  36
BRANCH   6  39
ATOM     39  C   UNL     1      19.635  14.469  33.185  1.00  0.00     0.264 C 
ATOM     40  O   UNL     1      20.661  14.268  32.483  1.00  0.00    -0.298 OA
ENDBRANCH   6  39
BRANCH   8  41
ATOM     41  O   UNL     1      21.003  16.979  37.149  1.00  0.00    -0.504 OA
ATOM     42  H   UNL     1      21.859  16.450  37.261  1.00  0.00     0.293 HD
ENDBRANCH   8  41
BRANCH   7  43
ATOM     43  O   UNL     1      21.124  14.737  35.591  1.00  0.00    -0.504 OA
ATOM     44  H   UNL     1      21.483  14.024  34.971  1.00  0.00     0.293 HD
ENDBRANCH   7  43
TORSDOF 11
ENDMDL
MODEL 5
REMARK VINA RESULT:    -6.656      2.731      3.515
REMARK INTER + INTRA:         -10.719
REMARK INTER:                  -9.301
REMARK INTRA:                  -1.418
REMARK UNBOUND:                -0.950
REMARK SMILES Cc1cc2c(C(C)C)c(O)c(O)c(C=O)c2c(O)c1-c1c(C)cc2c(C(C)C)c(O)c(O)c(C=O)c2c1O
REMARK SMILES IDX 1 1 2 2 3 3 4 4 16 5 13 6 11 7 9 8 5 9 17 10 19 11 20 12
REMARK SMILES IDX 37 13 21 14 36 15 23 16 22 17 24 18 33 19 25 20 31 21 29 22
REMARK SMILES IDX 38 23 34 25 35 26 26 27 27 28 28 29 32 30 30 32 18 34 6 36
REMARK SMILES IDX 7 37 8 38 14 39 15 40 10 41 12 43
REMARK H PARENT 38 24 32 31 30 33 18 35 10 42 12 44
REMARK Flexibility Score: inf
ROOT
ATOM      1  C   UNL     1      13.902  15.444  29.879  1.00  0.00     0.045 C 
ATOM      2  C   UNL     1      14.562  16.393  28.908  1.00  0.00    -0.039 A 
ATOM      3  C   UNL     1      14.101  16.461  27.593  1.00  0.00     0.013 A 
ATOM      4  C   UNL     1      14.675  17.326  26.639  1.00  0.00    -0.006 A 
ATOM      5  C   UNL     1      15.687  18.239  27.071  1.00  0.00     0.039 A 
ATOM      6  C   UNL     1      16.151  19.235  26.161  1.00  0.00     0.072 A 
ATOM      7  C   UNL     1      15.631  19.289  24.852  1.00  0.00     0.169 A 
ATOM      8  C   UNL     1      14.716  18.331  24.411  1.00  0.00     0.162 A 
ATOM      9  C   UNL     1      14.256  17.310  25.271  1.00  0.00     0.008 A 
ATOM     10  C   UNL     1      16.212  18.111  28.394  1.00  0.00     0.132 A 
ATOM     11  C   UNL     1      15.644  17.194  29.302  1.00  0.00     0.031 A 
ENDROOT
BRANCH  11  12
ATOM     12  C   UNL     1      16.181  17.075  30.684  1.00  0.00     0.031 A 
ATOM     13  C   UNL     1      17.227  16.169  30.964  1.00  0.00     0.132 A 
ATOM     14  C   UNL     1      15.620  17.843  31.715  1.00  0.00    -0.039 A 
ATOM     15  C   UNL     1      17.762  16.065  32.285  1.00  0.00     0.039 A 
ATOM     16  C   UNL     1      16.122  17.727  33.011  1.00  0.00     0.013 A 
ATOM     17  C   UNL     1      14.449  18.759  31.454  1.00  0.00     0.045 C 
ATOM     18  C   UNL     1      17.223  16.896  33.316  1.00  0.00    -0.006 A 
ATOM     19  C   UNL     1      18.788  15.130  32.622  1.00  0.00     0.072 A 
ATOM     20  C   UNL     1      17.765  16.849  34.637  1.00  0.00     0.008 A 
ATOM     21  C   UNL     1      19.200  14.990  33.964  1.00  0.00     0.169 A 
ATOM     22  C   UNL     1      18.664  15.812  34.961  1.00  0.00     0.162 A 
BRANCH  13  23
ATOM     23  O   UNL     1      17.720  15.361  29.932  1.00  0.00    -0.507 OA
ATOM     24  H   UNL     1      18.675  15.387  29.599  1.00  0.00     0.293 HD
ENDBRANCH  13  23
BRANCH  19  25
ATOM     25  C   UNL     1      19.438  14.281  31.604  1.00  0.00     0.264 C 
ATOM     26  O   UNL     1      20.587  14.563  31.172  1.00  0.00    -0.298 OA
ENDBRANCH  19  25
BRANCH  20  27
ATOM     27  C   UNL     1      17.379  17.885  35.710  1.00  0.00     0.017 C 
ATOM     28  C   UNL     1      16.454  17.263  36.760  1.00  0.00     0.012 C 
ATOM     29  C   UNL     1      18.586  18.579  36.368  1.00  0.00     0.012 C 
ENDBRANCH  20  27
BRANCH  21  30
ATOM     30  O   UNL     1      20.173  14.057  34.340  1.00  0.00    -0.504 OA
ATOM     31  H   UNL     1      20.535  13.959  35.278  1.00  0.00     0.293 HD
ENDBRANCH  21  30
BRANCH  22  32
ATOM     32  O   UNL     1      19.034  15.600  36.290  1.00  0.00    -0.504 OA
ATOM     33  H   UNL     1      18.440  15.127  36.961  1.00  0.00     0.293 HD
ENDBRANCH  22  32
ENDBRANCH  11  12
BRANCH  10  34
ATOM     34  O   UNL     1      17.313  18.876  28.797  1.00  0.00    -0.507 OA
ATOM     35  H   UNL     1      17.402  19.302  29.710  1.00  0.00     0.293 HD
ENDBRANCH  10  34
BRANCH   9  36
ATOM     36  C   UNL     1      13.332  16.234  24.664  1.00  0.00     0.017 C 
ATOM     37  C   UNL     1      11.963  16.189  25.355  1.00  0.00     0.012 C 
ATOM     38  C   UNL     1      13.983  14.843  24.517  1.00  0.00     0.012 C 
ENDBRANCH   9  36
BRANCH   6  39
ATOM     39  C   UNL     1      17.118  20.276  26.570  1.00  0.00     0.264 C 
ATOM     40  O   UNL     1      18.330  20.192  26.238  1.00  0.00    -0.298 OA
ENDBRANCH   6  39
BRANCH   8  41
ATOM     41  O   UNL     1      14.236  18.401  23.097  1.00  0.00    -0.504 OA
ATOM     42  H   UNL     1      14.801  18.171  22.289  1.00  0.00     0.293 HD
ENDBRANCH   8  41
BRANCH   7  43
ATOM     43  O   UNL     1      15.992  20.308  23.962  1.00  0.00    -0.504 OA
ATOM     44  H   UNL     1      16.598  20.177  23.163  1.00  0.00     0.293 HD
ENDBRANCH   7  43
TORSDOF 11
ENDMDL
MODEL 6
REMARK VINA RESULT:    -6.582      2.901      8.880
REMARK INTER + INTRA:         -10.610
REMARK INTER:                  -9.288
REMARK INTRA:                  -1.322
REMARK UNBOUND:                -0.950
REMARK SMILES Cc1cc2c(C(C)C)c(O)c(O)c(C=O)c2c(O)c1-c1c(C)cc2c(C(C)C)c(O)c(O)c(C=O)c2c1O
REMARK SMILES IDX 1 1 2 2 3 3 4 4 16 5 13 6 11 7 9 8 5 9 17 10 19 11 20 12
REMARK SMILES IDX 37 13 21 14 36 15 23 16 22 17 24 18 33 19 25 20 31 21 29 22
REMARK SMILES IDX 38 23 34 25 35 26 26 27 27 28 28 29 32 30 30 32 18 34 6 36
REMARK SMILES IDX 7 37 8 38 14 39 15 40 10 41 12 43
REMARK H PARENT 38 24 32 31 30 33 18 35 10 42 12 44
REMARK Flexibility Score: inf
ROOT
ATOM      1  C   UNL     1      18.517  19.409  31.632  1.00  0.00     0.045 C 
ATOM      2  C   UNL     1      17.817  18.271  32.335  1.00  0.00    -0.039 A 
ATOM      3  C   UNL     1      17.747  18.265  33.728  1.00  0.00     0.013 A 
ATOM      4  C   UNL     1      17.109  17.231  34.443  1.00  0.00    -0.006 A 
ATOM      5  C   UNL     1      16.417  16.220  33.705  1.00  0.00     0.039 A 
ATOM      6  C   UNL     1      15.623  15.269  34.414  1.00  0.00     0.072 A 
ATOM      7  C   UNL     1      15.552  15.322  35.821  1.00  0.00     0.169 A 
ATOM      8  C   UNL     1      16.310  16.252  36.536  1.00  0.00     0.162 A 
ATOM      9  C   UNL     1      17.133  17.189  35.873  1.00  0.00     0.008 A 
ATOM     10  C   UNL     1      16.560  16.185  32.284  1.00  0.00     0.132 A 
ATOM     11  C   UNL     1      17.254  17.211  31.610  1.00  0.00     0.031 A 
ENDROOT
BRANCH  11  12
ATOM     12  C   UNL     1      17.386  17.181  30.129  1.00  0.00     0.031 A 
ATOM     13  C   UNL     1      16.413  17.802  29.316  1.00  0.00     0.132 A 
ATOM     14  C   UNL     1      18.464  16.501  29.542  1.00  0.00    -0.039 A 
ATOM     15  C   UNL     1      16.545  17.795  27.893  1.00  0.00     0.039 A 
ATOM     16  C   UNL     1      18.585  16.470  28.153  1.00  0.00     0.013 A 
ATOM     17  C   UNL     1      19.471  15.763  30.390  1.00  0.00     0.045 C 
ATOM     18  C   UNL     1      17.681  17.152  27.308  1.00  0.00    -0.006 A 
ATOM     19  C   UNL     1      15.562  18.372  27.032  1.00  0.00     0.072 A 
ATOM     20  C   UNL     1      17.866  17.165  25.891  1.00  0.00     0.008 A 
ATOM     21  C   UNL     1      15.686  18.237  25.633  1.00  0.00     0.169 A 
ATOM     22  C   UNL     1      16.804  17.607  25.076  1.00  0.00     0.162 A 
BRANCH  13  23
ATOM     23  O   UNL     1      15.309  18.410  29.924  1.00  0.00    -0.507 OA
ATOM     24  H   UNL     1      14.399  18.495  29.490  1.00  0.00     0.293 HD
ENDBRANCH  13  23
BRANCH  19  25
ATOM     25  C   UNL     1      14.396  19.106  27.559  1.00  0.00     0.264 C 
ATOM     26  O   UNL     1      14.003  20.168  27.006  1.00  0.00    -0.298 OA
ENDBRANCH  19  25
BRANCH  20  27
ATOM     27  C   UNL     1      19.181  16.696  25.241  1.00  0.00     0.017 C 
ATOM     28  C   UNL     1      18.979  15.374  24.495  1.00  0.00     0.012 C 
ATOM     29  C   UNL     1      19.841  17.754  24.336  1.00  0.00     0.012 C 
ENDBRANCH  20  27
BRANCH  21  30
ATOM     30  O   UNL     1      14.723  18.753  24.758  1.00  0.00    -0.504 OA
ATOM     31  H   UNL     1      13.856  19.178  25.054  1.00  0.00     0.293 HD
ENDBRANCH  21  30
BRANCH  22  32
ATOM     32  O   UNL     1      16.862  17.420  23.693  1.00  0.00    -0.504 OA
ATOM     33  H   UNL     1      16.070  17.571  23.081  1.00  0.00     0.293 HD
ENDBRANCH  22  32
ENDBRANCH  11  12
BRANCH  10  34
ATOM     34  O   UNL     1      16.035  15.118  31.544  1.00  0.00    -0.507 OA
ATOM     35  H   UNL     1      16.559  14.288  31.298  1.00  0.00     0.293 HD
ENDBRANCH  10  34
BRANCH   9  36
ATOM     36  C   UNL     1      18.015  18.102  36.749  1.00  0.00     0.017 C 
ATOM     37  C   UNL     1      17.394  19.492  36.945  1.00  0.00     0.012 C 
ATOM     38  C   UNL     1      19.497  18.155  36.324  1.00  0.00     0.012 C 
ENDBRANCH   9  36
BRANCH   6  39
ATOM     39  C   UNL     1      14.799  14.262  33.712  1.00  0.00     0.264 C 
ATOM     40  O   UNL     1      13.612  14.523  33.381  1.00  0.00    -0.298 OA
ENDBRANCH   6  39
BRANCH   8  41
ATOM     41  O   UNL     1      16.233  16.262  37.934  1.00  0.00    -0.504 OA
ATOM     42  H   UNL     1      15.461  16.673  38.443  1.00  0.00     0.293 HD
ENDBRANCH   8  41
BRANCH   7  43
ATOM     43  O   UNL     1      14.711  14.468  36.545  1.00  0.00    -0.504 OA
ATOM     44  H   UNL     1      13.707  14.429  36.431  1.00  0.00     0.293 HD
ENDBRANCH   7  43
TORSDOF 11
ENDMDL
MODEL 7
REMARK VINA RESULT:    -6.571      2.332      3.243
REMARK INTER + INTRA:         -10.593
REMARK INTER:                  -9.154
REMARK INTRA:                  -1.439
REMARK UNBOUND:                -0.950
REMARK SMILES Cc1cc2c(C(C)C)c(O)c(O)c(C=O)c2c(O)c1-c1c(C)cc2c(C(C)C)c(O)c(O)c(C=O)c2c1O
REMARK SMILES IDX 1 1 2 2 3 3 4 4 16 5 13 6 11 7 9 8 5 9 17 10 19 11 20 12
REMARK SMILES IDX 37 13 21 14 36 15 23 16 22 17 24 18 33 19 25 20 31 21 29 22
REMARK SMILES IDX 38 23 34 25 35 26 26 27 27 28 28 29 32 30 30 32 18 34 6 36
REMARK SMILES IDX 7 37 8 38 14 39 15 40 10 41 12 43
REMARK H PARENT 38 24 32 31 30 33 18 35 10 42 12 44
REMARK Flexibility Score: inf
ROOT
ATOM      1  C   UNL     1      14.831  18.551  30.299  1.00  0.00     0.045 C 
ATOM      2  C   UNL     1      15.927  17.819  29.561  1.00  0.00    -0.039 A 
ATOM      3  C   UNL     1      15.895  17.762  28.167  1.00  0.00     0.013 A 
ATOM      4  C   UNL     1      16.887  17.095  27.421  1.00  0.00    -0.006 A 
ATOM      5  C   UNL     1      18.017  16.559  28.116  1.00  0.00     0.039 A 
ATOM      6  C   UNL     1      19.108  16.037  27.359  1.00  0.00     0.072 A 
ATOM      7  C   UNL     1      19.050  16.032  25.951  1.00  0.00     0.169 A 
ATOM      8  C   UNL     1      17.900  16.466  25.286  1.00  0.00     0.162 A 
ATOM      9  C   UNL     1      16.786  16.960  26.000  1.00  0.00     0.008 A 
ATOM     10  C   UNL     1      18.005  16.548  29.545  1.00  0.00     0.132 A 
ATOM     11  C   UNL     1      16.964  17.181  30.255  1.00  0.00     0.031 A 
ENDROOT
BRANCH  11  12
ATOM     12  C   UNL     1      16.964  17.183  31.742  1.00  0.00     0.031 A 
ATOM     13  C   UNL     1      16.280  16.174  32.454  1.00  0.00     0.132 A 
ATOM     14  C   UNL     1      17.618  18.213  32.435  1.00  0.00    -0.039 A 
ATOM     15  C   UNL     1      16.293  16.158  33.883  1.00  0.00     0.039 A 
ATOM     16  C   UNL     1      17.613  18.216  33.830  1.00  0.00     0.013 A 
ATOM     17  C   UNL     1      18.288  19.345  31.695  1.00  0.00     0.045 C 
ATOM     18  C   UNL     1      17.014  17.178  34.578  1.00  0.00    -0.006 A 
ATOM     19  C   UNL     1      15.577  15.183  34.642  1.00  0.00     0.072 A 
ATOM     20  C   UNL     1      17.084  17.166  36.005  1.00  0.00     0.008 A 
ATOM     21  C   UNL     1      15.532  15.281  36.049  1.00  0.00     0.169 A 
ATOM     22  C   UNL     1      16.243  16.283  36.715  1.00  0.00     0.162 A 
BRANCH  13  23
ATOM     23  O   UNL     1      15.573  15.199  31.739  1.00  0.00    -0.507 OA
ATOM     24  H   UNL     1      14.651  15.341  31.349  1.00  0.00     0.293 HD
ENDBRANCH  13  23
BRANCH  19  25
ATOM     25  C   UNL     1      14.861  14.063  34.000  1.00  0.00     0.264 C 
ATOM     26  O   UNL     1      13.636  14.158  33.724  1.00  0.00    -0.298 OA
ENDBRANCH  19  25
BRANCH  20  27
ATOM     27  C   UNL     1      18.035  18.099  36.779  1.00  0.00     0.017 C 
ATOM     28  C   UNL     1      19.474  17.947  36.277  1.00  0.00     0.012 C 
ATOM     29  C   UNL     1      17.595  19.575  36.780  1.00  0.00     0.012 C 
ENDBRANCH  20  27
BRANCH  21  30
ATOM     30  O   UNL     1      14.807  14.368  36.825  1.00  0.00    -0.504 OA
ATOM     31  H   UNL     1      13.962  14.596  37.330  1.00  0.00     0.293 HD
ENDBRANCH  21  30
BRANCH  22  32
ATOM     32  O   UNL     1      16.118  16.403  38.100  1.00  0.00    -0.504 OA
ATOM     33  H   UNL     1      15.927  17.282  38.565  1.00  0.00     0.293 HD
ENDBRANCH  22  32
ENDBRANCH  11  12
BRANCH  10  34
ATOM     34  O   UNL     1      19.013  15.887  30.257  1.00  0.00    -0.507 OA
ATOM     35  H   UNL     1      18.892  15.507  31.186  1.00  0.00     0.293 HD
ENDBRANCH  10  34
BRANCH   9  36
ATOM     36  C   UNL     1      15.524  17.313  25.187  1.00  0.00     0.017 C 
ATOM     37  C   UNL     1      15.281  18.827  25.122  1.00  0.00     0.012 C 
ATOM     38  C   UNL     1      14.265  16.514  25.584  1.00  0.00     0.012 C 
ENDBRANCH   9  36
BRANCH   6  39
ATOM     39  C   UNL     1      20.351  15.564  28.006  1.00  0.00     0.264 C 
ATOM     40  O   UNL     1      20.620  14.335  28.054  1.00  0.00    -0.298 OA
ENDBRANCH   6  39
BRANCH   8  41
ATOM     41  O   UNL     1      17.867  16.427  23.887  1.00  0.00    -0.504 OA
ATOM     42  H   UNL     1      17.008  16.468  23.353  1.00  0.00     0.293 HD
ENDBRANCH   8  41
BRANCH   7  43
ATOM     43  O   UNL     1      20.138  15.616  25.173  1.00  0.00    -0.504 OA
ATOM     44  H   UNL     1      20.946  15.133  25.541  1.00  0.00     0.293 HD
ENDBRANCH   7  43
TORSDOF 11
ENDMDL
MODEL 8
REMARK VINA RESULT:    -6.513     14.807     18.337
REMARK INTER + INTRA:         -10.509
REMARK INTER:                  -9.648
REMARK INTRA:                  -0.860
REMARK UNBOUND:                -0.950
REMARK SMILES Cc1cc2c(C(C)C)c(O)c(O)c(C=O)c2c(O)c1-c1c(C)cc2c(C(C)C)c(O)c(O)c(C=O)c2c1O
REMARK SMILES IDX 1 1 2 2 3 3 4 4 16 5 13 6 11 7 9 8 5 9 17 10 19 11 20 12
REMARK SMILES IDX 37 13 21 14 36 15 23 16 22 17 24 18 33 19 25 20 31 21 29 22
REMARK SMILES IDX 38 23 34 25 35 26 26 27 27 28 28 29 32 30 30 32 18 34 6 36
REMARK SMILES IDX 7 37 8 38 14 39 15 40 10 41 12 43
REMARK H PARENT 38 24 32 31 30 33 18 35 10 42 12 44
REMARK Flexibility Score: inf
ROOT
ATOM      1  C   UNL     1       7.190  26.627  27.191  1.00  0.00     0.045 C 
ATOM      2  C   UNL     1       7.502  28.060  26.836  1.00  0.00    -0.039 A 
ATOM      3  C   UNL     1       7.979  28.924  27.822  1.00  0.00     0.013 A 
ATOM      4  C   UNL     1       8.287  30.273  27.554  1.00  0.00    -0.006 A 
ATOM      5  C   UNL     1       8.213  30.733  26.202  1.00  0.00     0.039 A 
ATOM      6  C   UNL     1       8.688  32.042  25.892  1.00  0.00     0.072 A 
ATOM      7  C   UNL     1       9.195  32.867  26.914  1.00  0.00     0.169 A 
ATOM      8  C   UNL     1       9.171  32.445  28.246  1.00  0.00     0.162 A 
ATOM      9  C   UNL     1       8.680  31.169  28.598  1.00  0.00     0.008 A 
ATOM     10  C   UNL     1       7.648  29.871  25.212  1.00  0.00     0.132 A 
ATOM     11  C   UNL     1       7.301  28.543  25.534  1.00  0.00     0.031 A 
ENDROOT
BRANCH  11  12
ATOM     12  C   UNL     1       6.729  27.644  24.497  1.00  0.00     0.031 A 
ATOM     13  C   UNL     1       5.334  27.436  24.427  1.00  0.00     0.132 A 
ATOM     14  C   UNL     1       7.586  26.975  23.609  1.00  0.00    -0.039 A 
ATOM     15  C   UNL     1       4.777  26.589  23.420  1.00  0.00     0.039 A 
ATOM     16  C   UNL     1       7.048  26.128  22.640  1.00  0.00     0.013 A 
ATOM     17  C   UNL     1       9.084  27.120  23.717  1.00  0.00     0.045 C 
ATOM     18  C   UNL     1       5.654  25.961  22.482  1.00  0.00    -0.006 A 
ATOM     19  C   UNL     1       3.377  26.316  23.342  1.00  0.00     0.072 A 
ATOM     20  C   UNL     1       5.126  25.144  21.436  1.00  0.00     0.008 A 
ATOM     21  C   UNL     1       2.894  25.385  22.399  1.00  0.00     0.169 A 
ATOM     22  C   UNL     1       3.765  24.779  21.487  1.00  0.00     0.162 A 
BRANCH  13  23
ATOM     23  O   UNL     1       4.508  28.058  25.371  1.00  0.00    -0.507 OA
ATOM     24  H   UNL     1       4.586  27.919  26.370  1.00  0.00     0.293 HD
ENDBRANCH  13  23
BRANCH  19  25
ATOM     25  C   UNL     1       2.400  26.973  24.232  1.00  0.00     0.264 C 
ATOM     26  O   UNL     1       1.744  26.302  25.072  1.00  0.00    -0.298 OA
ENDBRANCH  19  25
BRANCH  20  27
ATOM     27  C   UNL     1       6.005  24.644  20.274  1.00  0.00     0.017 C 
ATOM     28  C   UNL     1       7.036  25.704  19.876  1.00  0.00     0.012 C 
ATOM     29  C   UNL     1       6.676  23.283  20.542  1.00  0.00     0.012 C 
ENDBRANCH  20  27
BRANCH  21  30
ATOM     30  O   UNL     1       1.534  25.060  22.318  1.00  0.00    -0.504 OA
ATOM     31  H   UNL     1       1.051  24.466  22.979  1.00  0.00     0.293 HD
ENDBRANCH  21  30
BRANCH  22  32
ATOM     32  O   UNL     1       3.271  23.805  20.617  1.00  0.00    -0.504 OA
ATOM     33  H   UNL     1       2.349  23.850  20.201  1.00  0.00     0.293 HD
ENDBRANCH  22  32
ENDBRANCH  11  12
BRANCH  10  34
ATOM     34  O   UNL     1       7.407  30.343  23.916  1.00  0.00    -0.507 OA
ATOM     35  H   UNL     1       6.533  30.220  23.422  1.00  0.00     0.293 HD
ENDBRANCH  10  34
BRANCH   9  36
ATOM     36  C   UNL     1       8.592  30.834  30.102  1.00  0.00     0.017 C 
ATOM     37  C   UNL     1       7.854  31.922  30.895  1.00  0.00     0.012 C 
ATOM     38  C   UNL     1       9.933  30.421  30.743  1.00  0.00     0.012 C 
ENDBRANCH   9  36
BRANCH   6  39
ATOM     39  C   UNL     1       8.738  32.544  24.502  1.00  0.00     0.264 C 
ATOM     40  O   UNL     1       7.952  33.449  24.118  1.00  0.00    -0.298 OA
ENDBRANCH   6  39
BRANCH   8  41
ATOM     41  O   UNL     1       9.663  33.299  29.240  1.00  0.00    -0.504 OA
ATOM     42  H   UNL     1       9.664  34.308  29.153  1.00  0.00     0.293 HD
ENDBRANCH   8  41
BRANCH   7  43
ATOM     43  O   UNL     1       9.756  34.120  26.635  1.00  0.00    -0.504 OA
ATOM     44  H   UNL     1       9.536  34.671  25.817  1.00  0.00     0.293 HD
ENDBRANCH   7  43
TORSDOF 11
ENDMDL
MODEL 9
REMARK VINA RESULT:    -6.383      1.716      9.039
REMARK INTER + INTRA:         -10.319
REMARK INTER:                  -9.089
REMARK INTRA:                  -1.230
REMARK UNBOUND:                -0.950
REMARK SMILES Cc1cc2c(C(C)C)c(O)c(O)c(C=O)c2c(O)c1-c1c(C)cc2c(C(C)C)c(O)c(O)c(C=O)c2c1O
REMARK SMILES IDX 1 1 2 2 3 3 4 4 16 5 13 6 11 7 9 8 5 9 17 10 19 11 20 12
REMARK SMILES IDX 37 13 21 14 36 15 23 16 22 17 24 18 33 19 25 20 31 21 29 22
REMARK SMILES IDX 38 23 34 25 35 26 26 27 27 28 28 29 32 30 30 32 18 34 6 36
REMARK SMILES IDX 7 37 8 38 14 39 15 40 10 41 12 43
REMARK H PARENT 38 24 32 31 30 33 18 35 10 42 12 44
REMARK Flexibility Score: inf
ROOT
ATOM      1  C   UNL     1      17.219  19.163  29.159  1.00  0.00     0.045 C 
ATOM      2  C   UNL     1      17.330  18.142  30.265  1.00  0.00    -0.039 A 
ATOM      3  C   UNL     1      17.860  18.521  31.498  1.00  0.00     0.013 A 
ATOM      4  C   UNL     1      17.990  17.614  32.570  1.00  0.00    -0.006 A 
ATOM      5  C   UNL     1      17.457  16.296  32.415  1.00  0.00     0.039 A 
ATOM      6  C   UNL     1      17.426  15.427  33.547  1.00  0.00     0.072 A 
ATOM      7  C   UNL     1      17.939  15.864  34.784  1.00  0.00     0.169 A 
ATOM      8  C   UNL     1      18.547  17.117  34.898  1.00  0.00     0.162 A 
ATOM      9  C   UNL     1      18.626  17.994  33.794  1.00  0.00     0.008 A 
ATOM     10  C   UNL     1      16.991  15.888  31.127  1.00  0.00     0.132 A 
ATOM     11  C   UNL     1      16.927  16.813  30.065  1.00  0.00     0.031 A 
ENDROOT
BRANCH  11  12
ATOM     12  C   UNL     1      16.425  16.390  28.731  1.00  0.00     0.031 A 
ATOM     13  C   UNL     1      15.038  16.350  28.473  1.00  0.00     0.132 A 
ATOM     14  C   UNL     1      17.337  15.998  27.739  1.00  0.00    -0.039 A 
ATOM     15  C   UNL     1      14.550  15.965  27.186  1.00  0.00     0.039 A 
ATOM     16  C   UNL     1      16.865  15.597  26.489  1.00  0.00     0.013 A 
ATOM     17  C   UNL     1      18.820  15.957  28.018  1.00  0.00     0.045 C 
ATOM     18  C   UNL     1      15.490  15.625  26.164  1.00  0.00    -0.006 A 
ATOM     19  C   UNL     1      13.155  15.867  26.897  1.00  0.00     0.072 A 
ATOM     20  C   UNL     1      15.038  15.279  24.854  1.00  0.00     0.008 A 
ATOM     21  C   UNL     1      12.729  15.373  25.646  1.00  0.00     0.169 A 
ATOM     22  C   UNL     1      13.661  15.046  24.656  1.00  0.00     0.162 A 
BRANCH  13  23
ATOM     23  O   UNL     1      14.147  16.676  29.502  1.00  0.00    -0.507 OA
ATOM     24  H   UNL     1      13.162  16.861  29.362  1.00  0.00     0.293 HD
ENDBRANCH  13  23
BRANCH  19  25
ATOM     25  C   UNL     1      12.123  16.259  27.877  1.00  0.00     0.264 C 
ATOM     26  O   UNL     1      11.487  15.384  28.523  1.00  0.00    -0.298 OA
ENDBRANCH  19  25
BRANCH  20  27
ATOM     27  C   UNL     1      16.012  15.137  23.670  1.00  0.00     0.017 C 
ATOM     28  C   UNL     1      16.829  16.419  23.479  1.00  0.00     0.012 C 
ATOM     29  C   UNL     1      16.926  13.900  23.760  1.00  0.00     0.012 C 
ENDBRANCH  20  27
BRANCH  21  30
ATOM     30  O   UNL     1      11.371  15.223  25.339  1.00  0.00    -0.504 OA
ATOM     31  H   UNL     1      11.018  14.974  24.425  1.00  0.00     0.293 HD
ENDBRANCH  21  30
BRANCH  22  32
ATOM     32  O   UNL     1      13.214  14.488  23.456  1.00  0.00    -0.504 OA
ATOM     33  H   UNL     1      12.333  13.997  23.369  1.00  0.00     0.293 HD
ENDBRANCH  22  32
ENDBRANCH  11  12
BRANCH  10  34
ATOM     34  O   UNL     1      16.616  14.559  30.897  1.00  0.00    -0.507 OA
ATOM     35  H   UNL     1      15.661  14.255  30.765  1.00  0.00     0.293 HD
ENDBRANCH  10  34
BRANCH   9  36
ATOM     36  C   UNL     1      19.412  19.308  33.988  1.00  0.00     0.017 C 
ATOM     37  C   UNL     1      20.889  19.056  34.319  1.00  0.00     0.012 C 
ATOM     38  C   UNL     1      18.740  20.317  34.942  1.00  0.00     0.012 C 
ENDBRANCH   9  36
BRANCH   6  39
ATOM     39  C   UNL     1      16.795  14.091  33.487  1.00  0.00     0.264 C 
ATOM     40  O   UNL     1      15.593  13.934  33.825  1.00  0.00    -0.298 OA
ENDBRANCH   6  39
BRANCH   8  41
ATOM     41  O   UNL     1      19.067  17.511  36.137  1.00  0.00    -0.504 OA
ATOM     42  H   UNL     1      18.986  18.454  36.496  1.00  0.00     0.293 HD
ENDBRANCH   8  41
BRANCH   7  43
ATOM     43  O   UNL     1      17.841  15.077  35.938  1.00  0.00    -0.504 OA
ATOM     44  H   UNL     1      18.066  14.092  35.974  1.00  0.00     0.293 HD
ENDBRANCH   7  43
TORSDOF 11
ENDMDL
