MODEL 1
REMARK VINA RESULT:    -1.359      0.000      0.000
REMARK INTER + INTRA:          -4.666
REMARK INTER:                  -3.426
REMARK INTRA:                  -1.240
REMARK UNBOUND:                -1.240
REMARK SMILES CCCCCCCCCCCCCCCCCCCCCCCCCCCC(=O)[O-]
REMARK SMILES IDX 15 1 16 2 17 3 18 4 19 5 20 6 21 7 22 8 23 9 24 10 25 11
REMARK SMILES IDX 26 12 27 13 28 14 29 15 30 16 14 17 13 18 12 19 11 20 10 21
REMARK SMILES IDX 9 22 8 23 7 24 6 25 5 26 4 27 3 28 2 29 1 30
REMARK H PARENT
REMARK Flexibility Score: inf
ROOT
ATOM      1  C   UNL     1     -21.129   0.571   2.332  1.00  0.00     0.000 C 
ENDROOT
BRANCH   1   2
ATOM      2  C   UNL     1     -20.143   0.433   1.160  1.00  0.00     0.000 C 
BRANCH   2   3
ATOM      3  C   UNL     1     -20.200   1.620   0.183  1.00  0.00     0.000 C 
BRANCH   3   4
ATOM      4  C   UNL     1     -21.415   2.554   0.363  1.00  0.00     0.000 C 
BRANCH   4   5
ATOM      5  C   UNL     1     -21.148   4.046   0.083  1.00  0.00     0.000 C 
BRANCH   5   6
ATOM      6  C   UNL     1     -22.407   4.920  -0.053  1.00  0.00     0.000 C 
BRANCH   6   7
ATOM      7  C   UNL     1     -22.552   5.944   1.081  1.00  0.00     0.000 C 
BRANCH   7   8
ATOM      8  C   UNL     1     -23.717   6.902   0.804  1.00  0.00     0.000 C 
BRANCH   8   9
ATOM      9  C   UNL     1     -24.955   6.141   0.316  1.00  0.00     0.000 C 
BRANCH   9  10
ATOM     10  C   UNL     1     -26.059   6.144   1.384  1.00  0.00     0.000 C 
BRANCH  10  11
ATOM     11  C   UNL     1     -25.543   6.542   2.779  1.00  0.00     0.000 C 
BRANCH  11  12
ATOM     12  C   UNL     1     -25.474   5.390   3.801  1.00  0.00     0.006 C 
BRANCH  12  13
ATOM     13  C   UNL     1     -24.480   4.277   3.437  1.00  0.00     0.053 C 
BRANCH  13  14
ATOM     14  C   UNL     1     -25.169   2.968   3.200  1.00  0.00     0.041 C 
ATOM     15  O   UNL     1     -25.021   2.360   2.107  1.00  0.00    -0.550 OA
ATOM     16  O   UNL     1     -26.017   2.442   4.169  1.00  0.00    -0.550 OA
ENDBRANCH  13  14
ENDBRANCH  12  13
ENDBRANCH  11  12
ENDBRANCH  10  11
ENDBRANCH   9  10
ENDBRANCH   8   9
ENDBRANCH   7   8
ENDBRANCH   6   7
ENDBRANCH   5   6
ENDBRANCH   4   5
ENDBRANCH   3   4
ENDBRANCH   2   3
ENDBRANCH   1   2
BRANCH   1  17
ATOM     17  C   UNL     1     -22.432  -0.209   2.091  1.00  0.00     0.000 C 
BRANCH  17  18
ATOM     18  C   UNL     1     -23.091   0.160   0.750  1.00  0.00     0.000 C 
BRANCH  18  19
ATOM     19  C   UNL     1     -23.399  -1.068  -0.123  1.00  0.00     0.000 C 
BRANCH  19  20
ATOM     20  C   UNL     1     -22.521  -2.306   0.158  1.00  0.00     0.000 C 
BRANCH  20  21
ATOM     21  C   UNL     1     -23.252  -3.660   0.093  1.00  0.00     0.000 C 
BRANCH  21  22
ATOM     22  C   UNL     1     -22.380  -4.889   0.414  1.00  0.00    -0.000 C 
BRANCH  22  23
ATOM     23  C   UNL     1     -23.178  -6.200   0.581  1.00  0.00    -0.000 C 
BRANCH  23  24
ATOM     24  C   UNL     1     -24.691  -6.007   0.366  1.00  0.00    -0.000 C 
BRANCH  24  25
ATOM     25  C   UNL     1     -25.380  -7.298  -0.113  1.00  0.00    -0.000 C 
BRANCH  25  26
ATOM     26  C   UNL     1     -24.640  -8.586   0.298  1.00  0.00    -0.000 C 
BRANCH  26  27
ATOM     27  C   UNL     1     -25.469  -9.459   1.258  1.00  0.00    -0.000 C 
BRANCH  27  28
ATOM     28  C   UNL     1     -24.722 -10.744   1.675  1.00  0.00    -0.000 C 
BRANCH  28  29
ATOM     29  C   UNL     1     -24.813 -11.057   3.179  1.00  0.00    -0.003 C 
ATOM     30  C   UNL     1     -23.459 -11.031   3.882  1.00  0.00     0.004 C 
ENDBRANCH  28  29
ENDBRANCH  27  28
ENDBRANCH  26  27
ENDBRANCH  25  26
ENDBRANCH  24  25
ENDBRANCH  23  24
ENDBRANCH  22  23
ENDBRANCH  21  22
ENDBRANCH  20  21
ENDBRANCH  19  20
ENDBRANCH  18  19
ENDBRANCH  17  18
ENDBRANCH   1  17
TORSDOF 26
ENDMDL
MODEL 2
REMARK VINA RESULT:    -1.215      3.774     12.626
REMARK INTER + INTRA:          -4.302
REMARK INTER:                  -3.716
REMARK INTRA:                  -0.586
REMARK UNBOUND:                -1.240
REMARK SMILES CCCCCCCCCCCCCCCCCCCCCCCCCCCC(=O)[O-]
REMARK SMILES IDX 15 1 16 2 17 3 18 4 19 5 20 6 21 7 22 8 23 9 24 10 25 11
REMARK SMILES IDX 26 12 27 13 28 14 29 15 30 16 14 17 13 18 12 19 11 20 10 21
REMARK SMILES IDX 9 22 8 23 7 24 6 25 5 26 4 27 3 28 2 29 1 30
REMARK H PARENT
REMARK Flexibility Score: inf
ROOT
ATOM      1  C   UNL     1     -21.645  -1.052   1.448  1.00  0.00     0.000 C 
ENDROOT
BRANCH   1   2
ATOM      2  C   UNL     1     -22.816  -1.913   0.944  1.00  0.00     0.000 C 
BRANCH   2   3
ATOM      3  C   UNL     1     -22.356  -3.141   0.139  1.00  0.00     0.000 C 
BRANCH   3   4
ATOM      4  C   UNL     1     -22.645  -4.502   0.806  1.00  0.00     0.000 C 
BRANCH   4   5
ATOM      5  C   UNL     1     -23.298  -5.559  -0.107  1.00  0.00     0.000 C 
BRANCH   5   6
ATOM      6  C   UNL     1     -24.735  -5.953   0.277  1.00  0.00     0.000 C 
BRANCH   6   7
ATOM      7  C   UNL     1     -25.028  -7.443   0.056  1.00  0.00     0.000 C 
BRANCH   7   8
ATOM      8  C   UNL     1     -25.421  -8.122   1.374  1.00  0.00     0.000 C 
BRANCH   8   9
ATOM      9  C   UNL     1     -25.516  -9.643   1.207  1.00  0.00     0.000 C 
BRANCH   9  10
ATOM     10  C   UNL     1     -24.421 -10.163   0.264  1.00  0.00     0.000 C 
BRANCH  10  11
ATOM     11  C   UNL     1     -24.328 -11.699   0.242  1.00  0.00     0.000 C 
BRANCH  11  12
ATOM     12  C   UNL     1     -24.851 -12.402   1.511  1.00  0.00     0.006 C 
BRANCH  12  13
ATOM     13  C   UNL     1     -23.799 -12.584   2.615  1.00  0.00     0.053 C 
BRANCH  13  14
ATOM     14  C   UNL     1     -24.042 -11.667   3.775  1.00  0.00     0.041 C 
ATOM     15  O   UNL     1     -25.133 -11.711   4.402  1.00  0.00    -0.550 OA
ATOM     16  O   UNL     1     -23.080 -10.729   4.134  1.00  0.00    -0.550 OA
ENDBRANCH  13  14
ENDBRANCH  12  13
ENDBRANCH  11  12
ENDBRANCH  10  11
ENDBRANCH   9  10
ENDBRANCH   8   9
ENDBRANCH   7   8
ENDBRANCH   6   7
ENDBRANCH   5   6
ENDBRANCH   4   5
ENDBRANCH   3   4
ENDBRANCH   2   3
ENDBRANCH   1   2
BRANCH   1  17
ATOM     17  C   UNL     1     -21.783   0.420   1.029  1.00  0.00     0.000 C 
BRANCH  17  18
ATOM     18  C   UNL     1     -23.002   0.655   0.121  1.00  0.00     0.000 C 
BRANCH  18  19
ATOM     19  C   UNL     1     -24.331   0.274   0.792  1.00  0.00     0.000 C 
BRANCH  19  20
ATOM     20  C   UNL     1     -25.277   1.458   1.085  1.00  0.00     0.000 C 
BRANCH  20  21
ATOM     21  C   UNL     1     -24.959   2.255   2.364  1.00  0.00     0.000 C 
BRANCH  21  22
ATOM     22  C   UNL     1     -23.578   2.938   2.381  1.00  0.00    -0.000 C 
BRANCH  22  23
ATOM     23  C   UNL     1     -23.415   4.000   3.489  1.00  0.00    -0.000 C 
BRANCH  23  24
ATOM     24  C   UNL     1     -24.737   4.712   3.829  1.00  0.00    -0.000 C 
BRANCH  24  25
ATOM     25  C   UNL     1     -24.628   6.242   3.685  1.00  0.00    -0.000 C 
BRANCH  25  26
ATOM     26  C   UNL     1     -23.343   6.708   2.973  1.00  0.00    -0.000 C 
BRANCH  26  27
ATOM     27  C   UNL     1     -23.494   6.728   1.441  1.00  0.00    -0.000 C 
BRANCH  27  28
ATOM     28  C   UNL     1     -22.182   7.117   0.727  1.00  0.00    -0.000 C 
BRANCH  28  29
ATOM     29  C   UNL     1     -21.257   5.923   0.433  1.00  0.00    -0.003 C 
ATOM     30  C   UNL     1     -22.016   4.638   0.110  1.00  0.00     0.004 C 
ENDBRANCH  28  29
ENDBRANCH  27  28
ENDBRANCH  26  27
ENDBRANCH  25  26
ENDBRANCH  24  25
ENDBRANCH  23  24
ENDBRANCH  22  23
ENDBRANCH  21  22
ENDBRANCH  20  21
ENDBRANCH  19  20
ENDBRANCH  18  19
ENDBRANCH  17  18
ENDBRANCH   1  17
TORSDOF 26
ENDMDL
MODEL 3
REMARK VINA RESULT:    -0.893      4.255     12.357
REMARK INTER + INTRA:          -3.490
REMARK INTER:                  -1.542
REMARK INTRA:                  -1.948
REMARK UNBOUND:                -1.240
REMARK SMILES CCCCCCCCCCCCCCCCCCCCCCCCCCCC(=O)[O-]
REMARK SMILES IDX 15 1 16 2 17 3 18 4 19 5 20 6 21 7 22 8 23 9 24 10 25 11
REMARK SMILES IDX 26 12 27 13 28 14 29 15 30 16 14 17 13 18 12 19 11 20 10 21
REMARK SMILES IDX 9 22 8 23 7 24 6 25 5 26 4 27 3 28 2 29 1 30
REMARK H PARENT
REMARK Flexibility Score: inf
ROOT
ATOM      1  C   UNL     1     -22.382  -1.223   0.318  1.00  0.00     0.000 C 
ENDROOT
BRANCH   1   2
ATOM      2  C   UNL     1     -22.765  -2.416   1.210  1.00  0.00     0.000 C 
BRANCH   2   3
ATOM      3  C   UNL     1     -21.993  -3.700   0.860  1.00  0.00     0.000 C 
BRANCH   3   4
ATOM      4  C   UNL     1     -22.822  -4.783   0.140  1.00  0.00     0.000 C 
BRANCH   4   5
ATOM      5  C   UNL     1     -24.221  -5.046   0.732  1.00  0.00     0.000 C 
BRANCH   5   6
ATOM      6  C   UNL     1     -25.133  -5.945  -0.121  1.00  0.00     0.000 C 
BRANCH   6   7
ATOM      7  C   UNL     1     -24.705  -7.419  -0.107  1.00  0.00     0.000 C 
BRANCH   7   8
ATOM      8  C   UNL     1     -25.683  -8.261   0.721  1.00  0.00     0.000 C 
BRANCH   8   9
ATOM      9  C   UNL     1     -24.939  -9.293   1.577  1.00  0.00     0.000 C 
BRANCH   9  10
ATOM     10  C   UNL     1     -24.092 -10.227   0.701  1.00  0.00     0.000 C 
BRANCH  10  11
ATOM     11  C   UNL     1     -24.588 -11.685   0.725  1.00  0.00     0.000 C 
BRANCH  11  12
ATOM     12  C   UNL     1     -23.802 -12.624   1.662  1.00  0.00     0.006 C 
BRANCH  12  13
ATOM     13  C   UNL     1     -22.755 -11.917   2.538  1.00  0.00     0.053 C 
BRANCH  13  14
ATOM     14  C   UNL     1     -21.379 -12.466   2.315  1.00  0.00     0.041 C 
ATOM     15  O   UNL     1     -20.602 -12.646   3.290  1.00  0.00    -0.550 OA
ATOM     16  O   UNL     1     -20.937 -12.734   1.025  1.00  0.00    -0.550 OA
ENDBRANCH  13  14
ENDBRANCH  12  13
ENDBRANCH  11  12
ENDBRANCH  10  11
ENDBRANCH   9  10
ENDBRANCH   8   9
ENDBRANCH   7   8
ENDBRANCH   6   7
ENDBRANCH   5   6
ENDBRANCH   4   5
ENDBRANCH   3   4
ENDBRANCH   2   3
ENDBRANCH   1   2
BRANCH   1  17
ATOM     17  C   UNL     1     -22.432   0.112   1.079  1.00  0.00     0.000 C 
BRANCH  17  18
ATOM     18  C   UNL     1     -21.106   0.886   0.984  1.00  0.00     0.000 C 
BRANCH  18  19
ATOM     19  C   UNL     1     -21.120   1.965  -0.111  1.00  0.00     0.000 C 
BRANCH  19  20
ATOM     20  C   UNL     1     -20.680   3.370   0.351  1.00  0.00     0.000 C 
BRANCH  20  21
ATOM     21  C   UNL     1     -21.580   4.530  -0.118  1.00  0.00     0.000 C 
BRANCH  21  22
ATOM     22  C   UNL     1     -21.708   5.700   0.876  1.00  0.00    -0.000 C 
BRANCH  22  23
ATOM     23  C   UNL     1     -22.963   6.573   0.660  1.00  0.00    -0.000 C 
BRANCH  23  24
ATOM     24  C   UNL     1     -24.156   6.124   1.524  1.00  0.00    -0.000 C 
BRANCH  24  25
ATOM     25  C   UNL     1     -25.303   5.544   0.676  1.00  0.00    -0.000 C 
BRANCH  25  26
ATOM     26  C   UNL     1     -24.909   4.286  -0.124  1.00  0.00    -0.000 C 
BRANCH  26  27
ATOM     27  C   UNL     1     -25.445   2.992   0.514  1.00  0.00    -0.000 C 
BRANCH  27  28
ATOM     28  C   UNL     1     -24.690   2.619   1.808  1.00  0.00    -0.000 C 
BRANCH  28  29
ATOM     29  C   UNL     1     -25.604   2.447   3.034  1.00  0.00    -0.003 C 
ATOM     30  C   UNL     1     -25.639   3.677   3.937  1.00  0.00     0.004 C 
ENDBRANCH  28  29
ENDBRANCH  27  28
ENDBRANCH  26  27
ENDBRANCH  25  26
ENDBRANCH  24  25
ENDBRANCH  23  24
ENDBRANCH  22  23
ENDBRANCH  21  22
ENDBRANCH  20  21
ENDBRANCH  19  20
ENDBRANCH  18  19
ENDBRANCH  17  18
ENDBRANCH   1  17
TORSDOF 26
ENDMDL
MODEL 4
REMARK VINA RESULT:    -0.690      4.193     13.084
REMARK INTER + INTRA:          -2.979
REMARK INTER:                  -2.976
REMARK INTRA:                  -0.002
REMARK UNBOUND:                -1.240
REMARK SMILES CCCCCCCCCCCCCCCCCCCCCCCCCCCC(=O)[O-]
REMARK SMILES IDX 15 1 16 2 17 3 18 4 19 5 20 6 21 7 22 8 23 9 24 10 25 11
REMARK SMILES IDX 26 12 27 13 28 14 29 15 30 16 14 17 13 18 12 19 11 20 10 21
REMARK SMILES IDX 9 22 8 23 7 24 6 25 5 26 4 27 3 28 2 29 1 30
REMARK H PARENT
REMARK Flexibility Score: inf
ROOT
ATOM      1  C   UNL     1     -21.987  -1.849   0.890  1.00  0.00     0.000 C 
ENDROOT
BRANCH   1   2
ATOM      2  C   UNL     1     -23.200  -2.787   0.769  1.00  0.00     0.000 C 
BRANCH   2   3
ATOM      3  C   UNL     1     -22.816  -4.216   0.348  1.00  0.00     0.000 C 
BRANCH   3   4
ATOM      4  C   UNL     1     -23.996  -5.104  -0.096  1.00  0.00     0.000 C 
BRANCH   4   5
ATOM      5  C   UNL     1     -23.711  -6.619  -0.120  1.00  0.00     0.000 C 
BRANCH   5   6
ATOM      6  C   UNL     1     -24.718  -7.485   0.656  1.00  0.00     0.000 C 
BRANCH   6   7
ATOM      7  C   UNL     1     -25.165  -8.729  -0.124  1.00  0.00     0.000 C 
BRANCH   7   8
ATOM      8  C   UNL     1     -25.528  -9.871   0.833  1.00  0.00     0.000 C 
BRANCH   8   9
ATOM      9  C   UNL     1     -26.023 -11.102   0.065  1.00  0.00     0.000 C 
BRANCH   9  10
ATOM     10  C   UNL     1     -25.377 -12.385   0.607  1.00  0.00     0.000 C 
BRANCH  10  11
ATOM     11  C   UNL     1     -24.020 -12.698  -0.051  1.00  0.00     0.000 C 
BRANCH  11  12
ATOM     12  C   UNL     1     -22.787 -12.235   0.750  1.00  0.00     0.006 C 
BRANCH  12  13
ATOM     13  C   UNL     1     -23.110 -11.322   1.943  1.00  0.00     0.053 C 
BRANCH  13  14
ATOM     14  C   UNL     1     -22.885 -12.014   3.253  1.00  0.00     0.041 C 
ATOM     15  O   UNL     1     -21.767 -12.530   3.515  1.00  0.00    -0.550 OA
ATOM     16  O   UNL     1     -23.927 -12.132   4.165  1.00  0.00    -0.550 OA
ENDBRANCH  13  14
ENDBRANCH  12  13
ENDBRANCH  11  12
ENDBRANCH  10  11
ENDBRANCH   9  10
ENDBRANCH   8   9
ENDBRANCH   7   8
ENDBRANCH   6   7
ENDBRANCH   5   6
ENDBRANCH   4   5
ENDBRANCH   3   4
ENDBRANCH   2   3
ENDBRANCH   1   2
BRANCH   1  17
ATOM     17  C   UNL     1     -22.041  -0.695  -0.124  1.00  0.00     0.000 C 
BRANCH  17  18
ATOM     18  C   UNL     1     -22.057   0.682   0.562  1.00  0.00     0.000 C 
BRANCH  18  19
ATOM     19  C   UNL     1     -22.552   0.621   2.016  1.00  0.00     0.000 C 
BRANCH  19  20
ATOM     20  C   UNL     1     -23.605   1.685   2.392  1.00  0.00     0.000 C 
BRANCH  20  21
ATOM     21  C   UNL     1     -23.037   3.051   2.824  1.00  0.00     0.000 C 
BRANCH  21  22
ATOM     22  C   UNL     1     -23.255   4.196   1.818  1.00  0.00    -0.000 C 
BRANCH  22  23
ATOM     23  C   UNL     1     -23.765   5.506   2.457  1.00  0.00    -0.000 C 
BRANCH  23  24
ATOM     24  C   UNL     1     -23.211   6.762   1.761  1.00  0.00    -0.000 C 
BRANCH  24  25
ATOM     25  C   UNL     1     -22.728   6.469   0.328  1.00  0.00    -0.000 C 
BRANCH  25  26
ATOM     26  C   UNL     1     -21.598   5.423   0.255  1.00  0.00    -0.000 C 
BRANCH  26  27
ATOM     27  C   UNL     1     -20.215   6.066   0.042  1.00  0.00    -0.000 C 
BRANCH  27  28
ATOM     28  C   UNL     1     -19.060   5.099   0.377  1.00  0.00    -0.000 C 
BRANCH  28  29
ATOM     29  C   UNL     1     -19.310   3.651  -0.079  1.00  0.00    -0.003 C 
ATOM     30  C   UNL     1     -18.039   2.806  -0.125  1.00  0.00     0.004 C 
ENDBRANCH  28  29
ENDBRANCH  27  28
ENDBRANCH  26  27
ENDBRANCH  25  26
ENDBRANCH  24  25
ENDBRANCH  23  24
ENDBRANCH  22  23
ENDBRANCH  21  22
ENDBRANCH  20  21
ENDBRANCH  19  20
ENDBRANCH  18  19
ENDBRANCH  17  18
ENDBRANCH   1  17
TORSDOF 26
ENDMDL
MODEL 5
REMARK VINA RESULT:    -0.680      1.357      2.698
REMARK INTER + INTRA:          -2.954
REMARK INTER:                  -2.072
REMARK INTRA:                  -0.882
REMARK UNBOUND:                -1.240
REMARK SMILES CCCCCCCCCCCCCCCCCCCCCCCCCCCC(=O)[O-]
REMARK SMILES IDX 15 1 16 2 17 3 18 4 19 5 20 6 21 7 22 8 23 9 24 10 25 11
REMARK SMILES IDX 26 12 27 13 28 14 29 15 30 16 14 17 13 18 12 19 11 20 10 21
REMARK SMILES IDX 9 22 8 23 7 24 6 25 5 26 4 27 3 28 2 29 1 30
REMARK H PARENT
REMARK Flexibility Score: inf
ROOT
ATOM      1  C   UNL     1     -21.769  -0.309   2.459  1.00  0.00     0.000 C 
ENDROOT
BRANCH   1   2
ATOM      2  C   UNL     1     -21.941   1.179   2.110  1.00  0.00     0.000 C 
BRANCH   2   3
ATOM      3  C   UNL     1     -21.863   1.456   0.599  1.00  0.00     0.000 C 
BRANCH   3   4
ATOM      4  C   UNL     1     -20.438   1.453   0.009  1.00  0.00     0.000 C 
BRANCH   4   5
ATOM      5  C   UNL     1     -19.299   1.625   1.034  1.00  0.00     0.000 C 
BRANCH   5   6
ATOM      6  C   UNL     1     -18.291   2.741   0.707  1.00  0.00     0.000 C 
BRANCH   6   7
ATOM      7  C   UNL     1     -18.902   3.877  -0.125  1.00  0.00     0.000 C 
BRANCH   7   8
ATOM      8  C   UNL     1     -20.316   4.212   0.366  1.00  0.00     0.000 C 
BRANCH   8   9
ATOM      9  C   UNL     1     -20.730   5.625  -0.060  1.00  0.00     0.000 C 
BRANCH   9  10
ATOM     10  C   UNL     1     -21.463   6.350   1.078  1.00  0.00     0.000 C 
BRANCH  10  11
ATOM     11  C   UNL     1     -22.727   7.090   0.602  1.00  0.00     0.000 C 
BRANCH  11  12
ATOM     12  C   UNL     1     -24.033   6.661   1.300  1.00  0.00     0.006 C 
BRANCH  12  13
ATOM     13  C   UNL     1     -23.838   5.681   2.467  1.00  0.00     0.053 C 
BRANCH  13  14
ATOM     14  C   UNL     1     -24.127   4.268   2.063  1.00  0.00     0.041 C 
ATOM     15  O   UNL     1     -24.158   3.949   0.846  1.00  0.00    -0.550 OA
ATOM     16  O   UNL     1     -24.409   3.311   3.032  1.00  0.00    -0.550 OA
ENDBRANCH  13  14
ENDBRANCH  12  13
ENDBRANCH  11  12
ENDBRANCH  10  11
ENDBRANCH   9  10
ENDBRANCH   8   9
ENDBRANCH   7   8
ENDBRANCH   6   7
ENDBRANCH   5   6
ENDBRANCH   4   5
ENDBRANCH   3   4
ENDBRANCH   2   3
ENDBRANCH   1   2
BRANCH   1  17
ATOM     17  C   UNL     1     -22.713  -1.210   1.647  1.00  0.00     0.000 C 
BRANCH  17  18
ATOM     18  C   UNL     1     -22.119  -2.608   1.404  1.00  0.00     0.000 C 
BRANCH  18  19
ATOM     19  C   UNL     1     -22.402  -3.142  -0.009  1.00  0.00     0.000 C 
BRANCH  19  20
ATOM     20  C   UNL     1     -22.472  -4.680  -0.125  1.00  0.00     0.000 C 
BRANCH  20  21
ATOM     21  C   UNL     1     -23.600  -5.351   0.682  1.00  0.00     0.000 C 
BRANCH  21  22
ATOM     22  C   UNL     1     -24.994  -5.294   0.027  1.00  0.00    -0.000 C 
BRANCH  22  23
ATOM     23  C   UNL     1     -26.021  -6.264   0.650  1.00  0.00    -0.000 C 
BRANCH  23  24
ATOM     24  C   UNL     1     -26.116  -7.599  -0.112  1.00  0.00    -0.000 C 
BRANCH  24  25
ATOM     25  C   UNL     1     -24.944  -8.543   0.217  1.00  0.00    -0.000 C 
BRANCH  25  26
ATOM     26  C   UNL     1     -24.787  -8.834   1.723  1.00  0.00    -0.000 C 
BRANCH  26  27
ATOM     27  C   UNL     1     -25.943  -9.684   2.281  1.00  0.00    -0.000 C 
BRANCH  27  28
ATOM     28  C   UNL     1     -25.582 -11.182   2.367  1.00  0.00    -0.000 C 
BRANCH  28  29
ATOM     29  C   UNL     1     -24.918 -11.586   3.696  1.00  0.00    -0.003 C 
ATOM     30  C   UNL     1     -24.614 -13.079   3.788  1.00  0.00     0.004 C 
ENDBRANCH  28  29
ENDBRANCH  27  28
ENDBRANCH  26  27
ENDBRANCH  25  26
ENDBRANCH  24  25
ENDBRANCH  23  24
ENDBRANCH  22  23
ENDBRANCH  21  22
ENDBRANCH  20  21
ENDBRANCH  19  20
ENDBRANCH  18  19
ENDBRANCH  17  18
ENDBRANCH   1  17
TORSDOF 26
ENDMDL
MODEL 6
REMARK VINA RESULT:    -0.656      3.913     11.897
REMARK INTER + INTRA:          -2.892
REMARK INTER:                  -1.318
REMARK INTRA:                  -1.574
REMARK UNBOUND:                -1.240
REMARK SMILES CCCCCCCCCCCCCCCCCCCCCCCCCCCC(=O)[O-]
REMARK SMILES IDX 15 1 16 2 17 3 18 4 19 5 20 6 21 7 22 8 23 9 24 10 25 11
REMARK SMILES IDX 26 12 27 13 28 14 29 15 30 16 14 17 13 18 12 19 11 20 10 21
REMARK SMILES IDX 9 22 8 23 7 24 6 25 5 26 4 27 3 28 2 29 1 30
REMARK H PARENT
REMARK Flexibility Score: inf
ROOT
ATOM      1  C   UNL     1     -22.866   0.271   2.571  1.00  0.00     0.000 C 
ENDROOT
BRANCH   1   2
ATOM      2  C   UNL     1     -22.726  -0.315   1.156  1.00  0.00     0.000 C 
BRANCH   2   3
ATOM      3  C   UNL     1     -22.307  -1.796   1.158  1.00  0.00     0.000 C 
BRANCH   3   4
ATOM      4  C   UNL     1     -22.745  -2.598  -0.085  1.00  0.00     0.000 C 
BRANCH   4   5
ATOM      5  C   UNL     1     -23.313  -4.003   0.202  1.00  0.00     0.000 C 
BRANCH   5   6
ATOM      6  C   UNL     1     -24.845  -4.117   0.115  1.00  0.00     0.000 C 
BRANCH   6   7
ATOM      7  C   UNL     1     -25.386  -5.411   0.738  1.00  0.00     0.000 C 
BRANCH   7   8
ATOM      8  C   UNL     1     -25.021  -6.625  -0.125  1.00  0.00     0.000 C 
BRANCH   8   9
ATOM      9  C   UNL     1     -23.814  -7.372   0.453  1.00  0.00     0.000 C 
BRANCH   9  10
ATOM     10  C   UNL     1     -23.789  -8.831  -0.025  1.00  0.00     0.000 C 
BRANCH  10  11
ATOM     11  C   UNL     1     -25.173  -9.503   0.026  1.00  0.00     0.000 C 
BRANCH  11  12
ATOM     12  C   UNL     1     -25.465 -10.296   1.316  1.00  0.00     0.006 C 
BRANCH  12  13
ATOM     13  C   UNL     1     -24.220 -10.897   1.987  1.00  0.00     0.053 C 
BRANCH  13  14
ATOM     14  C   UNL     1     -24.426 -11.112   3.456  1.00  0.00     0.041 C 
ATOM     15  O   UNL     1     -25.590 -11.169   3.932  1.00  0.00    -0.550 OA
ATOM     16  O   UNL     1     -23.330 -11.201   4.307  1.00  0.00    -0.550 OA
ENDBRANCH  13  14
ENDBRANCH  12  13
ENDBRANCH  11  12
ENDBRANCH  10  11
ENDBRANCH   9  10
ENDBRANCH   8   9
ENDBRANCH   7   8
ENDBRANCH   6   7
ENDBRANCH   5   6
ENDBRANCH   4   5
ENDBRANCH   3   4
ENDBRANCH   2   3
ENDBRANCH   1   2
BRANCH   1  17
ATOM     17  C   UNL     1     -23.424   1.704   2.554  1.00  0.00     0.000 C 
BRANCH  17  18
ATOM     18  C   UNL     1     -22.894   2.521   1.363  1.00  0.00     0.000 C 
BRANCH  18  19
ATOM     19  C   UNL     1     -24.013   3.032   0.441  1.00  0.00     0.000 C 
BRANCH  19  20
ATOM     20  C   UNL     1     -24.646   4.374   0.864  1.00  0.00     0.000 C 
BRANCH  20  21
ATOM     21  C   UNL     1     -23.695   5.356   1.574  1.00  0.00     0.000 C 
BRANCH  21  22
ATOM     22  C   UNL     1     -22.857   6.247   0.637  1.00  0.00    -0.000 C 
BRANCH  22  23
ATOM     23  C   UNL     1     -21.450   6.579   1.178  1.00  0.00    -0.000 C 
BRANCH  23  24
ATOM     24  C   UNL     1     -20.326   6.143   0.220  1.00  0.00    -0.000 C 
BRANCH  24  25
ATOM     25  C   UNL     1     -18.956   6.714   0.631  1.00  0.00    -0.000 C 
BRANCH  25  26
ATOM     26  C   UNL     1     -17.805   5.692   0.538  1.00  0.00    -0.000 C 
BRANCH  26  27
ATOM     27  C   UNL     1     -18.243   4.373  -0.125  1.00  0.00    -0.000 C 
BRANCH  27  28
ATOM     28  C   UNL     1     -18.476   3.247   0.905  1.00  0.00    -0.000 C 
BRANCH  28  29
ATOM     29  C   UNL     1     -19.136   1.989   0.313  1.00  0.00    -0.003 C 
ATOM     30  C   UNL     1     -19.742   1.072   1.372  1.00  0.00     0.004 C 
ENDBRANCH  28  29
ENDBRANCH  27  28
ENDBRANCH  26  27
ENDBRANCH  25  26
ENDBRANCH  24  25
ENDBRANCH  23  24
ENDBRANCH  22  23
ENDBRANCH  21  22
ENDBRANCH  20  21
ENDBRANCH  19  20
ENDBRANCH  18  19
ENDBRANCH  17  18
ENDBRANCH   1  17
TORSDOF 26
ENDMDL
