MODEL 1
REMARK VINA RESULT:    -5.316      0.000      0.000
REMARK INTER + INTRA:         -10.440
REMARK INTER:                  -9.046
REMARK INTRA:                  -1.394
REMARK UNBOUND:                -1.394
REMARK SMILES CCCCCCCCCCCCCC(=O)[O-]
REMARK SMILES IDX 8 1 9 2 10 3 11 4 12 5 13 6 14 7 15 8 16 9 7 10 6 11 5 12
REMARK SMILES IDX 4 13 3 14 2 15 1 16
REMARK H PARENT
REMARK Flexibility Score: inf
ROOT
ATOM      1  C   UNL     1      49.007  49.270  23.690  1.00  0.00     0.000 C 
ENDROOT
BRANCH   1   2
ATOM      2  C   UNL     1      49.460  49.936  22.382  1.00  0.00     0.000 C 
BRANCH   2   3
ATOM      3  C   UNL     1      50.802  50.673  22.523  1.00  0.00     0.000 C 
BRANCH   3   4
ATOM      4  C   UNL     1      51.428  51.025  21.162  1.00  0.00     0.000 C 
BRANCH   4   5
ATOM      5  C   UNL     1      52.586  52.029  21.288  1.00  0.00     0.006 C 
BRANCH   5   6
ATOM      6  C   UNL     1      52.163  53.339  21.965  1.00  0.00     0.053 C 
BRANCH   6   7
ATOM      7  C   UNL     1      53.106  53.680  23.076  1.00  0.00     0.041 C 
ATOM      8  O   UNL     1      52.923  54.718  23.766  1.00  0.00    -0.550 OA
ATOM      9  O   UNL     1      54.159  52.827  23.380  1.00  0.00    -0.550 OA
ENDBRANCH   6   7
ENDBRANCH   5   6
ENDBRANCH   4   5
ENDBRANCH   3   4
ENDBRANCH   2   3
ENDBRANCH   1   2
BRANCH   1  10
ATOM     10  C   UNL     1      47.795  50.002  24.286  1.00  0.00     0.000 C 
BRANCH  10  11
ATOM     11  C   UNL     1      47.135  50.974  23.291  1.00  0.00    -0.000 C 
BRANCH  11  12
ATOM     12  C   UNL     1      46.221  52.039  23.931  1.00  0.00    -0.000 C 
BRANCH  12  13
ATOM     13  C   UNL     1      46.361  52.187  25.459  1.00  0.00    -0.000 C 
BRANCH  13  14
ATOM     14  C   UNL     1      47.278  53.337  25.920  1.00  0.00    -0.000 C 
BRANCH  14  15
ATOM     15  C   UNL     1      48.758  52.953  26.098  1.00  0.00    -0.003 C 
ATOM     16  C   UNL     1      49.622  53.342  24.899  1.00  0.00     0.004 C 
ENDBRANCH  14  15
ENDBRANCH  13  14
ENDBRANCH  12  13
ENDBRANCH  11  12
ENDBRANCH  10  11
ENDBRANCH   1  10
TORSDOF 12
ENDMDL
MODEL 2
REMARK VINA RESULT:    -5.308      0.808      1.532
REMARK INTER + INTRA:         -10.426
REMARK INTER:                  -8.777
REMARK INTRA:                  -1.649
REMARK UNBOUND:                -1.394
REMARK SMILES CCCCCCCCCCCCCC(=O)[O-]
REMARK SMILES IDX 8 1 9 2 10 3 11 4 12 5 13 6 14 7 15 8 16 9 7 10 6 11 5 12
REMARK SMILES IDX 4 13 3 14 2 15 1 16
REMARK H PARENT
REMARK Flexibility Score: inf
ROOT
ATOM      1  C   UNL     1      50.105  50.098  23.297  1.00  0.00     0.000 C 
ENDROOT
BRANCH   1   2
ATOM      2  C   UNL     1      50.606  49.897  21.859  1.00  0.00     0.000 C 
BRANCH   2   3
ATOM      3  C   UNL     1      50.861  51.224  21.126  1.00  0.00     0.000 C 
BRANCH   3   4
ATOM      4  C   UNL     1      50.180  52.420  21.815  1.00  0.00     0.000 C 
BRANCH   4   5
ATOM      5  C   UNL     1      51.130  53.616  21.995  1.00  0.00     0.006 C 
BRANCH   5   6
ATOM      6  C   UNL     1      52.607  53.199  22.033  1.00  0.00     0.053 C 
BRANCH   6   7
ATOM      7  C   UNL     1      53.217  53.565  23.349  1.00  0.00     0.041 C 
ATOM      8  O   UNL     1      54.351  53.118  23.667  1.00  0.00    -0.550 OA
ATOM      9  O   UNL     1      52.557  54.439  24.203  1.00  0.00    -0.550 OA
ENDBRANCH   6   7
ENDBRANCH   5   6
ENDBRANCH   4   5
ENDBRANCH   3   4
ENDBRANCH   2   3
ENDBRANCH   1   2
BRANCH   1  10
ATOM     10  C   UNL     1      48.968  49.118  23.622  1.00  0.00     0.000 C 
BRANCH  10  11
ATOM     11  C   UNL     1      47.747  49.808  24.256  1.00  0.00    -0.000 C 
BRANCH  11  12
ATOM     12  C   UNL     1      47.095  50.905  23.389  1.00  0.00    -0.000 C 
BRANCH  12  13
ATOM     13  C   UNL     1      46.830  52.239  24.115  1.00  0.00    -0.000 C 
BRANCH  13  14
ATOM     14  C   UNL     1      47.007  52.195  25.646  1.00  0.00    -0.000 C 
BRANCH  14  15
ATOM     15  C   UNL     1      48.106  53.121  26.197  1.00  0.00    -0.003 C 
ATOM     16  C   UNL     1      49.347  53.169  25.306  1.00  0.00     0.004 C 
ENDBRANCH  14  15
ENDBRANCH  13  14
ENDBRANCH  12  13
ENDBRANCH  11  12
ENDBRANCH  10  11
ENDBRANCH   1  10
TORSDOF 12
ENDMDL
MODEL 3
REMARK VINA RESULT:    -5.292      2.691      5.749
REMARK INTER + INTRA:         -10.398
REMARK INTER:                  -9.220
REMARK INTRA:                  -1.177
REMARK UNBOUND:                -1.394
REMARK SMILES CCCCCCCCCCCCCC(=O)[O-]
REMARK SMILES IDX 8 1 9 2 10 3 11 4 12 5 13 6 14 7 15 8 16 9 7 10 6 11 5 12
REMARK SMILES IDX 4 13 3 14 2 15 1 16
REMARK H PARENT
REMARK Flexibility Score: inf
ROOT
ATOM      1  C   UNL     1      49.183  53.239  25.273  1.00  0.00     0.000 C 
ENDROOT
BRANCH   1   2
ATOM      2  C   UNL     1      48.162  52.101  25.121  1.00  0.00     0.000 C 
BRANCH   2   3
ATOM      3  C   UNL     1      47.540  52.042  23.716  1.00  0.00     0.000 C 
BRANCH   3   4
ATOM      4  C   UNL     1      47.839  50.716  22.994  1.00  0.00     0.000 C 
BRANCH   4   5
ATOM      5  C   UNL     1      48.477  49.670  23.922  1.00  0.00     0.006 C 
BRANCH   5   6
ATOM      6  C   UNL     1      49.780  49.090  23.356  1.00  0.00     0.053 C 
BRANCH   6   7
ATOM      7  C   UNL     1      50.122  47.807  24.045  1.00  0.00     0.041 C 
ATOM      8  O   UNL     1      49.278  47.244  24.791  1.00  0.00    -0.550 OA
ATOM      9  O   UNL     1      51.356  47.208  23.826  1.00  0.00    -0.550 OA
ENDBRANCH   6   7
ENDBRANCH   5   6
ENDBRANCH   4   5
ENDBRANCH   3   4
ENDBRANCH   2   3
ENDBRANCH   1   2
BRANCH   1  10
ATOM     10  C   UNL     1      50.362  53.048  24.309  1.00  0.00     0.000 C 
BRANCH  10  11
ATOM     11  C   UNL     1      51.433  54.144  24.450  1.00  0.00    -0.000 C 
BRANCH  11  12
ATOM     12  C   UNL     1      52.698  53.935  23.591  1.00  0.00    -0.000 C 
BRANCH  12  13
ATOM     13  C   UNL     1      52.637  54.550  22.179  1.00  0.00    -0.000 C 
BRANCH  13  14
ATOM     14  C   UNL     1      52.194  53.581  21.065  1.00  0.00    -0.000 C 
BRANCH  14  15
ATOM     15  C   UNL     1      52.609  52.115  21.280  1.00  0.00    -0.003 C 
ATOM     16  C   UNL     1      51.475  51.129  21.006  1.00  0.00     0.004 C 
ENDBRANCH  14  15
ENDBRANCH  13  14
ENDBRANCH  12  13
ENDBRANCH  11  12
ENDBRANCH  10  11
ENDBRANCH   1  10
TORSDOF 12
ENDMDL
MODEL 4
REMARK VINA RESULT:    -5.212      2.728      4.646
REMARK INTER + INTRA:         -10.263
REMARK INTER:                  -8.890
REMARK INTRA:                  -1.372
REMARK UNBOUND:                -1.394
REMARK SMILES CCCCCCCCCCCCCC(=O)[O-]
REMARK SMILES IDX 8 1 9 2 10 3 11 4 12 5 13 6 14 7 15 8 16 9 7 10 6 11 5 12
REMARK SMILES IDX 4 13 3 14 2 15 1 16
REMARK H PARENT
REMARK Flexibility Score: inf
ROOT
ATOM      1  C   UNL     1      52.389  53.709  21.819  1.00  0.00     0.000 C 
ENDROOT
BRANCH   1   2
ATOM      2  C   UNL     1      52.445  52.612  20.745  1.00  0.00     0.000 C 
BRANCH   2   3
ATOM      3  C   UNL     1      51.938  51.253  21.254  1.00  0.00     0.000 C 
BRANCH   3   4
ATOM      4  C   UNL     1      50.457  51.009  20.912  1.00  0.00     0.000 C 
BRANCH   4   5
ATOM      5  C   UNL     1      49.817  49.930  21.800  1.00  0.00     0.006 C 
BRANCH   5   6
ATOM      6  C   UNL     1      50.806  49.327  22.806  1.00  0.00     0.053 C 
BRANCH   6   7
ATOM      7  C   UNL     1      50.115  48.334  23.687  1.00  0.00     0.041 C 
ATOM      8  O   UNL     1      50.763  47.386  24.202  1.00  0.00    -0.550 OA
ATOM      9  O   UNL     1      48.765  48.485  23.977  1.00  0.00    -0.550 OA
ENDBRANCH   6   7
ENDBRANCH   5   6
ENDBRANCH   4   5
ENDBRANCH   3   4
ENDBRANCH   2   3
ENDBRANCH   1   2
BRANCH   1  10
ATOM     10  C   UNL     1      52.816  53.158  23.187  1.00  0.00     0.000 C 
BRANCH  10  11
ATOM     11  C   UNL     1      51.792  53.454  24.297  1.00  0.00    -0.000 C 
BRANCH  11  12
ATOM     12  C   UNL     1      50.315  53.323  23.873  1.00  0.00    -0.000 C 
BRANCH  12  13
ATOM     13  C   UNL     1      49.332  53.014  25.020  1.00  0.00    -0.000 C 
BRANCH  13  14
ATOM     14  C   UNL     1      48.149  52.102  24.638  1.00  0.00    -0.000 C 
BRANCH  14  15
ATOM     15  C   UNL     1      47.002  52.067  25.663  1.00  0.00    -0.003 C 
ATOM     16  C   UNL     1      46.645  53.450  26.205  1.00  0.00     0.004 C 
ENDBRANCH  14  15
ENDBRANCH  13  14
ENDBRANCH  12  13
ENDBRANCH  11  12
ENDBRANCH  10  11
ENDBRANCH   1  10
TORSDOF 12
ENDMDL
MODEL 5
REMARK VINA RESULT:    -5.130      2.074      5.368
REMARK INTER + INTRA:         -10.122
REMARK INTER:                  -9.466
REMARK INTRA:                  -0.656
REMARK UNBOUND:                -1.394
REMARK SMILES CCCCCCCCCCCCCC(=O)[O-]
REMARK SMILES IDX 8 1 9 2 10 3 11 4 12 5 13 6 14 7 15 8 16 9 7 10 6 11 5 12
REMARK SMILES IDX 4 13 3 14 2 15 1 16
REMARK H PARENT
REMARK Flexibility Score: inf
ROOT
ATOM      1  C   UNL     1      50.262  50.442  22.983  1.00  0.00     0.000 C 
ENDROOT
BRANCH   1   2
ATOM      2  C   UNL     1      49.750  49.048  23.377  1.00  0.00     0.000 C 
BRANCH   2   3
ATOM      3  C   UNL     1      48.373  49.091  24.059  1.00  0.00     0.000 C 
BRANCH   3   4
ATOM      4  C   UNL     1      47.611  50.397  23.772  1.00  0.00     0.000 C 
BRANCH   4   5
ATOM      5  C   UNL     1      47.109  51.081  25.054  1.00  0.00     0.006 C 
BRANCH   5   6
ATOM      6  C   UNL     1      47.242  52.608  25.003  1.00  0.00     0.053 C 
BRANCH   6   7
ATOM      7  C   UNL     1      48.477  53.048  25.725  1.00  0.00     0.041 C 
ATOM      8  O   UNL     1      48.462  53.188  26.976  1.00  0.00    -0.550 OA
ATOM      9  O   UNL     1      49.656  53.257  25.022  1.00  0.00    -0.550 OA
ENDBRANCH   6   7
ENDBRANCH   5   6
ENDBRANCH   4   5
ENDBRANCH   3   4
ENDBRANCH   2   3
ENDBRANCH   1   2
BRANCH   1  10
ATOM     10  C   UNL     1      50.917  50.412  21.594  1.00  0.00     0.000 C 
BRANCH  10  11
ATOM     11  C   UNL     1      51.291  51.813  21.079  1.00  0.00    -0.000 C 
BRANCH  11  12
ATOM     12  C   UNL     1      52.778  52.191  21.241  1.00  0.00    -0.000 C 
BRANCH  12  13
ATOM     13  C   UNL     1      53.132  52.896  22.565  1.00  0.00    -0.000 C 
BRANCH  13  14
ATOM     14  C   UNL     1      52.801  54.400  22.613  1.00  0.00    -0.000 C 
BRANCH  14  15
ATOM     15  C   UNL     1      52.111  54.951  21.352  1.00  0.00    -0.003 C 
ATOM     16  C   UNL     1      52.711  56.272  20.873  1.00  0.00     0.004 C 
ENDBRANCH  14  15
ENDBRANCH  13  14
ENDBRANCH  12  13
ENDBRANCH  11  12
ENDBRANCH  10  11
ENDBRANCH   1  10
TORSDOF 12
ENDMDL
MODEL 6
REMARK VINA RESULT:    -5.104      1.224      3.605
REMARK INTER + INTRA:         -10.078
REMARK INTER:                  -8.743
REMARK INTRA:                  -1.335
REMARK UNBOUND:                -1.394
REMARK SMILES CCCCCCCCCCCCCC(=O)[O-]
REMARK SMILES IDX 8 1 9 2 10 3 11 4 12 5 13 6 14 7 15 8 16 9 7 10 6 11 5 12
REMARK SMILES IDX 4 13 3 14 2 15 1 16
REMARK H PARENT
REMARK Flexibility Score: inf
ROOT
ATOM      1  C   UNL     1      47.638  53.315  25.869  1.00  0.00     0.000 C 
ENDROOT
BRANCH   1   2
ATOM      2  C   UNL     1      49.131  52.955  25.870  1.00  0.00     0.000 C 
BRANCH   2   3
ATOM      3  C   UNL     1      49.914  53.657  24.748  1.00  0.00     0.000 C 
BRANCH   3   4
ATOM      4  C   UNL     1      50.396  52.677  23.663  1.00  0.00     0.000 C 
BRANCH   4   5
ATOM      5  C   UNL     1      50.480  53.332  22.274  1.00  0.00     0.006 C 
BRANCH   5   6
ATOM      6  C   UNL     1      51.851  53.962  21.997  1.00  0.00     0.053 C 
BRANCH   6   7
ATOM      7  C   UNL     1      52.936  52.947  22.174  1.00  0.00     0.041 C 
ATOM      8  O   UNL     1      53.075  52.016  21.337  1.00  0.00    -0.550 OA
ATOM      9  O   UNL     1      53.824  53.056  23.237  1.00  0.00    -0.550 OA
ENDBRANCH   6   7
ENDBRANCH   5   6
ENDBRANCH   4   5
ENDBRANCH   3   4
ENDBRANCH   2   3
ENDBRANCH   1   2
BRANCH   1  10
ATOM     10  C   UNL     1      46.778  52.082  25.555  1.00  0.00     0.000 C 
BRANCH  10  11
ATOM     11  C   UNL     1      46.434  51.958  24.060  1.00  0.00    -0.000 C 
BRANCH  11  12
ATOM     12  C   UNL     1      47.219  50.870  23.298  1.00  0.00    -0.000 C 
BRANCH  12  13
ATOM     13  C   UNL     1      48.001  49.885  24.189  1.00  0.00    -0.000 C 
BRANCH  13  14
ATOM     14  C   UNL     1      49.126  49.111  23.474  1.00  0.00    -0.000 C 
BRANCH  14  15
ATOM     15  C   UNL     1      49.538  47.794  24.155  1.00  0.00    -0.003 C 
ATOM     16  C   UNL     1      51.033  47.501  24.029  1.00  0.00     0.004 C 
ENDBRANCH  14  15
ENDBRANCH  13  14
ENDBRANCH  12  13
ENDBRANCH  11  12
ENDBRANCH  10  11
ENDBRANCH   1  10
TORSDOF 12
ENDMDL
MODEL 7
REMARK VINA RESULT:    -5.085      2.341      5.268
REMARK INTER + INTRA:         -10.046
REMARK INTER:                  -8.957
REMARK INTRA:                  -1.089
REMARK UNBOUND:                -1.394
REMARK SMILES CCCCCCCCCCCCCC(=O)[O-]
REMARK SMILES IDX 8 1 9 2 10 3 11 4 12 5 13 6 14 7 15 8 16 9 7 10 6 11 5 12
REMARK SMILES IDX 4 13 3 14 2 15 1 16
REMARK H PARENT
REMARK Flexibility Score: inf
ROOT
ATOM      1  C   UNL     1      50.167  49.698  21.981  1.00  0.00     0.000 C 
ENDROOT
BRANCH   1   2
ATOM      2  C   UNL     1      49.830  50.250  23.375  1.00  0.00     0.000 C 
BRANCH   2   3
ATOM      3  C   UNL     1      48.364  50.010  23.771  1.00  0.00     0.000 C 
BRANCH   3   4
ATOM      4  C   UNL     1      47.395  50.973  23.063  1.00  0.00     0.000 C 
BRANCH   4   5
ATOM      5  C   UNL     1      46.251  51.437  23.979  1.00  0.00     0.006 C 
BRANCH   5   6
ATOM      6  C   UNL     1      46.665  51.507  25.455  1.00  0.00     0.053 C 
BRANCH   6   7
ATOM      7  C   UNL     1      47.197  52.866  25.783  1.00  0.00     0.041 C 
ATOM      8  O   UNL     1      46.405  53.823  25.990  1.00  0.00    -0.550 OA
ATOM      9  O   UNL     1      48.566  53.065  25.909  1.00  0.00    -0.550 OA
ENDBRANCH   6   7
ENDBRANCH   5   6
ENDBRANCH   4   5
ENDBRANCH   3   4
ENDBRANCH   2   3
ENDBRANCH   1   2
BRANCH   1  10
ATOM     10  C   UNL     1      50.440  50.840  20.992  1.00  0.00     0.000 C 
BRANCH  10  11
ATOM     11  C   UNL     1      51.863  51.414  21.118  1.00  0.00    -0.000 C 
BRANCH  11  12
ATOM     12  C   UNL     1      51.950  52.953  21.095  1.00  0.00    -0.000 C 
BRANCH  12  13
ATOM     13  C   UNL     1      51.039  53.673  22.109  1.00  0.00    -0.000 C 
BRANCH  13  14
ATOM     14  C   UNL     1      51.449  53.508  23.586  1.00  0.00    -0.000 C 
BRANCH  14  15
ATOM     15  C   UNL     1      52.781  54.178  23.966  1.00  0.00    -0.003 C 
ATOM     16  C   UNL     1      53.986  53.258  23.776  1.00  0.00     0.004 C 
ENDBRANCH  14  15
ENDBRANCH  13  14
ENDBRANCH  12  13
ENDBRANCH  11  12
ENDBRANCH  10  11
ENDBRANCH   1  10
TORSDOF 12
ENDMDL
MODEL 8
REMARK VINA RESULT:    -4.997      2.403      5.592
REMARK INTER + INTRA:          -9.896
REMARK INTER:                  -8.342
REMARK INTRA:                  -1.554
REMARK UNBOUND:                -1.394
REMARK SMILES CCCCCCCCCCCCCC(=O)[O-]
REMARK SMILES IDX 8 1 9 2 10 3 11 4 12 5 13 6 14 7 15 8 16 9 7 10 6 11 5 12
REMARK SMILES IDX 4 13 3 14 2 15 1 16
REMARK H PARENT
REMARK Flexibility Score: inf
ROOT
ATOM      1  C   UNL     1      48.843  52.927  26.205  1.00  0.00     0.000 C 
ENDROOT
BRANCH   1   2
ATOM      2  C   UNL     1      47.348  53.269  26.106  1.00  0.00     0.000 C 
BRANCH   2   3
ATOM      3  C   UNL     1      46.514  52.127  25.503  1.00  0.00     0.000 C 
BRANCH   3   4
ATOM      4  C   UNL     1      46.430  52.202  23.968  1.00  0.00     0.000 C 
BRANCH   4   5
ATOM      5  C   UNL     1      47.054  50.976  23.283  1.00  0.00     0.006 C 
BRANCH   5   6
ATOM      6  C   UNL     1      47.659  49.982  24.283  1.00  0.00     0.053 C 
BRANCH   6   7
ATOM      7  C   UNL     1      48.764  49.204  23.641  1.00  0.00     0.041 C 
ATOM      8  O   UNL     1      49.192  48.149  24.179  1.00  0.00    -0.550 OA
ATOM      9  O   UNL     1      49.288  49.617  22.423  1.00  0.00    -0.550 OA
ENDBRANCH   6   7
ENDBRANCH   5   6
ENDBRANCH   4   5
ENDBRANCH   3   4
ENDBRANCH   2   3
ENDBRANCH   1   2
BRANCH   1  10
ATOM     10  C   UNL     1      49.642  53.644  25.108  1.00  0.00     0.000 C 
BRANCH  10  11
ATOM     11  C   UNL     1      50.185  52.680  24.037  1.00  0.00    -0.000 C 
BRANCH  11  12
ATOM     12  C   UNL     1      50.054  53.181  22.583  1.00  0.00    -0.000 C 
BRANCH  12  13
ATOM     13  C   UNL     1      51.180  52.726  21.633  1.00  0.00    -0.000 C 
BRANCH  13  14
ATOM     14  C   UNL     1      52.242  53.798  21.321  1.00  0.00    -0.000 C 
BRANCH  14  15
ATOM     15  C   UNL     1      52.899  54.437  22.557  1.00  0.00    -0.003 C 
ATOM     16  C   UNL     1      53.768  53.456  23.343  1.00  0.00     0.004 C 
ENDBRANCH  14  15
ENDBRANCH  13  14
ENDBRANCH  12  13
ENDBRANCH  11  12
ENDBRANCH  10  11
ENDBRANCH   1  10
TORSDOF 12
ENDMDL
MODEL 9
REMARK VINA RESULT:    -4.988      2.945      6.141
REMARK INTER + INTRA:          -9.881
REMARK INTER:                  -8.517
REMARK INTRA:                  -1.364
REMARK UNBOUND:                -1.394
REMARK SMILES CCCCCCCCCCCCCC(=O)[O-]
REMARK SMILES IDX 8 1 9 2 10 3 11 4 12 5 13 6 14 7 15 8 16 9 7 10 6 11 5 12
REMARK SMILES IDX 4 13 3 14 2 15 1 16
REMARK H PARENT
REMARK Flexibility Score: inf
ROOT
ATOM      1  C   UNL     1      53.371  53.802  23.389  1.00  0.00     0.000 C 
ENDROOT
BRANCH   1   2
ATOM      2  C   UNL     1      52.334  53.115  24.291  1.00  0.00     0.000 C 
BRANCH   2   3
ATOM      3  C   UNL     1      51.108  54.000  24.570  1.00  0.00     0.000 C 
BRANCH   3   4
ATOM      4  C   UNL     1      49.779  53.257  24.342  1.00  0.00     0.000 C 
BRANCH   4   5
ATOM      5  C   UNL     1      49.024  52.987  25.653  1.00  0.00     0.006 C 
BRANCH   5   6
ATOM      6  C   UNL     1      47.765  52.133  25.447  1.00  0.00     0.053 C 
BRANCH   6   7
ATOM      7  C   UNL     1      46.573  53.009  25.219  1.00  0.00     0.041 C 
ATOM      8  O   UNL     1      45.875  52.871  24.180  1.00  0.00    -0.550 OA
ATOM      9  O   UNL     1      46.205  53.945  26.177  1.00  0.00    -0.550 OA
ENDBRANCH   6   7
ENDBRANCH   5   6
ENDBRANCH   4   5
ENDBRANCH   3   4
ENDBRANCH   2   3
ENDBRANCH   1   2
BRANCH   1  10
ATOM     10  C   UNL     1      52.685  54.719  22.366  1.00  0.00     0.000 C 
BRANCH  10  11
ATOM     11  C   UNL     1      51.864  53.940  21.322  1.00  0.00    -0.000 C 
BRANCH  11  12
ATOM     12  C   UNL     1      52.621  52.796  20.618  1.00  0.00    -0.000 C 
BRANCH  12  13
ATOM     13  C   UNL     1      52.235  51.377  21.081  1.00  0.00    -0.000 C 
BRANCH  13  14
ATOM     14  C   UNL     1      50.743  51.182  21.413  1.00  0.00    -0.000 C 
BRANCH  14  15
ATOM     15  C   UNL     1      50.449  50.083  22.450  1.00  0.00    -0.003 C 
ATOM     16  C   UNL     1      48.960  49.946  22.765  1.00  0.00     0.004 C 
ENDBRANCH  14  15
ENDBRANCH  13  14
ENDBRANCH  12  13
ENDBRANCH  11  12
ENDBRANCH  10  11
ENDBRANCH   1  10
TORSDOF 12
ENDMDL
