MODEL 1
REMARK VINA RESULT:    -6.995      0.000      0.000
REMARK INTER + INTRA:         -12.019
REMARK INTER:                 -10.880
REMARK INTRA:                  -1.138
REMARK UNBOUND:                -1.138
REMARK SMILES COc1cc(CNC(=O)CCCCC=CC(C)C)ccc1O
REMARK SMILES IDX 11 1 12 2 13 3 14 4 15 5 16 6 17 7 18 8 10 9 8 10 9 11 7 12
REMARK SMILES IDX 6 14 5 15 4 16 19 17 3 18 20 19 21 20 2 21 1 22 22 23
REMARK H PARENT 7 13 22 24
REMARK Flexibility Score: inf
ROOT
ATOM      1  C   UNL     1      -8.417   7.588 -12.407  1.00  0.00     0.010 C 
ENDROOT
BRANCH   1   2
ATOM      2  C   UNL     1      -9.011   8.570 -13.432  1.00  0.00     0.005 C 
BRANCH   2   3
ATOM      3  C   UNL     1      -8.613   8.241 -14.878  1.00  0.00     0.027 C 
BRANCH   3   4
ATOM      4  C   UNL     1      -7.327   7.458 -14.900  1.00  0.00    -0.031 C 
ATOM      5  C   UNL     1      -6.143   7.860 -15.408  1.00  0.00    -0.028 C 
BRANCH   5   6
ATOM      6  C   UNL     1      -5.783   9.216 -15.991  1.00  0.00     0.005 C 
ATOM      7  C   UNL     1      -5.821   9.226 -17.524  1.00  0.00     0.012 C 
ATOM      8  C   UNL     1      -4.480   9.802 -15.431  1.00  0.00     0.012 C 
ENDBRANCH   5   6
ENDBRANCH   3   4
ENDBRANCH   2   3
ENDBRANCH   1   2
BRANCH   1   9
ATOM      9  C   UNL     1      -7.309   8.184 -11.522  1.00  0.00     0.100 C 
BRANCH   9  10
ATOM     10  C   UNL     1      -7.585   9.615 -11.154  1.00  0.00     0.220 C 
ATOM     11  O   UNL     1      -7.020  10.539 -11.797  1.00  0.00    -0.275 OA
ATOM     12  N   UNL     1      -8.496   9.923 -10.089  1.00  0.00    -0.352 N 
ATOM     13  H   UNL     1      -8.885   9.143  -9.514  1.00  0.00     0.163 HD
BRANCH  12  14
ATOM     14  C   UNL     1      -9.099  11.245  -9.935  1.00  0.00     0.151 C 
BRANCH  14  15
ATOM     15  C   UNL     1     -10.379  11.309 -10.720  1.00  0.00    -0.025 A 
ATOM     16  C   UNL     1     -11.607  11.049 -10.091  1.00  0.00     0.056 A 
ATOM     17  C   UNL     1     -10.364  11.712 -12.063  1.00  0.00     0.009 A 
ATOM     18  C   UNL     1     -12.817  11.186 -10.800  1.00  0.00     0.160 A 
ATOM     19  C   UNL     1     -11.558  11.830 -12.776  1.00  0.00     0.050 A 
ATOM     20  C   UNL     1     -12.783  11.570 -12.149  1.00  0.00     0.157 A 
BRANCH  18  21
ATOM     21  O   UNL     1     -14.064  10.958 -10.201  1.00  0.00    -0.493 OA
ATOM     22  C   UNL     1     -14.267  10.809  -8.799  1.00  0.00     0.278 C 
ENDBRANCH  18  21
BRANCH  20  23
ATOM     23  O   UNL     1     -13.977  11.702 -12.857  1.00  0.00    -0.504 OA
ATOM     24  H   UNL     1     -13.984  11.871 -13.856  1.00  0.00     0.293 HD
ENDBRANCH  20  23
ENDBRANCH  14  15
ENDBRANCH  12  14
ENDBRANCH   9  10
ENDBRANCH   1   9
TORSDOF 10
ENDMDL
MODEL 2
REMARK VINA RESULT:    -6.936      1.372      2.273
REMARK INTER + INTRA:         -11.927
REMARK INTER:                 -10.924
REMARK INTRA:                  -1.002
REMARK UNBOUND:                -1.138
REMARK SMILES COc1cc(CNC(=O)CCCCC=CC(C)C)ccc1O
REMARK SMILES IDX 11 1 12 2 13 3 14 4 15 5 16 6 17 7 18 8 10 9 8 10 9 11 7 12
REMARK SMILES IDX 6 14 5 15 4 16 19 17 3 18 20 19 21 20 2 21 1 22 22 23
REMARK H PARENT 7 13 22 24
REMARK Flexibility Score: inf
ROOT
ATOM      1  C   UNL     1      -5.923   9.843 -12.409  1.00  0.00     0.010 C 
ENDROOT
BRANCH   1   2
ATOM      2  C   UNL     1      -4.450   9.412 -12.523  1.00  0.00     0.005 C 
BRANCH   2   3
ATOM      3  C   UNL     1      -3.888   9.567 -13.943  1.00  0.00     0.027 C 
BRANCH   3   4
ATOM      4  C   UNL     1      -4.672  10.601 -14.706  1.00  0.00    -0.031 C 
ATOM      5  C   UNL     1      -5.461  10.390 -15.781  1.00  0.00    -0.028 C 
BRANCH   5   6
ATOM      6  C   UNL     1      -5.829   9.066 -16.429  1.00  0.00     0.005 C 
ATOM      7  C   UNL     1      -6.180   9.217 -17.915  1.00  0.00     0.012 C 
ATOM      8  C   UNL     1      -6.888   8.272 -15.653  1.00  0.00     0.012 C 
ENDBRANCH   5   6
ENDBRANCH   3   4
ENDBRANCH   2   3
ENDBRANCH   1   2
BRANCH   1   9
ATOM      9  C   UNL     1      -6.884   8.720 -11.980  1.00  0.00     0.100 C 
BRANCH   9  10
ATOM     10  C   UNL     1      -7.981   9.224 -11.086  1.00  0.00     0.220 C 
ATOM     11  O   UNL     1      -8.705   8.398 -10.469  1.00  0.00    -0.275 OA
ATOM     12  N   UNL     1      -8.192  10.634 -10.926  1.00  0.00    -0.352 N 
ATOM     13  H   UNL     1      -7.639  11.299 -11.513  1.00  0.00     0.163 HD
BRANCH  12  14
ATOM     14  C   UNL     1      -8.954  11.189  -9.811  1.00  0.00     0.151 C 
BRANCH  14  15
ATOM     15  C   UNL     1     -10.352  11.506 -10.265  1.00  0.00    -0.025 A 
ATOM     16  C   UNL     1     -11.453  11.133  -9.477  1.00  0.00     0.056 A 
ATOM     17  C   UNL     1     -10.562  12.253 -11.433  1.00  0.00     0.009 A 
ATOM     18  C   UNL     1     -12.760  11.497  -9.856  1.00  0.00     0.160 A 
ATOM     19  C   UNL     1     -11.857  12.599 -11.823  1.00  0.00     0.050 A 
ATOM     20  C   UNL     1     -12.955  12.225 -11.038  1.00  0.00     0.157 A 
BRANCH  18  21
ATOM     21  O   UNL     1     -13.882  11.162  -9.083  1.00  0.00    -0.493 OA
ATOM     22  C   UNL     1     -14.576   9.922  -9.169  1.00  0.00     0.278 C 
ENDBRANCH  18  21
BRANCH  20  23
ATOM     23  O   UNL     1     -14.246  12.584 -11.421  1.00  0.00    -0.504 OA
ATOM     24  H   UNL     1     -15.022  12.544 -10.771  1.00  0.00     0.293 HD
ENDBRANCH  20  23
ENDBRANCH  14  15
ENDBRANCH  12  14
ENDBRANCH   9  10
ENDBRANCH   1   9
TORSDOF 10
ENDMDL
MODEL 3
REMARK VINA RESULT:    -6.876      1.218      2.669
REMARK INTER + INTRA:         -11.834
REMARK INTER:                 -10.215
REMARK INTRA:                  -1.618
REMARK UNBOUND:                -1.138
REMARK SMILES COc1cc(CNC(=O)CCCCC=CC(C)C)ccc1O
REMARK SMILES IDX 11 1 12 2 13 3 14 4 15 5 16 6 17 7 18 8 10 9 8 10 9 11 7 12
REMARK SMILES IDX 6 14 5 15 4 16 19 17 3 18 20 19 21 20 2 21 1 22 22 23
REMARK H PARENT 7 13 22 24
REMARK Flexibility Score: inf
ROOT
ATOM      1  C   UNL     1      -5.056   9.268 -13.898  1.00  0.00     0.010 C 
ENDROOT
BRANCH   1   2
ATOM      2  C   UNL     1      -5.466   9.808 -15.279  1.00  0.00     0.005 C 
BRANCH   2   3
ATOM      3  C   UNL     1      -6.565   8.970 -15.948  1.00  0.00     0.027 C 
BRANCH   3   4
ATOM      4  C   UNL     1      -6.674   7.624 -15.283  1.00  0.00    -0.031 C 
ATOM      5  C   UNL     1      -7.689   7.182 -14.510  1.00  0.00    -0.028 C 
BRANCH   5   6
ATOM      6  C   UNL     1      -9.002   7.878 -14.196  1.00  0.00     0.005 C 
ATOM      7  C   UNL     1      -9.656   7.349 -12.914  1.00  0.00     0.012 C 
ATOM      8  C   UNL     1      -9.977   7.920 -15.380  1.00  0.00     0.012 C 
ENDBRANCH   5   6
ENDBRANCH   3   4
ENDBRANCH   2   3
ENDBRANCH   1   2
BRANCH   1   9
ATOM      9  C   UNL     1      -5.400  10.199 -12.722  1.00  0.00     0.100 C 
BRANCH   9  10
ATOM     10  C   UNL     1      -6.605   9.726 -11.959  1.00  0.00     0.220 C 
ATOM     11  O   UNL     1      -6.636   8.544 -11.522  1.00  0.00    -0.275 OA
ATOM     12  N   UNL     1      -7.704  10.617 -11.720  1.00  0.00    -0.352 N 
ATOM     13  H   UNL     1      -7.695  11.563 -12.165  1.00  0.00     0.163 HD
BRANCH  12  14
ATOM     14  C   UNL     1      -8.704  10.365 -10.686  1.00  0.00     0.151 C 
BRANCH  14  15
ATOM     15  C   UNL     1     -10.076  10.629 -11.239  1.00  0.00    -0.025 A 
ATOM     16  C   UNL     1     -11.216  10.226 -10.524  1.00  0.00     0.056 A 
ATOM     17  C   UNL     1     -10.230  11.355 -12.428  1.00  0.00     0.009 A 
ATOM     18  C   UNL     1     -12.505  10.541 -10.996  1.00  0.00     0.160 A 
ATOM     19  C   UNL     1     -11.506  11.652 -12.912  1.00  0.00     0.050 A 
ATOM     20  C   UNL     1     -12.643  11.249 -12.199  1.00  0.00     0.157 A 
BRANCH  18  21
ATOM     21  O   UNL     1     -13.666  10.176 -10.298  1.00  0.00    -0.493 OA
ATOM     22  C   UNL     1     -14.189  10.887  -9.181  1.00  0.00     0.278 C 
ENDBRANCH  18  21
BRANCH  20  23
ATOM     23  O   UNL     1     -13.916  11.559 -12.674  1.00  0.00    -0.504 OA
ATOM     24  H   UNL     1     -14.427  10.923 -13.274  1.00  0.00     0.293 HD
ENDBRANCH  20  23
ENDBRANCH  14  15
ENDBRANCH  12  14
ENDBRANCH   9  10
ENDBRANCH   1   9
TORSDOF 10
ENDMDL
MODEL 4
REMARK VINA RESULT:    -6.776      1.025      1.638
REMARK INTER + INTRA:         -11.678
REMARK INTER:                 -10.593
REMARK INTRA:                  -1.085
REMARK UNBOUND:                -1.138
REMARK SMILES COc1cc(CNC(=O)CCCCC=CC(C)C)ccc1O
REMARK SMILES IDX 11 1 12 2 13 3 14 4 15 5 16 6 17 7 18 8 10 9 8 10 9 11 7 12
REMARK SMILES IDX 6 14 5 15 4 16 19 17 3 18 20 19 21 20 2 21 1 22 22 23
REMARK H PARENT 7 13 22 24
REMARK Flexibility Score: inf
ROOT
ATOM      1  C   UNL     1      -8.516   8.384 -13.849  1.00  0.00     0.010 C 
ENDROOT
BRANCH   1   2
ATOM      2  C   UNL     1      -7.919   8.314 -15.266  1.00  0.00     0.005 C 
BRANCH   2   3
ATOM      3  C   UNL     1      -6.449   7.874 -15.276  1.00  0.00     0.027 C 
BRANCH   3   4
ATOM      4  C   UNL     1      -5.751   8.411 -16.498  1.00  0.00    -0.031 C 
ATOM      5  C   UNL     1      -5.105   9.591 -16.610  1.00  0.00    -0.028 C 
BRANCH   5   6
ATOM      6  C   UNL     1      -4.836  10.620 -15.525  1.00  0.00     0.005 C 
ATOM      7  C   UNL     1      -4.100  10.025 -14.319  1.00  0.00     0.012 C 
ATOM      8  C   UNL     1      -6.076  11.426 -15.118  1.00  0.00     0.012 C 
ENDBRANCH   5   6
ENDBRANCH   3   4
ENDBRANCH   2   3
ENDBRANCH   1   2
BRANCH   1   9
ATOM      9  C   UNL     1      -7.487   8.227 -12.716  1.00  0.00     0.100 C 
BRANCH   9  10
ATOM     10  C   UNL     1      -7.479   9.410 -11.790  1.00  0.00     0.220 C 
ATOM     11  O   UNL     1      -6.631  10.327 -11.964  1.00  0.00    -0.275 OA
ATOM     12  N   UNL     1      -8.436   9.501 -10.725  1.00  0.00    -0.352 N 
ATOM     13  H   UNL     1      -9.071   8.691 -10.545  1.00  0.00     0.163 HD
BRANCH  12  14
ATOM     14  C   UNL     1      -8.736  10.760 -10.049  1.00  0.00     0.151 C 
BRANCH  14  15
ATOM     15  C   UNL     1     -10.111  11.226 -10.440  1.00  0.00    -0.025 A 
ATOM     16  C   UNL     1     -11.164  11.178  -9.512  1.00  0.00     0.056 A 
ATOM     17  C   UNL     1     -10.332  11.791 -11.704  1.00  0.00     0.009 A 
ATOM     18  C   UNL     1     -12.434  11.687  -9.845  1.00  0.00     0.160 A 
ATOM     19  C   UNL     1     -11.594  12.278 -12.046  1.00  0.00     0.050 A 
ATOM     20  C   UNL     1     -12.645  12.229 -11.121  1.00  0.00     0.157 A 
BRANCH  18  21
ATOM     21  O   UNL     1     -13.504  11.679  -8.937  1.00  0.00    -0.493 OA
ATOM     22  C   UNL     1     -14.328  10.547  -8.676  1.00  0.00     0.278 C 
ENDBRANCH  18  21
BRANCH  20  23
ATOM     23  O   UNL     1     -13.901  12.730 -11.458  1.00  0.00    -0.504 OA
ATOM     24  H   UNL     1     -14.014  13.651 -11.864  1.00  0.00     0.293 HD
ENDBRANCH  20  23
ENDBRANCH  14  15
ENDBRANCH  12  14
ENDBRANCH   9  10
ENDBRANCH   1   9
TORSDOF 10
ENDMDL
MODEL 5
REMARK VINA RESULT:    -6.771      2.171      3.305
REMARK INTER + INTRA:         -11.670
REMARK INTER:                 -10.782
REMARK INTRA:                  -0.887
REMARK UNBOUND:                -1.138
REMARK SMILES COc1cc(CNC(=O)CCCCC=CC(C)C)ccc1O
REMARK SMILES IDX 11 1 12 2 13 3 14 4 15 5 16 6 17 7 18 8 10 9 8 10 9 11 7 12
REMARK SMILES IDX 6 14 5 15 4 16 19 17 3 18 20 19 21 20 2 21 1 22 22 23
REMARK H PARENT 7 13 22 24
REMARK Flexibility Score: inf
ROOT
ATOM      1  C   UNL     1      -7.248   8.304 -15.452  1.00  0.00     0.010 C 
ENDROOT
BRANCH   1   2
ATOM      2  C   UNL     1      -5.742   8.025 -15.599  1.00  0.00     0.005 C 
BRANCH   2   3
ATOM      3  C   UNL     1      -4.936   9.273 -15.987  1.00  0.00     0.027 C 
BRANCH   3   4
ATOM      4  C   UNL     1      -3.945   9.612 -14.905  1.00  0.00    -0.031 C 
ATOM      5  C   UNL     1      -4.145  10.431 -13.850  1.00  0.00    -0.028 C 
BRANCH   5   6
ATOM      6  C   UNL     1      -5.427  11.134 -13.437  1.00  0.00     0.005 C 
ATOM      7  C   UNL     1      -6.350  10.233 -12.607  1.00  0.00     0.012 C 
ATOM      8  C   UNL     1      -6.160  11.815 -14.600  1.00  0.00     0.012 C 
ENDBRANCH   5   6
ENDBRANCH   3   4
ENDBRANCH   2   3
ENDBRANCH   1   2
BRANCH   1   9
ATOM      9  C   UNL     1      -7.994   7.310 -14.544  1.00  0.00     0.100 C 
BRANCH   9  10
ATOM     10  C   UNL     1      -9.435   7.691 -14.350  1.00  0.00     0.220 C 
ATOM     11  O   UNL     1     -10.229   7.625 -15.326  1.00  0.00    -0.275 OA
ATOM     12  N   UNL     1      -9.903   8.113 -13.061  1.00  0.00    -0.352 N 
ATOM     13  H   UNL     1      -9.211   8.243 -12.289  1.00  0.00     0.163 HD
BRANCH  12  14
ATOM     14  C   UNL     1     -11.321   8.122 -12.710  1.00  0.00     0.151 C 
BRANCH  14  15
ATOM     15  C   UNL     1     -11.786   9.540 -12.533  1.00  0.00    -0.025 A 
ATOM     16  C   UNL     1     -13.048   9.805 -11.976  1.00  0.00     0.056 A 
ATOM     17  C   UNL     1     -10.931  10.607 -12.840  1.00  0.00     0.009 A 
ATOM     18  C   UNL     1     -13.458  11.131 -11.733  1.00  0.00     0.160 A 
ATOM     19  C   UNL     1     -11.340  11.923 -12.620  1.00  0.00     0.050 A 
ATOM     20  C   UNL     1     -12.599  12.188 -12.066  1.00  0.00     0.157 A 
BRANCH  18  21
ATOM     21  O   UNL     1     -14.701  11.435 -11.157  1.00  0.00    -0.493 OA
ATOM     22  C   UNL     1     -15.411  10.572 -10.275  1.00  0.00     0.278 C 
ENDBRANCH  18  21
BRANCH  20  23
ATOM     23  O   UNL     1     -13.001  13.502 -11.833  1.00  0.00    -0.504 OA
ATOM     24  H   UNL     1     -12.959  13.913 -10.907  1.00  0.00     0.293 HD
ENDBRANCH  20  23
ENDBRANCH  14  15
ENDBRANCH  12  14
ENDBRANCH   9  10
ENDBRANCH   1   9
TORSDOF 10
ENDMDL
MODEL 6
REMARK VINA RESULT:    -6.745      1.789      2.674
REMARK INTER + INTRA:         -11.629
REMARK INTER:                 -10.605
REMARK INTRA:                  -1.024
REMARK UNBOUND:                -1.138
REMARK SMILES COc1cc(CNC(=O)CCCCC=CC(C)C)ccc1O
REMARK SMILES IDX 11 1 12 2 13 3 14 4 15 5 16 6 17 7 18 8 10 9 8 10 9 11 7 12
REMARK SMILES IDX 6 14 5 15 4 16 19 17 3 18 20 19 21 20 2 21 1 22 22 23
REMARK H PARENT 7 13 22 24
REMARK Flexibility Score: inf
ROOT
ATOM      1  C   UNL     1      -5.998   9.979 -12.348  1.00  0.00     0.010 C 
ENDROOT
BRANCH   1   2
ATOM      2  C   UNL     1      -4.600   9.348 -12.474  1.00  0.00     0.005 C 
BRANCH   2   3
ATOM      3  C   UNL     1      -3.875   9.751 -13.766  1.00  0.00     0.027 C 
BRANCH   3   4
ATOM      4  C   UNL     1      -4.737  10.677 -14.582  1.00  0.00    -0.031 C 
ATOM      5  C   UNL     1      -5.372  10.386 -15.737  1.00  0.00    -0.028 C 
BRANCH   5   6
ATOM      6  C   UNL     1      -5.457   9.046 -16.450  1.00  0.00     0.005 C 
ATOM      7  C   UNL     1      -6.047   9.168 -17.860  1.00  0.00     0.012 C 
ATOM      8  C   UNL     1      -6.136   7.948 -15.621  1.00  0.00     0.012 C 
ENDBRANCH   5   6
ENDBRANCH   3   4
ENDBRANCH   2   3
ENDBRANCH   1   2
BRANCH   1   9
ATOM      9  C   UNL     1      -7.142   8.964 -12.180  1.00  0.00     0.100 C 
BRANCH   9  10
ATOM     10  C   UNL     1      -8.399   9.408 -12.874  1.00  0.00     0.220 C 
ATOM     11  O   UNL     1      -8.315  10.043 -13.960  1.00  0.00    -0.275 OA
ATOM     12  N   UNL     1      -9.682   9.098 -12.312  1.00  0.00    -0.352 N 
ATOM     13  H   UNL     1      -9.727   8.648 -11.370  1.00  0.00     0.163 HD
BRANCH  12  14
ATOM     14  C   UNL     1     -10.912   9.148 -13.098  1.00  0.00     0.151 C 
BRANCH  14  15
ATOM     15  C   UNL     1     -11.815  10.218 -12.552  1.00  0.00    -0.025 A 
ATOM     16  C   UNL     1     -13.039   9.873 -11.955  1.00  0.00     0.056 A 
ATOM     17  C   UNL     1     -11.404  11.558 -12.555  1.00  0.00     0.009 A 
ATOM     18  C   UNL     1     -13.853  10.862 -11.369  1.00  0.00     0.160 A 
ATOM     19  C   UNL     1     -12.216  12.545 -11.993  1.00  0.00     0.050 A 
ATOM     20  C   UNL     1     -13.437  12.201 -11.400  1.00  0.00     0.157 A 
BRANCH  18  21
ATOM     21  O   UNL     1     -15.070  10.554 -10.743  1.00  0.00    -0.493 OA
ATOM     22  C   UNL     1     -15.307   9.373  -9.984  1.00  0.00     0.278 C 
ENDBRANCH  18  21
BRANCH  20  23
ATOM     23  O   UNL     1     -14.241  13.185 -10.826  1.00  0.00    -0.504 OA
ATOM     24  H   UNL     1     -14.935  13.686 -11.368  1.00  0.00     0.293 HD
ENDBRANCH  20  23
ENDBRANCH  14  15
ENDBRANCH  12  14
ENDBRANCH   9  10
ENDBRANCH   1   9
TORSDOF 10
ENDMDL
MODEL 7
REMARK VINA RESULT:    -6.732      1.700      2.393
REMARK INTER + INTRA:         -11.610
REMARK INTER:                 -10.690
REMARK INTRA:                  -0.920
REMARK UNBOUND:                -1.138
REMARK SMILES COc1cc(CNC(=O)CCCCC=CC(C)C)ccc1O
REMARK SMILES IDX 11 1 12 2 13 3 14 4 15 5 16 6 17 7 18 8 10 9 8 10 9 11 7 12
REMARK SMILES IDX 6 14 5 15 4 16 19 17 3 18 20 19 21 20 2 21 1 22 22 23
REMARK H PARENT 7 13 22 24
REMARK Flexibility Score: inf
ROOT
ATOM      1  C   UNL     1      -7.867   7.301 -14.619  1.00  0.00     0.010 C 
ENDROOT
BRANCH   1   2
ATOM      2  C   UNL     1      -6.434   7.592 -15.099  1.00  0.00     0.005 C 
BRANCH   2   3
ATOM      3  C   UNL     1      -5.867   8.902 -14.534  1.00  0.00     0.027 C 
BRANCH   3   4
ATOM      4  C   UNL     1      -4.684   9.353 -15.348  1.00  0.00    -0.031 C 
ATOM      5  C   UNL     1      -4.711   9.911 -16.577  1.00  0.00    -0.028 C 
BRANCH   5   6
ATOM      6  C   UNL     1      -5.924  10.309 -17.401  1.00  0.00     0.005 C 
ATOM      7  C   UNL     1      -6.457   9.154 -18.258  1.00  0.00     0.012 C 
ATOM      8  C   UNL     1      -5.726  11.599 -18.208  1.00  0.00     0.012 C 
ENDBRANCH   5   6
ENDBRANCH   3   4
ENDBRANCH   2   3
ENDBRANCH   1   2
BRANCH   1   9
ATOM      9  C   UNL     1      -8.864   8.449 -14.856  1.00  0.00     0.100 C 
BRANCH   9  10
ATOM     10  C   UNL     1      -9.476   8.942 -13.576  1.00  0.00     0.220 C 
ATOM     11  O   UNL     1     -10.397   8.275 -13.033  1.00  0.00    -0.275 OA
ATOM     12  N   UNL     1      -9.006  10.155 -12.971  1.00  0.00    -0.352 N 
ATOM     13  H   UNL     1      -8.304  10.737 -13.483  1.00  0.00     0.163 HD
BRANCH  12  14
ATOM     14  C   UNL     1      -9.267  10.484 -11.573  1.00  0.00     0.151 C 
BRANCH  14  15
ATOM     15  C   UNL     1     -10.607  11.154 -11.455  1.00  0.00    -0.025 A 
ATOM     16  C   UNL     1     -11.408  10.940 -10.322  1.00  0.00     0.056 A 
ATOM     17  C   UNL     1     -11.028  12.065 -12.434  1.00  0.00     0.009 A 
ATOM     18  C   UNL     1     -12.628  11.627 -10.167  1.00  0.00     0.160 A 
ATOM     19  C   UNL     1     -12.246  12.733 -12.296  1.00  0.00     0.050 A 
ATOM     20  C   UNL     1     -13.046  12.519 -11.166  1.00  0.00     0.157 A 
BRANCH  18  21
ATOM     21  O   UNL     1     -13.444  11.457  -9.039  1.00  0.00    -0.493 OA
ATOM     22  C   UNL     1     -13.871  10.194  -8.539  1.00  0.00     0.278 C 
ENDBRANCH  18  21
BRANCH  20  23
ATOM     23  O   UNL     1     -14.255  13.197 -11.022  1.00  0.00    -0.504 OA
ATOM     24  H   UNL     1     -14.383  13.904 -10.307  1.00  0.00     0.293 HD
ENDBRANCH  20  23
ENDBRANCH  14  15
ENDBRANCH  12  14
ENDBRANCH   9  10
ENDBRANCH   1   9
TORSDOF 10
ENDMDL
MODEL 8
REMARK VINA RESULT:    -6.574      2.128      7.440
REMARK INTER + INTRA:         -11.363
REMARK INTER:                 -10.062
REMARK INTRA:                  -1.301
REMARK UNBOUND:                -1.138
REMARK SMILES COc1cc(CNC(=O)CCCCC=CC(C)C)ccc1O
REMARK SMILES IDX 11 1 12 2 13 3 14 4 15 5 16 6 17 7 18 8 10 9 8 10 9 11 7 12
REMARK SMILES IDX 6 14 5 15 4 16 19 17 3 18 20 19 21 20 2 21 1 22 22 23
REMARK H PARENT 7 13 22 24
REMARK Flexibility Score: inf
ROOT
ATOM      1  C   UNL     1     -13.257  11.690 -12.200  1.00  0.00     0.010 C 
ENDROOT
BRANCH   1   2
ATOM      2  C   UNL     1     -13.542  12.150 -10.759  1.00  0.00     0.005 C 
BRANCH   2   3
ATOM      3  C   UNL     1     -13.359  11.031  -9.725  1.00  0.00     0.027 C 
BRANCH   3   4
ATOM      4  C   UNL     1     -12.411  11.472  -8.641  1.00  0.00    -0.031 C 
ATOM      5  C   UNL     1     -11.112  11.129  -8.512  1.00  0.00    -0.028 C 
BRANCH   5   6
ATOM      6  C   UNL     1     -10.260  10.304  -9.461  1.00  0.00     0.005 C 
ATOM      7  C   UNL     1     -10.096   8.853  -8.993  1.00  0.00     0.012 C 
ATOM      8  C   UNL     1      -8.921  10.962  -9.819  1.00  0.00     0.012 C 
ENDBRANCH   5   6
ENDBRANCH   3   4
ENDBRANCH   2   3
ENDBRANCH   1   2
BRANCH   1   9
ATOM      9  C   UNL     1     -11.764  11.635 -12.567  1.00  0.00     0.100 C 
BRANCH   9  10
ATOM     10  C   UNL     1     -11.299  10.233 -12.843  1.00  0.00     0.220 C 
ATOM     11  O   UNL     1     -12.086   9.269 -12.639  1.00  0.00    -0.275 OA
ATOM     12  N   UNL     1      -9.977   9.996 -13.345  1.00  0.00    -0.352 N 
ATOM     13  H   UNL     1      -9.313  10.800 -13.424  1.00  0.00     0.163 HD
BRANCH  12  14
ATOM     14  C   UNL     1      -9.598   8.740 -13.988  1.00  0.00     0.151 C 
BRANCH  14  15
ATOM     15  C   UNL     1      -8.190   8.842 -14.502  1.00  0.00    -0.025 A 
ATOM     16  C   UNL     1      -7.512  10.071 -14.465  1.00  0.00     0.056 A 
ATOM     17  C   UNL     1      -7.513   7.695 -14.940  1.00  0.00     0.009 A 
ATOM     18  C   UNL     1      -6.165  10.158 -14.870  1.00  0.00     0.160 A 
ATOM     19  C   UNL     1      -6.185   7.779 -15.361  1.00  0.00     0.050 A 
ATOM     20  C   UNL     1      -5.509   9.005 -15.326  1.00  0.00     0.157 A 
BRANCH  18  21
ATOM     21  O   UNL     1      -5.447  11.363 -14.826  1.00  0.00    -0.493 OA
ATOM     22  C   UNL     1      -5.047  12.016 -13.626  1.00  0.00     0.278 C 
ENDBRANCH  18  21
BRANCH  20  23
ATOM     23  O   UNL     1      -4.178   9.085 -15.733  1.00  0.00    -0.504 OA
ATOM     24  H   UNL     1      -3.600   8.259 -15.819  1.00  0.00     0.293 HD
ENDBRANCH  20  23
ENDBRANCH  14  15
ENDBRANCH  12  14
ENDBRANCH   9  10
ENDBRANCH   1   9
TORSDOF 10
ENDMDL
MODEL 9
REMARK VINA RESULT:    -6.532      1.482      2.322
REMARK INTER + INTRA:         -11.298
REMARK INTER:                 -10.267
REMARK INTRA:                  -1.031
REMARK UNBOUND:                -1.138
REMARK SMILES COc1cc(CNC(=O)CCCCC=CC(C)C)ccc1O
REMARK SMILES IDX 11 1 12 2 13 3 14 4 15 5 16 6 17 7 18 8 10 9 8 10 9 11 7 12
REMARK SMILES IDX 6 14 5 15 4 16 19 17 3 18 20 19 21 20 2 21 1 22 22 23
REMARK H PARENT 7 13 22 24
REMARK Flexibility Score: inf
ROOT
ATOM      1  C   UNL     1      -8.553  10.248 -13.553  1.00  0.00     0.010 C 
ENDROOT
BRANCH   1   2
ATOM      2  C   UNL     1      -9.238   8.932 -13.960  1.00  0.00     0.005 C 
BRANCH   2   3
ATOM      3  C   UNL     1      -8.658   8.327 -15.246  1.00  0.00     0.027 C 
BRANCH   3   4
ATOM      4  C   UNL     1      -7.400   7.558 -14.940  1.00  0.00    -0.031 C 
ATOM      5  C   UNL     1      -6.142   7.882 -15.309  1.00  0.00    -0.028 C 
BRANCH   5   6
ATOM      6  C   UNL     1      -5.669   9.132 -16.032  1.00  0.00     0.005 C 
ATOM      7  C   UNL     1      -5.809   9.019 -17.555  1.00  0.00     0.012 C 
ATOM      8  C   UNL     1      -4.273   9.602 -15.602  1.00  0.00     0.012 C 
ENDBRANCH   5   6
ENDBRANCH   3   4
ENDBRANCH   2   3
ENDBRANCH   1   2
BRANCH   1   9
ATOM      9  C   UNL     1      -7.636  10.134 -12.322  1.00  0.00     0.100 C 
BRANCH   9  10
ATOM     10  C   UNL     1      -8.404  10.214 -11.034  1.00  0.00     0.220 C 
ATOM     11  O   UNL     1      -8.382   9.236 -10.239  1.00  0.00    -0.275 OA
ATOM     12  N   UNL     1      -9.145  11.398 -10.706  1.00  0.00    -0.352 N 
ATOM     13  H   UNL     1      -9.220  12.161 -11.417  1.00  0.00     0.163 HD
BRANCH  12  14
ATOM     14  C   UNL     1      -9.580  11.696  -9.344  1.00  0.00     0.151 C 
BRANCH  14  15
ATOM     15  C   UNL     1     -11.019  11.294  -9.177  1.00  0.00    -0.025 A 
ATOM     16  C   UNL     1     -11.976  11.681 -10.128  1.00  0.00     0.056 A 
ATOM     17  C   UNL     1     -11.398  10.457  -8.118  1.00  0.00     0.009 A 
ATOM     18  C   UNL     1     -13.310  11.241 -10.021  1.00  0.00     0.160 A 
ATOM     19  C   UNL     1     -12.723  10.034  -7.995  1.00  0.00     0.050 A 
ATOM     20  C   UNL     1     -13.679  10.421  -8.943  1.00  0.00     0.157 A 
BRANCH  18  21
ATOM     21  O   UNL     1     -14.290  11.587 -10.963  1.00  0.00    -0.493 OA
ATOM     22  C   UNL     1     -14.715  10.742 -12.027  1.00  0.00     0.278 C 
ENDBRANCH  18  21
BRANCH  20  23
ATOM     23  O   UNL     1     -14.998   9.986  -8.829  1.00  0.00    -0.504 OA
ATOM     24  H   UNL     1     -15.728  10.342  -9.435  1.00  0.00     0.293 HD
ENDBRANCH  20  23
ENDBRANCH  14  15
ENDBRANCH  12  14
ENDBRANCH   9  10
ENDBRANCH   1   9
TORSDOF 10
ENDMDL
