MODEL 1
REMARK VINA RESULT:    -3.899      0.000      0.000
REMARK INTER + INTRA:          -4.241
REMARK INTER:                  -4.241
REMARK INTRA:                   0.000
REMARK UNBOUND:                 0.000
REMARK SMILES [NH3+]CC(=O)[O-]
REMARK SMILES IDX 2 1 1 2 3 6 4 7 5 8
REMARK H PARENT 1 3 1 4 1 5
REMARK Flexibility Score: inf
ROOT
ATOM      1  C   UNL     1     160.581 159.456 163.258  1.00  0.00     0.312 C 
ENDROOT
BRANCH   1   2
ATOM      2  N   UNL     1     161.683 158.986 164.096  1.00  0.00    -0.353 N 
ATOM      3  H   UNL     1     161.718 157.940 164.088  1.00  0.00     0.344 HD
ATOM      4  H   UNL     1     162.583 159.358 163.718  1.00  0.00     0.344 HD
ATOM      5  H   UNL     1     161.560 159.328 165.077  1.00  0.00     0.344 HD
ENDBRANCH   1   2
BRANCH   1   6
ATOM      6  C   UNL     1     160.496 160.951 163.287  1.00  0.00     0.096 C 
ATOM      7  O   UNL     1     160.369 161.557 164.383  1.00  0.00    -0.544 OA
ATOM      8  O   UNL     1     160.608 161.676 162.108  1.00  0.00    -0.544 OA
ENDBRANCH   1   6
TORSDOF 2
ENDMDL
MODEL 2
REMARK VINA RESULT:    -3.841      2.252      2.441
REMARK INTER + INTRA:          -4.178
REMARK INTER:                  -4.178
REMARK INTRA:                   0.000
REMARK UNBOUND:                 0.000
REMARK SMILES [NH3+]CC(=O)[O-]
REMARK SMILES IDX 2 1 1 2 3 6 4 7 5 8
REMARK H PARENT 1 3 1 4 1 5
REMARK Flexibility Score: inf
ROOT
ATOM      1  C   UNL     1     160.271 161.524 162.888  1.00  0.00     0.312 C 
ENDROOT
BRANCH   1   2
ATOM      2  N   UNL     1     159.448 161.979 164.008  1.00  0.00    -0.353 N 
ATOM      3  H   UNL     1     159.898 162.802 164.472  1.00  0.00     0.344 HD
ATOM      4  H   UNL     1     158.509 162.264 163.649  1.00  0.00     0.344 HD
ATOM      5  H   UNL     1     159.326 161.206 164.701  1.00  0.00     0.344 HD
ENDBRANCH   1   2
BRANCH   1   6
ATOM      6  C   UNL     1     160.546 160.056 162.997  1.00  0.00     0.096 C 
ATOM      7  O   UNL     1     160.896 159.557 164.098  1.00  0.00    -0.544 OA
ATOM      8  O   UNL     1     160.366 159.232 161.893  1.00  0.00    -0.544 OA
ENDBRANCH   1   6
TORSDOF 2
ENDMDL
MODEL 3
REMARK VINA RESULT:    -3.830      1.406      1.884
REMARK INTER + INTRA:          -4.166
REMARK INTER:                  -4.166
REMARK INTRA:                   0.000
REMARK UNBOUND:                 0.000
REMARK SMILES [NH3+]CC(=O)[O-]
REMARK SMILES IDX 2 1 1 2 3 6 4 7 5 8
REMARK H PARENT 1 3 1 4 1 5
REMARK Flexibility Score: inf
ROOT
ATOM      1  C   UNL     1     160.622 159.878 163.596  1.00  0.00     0.312 C 
ENDROOT
BRANCH   1   2
ATOM      2  N   UNL     1     161.583 158.820 163.901  1.00  0.00    -0.353 N 
ATOM      3  H   UNL     1     162.289 159.165 164.592  1.00  0.00     0.344 HD
ATOM      4  H   UNL     1     161.075 158.004 164.313  1.00  0.00     0.344 HD
ATOM      5  H   UNL     1     162.067 158.511 163.027  1.00  0.00     0.344 HD
ENDBRANCH   1   2
BRANCH   1   6
ATOM      6  C   UNL     1     160.547 160.115 162.119  1.00  0.00     0.096 C 
ATOM      7  O   UNL     1     160.242 159.173 161.341  1.00  0.00    -0.544 OA
ATOM      8  O   UNL     1     160.767 161.387 161.607  1.00  0.00    -0.544 OA
ENDBRANCH   1   6
TORSDOF 2
ENDMDL
MODEL 4
REMARK VINA RESULT:    -3.786      5.838      6.362
REMARK INTER + INTRA:          -4.118
REMARK INTER:                  -4.118
REMARK INTRA:                   0.000
REMARK UNBOUND:                 0.000
REMARK SMILES [NH3+]CC(=O)[O-]
REMARK SMILES IDX 2 1 1 2 3 6 4 7 5 8
REMARK H PARENT 1 3 1 4 1 5
REMARK Flexibility Score: inf
ROOT
ATOM      1  C   UNL     1     160.781 161.529 158.060  1.00  0.00     0.312 C 
ENDROOT
BRANCH   1   2
ATOM      2  N   UNL     1     161.408 162.103 156.871  1.00  0.00    -0.353 N 
ATOM      3  H   UNL     1     160.716 162.689 156.348  1.00  0.00     0.344 HD
ATOM      4  H   UNL     1     162.210 162.706 157.164  1.00  0.00     0.344 HD
ATOM      5  H   UNL     1     161.766 161.341 156.251  1.00  0.00     0.344 HD
ENDBRANCH   1   2
BRANCH   1   6
ATOM      6  C   UNL     1     160.508 160.070 157.862  1.00  0.00     0.096 C 
ATOM      7  O   UNL     1     160.311 159.614 156.705  1.00  0.00    -0.544 OA
ATOM      8  O   UNL     1     160.523 159.206 158.950  1.00  0.00    -0.544 OA
ENDBRANCH   1   6
TORSDOF 2
ENDMDL
MODEL 5
REMARK VINA RESULT:    -3.711      2.234      2.450
REMARK INTER + INTRA:          -4.037
REMARK INTER:                  -4.037
REMARK INTRA:                   0.000
REMARK UNBOUND:                 0.000
REMARK SMILES [NH3+]CC(=O)[O-]
REMARK SMILES IDX 2 1 1 2 3 6 4 7 5 8
REMARK H PARENT 1 3 1 4 1 5
REMARK Flexibility Score: inf
ROOT
ATOM      1  C   UNL     1     160.526 160.453 161.941  1.00  0.00     0.312 C 
ENDROOT
BRANCH   1   2
ATOM      2  N   UNL     1     160.233 161.787 161.417  1.00  0.00    -0.353 N 
ATOM      3  H   UNL     1     160.706 161.920 160.493  1.00  0.00     0.344 HD
ATOM      4  H   UNL     1     159.201 161.884 161.286  1.00  0.00     0.344 HD
ATOM      5  H   UNL     1     160.560 162.517 162.090  1.00  0.00     0.344 HD
ENDBRANCH   1   2
BRANCH   1   6
ATOM      6  C   UNL     1     160.513 160.460 163.438  1.00  0.00     0.096 C 
ATOM      7  O   UNL     1     160.063 161.456 164.064  1.00  0.00    -0.544 OA
ATOM      8  O   UNL     1     160.953 159.346 164.142  1.00  0.00    -0.544 OA
ENDBRANCH   1   6
TORSDOF 2
ENDMDL
MODEL 6
REMARK VINA RESULT:    -3.709      5.472      5.976
REMARK INTER + INTRA:          -4.034
REMARK INTER:                  -4.034
REMARK INTRA:                   0.000
REMARK UNBOUND:                 0.000
REMARK SMILES [NH3+]CC(=O)[O-]
REMARK SMILES IDX 2 1 1 2 3 6 4 7 5 8
REMARK H PARENT 1 3 1 4 1 5
REMARK Flexibility Score: inf
ROOT
ATOM      1  C   UNL     1     160.259 159.456 158.080  1.00  0.00     0.312 C 
ENDROOT
BRANCH   1   2
ATOM      2  N   UNL     1     159.536 158.965 156.908  1.00  0.00    -0.353 N 
ATOM      3  H   UNL     1     159.486 157.919 156.930  1.00  0.00     0.344 HD
ATOM      4  H   UNL     1     158.565 159.351 156.918  1.00  0.00     0.344 HD
ATOM      5  H   UNL     1     160.016 159.277 156.033  1.00  0.00     0.344 HD
ENDBRANCH   1   2
BRANCH   1   6
ATOM      6  C   UNL     1     160.554 160.918 157.944  1.00  0.00     0.096 C 
ATOM      7  O   UNL     1     160.874 161.399 156.826  1.00  0.00    -0.544 OA
ATOM      8  O   UNL     1     160.426 161.757 159.044  1.00  0.00    -0.544 OA
ENDBRANCH   1   6
TORSDOF 2
ENDMDL
MODEL 7
REMARK VINA RESULT:    -3.688      2.817      3.411
REMARK INTER + INTRA:          -4.012
REMARK INTER:                  -4.012
REMARK INTRA:                   0.000
REMARK UNBOUND:                 0.000
REMARK SMILES [NH3+]CC(=O)[O-]
REMARK SMILES IDX 2 1 1 2 3 6 4 7 5 8
REMARK H PARENT 1 3 1 4 1 5
REMARK Flexibility Score: inf
ROOT
ATOM      1  C   UNL     1     160.574 159.727 161.255  1.00  0.00     0.312 C 
ENDROOT
BRANCH   1   2
ATOM      2  N   UNL     1     160.485 158.481 160.494  1.00  0.00    -0.353 N 
ATOM      3  H   UNL     1     159.958 158.642 159.604  1.00  0.00     0.344 HD
ATOM      4  H   UNL     1     161.450 158.153 160.262  1.00  0.00     0.344 HD
ATOM      5  H   UNL     1     160.005 157.747 161.062  1.00  0.00     0.344 HD
ENDBRANCH   1   2
BRANCH   1   6
ATOM      6  C   UNL     1     160.756 160.895 160.336  1.00  0.00     0.096 C 
ATOM      7  O   UNL     1     160.583 160.759 159.096  1.00  0.00    -0.544 OA
ATOM      8  O   UNL     1     161.067 162.145 160.855  1.00  0.00    -0.544 OA
ENDBRANCH   1   6
TORSDOF 2
ENDMDL
MODEL 8
REMARK VINA RESULT:    -3.671      3.523      3.782
REMARK INTER + INTRA:          -3.993
REMARK INTER:                  -3.993
REMARK INTRA:                   0.000
REMARK UNBOUND:                 0.000
REMARK SMILES [NH3+]CC(=O)[O-]
REMARK SMILES IDX 2 1 1 2 3 6 4 7 5 8
REMARK H PARENT 1 3 1 4 1 5
REMARK Flexibility Score: inf
ROOT
ATOM      1  C   UNL     1     160.605 161.218 159.680  1.00  0.00     0.312 C 
ENDROOT
BRANCH   1   2
ATOM      2  N   UNL     1     160.564 162.477 160.422  1.00  0.00    -0.353 N 
ATOM      3  H   UNL     1     160.942 162.336 161.388  1.00  0.00     0.344 HD
ATOM      4  H   UNL     1     161.153 163.185 159.927  1.00  0.00     0.344 HD
ATOM      5  H   UNL     1     159.582 162.831 160.475  1.00  0.00     0.344 HD
ENDBRANCH   1   2
BRANCH   1   6
ATOM      6  C   UNL     1     160.725 160.056 160.617  1.00  0.00     0.096 C 
ATOM      7  O   UNL     1     160.553 160.219 161.853  1.00  0.00    -0.544 OA
ATOM      8  O   UNL     1     160.975 158.784 160.117  1.00  0.00    -0.544 OA
ENDBRANCH   1   6
TORSDOF 2
ENDMDL
MODEL 9
REMARK VINA RESULT:    -3.602      5.477      5.831
REMARK INTER + INTRA:          -3.918
REMARK INTER:                  -3.918
REMARK INTRA:                   0.000
REMARK UNBOUND:                 0.000
REMARK SMILES [NH3+]CC(=O)[O-]
REMARK SMILES IDX 2 1 1 2 3 6 4 7 5 8
REMARK H PARENT 1 3 1 4 1 5
REMARK Flexibility Score: inf
ROOT
ATOM      1  C   UNL     1     160.624 160.749 159.070  1.00  0.00     0.312 C 
ENDROOT
BRANCH   1   2
ATOM      2  N   UNL     1     160.759 162.100 159.611  1.00  0.00    -0.353 N 
ATOM      3  H   UNL     1     159.908 162.665 159.383  1.00  0.00     0.344 HD
ATOM      4  H   UNL     1     160.860 162.044 160.650  1.00  0.00     0.344 HD
ATOM      5  H   UNL     1     161.608 162.564 159.213  1.00  0.00     0.344 HD
ENDBRANCH   1   2
BRANCH   1   6
ATOM      6  C   UNL     1     160.630 160.777 157.572  1.00  0.00     0.096 C 
ATOM      7  O   UNL     1     161.004 161.810 156.959  1.00  0.00    -0.544 OA
ATOM      8  O   UNL     1     160.269 159.643 156.855  1.00  0.00    -0.544 OA
ENDBRANCH   1   6
TORSDOF 2
ENDMDL
