MODEL 1
REMARK VINA RESULT:    -5.948      0.000      0.000
REMARK INTER + INTRA:          -6.606
REMARK INTER:                  -6.469
REMARK INTRA:                  -0.136
REMARK UNBOUND:                -0.136
REMARK SMILES Cc1ccc(C(C)C)c(O)c1
REMARK SMILES IDX 1 1 2 2 11 3 9 4 5 5 4 6 3 7 10 8 6 10 7 11 8 12
REMARK H PARENT 10 9
REMARK Flexibility Score: inf
ROOT
ATOM      1  C   UNL     1     -14.544  45.995  25.875  1.00  0.00     0.044 C 
ATOM      2  C   UNL     1     -14.026  45.471  24.569  1.00  0.00    -0.047 A 
ATOM      3  C   UNL     1     -12.783  45.889  24.083  1.00  0.00     0.049 A 
ATOM      4  C   UNL     1     -12.264  45.383  22.883  1.00  0.00     0.119 A 
ATOM      5  C   UNL     1     -13.008  44.417  22.143  1.00  0.00    -0.004 A 
ATOM      6  C   UNL     1     -14.250  43.994  22.663  1.00  0.00     0.008 A 
ATOM      7  C   UNL     1     -14.748  44.508  23.859  1.00  0.00     0.004 A 
ENDROOT
BRANCH   4   8
ATOM      8  O   UNL     1     -11.020  45.875  22.487  1.00  0.00    -0.508 OA
ATOM      9  H   UNL     1     -10.445  45.479  21.763  1.00  0.00     0.293 HD
ENDBRANCH   4   8
BRANCH   5  10
ATOM     10  C   UNL     1     -12.554  43.798  20.821  1.00  0.00     0.017 C 
ATOM     11  C   UNL     1     -13.704  43.149  20.038  1.00  0.00     0.012 C 
ATOM     12  C   UNL     1     -11.337  42.876  20.978  1.00  0.00     0.012 C 
ENDBRANCH   5  10
TORSDOF 2
ENDMDL
MODEL 2
REMARK VINA RESULT:    -5.573      0.900      4.043
REMARK INTER + INTRA:          -6.198
REMARK INTER:                  -6.073
REMARK INTRA:                  -0.126
REMARK UNBOUND:                -0.136
REMARK SMILES Cc1ccc(C(C)C)c(O)c1
REMARK SMILES IDX 1 1 2 2 11 3 9 4 5 5 4 6 3 7 10 8 6 10 7 11 8 12
REMARK H PARENT 10 9
REMARK Flexibility Score: inf
ROOT
ATOM      1  C   UNL     1     -13.702  42.922  19.985  1.00  0.00     0.044 C 
ATOM      2  C   UNL     1     -13.607  43.701  21.263  1.00  0.00    -0.047 A 
ATOM      3  C   UNL     1     -12.466  44.461  21.543  1.00  0.00     0.049 A 
ATOM      4  C   UNL     1     -12.372  45.225  22.714  1.00  0.00     0.119 A 
ATOM      5  C   UNL     1     -13.459  45.241  23.638  1.00  0.00    -0.004 A 
ATOM      6  C   UNL     1     -14.608  44.484  23.324  1.00  0.00     0.008 A 
ATOM      7  C   UNL     1     -14.683  43.731  22.153  1.00  0.00     0.004 A 
ENDROOT
BRANCH   4   8
ATOM      8  O   UNL     1     -11.186  45.938  22.898  1.00  0.00    -0.508 OA
ATOM      9  H   UNL     1     -10.929  46.426  23.739  1.00  0.00     0.293 HD
ENDBRANCH   4   8
BRANCH   5  10
ATOM     10  C   UNL     1     -13.473  46.027  24.949  1.00  0.00     0.017 C 
ATOM     11  C   UNL     1     -14.563  45.551  25.919  1.00  0.00     0.012 C 
ATOM     12  C   UNL     1     -13.476  47.546  24.737  1.00  0.00     0.012 C 
ENDBRANCH   5  10
TORSDOF 2
ENDMDL
MODEL 3
REMARK VINA RESULT:    -5.570      1.730      2.363
REMARK INTER + INTRA:          -6.195
REMARK INTER:                  -6.151
REMARK INTRA:                  -0.044
REMARK UNBOUND:                -0.136
REMARK SMILES Cc1ccc(C(C)C)c(O)c1
REMARK SMILES IDX 1 1 2 2 11 3 9 4 5 5 4 6 3 7 10 8 6 10 7 11 8 12
REMARK H PARENT 10 9
REMARK Flexibility Score: inf
ROOT
ATOM      1  C   UNL     1     -15.312  45.454  26.112  1.00  0.00     0.044 C 
ATOM      2  C   UNL     1     -14.582  45.128  24.843  1.00  0.00    -0.047 A 
ATOM      3  C   UNL     1     -15.109  44.192  23.946  1.00  0.00     0.049 A 
ATOM      4  C   UNL     1     -14.462  43.900  22.738  1.00  0.00     0.119 A 
ATOM      5  C   UNL     1     -13.249  44.572  22.404  1.00  0.00    -0.004 A 
ATOM      6  C   UNL     1     -12.747  45.528  23.314  1.00  0.00     0.008 A 
ATOM      7  C   UNL     1     -13.406  45.806  24.511  1.00  0.00     0.004 A 
ENDROOT
BRANCH   4   8
ATOM      8  O   UNL     1     -15.070  42.945  21.922  1.00  0.00    -0.508 OA
ATOM      9  H   UNL     1     -14.948  41.950  22.007  1.00  0.00     0.293 HD
ENDBRANCH   4   8
BRANCH   5  10
ATOM     10  C   UNL     1     -12.449  44.336  21.124  1.00  0.00     0.017 C 
ATOM     11  C   UNL     1     -12.011  42.875  20.954  1.00  0.00     0.012 C 
ATOM     12  C   UNL     1     -11.298  45.336  20.942  1.00  0.00     0.012 C 
ENDBRANCH   5  10
TORSDOF 2
ENDMDL
MODEL 4
REMARK VINA RESULT:    -5.466      2.011      4.803
REMARK INTER + INTRA:          -6.082
REMARK INTER:                  -5.895
REMARK INTRA:                  -0.187
REMARK UNBOUND:                -0.136
REMARK SMILES Cc1ccc(C(C)C)c(O)c1
REMARK SMILES IDX 1 1 2 2 11 3 9 4 5 5 4 6 3 7 10 8 6 10 7 11 8 12
REMARK H PARENT 10 9
REMARK Flexibility Score: inf
ROOT
ATOM      1  C   UNL     1     -12.688  44.798  21.798  1.00  0.00     0.044 C 
ATOM      2  C   UNL     1     -13.471  44.900  23.073  1.00  0.00    -0.047 A 
ATOM      3  C   UNL     1     -13.131  45.856  24.036  1.00  0.00     0.049 A 
ATOM      4  C   UNL     1     -13.872  45.993  25.217  1.00  0.00     0.119 A 
ATOM      5  C   UNL     1     -15.002  45.152  25.445  1.00  0.00    -0.004 A 
ATOM      6  C   UNL     1     -15.339  44.209  24.450  1.00  0.00     0.008 A 
ATOM      7  C   UNL     1     -14.589  44.089  23.281  1.00  0.00     0.004 A 
ENDROOT
BRANCH   4   8
ATOM      8  O   UNL     1     -13.441  46.973  26.113  1.00  0.00    -0.508 OA
ATOM      9  H   UNL     1     -13.954  47.285  26.919  1.00  0.00     0.293 HD
ENDBRANCH   4   8
BRANCH   5  10
ATOM     10  C   UNL     1     -15.883  45.200  26.693  1.00  0.00     0.017 C 
ATOM     11  C   UNL     1     -16.455  43.827  27.074  1.00  0.00     0.012 C 
ATOM     12  C   UNL     1     -16.950  46.301  26.632  1.00  0.00     0.012 C 
ENDBRANCH   5  10
TORSDOF 2
ENDMDL
MODEL 5
REMARK VINA RESULT:    -5.390     21.737     24.125
REMARK INTER + INTRA:          -5.999
REMARK INTER:                  -5.815
REMARK INTRA:                  -0.184
REMARK UNBOUND:                -0.136
REMARK SMILES Cc1ccc(C(C)C)c(O)c1
REMARK SMILES IDX 1 1 2 2 11 3 9 4 5 5 4 6 3 7 10 8 6 10 7 11 8 12
REMARK H PARENT 10 9
REMARK Flexibility Score: inf
ROOT
ATOM      1  C   UNL     1     -28.044  62.302  36.869  1.00  0.00     0.044 C 
ATOM      2  C   UNL     1     -27.393  61.914  35.574  1.00  0.00    -0.047 A 
ATOM      3  C   UNL     1     -27.963  62.297  34.355  1.00  0.00     0.049 A 
ATOM      4  C   UNL     1     -27.353  61.977  33.135  1.00  0.00     0.119 A 
ATOM      5  C   UNL     1     -26.122  61.255  33.128  1.00  0.00    -0.004 A 
ATOM      6  C   UNL     1     -25.555  60.897  34.370  1.00  0.00     0.008 A 
ATOM      7  C   UNL     1     -26.177  61.226  35.574  1.00  0.00     0.004 A 
ENDROOT
BRANCH   4   8
ATOM      8  O   UNL     1     -28.011  62.401  31.980  1.00  0.00    -0.508 OA
ATOM      9  H   UNL     1     -27.594  62.944  31.244  1.00  0.00     0.293 HD
ENDBRANCH   4   8
BRANCH   5  10
ATOM     10  C   UNL     1     -25.365  60.842  31.867  1.00  0.00     0.017 C 
ATOM     11  C   UNL     1     -25.728  59.430  31.387  1.00  0.00     0.012 C 
ATOM     12  C   UNL     1     -23.851  61.071  31.974  1.00  0.00     0.012 C 
ENDBRANCH   5  10
TORSDOF 2
ENDMDL
MODEL 6
REMARK VINA RESULT:    -5.159      2.271      5.000
REMARK INTER + INTRA:          -5.748
REMARK INTER:                  -5.631
REMARK INTRA:                  -0.117
REMARK UNBOUND:                -0.136
REMARK SMILES Cc1ccc(C(C)C)c(O)c1
REMARK SMILES IDX 1 1 2 2 11 3 9 4 5 5 4 6 3 7 10 8 6 10 7 11 8 12
REMARK H PARENT 10 9
REMARK Flexibility Score: inf
ROOT
ATOM      1  C   UNL     1     -12.024  44.909  21.892  1.00  0.00     0.044 C 
ATOM      2  C   UNL     1     -13.069  44.991  22.965  1.00  0.00    -0.047 A 
ATOM      3  C   UNL     1     -14.194  44.162  22.920  1.00  0.00     0.049 A 
ATOM      4  C   UNL     1     -15.163  44.197  23.932  1.00  0.00     0.119 A 
ATOM      5  C   UNL     1     -15.001  45.084  25.037  1.00  0.00    -0.004 A 
ATOM      6  C   UNL     1     -13.846  45.896  25.072  1.00  0.00     0.008 A 
ATOM      7  C   UNL     1     -12.893  45.846  24.056  1.00  0.00     0.004 A 
ENDROOT
BRANCH   4   8
ATOM      8  O   UNL     1     -16.250  43.334  23.783  1.00  0.00    -0.508 OA
ATOM      9  H   UNL     1     -16.357  42.452  24.254  1.00  0.00     0.293 HD
ENDBRANCH   4   8
BRANCH   5  10
ATOM     10  C   UNL     1     -15.988  45.219  26.195  1.00  0.00     0.017 C 
ATOM     11  C   UNL     1     -15.764  46.489  27.027  1.00  0.00     0.012 C 
ATOM     12  C   UNL     1     -16.086  43.948  27.050  1.00  0.00     0.012 C 
ENDBRANCH   5  10
TORSDOF 2
ENDMDL
MODEL 7
REMARK VINA RESULT:    -5.138     20.967     22.755
REMARK INTER + INTRA:          -5.725
REMARK INTER:                  -5.543
REMARK INTRA:                  -0.182
REMARK UNBOUND:                -0.136
REMARK SMILES Cc1ccc(C(C)C)c(O)c1
REMARK SMILES IDX 1 1 2 2 11 3 9 4 5 5 4 6 3 7 10 8 6 10 7 11 8 12
REMARK H PARENT 10 9
REMARK Flexibility Score: inf
ROOT
ATOM      1  C   UNL     1     -23.533  61.952  27.997  1.00  0.00     0.044 C 
ATOM      2  C   UNL     1     -24.421  61.723  29.185  1.00  0.00    -0.047 A 
ATOM      3  C   UNL     1     -24.966  60.457  29.425  1.00  0.00     0.049 A 
ATOM      4  C   UNL     1     -25.767  60.213  30.549  1.00  0.00     0.119 A 
ATOM      5  C   UNL     1     -26.028  61.267  31.474  1.00  0.00    -0.004 A 
ATOM      6  C   UNL     1     -25.450  62.530  31.222  1.00  0.00     0.008 A 
ATOM      7  C   UNL     1     -24.654  62.753  30.099  1.00  0.00     0.004 A 
ENDROOT
BRANCH   4   8
ATOM      8  O   UNL     1     -26.266  58.917  30.687  1.00  0.00    -0.508 OA
ATOM      9  H   UNL     1     -27.240  58.677  30.755  1.00  0.00     0.293 HD
ENDBRANCH   4   8
BRANCH   5  10
ATOM     10  C   UNL     1     -26.889  61.127  32.729  1.00  0.00     0.017 C 
ATOM     11  C   UNL     1     -27.883  62.283  32.903  1.00  0.00     0.012 C 
ATOM     12  C   UNL     1     -26.066  60.845  33.993  1.00  0.00     0.012 C 
ENDBRANCH   5  10
TORSDOF 2
ENDMDL
MODEL 8
REMARK VINA RESULT:    -5.119     21.509     23.739
REMARK INTER + INTRA:          -5.705
REMARK INTER:                  -5.522
REMARK INTRA:                  -0.182
REMARK UNBOUND:                -0.136
REMARK SMILES Cc1ccc(C(C)C)c(O)c1
REMARK SMILES IDX 1 1 2 2 11 3 9 4 5 5 4 6 3 7 10 8 6 10 7 11 8 12
REMARK H PARENT 10 9
REMARK Flexibility Score: inf
ROOT
ATOM      1  C   UNL     1     -28.085  62.122  36.414  1.00  0.00     0.044 C 
ATOM      2  C   UNL     1     -27.324  61.841  35.152  1.00  0.00    -0.047 A 
ATOM      3  C   UNL     1     -26.195  61.016  35.178  1.00  0.00     0.049 A 
ATOM      4  C   UNL     1     -25.491  60.711  34.005  1.00  0.00     0.119 A 
ATOM      5  C   UNL     1     -25.936  61.239  32.756  1.00  0.00    -0.004 A 
ATOM      6  C   UNL     1     -27.090  62.051  32.752  1.00  0.00     0.008 A 
ATOM      7  C   UNL     1     -27.777  62.343  33.930  1.00  0.00     0.004 A 
ENDROOT
BRANCH   4   8
ATOM      8  O   UNL     1     -24.375  59.887  34.146  1.00  0.00    -0.508 OA
ATOM      9  H   UNL     1     -23.419  60.196  34.104  1.00  0.00     0.293 HD
ENDBRANCH   4   8
BRANCH   5  10
ATOM     10  C   UNL     1     -25.252  60.985  31.413  1.00  0.00     0.017 C 
ATOM     11  C   UNL     1     -25.090  62.260  30.574  1.00  0.00     0.012 C 
ATOM     12  C   UNL     1     -25.881  59.825  30.630  1.00  0.00     0.012 C 
ENDBRANCH   5  10
TORSDOF 2
ENDMDL
MODEL 9
REMARK VINA RESULT:    -5.074      1.990      4.444
REMARK INTER + INTRA:          -5.655
REMARK INTER:                  -5.479
REMARK INTRA:                  -0.176
REMARK UNBOUND:                -0.136
REMARK SMILES Cc1ccc(C(C)C)c(O)c1
REMARK SMILES IDX 1 1 2 2 11 3 9 4 5 5 4 6 3 7 10 8 6 10 7 11 8 12
REMARK H PARENT 10 9
REMARK Flexibility Score: inf
ROOT
ATOM      1  C   UNL     1     -11.181  45.150  21.368  1.00  0.00     0.044 C 
ATOM      2  C   UNL     1     -12.372  45.025  22.273  1.00  0.00    -0.047 A 
ATOM      3  C   UNL     1     -13.336  44.040  22.039  1.00  0.00     0.049 A 
ATOM      4  C   UNL     1     -14.436  43.884  22.893  1.00  0.00     0.119 A 
ATOM      5  C   UNL     1     -14.577  44.735  24.030  1.00  0.00    -0.004 A 
ATOM      6  C   UNL     1     -13.580  45.708  24.257  1.00  0.00     0.008 A 
ATOM      7  C   UNL     1     -12.492  45.847  23.396  1.00  0.00     0.004 A 
ENDROOT
BRANCH   4   8
ATOM      8  O   UNL     1     -15.342  42.875  22.562  1.00  0.00    -0.508 OA
ATOM      9  H   UNL     1     -16.299  43.023  22.290  1.00  0.00     0.293 HD
ENDBRANCH   4   8
BRANCH   5  10
ATOM     10  C   UNL     1     -15.731  44.667  25.028  1.00  0.00     0.017 C 
ATOM     11  C   UNL     1     -17.035  45.257  24.474  1.00  0.00     0.012 C 
ATOM     12  C   UNL     1     -15.361  45.217  26.412  1.00  0.00     0.012 C 
ENDBRANCH   5  10
TORSDOF 2
ENDMDL
