MODEL 1
REMARK VINA RESULT:    -3.011      0.000      0.000
REMARK INTER + INTRA:          -3.618
REMARK INTER:                  -3.539
REMARK INTRA:                  -0.079
REMARK UNBOUND:                -0.079
REMARK SMILES CCCCC(=O)[O-]
REMARK SMILES IDX 4 1 5 2 6 3 7 4 3 5 2 6 1 7
REMARK H PARENT
REMARK Flexibility Score: inf
ROOT
ATOM      1  C   UNL     1     -18.420   3.436 -19.539  1.00  0.00     0.053 C 
ENDROOT
BRANCH   1   2
ATOM      2  C   UNL     1     -17.151   3.694 -18.789  1.00  0.00     0.041 C 
ATOM      3  O   UNL     1     -17.057   3.374 -17.575  1.00  0.00    -0.550 OA
ATOM      4  O   UNL     1     -16.089   4.331 -19.419  1.00  0.00    -0.550 OA
ENDBRANCH   1   2
BRANCH   1   5
ATOM      5  C   UNL     1     -19.305   4.685 -19.542  1.00  0.00     0.006 C 
BRANCH   5   6
ATOM      6  C   UNL     1     -20.768   4.323 -19.265  1.00  0.00    -0.003 C 
ATOM      7  C   UNL     1     -20.877   3.267 -18.169  1.00  0.00     0.004 C 
ENDBRANCH   5   6
ENDBRANCH   1   5
TORSDOF 3
ENDMDL
MODEL 2
REMARK VINA RESULT:    -1.483     21.069     21.942
REMARK INTER + INTRA:          -1.823
REMARK INTER:                  -1.803
REMARK INTRA:                  -0.020
REMARK UNBOUND:                -0.079
REMARK SMILES CCCCC(=O)[O-]
REMARK SMILES IDX 4 1 5 2 6 3 7 4 3 5 2 6 1 7
REMARK H PARENT
REMARK Flexibility Score: inf
ROOT
ATOM      1  C   UNL     1     -32.386  18.484 -10.504  1.00  0.00     0.053 C 
ENDROOT
BRANCH   1   2
ATOM      2  C   UNL     1     -31.268  17.527 -10.777  1.00  0.00     0.041 C 
ATOM      3  O   UNL     1     -31.497  16.291 -10.850  1.00  0.00    -0.550 OA
ATOM      4  O   UNL     1     -29.967  17.995 -10.903  1.00  0.00    -0.550 OA
ENDBRANCH   1   2
BRANCH   1   5
ATOM      5  C   UNL     1     -31.862  19.921 -10.459  1.00  0.00     0.006 C 
BRANCH   5   6
ATOM      6  C   UNL     1     -32.991  20.908 -10.144  1.00  0.00    -0.003 C 
ATOM      7  C   UNL     1     -32.588  22.338 -10.492  1.00  0.00     0.004 C 
ENDBRANCH   5   6
ENDBRANCH   1   5
TORSDOF 3
ENDMDL
MODEL 3
REMARK VINA RESULT:    -1.470     20.553     21.445
REMARK INTER + INTRA:          -1.807
REMARK INTER:                  -1.785
REMARK INTRA:                  -0.023
REMARK UNBOUND:                -0.079
REMARK SMILES CCCCC(=O)[O-]
REMARK SMILES IDX 4 1 5 2 6 3 7 4 3 5 2 6 1 7
REMARK H PARENT
REMARK Flexibility Score: inf
ROOT
ATOM      1  C   UNL     1     -32.106  17.962 -10.603  1.00  0.00     0.053 C 
ENDROOT
BRANCH   1   2
ATOM      2  C   UNL     1     -30.901  17.120 -10.890  1.00  0.00     0.041 C 
ATOM      3  O   UNL     1     -29.770  17.658 -11.020  1.00  0.00    -0.550 OA
ATOM      4  O   UNL     1     -31.036  15.748 -11.060  1.00  0.00    -0.550 OA
ENDBRANCH   1   2
BRANCH   1   5
ATOM      5  C   UNL     1     -31.702  19.424 -10.400  1.00  0.00     0.006 C 
BRANCH   5   6
ATOM      6  C   UNL     1     -32.936  20.330 -10.321  1.00  0.00    -0.003 C 
ATOM      7  C   UNL     1     -32.560  21.794 -10.521  1.00  0.00     0.004 C 
ENDBRANCH   5   6
ENDBRANCH   1   5
TORSDOF 3
ENDMDL
MODEL 4
REMARK VINA RESULT:    -1.138     19.704     20.540
REMARK INTER + INTRA:          -1.417
REMARK INTER:                  -1.384
REMARK INTRA:                  -0.033
REMARK UNBOUND:                -0.079
REMARK SMILES CCCCC(=O)[O-]
REMARK SMILES IDX 4 1 5 2 6 3 7 4 3 5 2 6 1 7
REMARK H PARENT
REMARK Flexibility Score: inf
ROOT
ATOM      1  C   UNL     1     -30.583  18.270 -10.757  1.00  0.00     0.053 C 
ENDROOT
BRANCH   1   2
ATOM      2  C   UNL     1     -29.985  17.148 -11.547  1.00  0.00     0.041 C 
ATOM      3  O   UNL     1     -30.084  15.962 -11.137  1.00  0.00    -0.550 OA
ATOM      4  O   UNL     1     -29.278  17.418 -12.712  1.00  0.00    -0.550 OA
ENDBRANCH   1   2
BRANCH   1   5
ATOM      5  C   UNL     1     -32.029  17.944 -10.373  1.00  0.00     0.006 C 
BRANCH   5   6
ATOM      6  C   UNL     1     -32.964  19.108 -10.718  1.00  0.00    -0.003 C 
ATOM      7  C   UNL     1     -32.343  20.448 -10.335  1.00  0.00     0.004 C 
ENDBRANCH   5   6
ENDBRANCH   1   5
TORSDOF 3
ENDMDL
MODEL 5
REMARK VINA RESULT:    -1.078     22.491     23.348
REMARK INTER + INTRA:          -1.346
REMARK INTER:                  -1.323
REMARK INTRA:                  -0.023
REMARK UNBOUND:                -0.079
REMARK SMILES CCCCC(=O)[O-]
REMARK SMILES IDX 4 1 5 2 6 3 7 4 3 5 2 6 1 7
REMARK H PARENT
REMARK Flexibility Score: inf
ROOT
ATOM      1  C   UNL     1     -33.085  20.603 -10.277  1.00  0.00     0.053 C 
ENDROOT
BRANCH   1   2
ATOM      2  C   UNL     1     -32.625  22.015 -10.459  1.00  0.00     0.041 C 
ATOM      3  O   UNL     1     -31.424  22.256 -10.754  1.00  0.00    -0.550 OA
ATOM      4  O   UNL     1     -33.509  23.067 -10.257  1.00  0.00    -0.550 OA
ENDBRANCH   1   2
BRANCH   1   5
ATOM      5  C   UNL     1     -31.907  19.634 -10.406  1.00  0.00     0.006 C 
BRANCH   5   6
ATOM      6  C   UNL     1     -32.395  18.182 -10.476  1.00  0.00    -0.003 C 
ATOM      7  C   UNL     1     -31.233  17.220 -10.702  1.00  0.00     0.004 C 
ENDBRANCH   5   6
ENDBRANCH   1   5
TORSDOF 3
ENDMDL
MODEL 6
REMARK VINA RESULT:    -1.027     20.322     21.225
REMARK INTER + INTRA:          -1.287
REMARK INTER:                  -1.238
REMARK INTRA:                  -0.049
REMARK UNBOUND:                -0.079
REMARK SMILES CCCCC(=O)[O-]
REMARK SMILES IDX 4 1 5 2 6 3 7 4 3 5 2 6 1 7
REMARK H PARENT
REMARK Flexibility Score: inf
ROOT
ATOM      1  C   UNL     1     -31.017  18.658 -10.670  1.00  0.00     0.053 C 
ENDROOT
BRANCH   1   2
ATOM      2  C   UNL     1     -32.350  19.304 -10.461  1.00  0.00     0.041 C 
ATOM      3  O   UNL     1     -33.390  18.598 -10.382  1.00  0.00    -0.550 OA
ATOM      4  O   UNL     1     -32.451  20.688 -10.401  1.00  0.00    -0.550 OA
ENDBRANCH   1   2
BRANCH   1   5
ATOM      5  C   UNL     1     -31.152  17.133 -10.660  1.00  0.00     0.006 C 
BRANCH   5   6
ATOM      6  C   UNL     1     -29.978  16.472 -11.389  1.00  0.00    -0.003 C 
ATOM      7  C   UNL     1     -29.406  17.393 -12.463  1.00  0.00     0.004 C 
ENDBRANCH   5   6
ENDBRANCH   1   5
TORSDOF 3
ENDMDL
MODEL 7
REMARK VINA RESULT:    -0.809     19.085     19.702
REMARK INTER + INTRA:          -1.030
REMARK INTER:                  -1.066
REMARK INTRA:                   0.035
REMARK UNBOUND:                -0.079
REMARK SMILES CCCCC(=O)[O-]
REMARK SMILES IDX 4 1 5 2 6 3 7 4 3 5 2 6 1 7
REMARK H PARENT
REMARK Flexibility Score: inf
ROOT
ATOM      1  C   UNL     1     -15.366  12.431  -2.419  1.00  0.00     0.053 C 
ENDROOT
BRANCH   1   2
ATOM      2  C   UNL     1     -15.283  13.551  -1.430  1.00  0.00     0.041 C 
ATOM      3  O   UNL     1     -14.867  13.334  -0.262  1.00  0.00    -0.550 OA
ATOM      4  O   UNL     1     -15.708  14.825  -1.785  1.00  0.00    -0.550 OA
ENDBRANCH   1   2
BRANCH   1   5
ATOM      5  C   UNL     1     -15.326  11.079  -1.702  1.00  0.00     0.006 C 
BRANCH   5   6
ATOM      6  C   UNL     1     -13.904  10.509  -1.681  1.00  0.00    -0.003 C 
ATOM      7  C   UNL     1     -13.875   9.078  -2.209  1.00  0.00     0.004 C 
ENDBRANCH   5   6
ENDBRANCH   1   5
TORSDOF 3
ENDMDL
