MODEL 1
REMARK VINA RESULT:    -7.347      0.000      0.000
REMARK INTER + INTRA:          -8.903
REMARK INTER:                  -8.635
REMARK INTRA:                  -0.268
REMARK UNBOUND:                -0.268
REMARK SMILES O=c1cc(-c2ccc(O)c(O)c2)oc2cc(O)cc(O)c12
REMARK SMILES IDX 4 1 3 2 2 3 1 4 21 5 19 6 18 7 16 8 15 9 14 10 13 11 5 12
REMARK SMILES IDX 6 13 7 14 8 15 12 16 10 17 9 18 11 20 20 22 17 24
REMARK H PARENT 9 19 11 21 20 23 17 25
REMARK Flexibility Score: inf
ROOT
ATOM      1  C   UNL     1     -31.133  14.526   1.104  1.00  0.00     0.138 A 
ATOM      2  C   UNL     1     -31.930  15.128   2.092  1.00  0.00     0.100 A 
ATOM      3  C   UNL     1     -33.114  14.507   2.493  1.00  0.00     0.197 A 
ATOM      4  O   UNL     1     -33.821  15.055   3.380  1.00  0.00    -0.289 OA
ATOM      5  C   UNL     1     -33.493  13.287   1.900  1.00  0.00     0.107 A 
ATOM      6  C   UNL     1     -34.675  12.591   2.249  1.00  0.00     0.134 A 
ATOM      7  C   UNL     1     -34.987  11.383   1.606  1.00  0.00     0.093 A 
ATOM      8  C   UNL     1     -34.139  10.860   0.622  1.00  0.00     0.123 A 
ATOM      9  C   UNL     1     -32.972  11.544   0.275  1.00  0.00     0.094 A 
ATOM     10  C   UNL     1     -32.644  12.748   0.904  1.00  0.00     0.146 A 
ATOM     11  O   UNL     1     -31.526  13.378   0.556  1.00  0.00    -0.456 OA
ENDROOT
BRANCH   1  12
ATOM     12  C   UNL     1     -29.865  15.142   0.637  1.00  0.00     0.021 A 
ATOM     13  C   UNL     1     -29.659  15.473  -0.716  1.00  0.00     0.016 A 
ATOM     14  C   UNL     1     -28.459  16.061  -1.125  1.00  0.00     0.051 A 
ATOM     15  C   UNL     1     -27.451  16.335  -0.197  1.00  0.00     0.157 A 
ATOM     16  C   UNL     1     -28.852  15.433   1.568  1.00  0.00     0.062 A 
ATOM     17  C   UNL     1     -27.648  16.022   1.158  1.00  0.00     0.158 A 
BRANCH  15  18
ATOM     18  O   UNL     1     -26.265  16.922  -0.637  1.00  0.00    -0.504 OA
ATOM     19  H   UNL     1     -26.257  17.688  -1.300  1.00  0.00     0.293 HD
ENDBRANCH  15  18
BRANCH  17  20
ATOM     20  O   UNL     1     -26.648  16.296   2.090  1.00  0.00    -0.504 OA
ATOM     21  H   UNL     1     -26.869  16.536   3.050  1.00  0.00     0.293 HD
ENDBRANCH  17  20
ENDBRANCH   1  12
BRANCH   6  22
ATOM     22  O   UNL     1     -35.539  13.088   3.225  1.00  0.00    -0.507 OA
ATOM     23  H   UNL     1     -35.246  13.799   3.885  1.00  0.00     0.293 HD
ENDBRANCH   6  22
BRANCH   8  24
ATOM     24  O   UNL     1     -34.448   9.662  -0.016  1.00  0.00    -0.508 OA
ATOM     25  H   UNL     1     -34.005   9.396  -0.888  1.00  0.00     0.293 HD
ENDBRANCH   8  24
TORSDOF 5
ENDMDL
MODEL 2
REMARK VINA RESULT:    -7.260      2.803      6.329
REMARK INTER + INTRA:          -8.801
REMARK INTER:                  -8.539
REMARK INTRA:                  -0.263
REMARK UNBOUND:                -0.268
REMARK SMILES O=c1cc(-c2ccc(O)c(O)c2)oc2cc(O)cc(O)c12
REMARK SMILES IDX 4 1 3 2 2 3 1 4 21 5 19 6 18 7 16 8 15 9 14 10 13 11 5 12
REMARK SMILES IDX 6 13 7 14 8 15 12 16 10 17 9 18 11 20 20 22 17 24
REMARK H PARENT 9 19 11 21 20 23 17 25
REMARK Flexibility Score: inf
ROOT
ATOM      1  C   UNL     1     -31.894  13.996   0.709  1.00  0.00     0.138 A 
ATOM      2  C   UNL     1     -31.119  14.822   1.539  1.00  0.00     0.100 A 
ATOM      3  C   UNL     1     -29.755  14.563   1.686  1.00  0.00     0.197 A 
ATOM      4  O   UNL     1     -29.069  15.310   2.434  1.00  0.00    -0.289 OA
ATOM      5  C   UNL     1     -29.176  13.477   1.002  1.00  0.00     0.107 A 
ATOM      6  C   UNL     1     -27.803  13.147   1.094  1.00  0.00     0.134 A 
ATOM      7  C   UNL     1     -27.304  12.044   0.385  1.00  0.00     0.093 A 
ATOM      8  C   UNL     1     -28.152  11.266  -0.413  1.00  0.00     0.123 A 
ATOM      9  C   UNL     1     -29.508  11.589  -0.507  1.00  0.00     0.094 A 
ATOM     10  C   UNL     1     -30.024  12.684   0.192  1.00  0.00     0.146 A 
ATOM     11  O   UNL     1     -31.317  12.970   0.084  1.00  0.00    -0.456 OA
ENDROOT
BRANCH   1  12
ATOM     12  C   UNL     1     -33.349  14.221   0.516  1.00  0.00     0.021 A 
ATOM     13  C   UNL     1     -33.851  14.872  -0.628  1.00  0.00     0.016 A 
ATOM     14  C   UNL     1     -35.226  15.061  -0.787  1.00  0.00     0.051 A 
ATOM     15  C   UNL     1     -36.122  14.602   0.182  1.00  0.00     0.157 A 
ATOM     16  C   UNL     1     -34.257  13.748   1.480  1.00  0.00     0.062 A 
ATOM     17  C   UNL     1     -35.637  13.940   1.321  1.00  0.00     0.158 A 
BRANCH  15  18
ATOM     18  O   UNL     1     -37.488  14.807  -0.006  1.00  0.00    -0.504 OA
ATOM     19  H   UNL     1     -37.846  15.421  -0.729  1.00  0.00     0.293 HD
ENDBRANCH  15  18
BRANCH  17  20
ATOM     20  O   UNL     1     -36.525  13.474   2.289  1.00  0.00    -0.504 OA
ATOM     21  H   UNL     1     -36.269  13.435   3.269  1.00  0.00     0.293 HD
ENDBRANCH  17  20
ENDBRANCH   1  12
BRANCH   6  22
ATOM     22  O   UNL     1     -26.934  13.903   1.881  1.00  0.00    -0.507 OA
ATOM     23  H   UNL     1     -27.254  14.710   2.404  1.00  0.00     0.293 HD
ENDBRANCH   6  22
BRANCH   8  24
ATOM     24  O   UNL     1     -27.657  10.171  -1.117  1.00  0.00    -0.508 OA
ATOM     25  H   UNL     1     -26.694   9.871  -1.021  1.00  0.00     0.293 HD
ENDBRANCH   8  24
TORSDOF 5
ENDMDL
MODEL 3
REMARK VINA RESULT:    -7.120      2.278      7.117
REMARK INTER + INTRA:          -8.637
REMARK INTER:                  -8.319
REMARK INTRA:                  -0.318
REMARK UNBOUND:                -0.268
REMARK SMILES O=c1cc(-c2ccc(O)c(O)c2)oc2cc(O)cc(O)c12
REMARK SMILES IDX 4 1 3 2 2 3 1 4 21 5 19 6 18 7 16 8 15 9 14 10 13 11 5 12
REMARK SMILES IDX 6 13 7 14 8 15 12 16 10 17 9 18 11 20 20 22 17 24
REMARK H PARENT 9 19 11 21 20 23 17 25
REMARK Flexibility Score: inf
ROOT
ATOM      1  C   UNL     1     -33.456  12.953   1.346  1.00  0.00     0.138 A 
ATOM      2  C   UNL     1     -33.229  14.339   1.329  1.00  0.00     0.100 A 
ATOM      3  C   UNL     1     -32.024  14.832   0.825  1.00  0.00     0.197 A 
ATOM      4  O   UNL     1     -31.830  16.077   0.814  1.00  0.00    -0.289 OA
ATOM      5  C   UNL     1     -31.052  13.933   0.344  1.00  0.00     0.107 A 
ATOM      6  C   UNL     1     -29.807  14.348  -0.184  1.00  0.00     0.134 A 
ATOM      7  C   UNL     1     -28.889  13.389  -0.638  1.00  0.00     0.093 A 
ATOM      8  C   UNL     1     -29.194  12.024  -0.572  1.00  0.00     0.123 A 
ATOM      9  C   UNL     1     -30.422  11.610  -0.052  1.00  0.00     0.094 A 
ATOM     10  C   UNL     1     -31.350  12.550   0.405  1.00  0.00     0.146 A 
ATOM     11  O   UNL     1     -32.512  12.129   0.893  1.00  0.00    -0.456 OA
ENDROOT
BRANCH   1  12
ATOM     12  C   UNL     1     -34.717  12.371   1.872  1.00  0.00     0.021 A 
ATOM     13  C   UNL     1     -35.815  13.181   2.220  1.00  0.00     0.016 A 
ATOM     14  C   UNL     1     -36.993  12.605   2.703  1.00  0.00     0.051 A 
ATOM     15  C   UNL     1     -37.101  11.219   2.839  1.00  0.00     0.157 A 
ATOM     16  C   UNL     1     -34.837  10.976   1.998  1.00  0.00     0.062 A 
ATOM     17  C   UNL     1     -36.019  10.398   2.483  1.00  0.00     0.158 A 
BRANCH  15  18
ATOM     18  O   UNL     1     -38.290  10.675   3.324  1.00  0.00    -0.504 OA
ATOM     19  H   UNL     1     -39.059  11.256   3.637  1.00  0.00     0.293 HD
ENDBRANCH  15  18
BRANCH  17  20
ATOM     20  O   UNL     1     -36.120   9.014   2.612  1.00  0.00    -0.504 OA
ATOM     21  H   UNL     1     -36.700   8.588   3.327  1.00  0.00     0.293 HD
ENDBRANCH  17  20
ENDBRANCH   1  12
BRANCH   6  22
ATOM     22  O   UNL     1     -29.475  15.702  -0.261  1.00  0.00    -0.507 OA
ATOM     23  H   UNL     1     -29.736  16.270  -1.058  1.00  0.00     0.293 HD
ENDBRANCH   6  22
BRANCH   8  24
ATOM     24  O   UNL     1     -28.283  11.071  -1.022  1.00  0.00    -0.508 OA
ATOM     25  H   UNL     1     -28.535  10.388  -1.727  1.00  0.00     0.293 HD
ENDBRANCH   8  24
TORSDOF 5
ENDMDL
MODEL 4
REMARK VINA RESULT:    -7.091      2.571      6.667
REMARK INTER + INTRA:          -8.603
REMARK INTER:                  -8.304
REMARK INTRA:                  -0.299
REMARK UNBOUND:                -0.268
REMARK SMILES O=c1cc(-c2ccc(O)c(O)c2)oc2cc(O)cc(O)c12
REMARK SMILES IDX 4 1 3 2 2 3 1 4 21 5 19 6 18 7 16 8 15 9 14 10 13 11 5 12
REMARK SMILES IDX 6 13 7 14 8 15 12 16 10 17 9 18 11 20 20 22 17 24
REMARK H PARENT 9 19 11 21 20 23 17 25
REMARK Flexibility Score: inf
ROOT
ATOM      1  C   UNL     1     -31.995  13.472   0.650  1.00  0.00     0.138 A 
ATOM      2  C   UNL     1     -31.351  14.702   0.438  1.00  0.00     0.100 A 
ATOM      3  C   UNL     1     -30.048  14.718  -0.062  1.00  0.00     0.197 A 
ATOM      4  O   UNL     1     -29.479  15.827  -0.247  1.00  0.00    -0.289 OA
ATOM      5  C   UNL     1     -29.397  13.502  -0.346  1.00  0.00     0.107 A 
ATOM      6  C   UNL     1     -28.079  13.429  -0.857  1.00  0.00     0.134 A 
ATOM      7  C   UNL     1     -27.499  12.177  -1.108  1.00  0.00     0.093 A 
ATOM      8  C   UNL     1     -28.211  10.998  -0.857  1.00  0.00     0.123 A 
ATOM      9  C   UNL     1     -29.512  11.065  -0.353  1.00  0.00     0.094 A 
ATOM     10  C   UNL     1     -30.108  12.303  -0.097  1.00  0.00     0.146 A 
ATOM     11  O   UNL     1     -31.348  12.339   0.381  1.00  0.00    -0.456 OA
ENDROOT
BRANCH   1  12
ATOM     12  C   UNL     1     -33.379  13.393   1.181  1.00  0.00     0.021 A 
ATOM     13  C   UNL     1     -34.385  14.283   0.759  1.00  0.00     0.016 A 
ATOM     14  C   UNL     1     -35.682  14.179   1.270  1.00  0.00     0.051 A 
ATOM     15  C   UNL     1     -36.000  13.186   2.200  1.00  0.00     0.157 A 
ATOM     16  C   UNL     1     -33.709  12.387   2.107  1.00  0.00     0.062 A 
ATOM     17  C   UNL     1     -35.010  12.283   2.621  1.00  0.00     0.158 A 
BRANCH  15  18
ATOM     18  O   UNL     1     -37.303  13.109   2.691  1.00  0.00    -0.504 OA
ATOM     19  H   UNL     1     -37.623  12.325   3.247  1.00  0.00     0.293 HD
ENDBRANCH  15  18
BRANCH  17  20
ATOM     20  O   UNL     1     -35.321  11.287   3.545  1.00  0.00    -0.504 OA
ATOM     21  H   UNL     1     -34.630  10.611   3.849  1.00  0.00     0.293 HD
ENDBRANCH  17  20
ENDBRANCH   1  12
BRANCH   6  22
ATOM     22  O   UNL     1     -27.345  14.587  -1.115  1.00  0.00    -0.507 OA
ATOM     23  H   UNL     1     -26.906  15.117  -0.372  1.00  0.00     0.293 HD
ENDBRANCH   6  22
BRANCH   8  24
ATOM     24  O   UNL     1     -27.635   9.754  -1.106  1.00  0.00    -0.508 OA
ATOM     25  H   UNL     1     -27.123   9.254  -0.388  1.00  0.00     0.293 HD
ENDBRANCH   8  24
TORSDOF 5
ENDMDL
MODEL 5
REMARK VINA RESULT:    -7.054      2.523      6.863
REMARK INTER + INTRA:          -8.559
REMARK INTER:                  -8.293
REMARK INTRA:                  -0.265
REMARK UNBOUND:                -0.268
REMARK SMILES O=c1cc(-c2ccc(O)c(O)c2)oc2cc(O)cc(O)c12
REMARK SMILES IDX 4 1 3 2 2 3 1 4 21 5 19 6 18 7 16 8 15 9 14 10 13 11 5 12
REMARK SMILES IDX 6 13 7 14 8 15 12 16 10 17 9 18 11 20 20 22 17 24
REMARK H PARENT 9 19 11 21 20 23 17 25
REMARK Flexibility Score: inf
ROOT
ATOM      1  C   UNL     1     -32.017  13.469   0.437  1.00  0.00     0.138 A 
ATOM      2  C   UNL     1     -31.536  12.313  -0.198  1.00  0.00     0.100 A 
ATOM      3  C   UNL     1     -30.191  11.964  -0.065  1.00  0.00     0.197 A 
ATOM      4  O   UNL     1     -29.769  10.925  -0.640  1.00  0.00    -0.289 OA
ATOM      5  C   UNL     1     -29.335  12.778   0.703  1.00  0.00     0.107 A 
ATOM      6  C   UNL     1     -27.961  12.496   0.891  1.00  0.00     0.134 A 
ATOM      7  C   UNL     1     -27.174  13.361   1.666  1.00  0.00     0.093 A 
ATOM      8  C   UNL     1     -27.735  14.501   2.255  1.00  0.00     0.123 A 
ATOM      9  C   UNL     1     -29.090  14.782   2.072  1.00  0.00     0.094 A 
ATOM     10  C   UNL     1     -29.892  13.932   1.304  1.00  0.00     0.146 A 
ATOM     11  O   UNL     1     -31.179  14.222   1.147  1.00  0.00    -0.456 OA
ENDROOT
BRANCH   1  12
ATOM     12  C   UNL     1     -33.437  13.890   0.329  1.00  0.00     0.021 A 
ATOM     13  C   UNL     1     -33.902  14.647  -0.763  1.00  0.00     0.016 A 
ATOM     14  C   UNL     1     -35.246  15.020  -0.844  1.00  0.00     0.051 A 
ATOM     15  C   UNL     1     -36.149  14.641   0.154  1.00  0.00     0.157 A 
ATOM     16  C   UNL     1     -34.353  13.500   1.322  1.00  0.00     0.062 A 
ATOM     17  C   UNL     1     -35.701  13.875   1.242  1.00  0.00     0.158 A 
BRANCH  15  18
ATOM     18  O   UNL     1     -37.483  15.030   0.045  1.00  0.00    -0.504 OA
ATOM     19  H   UNL     1     -37.755  15.905  -0.389  1.00  0.00     0.293 HD
ENDBRANCH  15  18
BRANCH  17  20
ATOM     20  O   UNL     1     -36.596  13.490   2.239  1.00  0.00    -0.504 OA
ATOM     21  H   UNL     1     -36.284  13.017   3.079  1.00  0.00     0.293 HD
ENDBRANCH  17  20
ENDBRANCH   1  12
BRANCH   6  22
ATOM     22  O   UNL     1     -27.374  11.369   0.315  1.00  0.00    -0.507 OA
ATOM     23  H   UNL     1     -26.468  11.411  -0.136  1.00  0.00     0.293 HD
ENDBRANCH   6  22
BRANCH   8  24
ATOM     24  O   UNL     1     -26.953  15.359   3.024  1.00  0.00    -0.508 OA
ATOM     25  H   UNL     1     -27.086  15.443   4.025  1.00  0.00     0.293 HD
ENDBRANCH   8  24
TORSDOF 5
ENDMDL
MODEL 6
REMARK VINA RESULT:    -6.903     11.306     13.449
REMARK INTER + INTRA:          -8.381
REMARK INTER:                  -8.095
REMARK INTRA:                  -0.286
REMARK UNBOUND:                -0.268
REMARK SMILES O=c1cc(-c2ccc(O)c(O)c2)oc2cc(O)cc(O)c12
REMARK SMILES IDX 4 1 3 2 2 3 1 4 21 5 19 6 18 7 16 8 15 9 14 10 13 11 5 12
REMARK SMILES IDX 6 13 7 14 8 15 12 16 10 17 9 18 11 20 20 22 17 24
REMARK H PARENT 9 19 11 21 20 23 17 25
REMARK Flexibility Score: inf
ROOT
ATOM      1  C   UNL     1     -41.046   9.348   6.822  1.00  0.00     0.138 A 
ATOM      2  C   UNL     1     -40.014   8.683   7.504  1.00  0.00     0.100 A 
ATOM      3  C   UNL     1     -39.789   8.962   8.853  1.00  0.00     0.197 A 
ATOM      4  O   UNL     1     -38.860   8.360   9.456  1.00  0.00    -0.289 OA
ATOM      5  C   UNL     1     -40.599   9.909   9.510  1.00  0.00     0.107 A 
ATOM      6  C   UNL     1     -40.440  10.249  10.875  1.00  0.00     0.134 A 
ATOM      7  C   UNL     1     -41.284  11.208  11.455  1.00  0.00     0.093 A 
ATOM      8  C   UNL     1     -42.283  11.831  10.697  1.00  0.00     0.123 A 
ATOM      9  C   UNL     1     -42.443  11.498   9.350  1.00  0.00     0.094 A 
ATOM     10  C   UNL     1     -41.612  10.545   8.754  1.00  0.00     0.146 A 
ATOM     11  O   UNL     1     -41.786  10.245   7.471  1.00  0.00    -0.456 OA
ENDROOT
BRANCH   1  12
ATOM     12  C   UNL     1     -41.329   9.093   5.387  1.00  0.00     0.021 A 
ATOM     13  C   UNL     1     -42.618   9.264   4.846  1.00  0.00     0.016 A 
ATOM     14  C   UNL     1     -42.853   9.026   3.490  1.00  0.00     0.051 A 
ATOM     15  C   UNL     1     -41.812   8.622   2.650  1.00  0.00     0.157 A 
ATOM     16  C   UNL     1     -40.283   8.700   4.534  1.00  0.00     0.062 A 
ATOM     17  C   UNL     1     -40.519   8.459   3.173  1.00  0.00     0.158 A 
BRANCH  15  18
ATOM     18  O   UNL     1     -42.080   8.392   1.301  1.00  0.00    -0.504 OA
ATOM     19  H   UNL     1     -42.731   7.678   0.996  1.00  0.00     0.293 HD
ENDBRANCH  15  18
BRANCH  17  20
ATOM     20  O   UNL     1     -39.474   8.061   2.340  1.00  0.00    -0.504 OA
ATOM     21  H   UNL     1     -38.506   8.149   2.625  1.00  0.00     0.293 HD
ENDBRANCH  17  20
ENDBRANCH   1  12
BRANCH   6  22
ATOM     22  O   UNL     1     -39.454   9.645  11.656  1.00  0.00    -0.507 OA
ATOM     23  H   UNL     1     -39.498   8.664  11.905  1.00  0.00     0.293 HD
ENDBRANCH   6  22
BRANCH   8  24
ATOM     24  O   UNL     1     -43.120  12.783  11.272  1.00  0.00    -0.508 OA
ATOM     25  H   UNL     1     -43.203  12.878  12.278  1.00  0.00     0.293 HD
ENDBRANCH   8  24
TORSDOF 5
ENDMDL
MODEL 7
REMARK VINA RESULT:    -6.741      8.297     12.725
REMARK INTER + INTRA:          -8.190
REMARK INTER:                  -7.917
REMARK INTRA:                  -0.273
REMARK UNBOUND:                -0.268
REMARK SMILES O=c1cc(-c2ccc(O)c(O)c2)oc2cc(O)cc(O)c12
REMARK SMILES IDX 4 1 3 2 2 3 1 4 21 5 19 6 18 7 16 8 15 9 14 10 13 11 5 12
REMARK SMILES IDX 6 13 7 14 8 15 12 16 10 17 9 18 11 20 20 22 17 24
REMARK H PARENT 9 19 11 21 20 23 17 25
REMARK Flexibility Score: inf
ROOT
ATOM      1  C   UNL     1     -40.839   9.799   6.857  1.00  0.00     0.138 A 
ATOM      2  C   UNL     1     -41.702   8.961   6.132  1.00  0.00     0.100 A 
ATOM      3  C   UNL     1     -41.391   8.627   4.814  1.00  0.00     0.197 A 
ATOM      4  O   UNL     1     -42.173   7.875   4.172  1.00  0.00    -0.289 OA
ATOM      5  C   UNL     1     -40.216   9.137   4.227  1.00  0.00     0.107 A 
ATOM      6  C   UNL     1     -39.825   8.846   2.898  1.00  0.00     0.134 A 
ATOM      7  C   UNL     1     -38.641   9.399   2.385  1.00  0.00     0.093 A 
ATOM      8  C   UNL     1     -37.844  10.235   3.176  1.00  0.00     0.123 A 
ATOM      9  C   UNL     1     -38.226  10.524   4.488  1.00  0.00     0.094 A 
ATOM     10  C   UNL     1     -39.401   9.983   5.017  1.00  0.00     0.146 A 
ATOM     11  O   UNL     1     -39.741  10.272   6.269  1.00  0.00    -0.456 OA
ENDROOT
BRANCH   1  12
ATOM     12  C   UNL     1     -41.120  10.189   8.261  1.00  0.00     0.021 A 
ATOM     13  C   UNL     1     -42.245  10.965   8.602  1.00  0.00     0.016 A 
ATOM     14  C   UNL     1     -42.490  11.309   9.934  1.00  0.00     0.051 A 
ATOM     15  C   UNL     1     -41.628  10.881  10.947  1.00  0.00     0.157 A 
ATOM     16  C   UNL     1     -40.264   9.750   9.287  1.00  0.00     0.062 A 
ATOM     17  C   UNL     1     -40.509  10.097  10.624  1.00  0.00     0.158 A 
BRANCH  15  18
ATOM     18  O   UNL     1     -41.900  11.242  12.266  1.00  0.00    -0.504 OA
ATOM     19  H   UNL     1     -42.049  12.206  12.541  1.00  0.00     0.293 HD
ENDBRANCH  15  18
BRANCH  17  20
ATOM     20  O   UNL     1     -39.647   9.663  11.629  1.00  0.00    -0.504 OA
ATOM     21  H   UNL     1     -38.661   9.899  11.622  1.00  0.00     0.293 HD
ENDBRANCH  17  20
ENDBRANCH   1  12
BRANCH   6  22
ATOM     22  O   UNL     1     -40.600   8.017   2.087  1.00  0.00    -0.507 OA
ATOM     23  H   UNL     1     -40.898   8.304   1.162  1.00  0.00     0.293 HD
ENDBRANCH   6  22
BRANCH   8  24
ATOM     24  O   UNL     1     -36.669  10.784   2.667  1.00  0.00    -0.508 OA
ATOM     25  H   UNL     1     -36.661  11.305   1.798  1.00  0.00     0.293 HD
ENDBRANCH   8  24
TORSDOF 5
ENDMDL
MODEL 8
REMARK VINA RESULT:    -6.738      2.055      7.196
REMARK INTER + INTRA:          -8.187
REMARK INTER:                  -7.908
REMARK INTRA:                  -0.279
REMARK UNBOUND:                -0.268
REMARK SMILES O=c1cc(-c2ccc(O)c(O)c2)oc2cc(O)cc(O)c12
REMARK SMILES IDX 4 1 3 2 2 3 1 4 21 5 19 6 18 7 16 8 15 9 14 10 13 11 5 12
REMARK SMILES IDX 6 13 7 14 8 15 12 16 10 17 9 18 11 20 20 22 17 24
REMARK H PARENT 9 19 11 21 20 23 17 25
REMARK Flexibility Score: inf
ROOT
ATOM      1  C   UNL     1     -33.165  13.288   1.145  1.00  0.00     0.138 A 
ATOM      2  C   UNL     1     -33.371  14.375   0.279  1.00  0.00     0.100 A 
ATOM      3  C   UNL     1     -32.272  15.089  -0.202  1.00  0.00     0.197 A 
ATOM      4  O   UNL     1     -32.468  16.063  -0.978  1.00  0.00    -0.289 OA
ATOM      5  C   UNL     1     -30.973  14.710   0.188  1.00  0.00     0.107 A 
ATOM      6  C   UNL     1     -29.806  15.377  -0.255  1.00  0.00     0.134 A 
ATOM      7  C   UNL     1     -28.547  14.942   0.185  1.00  0.00     0.093 A 
ATOM      8  C   UNL     1     -28.434  13.854   1.059  1.00  0.00     0.123 A 
ATOM      9  C   UNL     1     -29.583  13.192   1.498  1.00  0.00     0.094 A 
ATOM     10  C   UNL     1     -30.847  13.611   1.071  1.00  0.00     0.146 A 
ATOM     11  O   UNL     1     -31.924  12.963   1.503  1.00  0.00    -0.456 OA
ENDROOT
BRANCH   1  12
ATOM     12  C   UNL     1     -34.295  12.495   1.689  1.00  0.00     0.021 A 
ATOM     13  C   UNL     1     -34.213  11.097   1.839  1.00  0.00     0.016 A 
ATOM     14  C   UNL     1     -35.289  10.377   2.364  1.00  0.00     0.051 A 
ATOM     15  C   UNL     1     -36.459  11.035   2.755  1.00  0.00     0.157 A 
ATOM     16  C   UNL     1     -35.470  13.152   2.098  1.00  0.00     0.062 A 
ATOM     17  C   UNL     1     -36.551  12.430   2.623  1.00  0.00     0.158 A 
BRANCH  15  18
ATOM     18  O   UNL     1     -37.516  10.288   3.274  1.00  0.00    -0.504 OA
ATOM     19  H   UNL     1     -37.538   9.986   4.242  1.00  0.00     0.293 HD
ENDBRANCH  15  18
BRANCH  17  20
ATOM     20  O   UNL     1     -37.712  13.093   3.015  1.00  0.00    -0.504 OA
ATOM     21  H   UNL     1     -37.683  14.023   3.417  1.00  0.00     0.293 HD
ENDBRANCH  17  20
ENDBRANCH   1  12
BRANCH   6  22
ATOM     22  O   UNL     1     -29.887  16.465  -1.125  1.00  0.00    -0.507 OA
ATOM     23  H   UNL     1     -30.685  16.601  -1.735  1.00  0.00     0.293 HD
ENDBRANCH   6  22
BRANCH   8  24
ATOM     24  O   UNL     1     -27.184  13.421   1.497  1.00  0.00    -0.508 OA
ATOM     25  H   UNL     1     -26.725  12.621   1.080  1.00  0.00     0.293 HD
ENDBRANCH   8  24
TORSDOF 5
ENDMDL
MODEL 9
REMARK VINA RESULT:    -6.073      1.246      3.052
REMARK INTER + INTRA:          -7.406
REMARK INTER:                  -7.136
REMARK INTRA:                  -0.269
REMARK UNBOUND:                -0.268
REMARK SMILES O=c1cc(-c2ccc(O)c(O)c2)oc2cc(O)cc(O)c12
REMARK SMILES IDX 4 1 3 2 2 3 1 4 21 5 19 6 18 7 16 8 15 9 14 10 13 11 5 12
REMARK SMILES IDX 6 13 7 14 8 15 12 16 10 17 9 18 11 20 20 22 17 24
REMARK H PARENT 9 19 11 21 20 23 17 25
REMARK Flexibility Score: inf
ROOT
ATOM      1  C   UNL     1     -31.100  13.351   0.969  1.00  0.00     0.138 A 
ATOM      2  C   UNL     1     -31.102  12.265   0.078  1.00  0.00     0.100 A 
ATOM      3  C   UNL     1     -32.223  11.437   0.005  1.00  0.00     0.197 A 
ATOM      4  O   UNL     1     -32.214  10.465  -0.797  1.00  0.00    -0.289 OA
ATOM      5  C   UNL     1     -33.336  11.702   0.827  1.00  0.00     0.107 A 
ATOM      6  C   UNL     1     -34.513  10.915   0.814  1.00  0.00     0.134 A 
ATOM      7  C   UNL     1     -35.577  11.241   1.668  1.00  0.00     0.093 A 
ATOM      8  C   UNL     1     -35.485  12.338   2.534  1.00  0.00     0.123 A 
ATOM      9  C   UNL     1     -34.326  13.117   2.550  1.00  0.00     0.094 A 
ATOM     10  C   UNL     1     -33.255  12.808   1.706  1.00  0.00     0.146 A 
ATOM     11  O   UNL     1     -32.165  13.567   1.739  1.00  0.00    -0.456 OA
ENDROOT
BRANCH   1  12
ATOM     12  C   UNL     1     -29.935  14.263   1.091  1.00  0.00     0.021 A 
ATOM     13  C   UNL     1     -29.310  14.502   2.329  1.00  0.00     0.016 A 
ATOM     14  C   UNL     1     -28.208  15.358   2.413  1.00  0.00     0.051 A 
ATOM     15  C   UNL     1     -27.707  15.982   1.267  1.00  0.00     0.157 A 
ATOM     16  C   UNL     1     -29.417  14.883  -0.060  1.00  0.00     0.062 A 
ATOM     17  C   UNL     1     -28.312  15.743   0.023  1.00  0.00     0.158 A 
BRANCH  15  18
ATOM     18  O   UNL     1     -26.607  16.831   1.383  1.00  0.00    -0.504 OA
ATOM     19  H   UNL     1     -26.516  17.673   0.827  1.00  0.00     0.293 HD
ENDBRANCH  15  18
BRANCH  17  20
ATOM     20  O   UNL     1     -27.815  16.358  -1.125  1.00  0.00    -0.504 OA
ATOM     21  H   UNL     1     -28.390  16.974  -1.689  1.00  0.00     0.293 HD
ENDBRANCH  17  20
ENDBRANCH   1  12
BRANCH   6  22
ATOM     22  O   UNL     1     -34.632   9.816  -0.038  1.00  0.00    -0.507 OA
ATOM     23  H   UNL     1     -34.437   9.887  -1.030  1.00  0.00     0.293 HD
ENDBRANCH   6  22
BRANCH   8  24
ATOM     24  O   UNL     1     -36.541  12.661   3.383  1.00  0.00    -0.508 OA
ATOM     25  H   UNL     1     -37.455  12.908   3.022  1.00  0.00     0.293 HD
ENDBRANCH   8  24
TORSDOF 5
ENDMDL
