MODEL 1
REMARK VINA RESULT:    -5.554      0.000      0.000
REMARK INTER + INTRA:          -7.545
REMARK INTER:                  -7.015
REMARK INTRA:                  -0.529
REMARK UNBOUND:                -0.529
REMARK SMILES Oc1ccc(CCc2cc(O)cc(O)c2)cc1
REMARK SMILES IDX 6 1 5 2 4 3 3 4 2 5 16 6 17 7 1 8 7 10 8 11 15 12 9 13 13 14
REMARK SMILES IDX 10 15 12 16 14 17 11 19
REMARK H PARENT 1 9 14 18 11 20
REMARK Flexibility Score: inf
ROOT
ATOM      1  C   UNL     1     172.488 179.507 180.704  1.00  0.00     0.040 C 
ENDROOT
BRANCH   1   2
ATOM      2  C   UNL     1     171.790 178.372 181.402  1.00  0.00    -0.047 A 
ATOM      3  C   UNL     1     172.343 177.081 181.383  1.00  0.00     0.007 A 
ATOM      4  C   UNL     1     171.677 176.019 182.005  1.00  0.00     0.046 A 
ATOM      5  C   UNL     1     170.448 176.236 182.642  1.00  0.00     0.115 A 
ATOM      6  C   UNL     1     170.552 178.581 182.032  1.00  0.00     0.007 A 
ATOM      7  C   UNL     1     169.888 177.518 182.651  1.00  0.00     0.046 A 
BRANCH   5   8
ATOM      8  O   UNL     1     169.775 175.186 183.264  1.00  0.00    -0.508 OA
ATOM      9  H   UNL     1     169.947 174.222 183.006  1.00  0.00     0.293 HD
ENDBRANCH   5   8
ENDBRANCH   1   2
BRANCH   1  10
ATOM     10  C   UNL     1     173.299 178.989 179.513  1.00  0.00     0.040 C 
BRANCH  10  11
ATOM     11  C   UNL     1     174.765 179.269 179.708  1.00  0.00    -0.040 A 
ATOM     12  C   UNL     1     175.587 179.537 178.601  1.00  0.00     0.050 A 
ATOM     13  C   UNL     1     175.310 179.319 181.001  1.00  0.00     0.050 A 
ATOM     14  C   UNL     1     176.945 179.831 178.784  1.00  0.00     0.119 A 
ATOM     15  C   UNL     1     176.669 179.612 181.184  1.00  0.00     0.119 A 
ATOM     16  C   UNL     1     177.482 179.864 180.075  1.00  0.00     0.092 A 
BRANCH  14  17
ATOM     17  O   UNL     1     177.768 180.092 177.691  1.00  0.00    -0.508 OA
ATOM     18  H   UNL     1     178.413 179.397 177.335  1.00  0.00     0.293 HD
ENDBRANCH  14  17
BRANCH  15  19
ATOM     19  O   UNL     1     177.218 179.658 182.464  1.00  0.00    -0.508 OA
ATOM     20  H   UNL     1     176.733 179.267 183.262  1.00  0.00     0.293 HD
ENDBRANCH  15  19
ENDBRANCH  10  11
ENDBRANCH   1  10
TORSDOF 6
ENDMDL
MODEL 2
REMARK VINA RESULT:    -5.460      0.176      2.352
REMARK INTER + INTRA:          -7.426
REMARK INTER:                  -6.880
REMARK INTRA:                  -0.546
REMARK UNBOUND:                -0.529
REMARK SMILES Oc1ccc(CCc2cc(O)cc(O)c2)cc1
REMARK SMILES IDX 6 1 5 2 4 3 3 4 2 5 16 6 17 7 1 8 7 10 8 11 15 12 9 13 13 14
REMARK SMILES IDX 10 15 12 16 14 17 11 19
REMARK H PARENT 1 9 14 18 11 20
REMARK Flexibility Score: inf
ROOT
ATOM      1  C   UNL     1     172.402 179.490 180.838  1.00  0.00     0.040 C 
ENDROOT
BRANCH   1   2
ATOM      2  C   UNL     1     171.657 178.312 181.403  1.00  0.00    -0.047 A 
ATOM      3  C   UNL     1     170.417 178.494 182.036  1.00  0.00     0.007 A 
ATOM      4  C   UNL     1     169.740 177.403 182.591  1.00  0.00     0.046 A 
ATOM      5  C   UNL     1     170.302 176.121 182.526  1.00  0.00     0.115 A 
ATOM      6  C   UNL     1     172.221 177.026 181.353  1.00  0.00     0.007 A 
ATOM      7  C   UNL     1     171.543 175.937 181.909  1.00  0.00     0.046 A 
BRANCH   5   8
ATOM      8  O   UNL     1     169.638 175.026 183.076  1.00  0.00    -0.508 OA
ATOM      9  H   UNL     1     169.624 174.863 184.075  1.00  0.00     0.293 HD
ENDBRANCH   5   8
ENDBRANCH   1   2
BRANCH   1  10
ATOM     10  C   UNL     1     173.222 179.073 179.615  1.00  0.00     0.040 C 
BRANCH  10  11
ATOM     11  C   UNL     1     174.682 179.376 179.827  1.00  0.00    -0.040 A 
ATOM     12  C   UNL     1     175.227 179.358 181.121  1.00  0.00     0.050 A 
ATOM     13  C   UNL     1     175.520 179.623 178.728  1.00  0.00     0.050 A 
ATOM     14  C   UNL     1     176.592 179.606 181.317  1.00  0.00     0.119 A 
ATOM     15  C   UNL     1     176.886 179.873 178.923  1.00  0.00     0.119 A 
ATOM     16  C   UNL     1     177.416 179.866 180.218  1.00  0.00     0.092 A 
BRANCH  14  17
ATOM     17  O   UNL     1     177.139 179.596 182.598  1.00  0.00    -0.508 OA
ATOM     18  H   UNL     1     177.854 178.929 182.864  1.00  0.00     0.293 HD
ENDBRANCH  14  17
BRANCH  15  19
ATOM     19  O   UNL     1     177.723 180.125 177.839  1.00  0.00    -0.508 OA
ATOM     20  H   UNL     1     178.654 180.502 177.966  1.00  0.00     0.293 HD
ENDBRANCH  15  19
ENDBRANCH  10  11
ENDBRANCH   1  10
TORSDOF 6
ENDMDL
MODEL 3
REMARK VINA RESULT:    -5.446      2.404      3.657
REMARK INTER + INTRA:          -7.408
REMARK INTER:                  -6.632
REMARK INTRA:                  -0.776
REMARK UNBOUND:                -0.529
REMARK SMILES Oc1ccc(CCc2cc(O)cc(O)c2)cc1
REMARK SMILES IDX 6 1 5 2 4 3 3 4 2 5 16 6 17 7 1 8 7 10 8 11 15 12 9 13 13 14
REMARK SMILES IDX 10 15 12 16 14 17 11 19
REMARK H PARENT 1 9 14 18 11 20
REMARK Flexibility Score: inf
ROOT
ATOM      1  C   UNL     1     173.813 176.559 181.493  1.00  0.00     0.040 C 
ENDROOT
BRANCH   1   2
ATOM      2  C   UNL     1     172.971 177.514 180.691  1.00  0.00    -0.047 A 
ATOM      3  C   UNL     1     172.561 178.736 181.247  1.00  0.00     0.007 A 
ATOM      4  C   UNL     1     171.751 179.609 180.513  1.00  0.00     0.046 A 
ATOM      5  C   UNL     1     171.336 179.263 179.220  1.00  0.00     0.115 A 
ATOM      6  C   UNL     1     172.541 177.167 179.399  1.00  0.00     0.007 A 
ATOM      7  C   UNL     1     171.731 178.040 178.668  1.00  0.00     0.046 A 
BRANCH   5   8
ATOM      8  O   UNL     1     170.528 180.124 178.479  1.00  0.00    -0.508 OA
ATOM      9  H   UNL     1     170.354 179.968 177.493  1.00  0.00     0.293 HD
ENDBRANCH   5   8
ENDBRANCH   1   2
BRANCH   1  10
ATOM     10  C   UNL     1     175.115 176.239 180.755  1.00  0.00     0.040 C 
BRANCH  10  11
ATOM     11  C   UNL     1     175.934 177.486 180.559  1.00  0.00    -0.040 A 
ATOM     12  C   UNL     1     176.369 178.229 181.669  1.00  0.00     0.050 A 
ATOM     13  C   UNL     1     176.318 177.885 179.269  1.00  0.00     0.050 A 
ATOM     14  C   UNL     1     177.160 179.372 181.489  1.00  0.00     0.119 A 
ATOM     15  C   UNL     1     177.109 179.028 179.088  1.00  0.00     0.119 A 
ATOM     16  C   UNL     1     177.524 179.769 180.199  1.00  0.00     0.092 A 
BRANCH  14  17
ATOM     17  O   UNL     1     177.589 180.118 182.584  1.00  0.00    -0.508 OA
ATOM     18  H   UNL     1     178.484 180.592 182.584  1.00  0.00     0.293 HD
ENDBRANCH  14  17
BRANCH  15  19
ATOM     19  O   UNL     1     177.489 179.433 177.810  1.00  0.00    -0.508 OA
ATOM     20  H   UNL     1     177.078 179.022 176.981  1.00  0.00     0.293 HD
ENDBRANCH  15  19
ENDBRANCH  10  11
ENDBRANCH   1  10
TORSDOF 6
ENDMDL
MODEL 4
REMARK VINA RESULT:    -5.443      2.481      6.597
REMARK INTER + INTRA:          -7.405
REMARK INTER:                  -6.892
REMARK INTRA:                  -0.513
REMARK UNBOUND:                -0.529
REMARK SMILES Oc1ccc(CCc2cc(O)cc(O)c2)cc1
REMARK SMILES IDX 6 1 5 2 4 3 3 4 2 5 16 6 17 7 1 8 7 10 8 11 15 12 9 13 13 14
REMARK SMILES IDX 10 15 12 16 14 17 11 19
REMARK H PARENT 1 9 14 18 11 20
REMARK Flexibility Score: inf
ROOT
ATOM      1  C   UNL     1     174.051 179.319 181.098  1.00  0.00     0.040 C 
ENDROOT
BRANCH   1   2
ATOM      2  C   UNL     1     175.300 178.509 180.883  1.00  0.00    -0.047 A 
ATOM      3  C   UNL     1     176.444 179.105 180.328  1.00  0.00     0.007 A 
ATOM      4  C   UNL     1     177.595 178.345 180.097  1.00  0.00     0.046 A 
ATOM      5  C   UNL     1     177.609 176.979 180.411  1.00  0.00     0.115 A 
ATOM      6  C   UNL     1     175.316 177.137 181.183  1.00  0.00     0.007 A 
ATOM      7  C   UNL     1     176.467 176.379 180.951  1.00  0.00     0.046 A 
BRANCH   5   8
ATOM      8  O   UNL     1     178.750 176.210 180.185  1.00  0.00    -0.508 OA
ATOM      9  H   UNL     1     178.963 175.838 179.267  1.00  0.00     0.293 HD
ENDBRANCH   5   8
ENDBRANCH   1   2
BRANCH   1  10
ATOM     10  C   UNL     1     173.145 179.251 179.866  1.00  0.00     0.040 C 
BRANCH  10  11
ATOM     11  C   UNL     1     171.755 178.825 180.253  1.00  0.00    -0.040 A 
ATOM     12  C   UNL     1     171.541 178.097 181.435  1.00  0.00     0.050 A 
ATOM     13  C   UNL     1     170.654 179.200 179.465  1.00  0.00     0.050 A 
ATOM     14  C   UNL     1     170.244 177.728 181.813  1.00  0.00     0.119 A 
ATOM     15  C   UNL     1     169.356 178.830 179.843  1.00  0.00     0.119 A 
ATOM     16  C   UNL     1     169.155 178.093 181.015  1.00  0.00     0.092 A 
BRANCH  14  17
ATOM     17  O   UNL     1     170.025 177.001 182.981  1.00  0.00    -0.508 OA
ATOM     18  H   UNL     1     170.555 177.181 183.825  1.00  0.00     0.293 HD
ENDBRANCH  14  17
BRANCH  15  19
ATOM     19  O   UNL     1     168.260 179.193 179.063  1.00  0.00    -0.508 OA
ATOM     20  H   UNL     1     167.869 180.127 179.103  1.00  0.00     0.293 HD
ENDBRANCH  15  19
ENDBRANCH  10  11
ENDBRANCH   1  10
TORSDOF 6
ENDMDL
MODEL 5
REMARK VINA RESULT:    -5.441      2.506      6.322
REMARK INTER + INTRA:          -7.402
REMARK INTER:                  -6.898
REMARK INTRA:                  -0.504
REMARK UNBOUND:                -0.529
REMARK SMILES Oc1ccc(CCc2cc(O)cc(O)c2)cc1
REMARK SMILES IDX 6 1 5 2 4 3 3 4 2 5 16 6 17 7 1 8 7 10 8 11 15 12 9 13 13 14
REMARK SMILES IDX 10 15 12 16 14 17 11 19
REMARK H PARENT 1 9 14 18 11 20
REMARK Flexibility Score: inf
ROOT
ATOM      1  C   UNL     1     174.145 179.336 181.115  1.00  0.00     0.040 C 
ENDROOT
BRANCH   1   2
ATOM      2  C   UNL     1     175.371 178.504 180.853  1.00  0.00    -0.047 A 
ATOM      3  C   UNL     1     176.436 179.030 180.105  1.00  0.00     0.007 A 
ATOM      4  C   UNL     1     177.562 178.245 179.833  1.00  0.00     0.046 A 
ATOM      5  C   UNL     1     177.629 176.925 180.299  1.00  0.00     0.115 A 
ATOM      6  C   UNL     1     175.437 177.177 181.307  1.00  0.00     0.007 A 
ATOM      7  C   UNL     1     176.563 176.394 181.033  1.00  0.00     0.046 A 
BRANCH   5   8
ATOM      8  O   UNL     1     178.745 176.134 180.035  1.00  0.00    -0.508 OA
ATOM      9  H   UNL     1     179.540 176.115 180.662  1.00  0.00     0.293 HD
ENDBRANCH   5   8
ENDBRANCH   1   2
BRANCH   1  10
ATOM     10  C   UNL     1     173.217 179.327 179.898  1.00  0.00     0.040 C 
BRANCH  10  11
ATOM     11  C   UNL     1     171.814 178.962 180.303  1.00  0.00    -0.040 A 
ATOM     12  C   UNL     1     170.733 179.263 179.459  1.00  0.00     0.050 A 
ATOM     13  C   UNL     1     171.581 178.268 181.501  1.00  0.00     0.050 A 
ATOM     14  C   UNL     1     169.430 178.894 179.819  1.00  0.00     0.119 A 
ATOM     15  C   UNL     1     170.278 177.900 181.863  1.00  0.00     0.119 A 
ATOM     16  C   UNL     1     169.207 178.217 181.022  1.00  0.00     0.092 A 
BRANCH  14  17
ATOM     17  O   UNL     1     168.352 179.195 178.990  1.00  0.00    -0.508 OA
ATOM     18  H   UNL     1     168.476 179.702 178.122  1.00  0.00     0.293 HD
ENDBRANCH  14  17
BRANCH  15  19
ATOM     19  O   UNL     1     170.038 177.216 183.053  1.00  0.00    -0.508 OA
ATOM     20  H   UNL     1     169.116 177.186 183.469  1.00  0.00     0.293 HD
ENDBRANCH  15  19
ENDBRANCH  10  11
ENDBRANCH   1  10
TORSDOF 6
ENDMDL
MODEL 6
REMARK VINA RESULT:    -5.345      2.258      2.845
REMARK INTER + INTRA:          -7.280
REMARK INTER:                  -6.499
REMARK INTRA:                  -0.781
REMARK UNBOUND:                -0.529
REMARK SMILES Oc1ccc(CCc2cc(O)cc(O)c2)cc1
REMARK SMILES IDX 6 1 5 2 4 3 3 4 2 5 16 6 17 7 1 8 7 10 8 11 15 12 9 13 13 14
REMARK SMILES IDX 10 15 12 16 14 17 11 19
REMARK H PARENT 1 9 14 18 11 20
REMARK Flexibility Score: inf
ROOT
ATOM      1  C   UNL     1     173.954 176.532 181.416  1.00  0.00     0.040 C 
ENDROOT
BRANCH   1   2
ATOM      2  C   UNL     1     172.916 177.380 180.734  1.00  0.00    -0.047 A 
ATOM      3  C   UNL     1     172.565 178.633 181.262  1.00  0.00     0.007 A 
ATOM      4  C   UNL     1     171.577 179.407 180.646  1.00  0.00     0.046 A 
ATOM      5  C   UNL     1     170.922 178.931 179.501  1.00  0.00     0.115 A 
ATOM      6  C   UNL     1     172.247 176.902 179.594  1.00  0.00     0.007 A 
ATOM      7  C   UNL     1     171.259 177.678 178.980  1.00  0.00     0.046 A 
BRANCH   5   8
ATOM      8  O   UNL     1     169.935 179.693 178.879  1.00  0.00    -0.508 OA
ATOM      9  H   UNL     1     169.808 179.674 177.875  1.00  0.00     0.293 HD
ENDBRANCH   5   8
ENDBRANCH   1   2
BRANCH   1  10
ATOM     10  C   UNL     1     175.146 176.288 180.488  1.00  0.00     0.040 C 
BRANCH  10  11
ATOM     11  C   UNL     1     175.990 177.530 180.372  1.00  0.00    -0.040 A 
ATOM     12  C   UNL     1     176.363 178.016 179.109  1.00  0.00     0.050 A 
ATOM     13  C   UNL     1     176.363 178.242 181.523  1.00  0.00     0.050 A 
ATOM     14  C   UNL     1     177.119 179.190 178.998  1.00  0.00     0.119 A 
ATOM     15  C   UNL     1     177.121 179.416 181.414  1.00  0.00     0.119 A 
ATOM     16  C   UNL     1     177.499 179.885 180.152  1.00  0.00     0.092 A 
BRANCH  14  17
ATOM     17  O   UNL     1     177.498 179.676 177.749  1.00  0.00    -0.508 OA
ATOM     18  H   UNL     1     178.322 180.254 177.633  1.00  0.00     0.293 HD
ENDBRANCH  14  17
BRANCH  15  19
ATOM     19  O   UNL     1     177.499 180.125 182.552  1.00  0.00    -0.508 OA
ATOM     20  H   UNL     1     177.466 181.137 182.580  1.00  0.00     0.293 HD
ENDBRANCH  15  19
ENDBRANCH  10  11
ENDBRANCH   1  10
TORSDOF 6
ENDMDL
MODEL 7
REMARK VINA RESULT:    -5.320      3.298      4.548
REMARK INTER + INTRA:          -7.249
REMARK INTER:                  -6.541
REMARK INTRA:                  -0.708
REMARK UNBOUND:                -0.529
REMARK SMILES Oc1ccc(CCc2cc(O)cc(O)c2)cc1
REMARK SMILES IDX 6 1 5 2 4 3 3 4 2 5 16 6 17 7 1 8 7 10 8 11 15 12 9 13 13 14
REMARK SMILES IDX 10 15 12 16 14 17 11 19
REMARK H PARENT 1 9 14 18 11 20
REMARK Flexibility Score: inf
ROOT
ATOM      1  C   UNL     1     175.611 179.219 180.374  1.00  0.00     0.040 C 
ENDROOT
BRANCH   1   2
ATOM      2  C   UNL     1     174.130 179.275 180.118  1.00  0.00    -0.047 A 
ATOM      3  C   UNL     1     173.243 179.599 181.158  1.00  0.00     0.007 A 
ATOM      4  C   UNL     1     171.863 179.619 180.929  1.00  0.00     0.046 A 
ATOM      5  C   UNL     1     171.357 179.308 179.660  1.00  0.00     0.115 A 
ATOM      6  C   UNL     1     173.615 178.951 178.852  1.00  0.00     0.007 A 
ATOM      7  C   UNL     1     172.236 178.971 178.625  1.00  0.00     0.046 A 
BRANCH   5   8
ATOM      8  O   UNL     1     169.985 179.324 179.419  1.00  0.00    -0.508 OA
ATOM      9  H   UNL     1     169.537 178.605 178.863  1.00  0.00     0.293 HD
ENDBRANCH   5   8
ENDBRANCH   1   2
BRANCH   1  10
ATOM     10  C   UNL     1     175.925 178.244 181.512  1.00  0.00     0.040 C 
BRANCH  10  11
ATOM     11  C   UNL     1     175.963 176.828 181.002  1.00  0.00    -0.040 A 
ATOM     12  C   UNL     1     177.130 176.322 180.407  1.00  0.00     0.050 A 
ATOM     13  C   UNL     1     174.853 175.985 181.168  1.00  0.00     0.050 A 
ATOM     14  C   UNL     1     177.179 174.994 179.962  1.00  0.00     0.119 A 
ATOM     15  C   UNL     1     174.900 174.657 180.722  1.00  0.00     0.119 A 
ATOM     16  C   UNL     1     176.062 174.167 180.118  1.00  0.00     0.092 A 
BRANCH  14  17
ATOM     17  O   UNL     1     178.330 174.487 179.365  1.00  0.00    -0.508 OA
ATOM     18  H   UNL     1     178.986 173.912 179.881  1.00  0.00     0.293 HD
ENDBRANCH  14  17
BRANCH  15  19
ATOM     19  O   UNL     1     173.799 173.817 180.878  1.00  0.00    -0.508 OA
ATOM     20  H   UNL     1     173.775 173.106 181.599  1.00  0.00     0.293 HD
ENDBRANCH  15  19
ENDBRANCH  10  11
ENDBRANCH   1  10
TORSDOF 6
ENDMDL
MODEL 8
REMARK VINA RESULT:    -5.318      3.253      4.673
REMARK INTER + INTRA:          -7.246
REMARK INTER:                  -6.560
REMARK INTRA:                  -0.687
REMARK UNBOUND:                -0.529
REMARK SMILES Oc1ccc(CCc2cc(O)cc(O)c2)cc1
REMARK SMILES IDX 6 1 5 2 4 3 3 4 2 5 16 6 17 7 1 8 7 10 8 11 15 12 9 13 13 14
REMARK SMILES IDX 10 15 12 16 14 17 11 19
REMARK H PARENT 1 9 14 18 11 20
REMARK Flexibility Score: inf
ROOT
ATOM      1  C   UNL     1     175.661 179.300 180.241  1.00  0.00     0.040 C 
ENDROOT
BRANCH   1   2
ATOM      2  C   UNL     1     174.166 179.331 180.073  1.00  0.00    -0.047 A 
ATOM      3  C   UNL     1     173.338 179.661 181.158  1.00  0.00     0.007 A 
ATOM      4  C   UNL     1     171.947 179.658 181.011  1.00  0.00     0.046 A 
ATOM      5  C   UNL     1     171.371 179.317 179.780  1.00  0.00     0.115 A 
ATOM      6  C   UNL     1     173.582 178.977 178.845  1.00  0.00     0.007 A 
ATOM      7  C   UNL     1     172.192 178.974 178.701  1.00  0.00     0.046 A 
BRANCH   5   8
ATOM      8  O   UNL     1     169.987 179.310 179.622  1.00  0.00    -0.508 OA
ATOM      9  H   UNL     1     169.387 179.900 180.186  1.00  0.00     0.293 HD
ENDBRANCH   5   8
ENDBRANCH   1   2
BRANCH   1  10
ATOM     10  C   UNL     1     176.051 178.418 181.430  1.00  0.00     0.040 C 
BRANCH  10  11
ATOM     11  C   UNL     1     176.100 176.970 181.023  1.00  0.00    -0.040 A 
ATOM     12  C   UNL     1     174.977 176.146 181.205  1.00  0.00     0.050 A 
ATOM     13  C   UNL     1     177.247 176.446 180.405  1.00  0.00     0.050 A 
ATOM     14  C   UNL     1     175.010 174.806 180.795  1.00  0.00     0.119 A 
ATOM     15  C   UNL     1     177.281 175.106 179.996  1.00  0.00     0.119 A 
ATOM     16  C   UNL     1     176.162 174.290 180.195  1.00  0.00     0.092 A 
BRANCH  14  17
ATOM     17  O   UNL     1     173.903 173.981 180.979  1.00  0.00    -0.508 OA
ATOM     18  H   UNL     1     173.351 173.651 180.195  1.00  0.00     0.293 HD
ENDBRANCH  14  17
BRANCH  15  19
ATOM     19  O   UNL     1     178.417 174.578 179.388  1.00  0.00    -0.508 OA
ATOM     20  H   UNL     1     179.305 175.064 179.413  1.00  0.00     0.293 HD
ENDBRANCH  15  19
ENDBRANCH  10  11
ENDBRANCH   1  10
TORSDOF 6
ENDMDL
MODEL 9
REMARK VINA RESULT:    -5.280      8.809     13.093
REMARK INTER + INTRA:          -7.198
REMARK INTER:                  -6.664
REMARK INTRA:                  -0.534
REMARK UNBOUND:                -0.529
REMARK SMILES Oc1ccc(CCc2cc(O)cc(O)c2)cc1
REMARK SMILES IDX 6 1 5 2 4 3 3 4 2 5 16 6 17 7 1 8 7 10 8 11 15 12 9 13 13 14
REMARK SMILES IDX 10 15 12 16 14 17 11 19
REMARK H PARENT 1 9 14 18 11 20
REMARK Flexibility Score: inf
ROOT
ATOM      1  C   UNL     1     161.768 177.004 181.122  1.00  0.00     0.040 C 
ENDROOT
BRANCH   1   2
ATOM      2  C   UNL     1     163.044 177.746 180.829  1.00  0.00    -0.047 A 
ATOM      3  C   UNL     1     163.002 179.054 180.321  1.00  0.00     0.007 A 
ATOM      4  C   UNL     1     164.187 179.732 180.017  1.00  0.00     0.046 A 
ATOM      5  C   UNL     1     165.425 179.105 180.210  1.00  0.00     0.115 A 
ATOM      6  C   UNL     1     164.287 177.117 181.008  1.00  0.00     0.007 A 
ATOM      7  C   UNL     1     165.471 177.796 180.703  1.00  0.00     0.046 A 
BRANCH   5   8
ATOM      8  O   UNL     1     166.613 179.769 179.911  1.00  0.00    -0.508 OA
ATOM      9  H   UNL     1     167.311 179.356 179.304  1.00  0.00     0.293 HD
ENDBRANCH   5   8
ENDBRANCH   1   2
BRANCH   1  10
ATOM     10  C   UNL     1     161.368 176.130 179.931  1.00  0.00     0.040 C 
BRANCH  10  11
ATOM     11  C   UNL     1     161.279 174.684 180.341  1.00  0.00    -0.040 A 
ATOM     12  C   UNL     1     160.632 173.752 179.513  1.00  0.00     0.050 A 
ATOM     13  C   UNL     1     161.891 174.246 181.526  1.00  0.00     0.050 A 
ATOM     14  C   UNL     1     160.578 172.401 179.877  1.00  0.00     0.119 A 
ATOM     15  C   UNL     1     161.836 172.894 181.892  1.00  0.00     0.119 A 
ATOM     16  C   UNL     1     161.177 171.976 181.067  1.00  0.00     0.092 A 
BRANCH  14  17
ATOM     17  O   UNL     1     159.932 171.472 179.065  1.00  0.00    -0.508 OA
ATOM     18  H   UNL     1     159.267 171.758 178.356  1.00  0.00     0.293 HD
ENDBRANCH  14  17
BRANCH  15  19
ATOM     19  O   UNL     1     162.436 172.452 183.069  1.00  0.00    -0.508 OA
ATOM     20  H   UNL     1     162.418 171.476 183.338  1.00  0.00     0.293 HD
ENDBRANCH  15  19
ENDBRANCH  10  11
ENDBRANCH   1  10
TORSDOF 6
ENDMDL
