MODEL 1
REMARK VINA RESULT:    -4.413      0.000      0.000
REMARK INTER + INTRA:          -6.244
REMARK INTER:                  -5.702
REMARK INTRA:                  -0.542
REMARK UNBOUND:                -0.542
REMARK SMILES C=CC(=O)CCCCC
REMARK SMILES IDX 6 1 7 2 8 3 9 4 5 5 3 6 4 7 2 8 1 9
REMARK H PARENT
REMARK Flexibility Score: inf
ROOT
ATOM      1  C   UNL     1     -10.883  75.036  31.264  1.00  0.00     0.008 C 
ENDROOT
BRANCH   1   2
ATOM      2  C   UNL     1     -10.770  74.269  32.590  1.00  0.00     0.000 C 
BRANCH   2   3
ATOM      3  C   UNL     1     -11.696  73.043  32.644  1.00  0.00    -0.003 C 
ATOM      4  C   UNL     1     -10.935  71.735  32.851  1.00  0.00     0.004 C 
ENDBRANCH   2   3
ENDBRANCH   1   2
BRANCH   1   5
ATOM      5  C   UNL     1      -9.836  74.548  30.258  1.00  0.00     0.080 C 
BRANCH   5   6
ATOM      6  C   UNL     1     -10.474  74.264  28.930  1.00  0.00     0.155 C 
ATOM      7  O   UNL     1      -9.972  74.758  27.885  1.00  0.00    -0.295 OA
BRANCH   6   8
ATOM      8  C   UNL     1     -11.703  73.449  28.860  1.00  0.00     0.039 C 
ATOM      9  C   UNL     1     -11.697  72.129  29.040  1.00  0.00     0.012 C 
ENDBRANCH   6   8
ENDBRANCH   5   6
ENDBRANCH   1   5
TORSDOF 5
ENDMDL
MODEL 2
REMARK VINA RESULT:    -4.320      1.589      1.912
REMARK INTER + INTRA:          -6.125
REMARK INTER:                  -5.579
REMARK INTRA:                  -0.546
REMARK UNBOUND:                -0.542
REMARK SMILES C=CC(=O)CCCCC
REMARK SMILES IDX 6 1 7 2 8 3 9 4 5 5 3 6 4 7 2 8 1 9
REMARK H PARENT
REMARK Flexibility Score: inf
ROOT
ATOM      1  C   UNL     1     -11.228  74.244  29.966  1.00  0.00     0.008 C 
ENDROOT
BRANCH   1   2
ATOM      2  C   UNL     1     -10.886  74.908  31.308  1.00  0.00     0.000 C 
BRANCH   2   3
ATOM      3  C   UNL     1     -10.882  73.909  32.476  1.00  0.00    -0.003 C 
ATOM      4  C   UNL     1     -11.826  72.729  32.248  1.00  0.00     0.004 C 
ENDBRANCH   2   3
ENDBRANCH   1   2
BRANCH   1   5
ATOM      5  C   UNL     1     -10.128  74.502  28.931  1.00  0.00     0.080 C 
BRANCH   5   6
ATOM      6  C   UNL     1      -9.538  73.207  28.455  1.00  0.00     0.155 C 
ATOM      7  O   UNL     1      -8.970  73.163  27.330  1.00  0.00    -0.295 OA
BRANCH   6   8
ATOM      8  C   UNL     1      -9.663  71.990  29.281  1.00  0.00     0.039 C 
ATOM      9  C   UNL     1      -8.693  71.576  30.095  1.00  0.00     0.012 C 
ENDBRANCH   6   8
ENDBRANCH   5   6
ENDBRANCH   1   5
TORSDOF 5
ENDMDL
MODEL 3
REMARK VINA RESULT:    -4.216      2.112      3.603
REMARK INTER + INTRA:          -5.990
REMARK INTER:                  -5.482
REMARK INTRA:                  -0.509
REMARK UNBOUND:                -0.542
REMARK SMILES C=CC(=O)CCCCC
REMARK SMILES IDX 6 1 7 2 8 3 9 4 5 5 3 6 4 7 2 8 1 9
REMARK H PARENT
REMARK Flexibility Score: inf
ROOT
ATOM      1  C   UNL     1     -11.595  73.763  29.389  1.00  0.00     0.008 C 
ENDROOT
BRANCH   1   2
ATOM      2  C   UNL     1     -10.788  72.724  28.596  1.00  0.00     0.000 C 
BRANCH   2   3
ATOM      3  C   UNL     1      -9.282  72.793  28.895  1.00  0.00    -0.003 C 
ATOM      4  C   UNL     1      -8.786  71.600  29.711  1.00  0.00     0.004 C 
ENDBRANCH   2   3
ENDBRANCH   1   2
BRANCH   1   5
ATOM      5  C   UNL     1     -10.693  74.536  30.357  1.00  0.00     0.080 C 
BRANCH   5   6
ATOM      6  C   UNL     1     -11.105  74.283  31.777  1.00  0.00     0.155 C 
ATOM      7  O   UNL     1     -10.928  75.185  32.641  1.00  0.00    -0.295 OA
BRANCH   6   8
ATOM      8  C   UNL     1     -11.671  72.975  32.161  1.00  0.00     0.039 C 
ATOM      9  C   UNL     1     -10.943  72.026  32.748  1.00  0.00     0.012 C 
ENDBRANCH   6   8
ENDBRANCH   5   6
ENDBRANCH   1   5
TORSDOF 5
ENDMDL
MODEL 4
REMARK VINA RESULT:    -4.199      2.110      4.346
REMARK INTER + INTRA:          -5.968
REMARK INTER:                  -5.427
REMARK INTRA:                  -0.541
REMARK UNBOUND:                -0.542
REMARK SMILES C=CC(=O)CCCCC
REMARK SMILES IDX 6 1 7 2 8 3 9 4 5 5 3 6 4 7 2 8 1 9
REMARK H PARENT
REMARK Flexibility Score: inf
ROOT
ATOM      1  C   UNL     1     -11.742  72.010  29.313  1.00  0.00     0.008 C 
ENDROOT
BRANCH   1   2
ATOM      2  C   UNL     1     -11.677  73.213  28.361  1.00  0.00     0.000 C 
BRANCH   2   3
ATOM      3  C   UNL     1     -10.327  73.317  27.633  1.00  0.00    -0.003 C 
ATOM      4  C   UNL     1      -9.918  74.761  27.347  1.00  0.00     0.004 C 
ENDBRANCH   2   3
ENDBRANCH   1   2
BRANCH   1   5
ATOM      5  C   UNL     1     -10.685  72.125  30.416  1.00  0.00     0.080 C 
BRANCH   5   6
ATOM      6  C   UNL     1     -11.154  73.049  31.501  1.00  0.00     0.155 C 
ATOM      7  O   UNL     1     -12.060  72.666  32.290  1.00  0.00    -0.295 OA
BRANCH   6   8
ATOM      8  C   UNL     1     -10.587  74.407  31.611  1.00  0.00     0.039 C 
ATOM      9  C   UNL     1      -9.449  74.757  31.012  1.00  0.00     0.012 C 
ENDBRANCH   6   8
ENDBRANCH   5   6
ENDBRANCH   1   5
TORSDOF 5
ENDMDL
MODEL 5
REMARK VINA RESULT:    -4.139      2.381      4.178
REMARK INTER + INTRA:          -5.891
REMARK INTER:                  -5.368
REMARK INTRA:                  -0.523
REMARK UNBOUND:                -0.542
REMARK SMILES C=CC(=O)CCCCC
REMARK SMILES IDX 6 1 7 2 8 3 9 4 5 5 3 6 4 7 2 8 1 9
REMARK H PARENT
REMARK Flexibility Score: inf
ROOT
ATOM      1  C   UNL     1     -12.049  73.840  29.138  1.00  0.00     0.008 C 
ENDROOT
BRANCH   1   2
ATOM      2  C   UNL     1     -11.375  73.817  27.758  1.00  0.00     0.000 C 
BRANCH   2   3
ATOM      3  C   UNL     1     -10.049  74.593  27.737  1.00  0.00    -0.003 C 
ATOM      4  C   UNL     1      -8.949  73.864  26.965  1.00  0.00     0.004 C 
ENDBRANCH   2   3
ENDBRANCH   1   2
BRANCH   1   5
ATOM      5  C   UNL     1     -11.018  74.059  30.249  1.00  0.00     0.080 C 
BRANCH   5   6
ATOM      6  C   UNL     1     -10.992  72.886  31.184  1.00  0.00     0.155 C 
ATOM      7  O   UNL     1     -11.961  72.701  31.969  1.00  0.00    -0.295 OA
BRANCH   6   8
ATOM      8  C   UNL     1      -9.822  71.987  31.209  1.00  0.00     0.039 C 
ATOM      9  C   UNL     1      -9.002  71.851  30.168  1.00  0.00     0.012 C 
ENDBRANCH   6   8
ENDBRANCH   5   6
ENDBRANCH   1   5
TORSDOF 5
ENDMDL
MODEL 6
REMARK VINA RESULT:    -4.078      3.328      5.367
REMARK INTER + INTRA:          -5.812
REMARK INTER:                  -5.492
REMARK INTRA:                  -0.320
REMARK UNBOUND:                -0.542
REMARK SMILES C=CC(=O)CCCCC
REMARK SMILES IDX 6 1 7 2 8 3 9 4 5 5 3 6 4 7 2 8 1 9
REMARK H PARENT
REMARK Flexibility Score: inf
ROOT
ATOM      1  C   UNL     1     -11.656  72.810  32.839  1.00  0.00     0.008 C 
ENDROOT
BRANCH   1   2
ATOM      2  C   UNL     1     -11.522  73.051  31.328  1.00  0.00     0.000 C 
BRANCH   2   3
ATOM      3  C   UNL     1     -10.874  74.406  31.002  1.00  0.00    -0.003 C 
ATOM      4  C   UNL     1     -10.874  75.364  32.193  1.00  0.00     0.004 C 
ENDBRANCH   2   3
ENDBRANCH   1   2
BRANCH   1   5
ATOM      5  C   UNL     1     -10.681  71.727  33.311  1.00  0.00     0.080 C 
BRANCH   5   6
ATOM      6  C   UNL     1     -10.276  71.966  34.735  1.00  0.00     0.155 C 
ATOM      7  O   UNL     1      -9.376  71.248  35.250  1.00  0.00    -0.295 OA
BRANCH   6   8
ATOM      8  C   UNL     1     -10.958  73.003  35.533  1.00  0.00     0.039 C 
ATOM      9  C   UNL     1     -11.490  72.751  36.728  1.00  0.00     0.012 C 
ENDBRANCH   6   8
ENDBRANCH   5   6
ENDBRANCH   1   5
TORSDOF 5
ENDMDL
MODEL 7
REMARK VINA RESULT:    -4.068      1.706      1.961
REMARK INTER + INTRA:          -5.799
REMARK INTER:                  -5.456
REMARK INTRA:                  -0.342
REMARK UNBOUND:                -0.542
REMARK SMILES C=CC(=O)CCCCC
REMARK SMILES IDX 6 1 7 2 8 3 9 4 5 5 3 6 4 7 2 8 1 9
REMARK H PARENT
REMARK Flexibility Score: inf
ROOT
ATOM      1  C   UNL     1     -10.871  74.614  30.727  1.00  0.00     0.008 C 
ENDROOT
BRANCH   1   2
ATOM      2  C   UNL     1     -11.176  74.142  32.156  1.00  0.00     0.000 C 
BRANCH   2   3
ATOM      3  C   UNL     1     -11.727  72.707  32.199  1.00  0.00    -0.003 C 
ATOM      4  C   UNL     1     -10.857  71.763  33.028  1.00  0.00     0.004 C 
ENDBRANCH   2   3
ENDBRANCH   1   2
BRANCH   1   5
ATOM      5  C   UNL     1      -9.421  74.301  30.343  1.00  0.00     0.080 C 
BRANCH   5   6
ATOM      6  C   UNL     1      -9.365  73.141  29.395  1.00  0.00     0.155 C 
ATOM      7  O   UNL     1      -8.899  72.039  29.793  1.00  0.00    -0.295 OA
BRANCH   6   8
ATOM      8  C   UNL     1      -9.813  73.306  27.998  1.00  0.00     0.039 C 
ATOM      9  C   UNL     1      -9.073  73.925  27.079  1.00  0.00     0.012 C 
ENDBRANCH   6   8
ENDBRANCH   5   6
ENDBRANCH   1   5
TORSDOF 5
ENDMDL
MODEL 8
REMARK VINA RESULT:    -4.036      1.650      2.746
REMARK INTER + INTRA:          -5.758
REMARK INTER:                  -5.201
REMARK INTRA:                  -0.556
REMARK UNBOUND:                -0.542
REMARK SMILES C=CC(=O)CCCCC
REMARK SMILES IDX 6 1 7 2 8 3 9 4 5 5 3 6 4 7 2 8 1 9
REMARK H PARENT
REMARK Flexibility Score: inf
ROOT
ATOM      1  C   UNL     1     -11.499  72.686  30.495  1.00  0.00     0.008 C 
ENDROOT
BRANCH   1   2
ATOM      2  C   UNL     1     -10.146  72.880  31.196  1.00  0.00     0.000 C 
BRANCH   2   3
ATOM      3  C   UNL     1      -9.717  74.355  31.253  1.00  0.00    -0.003 C 
ATOM      4  C   UNL     1     -10.835  75.277  31.738  1.00  0.00     0.004 C 
ENDBRANCH   2   3
ENDBRANCH   1   2
BRANCH   1   5
ATOM      5  C   UNL     1     -11.305  72.327  29.018  1.00  0.00     0.080 C 
BRANCH   5   6
ATOM      6  C   UNL     1     -11.668  73.489  28.141  1.00  0.00     0.155 C 
ATOM      7  O   UNL     1     -12.883  73.725  27.899  1.00  0.00    -0.295 OA
BRANCH   6   8
ATOM      8  C   UNL     1     -10.607  74.317  27.534  1.00  0.00     0.039 C 
ATOM      9  C   UNL     1      -9.331  73.935  27.506  1.00  0.00     0.012 C 
ENDBRANCH   6   8
ENDBRANCH   5   6
ENDBRANCH   1   5
TORSDOF 5
ENDMDL
MODEL 9
REMARK VINA RESULT:    -3.989      2.281      3.078
REMARK INTER + INTRA:          -5.697
REMARK INTER:                  -5.429
REMARK INTRA:                  -0.269
REMARK UNBOUND:                -0.542
REMARK SMILES C=CC(=O)CCCCC
REMARK SMILES IDX 6 1 7 2 8 3 9 4 5 5 3 6 4 7 2 8 1 9
REMARK H PARENT
REMARK Flexibility Score: inf
ROOT
ATOM      1  C   UNL     1     -10.642  71.994  32.648  1.00  0.00     0.008 C 
ENDROOT
BRANCH   1   2
ATOM      2  C   UNL     1     -10.289  71.984  34.143  1.00  0.00     0.000 C 
BRANCH   2   3
ATOM      3  C   UNL     1     -11.316  72.744  34.997  1.00  0.00    -0.003 C 
ATOM      4  C   UNL     1     -10.796  73.070  36.397  1.00  0.00     0.004 C 
ENDBRANCH   2   3
ENDBRANCH   1   2
BRANCH   1   5
ATOM      5  C   UNL     1     -11.734  73.027  32.350  1.00  0.00     0.080 C 
BRANCH   5   6
ATOM      6  C   UNL     1     -11.141  74.253  31.719  1.00  0.00     0.155 C 
ATOM      7  O   UNL     1     -10.870  75.250  32.441  1.00  0.00    -0.295 OA
BRANCH   6   8
ATOM      8  C   UNL     1     -10.922  74.300  30.260  1.00  0.00     0.039 C 
ATOM      9  C   UNL     1     -11.693  73.637  29.399  1.00  0.00     0.012 C 
ENDBRANCH   6   8
ENDBRANCH   5   6
ENDBRANCH   1   5
TORSDOF 5
ENDMDL
