MODEL 1
REMARK VINA RESULT:    -5.323      0.000      0.000
REMARK INTER + INTRA:          -5.790
REMARK INTER:                  -5.790
REMARK INTRA:                   0.000
REMARK UNBOUND:                 0.000
REMARK SMILES Cc1cc(O)c2c(c1)C(=O)c1cc(O)cc(O)c1C2=O
REMARK SMILES IDX 1 1 2 2 8 3 7 4 6 5 4 6 3 7 19 8 20 9 18 10 11 11 9 12 10 13
REMARK SMILES IDX 12 14 13 15 15 16 16 17 5 18 17 20 14 22
REMARK H PARENT 5 19 17 21 14 23
REMARK Flexibility Score: inf
ROOT
ATOM      1  C   UNL     1      33.236  34.876  16.757  1.00  0.00     0.044 C 
ATOM      2  C   UNL     1      32.292  35.389  17.804  1.00  0.00    -0.047 A 
ATOM      3  C   UNL     1      31.120  34.686  18.102  1.00  0.00     0.016 A 
ATOM      4  C   UNL     1      30.217  35.170  19.064  1.00  0.00     0.038 A 
ATOM      5  C   UNL     1      30.491  36.381  19.742  1.00  0.00     0.076 A 
ATOM      6  C   UNL     1      31.632  37.138  19.362  1.00  0.00     0.127 A 
ATOM      7  C   UNL     1      32.528  36.622  18.421  1.00  0.00     0.050 A 
ATOM      8  C   UNL     1      29.597  36.782  20.864  1.00  0.00     0.201 C 
ATOM      9  O   UNL     1      30.007  37.587  21.743  1.00  0.00    -0.288 OA
ATOM     10  C   UNL     1      28.261  36.150  21.017  1.00  0.00     0.076 A 
ATOM     11  C   UNL     1      27.967  34.978  20.287  1.00  0.00     0.041 A 
ATOM     12  C   UNL     1      28.974  34.417  19.358  1.00  0.00     0.194 C 
ATOM     13  O   UNL     1      28.764  33.305  18.801  1.00  0.00    -0.289 OA
ATOM     14  C   UNL     1      26.722  34.346  20.451  1.00  0.00     0.059 A 
ATOM     15  C   UNL     1      25.768  34.875  21.325  1.00  0.00     0.120 A 
ATOM     16  C   UNL     1      26.051  36.037  22.041  1.00  0.00     0.093 A 
ATOM     17  C   UNL     1      27.287  36.681  21.895  1.00  0.00     0.131 A 
ENDROOT
BRANCH   6  18
ATOM     18  O   UNL     1      31.895  38.417  19.857  1.00  0.00    -0.507 OA
ATOM     19  H   UNL     1      32.183  38.602  20.808  1.00  0.00     0.293 HD
ENDBRANCH   6  18
BRANCH  17  20
ATOM     20  O   UNL     1      27.538  37.849  22.615  1.00  0.00    -0.507 OA
ATOM     21  H   UNL     1      27.162  37.993  23.545  1.00  0.00     0.293 HD
ENDBRANCH  17  20
BRANCH  15  22
ATOM     22  O   UNL     1      24.532  34.251  21.488  1.00  0.00    -0.508 OA
ATOM     23  H   UNL     1      23.982  33.947  20.693  1.00  0.00     0.293 HD
ENDBRANCH  15  22
TORSDOF 3
ENDMDL
MODEL 2
REMARK VINA RESULT:    -5.283      2.127      2.546
REMARK INTER + INTRA:          -5.746
REMARK INTER:                  -5.746
REMARK INTRA:                   0.000
REMARK UNBOUND:                 0.000
REMARK SMILES Cc1cc(O)c2c(c1)C(=O)c1cc(O)cc(O)c1C2=O
REMARK SMILES IDX 1 1 2 2 8 3 7 4 6 5 4 6 3 7 19 8 20 9 18 10 11 11 9 12 10 13
REMARK SMILES IDX 12 14 13 15 15 16 16 17 5 18 17 20 14 22
REMARK H PARENT 5 19 17 21 14 23
REMARK Flexibility Score: inf
ROOT
ATOM      1  C   UNL     1      32.738  31.021  18.999  1.00  0.00     0.044 C 
ATOM      2  C   UNL     1      31.768  32.155  19.151  1.00  0.00    -0.047 A 
ATOM      3  C   UNL     1      30.567  31.968  19.843  1.00  0.00     0.016 A 
ATOM      4  C   UNL     1      29.641  33.017  19.971  1.00  0.00     0.038 A 
ATOM      5  C   UNL     1      29.921  34.279  19.396  1.00  0.00     0.076 A 
ATOM      6  C   UNL     1      31.096  34.431  18.611  1.00  0.00     0.127 A 
ATOM      7  C   UNL     1      32.014  33.379  18.522  1.00  0.00     0.050 A 
ATOM      8  C   UNL     1      28.996  35.410  19.685  1.00  0.00     0.201 C 
ATOM      9  O   UNL     1      29.393  36.600  19.563  1.00  0.00    -0.288 OA
ATOM     10  C   UNL     1      27.638  35.144  20.228  1.00  0.00     0.076 A 
ATOM     11  C   UNL     1      27.341  33.863  20.740  1.00  0.00     0.041 A 
ATOM     12  C   UNL     1      28.367  32.797  20.697  1.00  0.00     0.194 C 
ATOM     13  O   UNL     1      28.149  31.691  21.265  1.00  0.00    -0.289 OA
ATOM     14  C   UNL     1      26.074  33.607  21.292  1.00  0.00     0.059 A 
ATOM     15  C   UNL     1      25.101  34.610  21.330  1.00  0.00     0.120 A 
ATOM     16  C   UNL     1      25.387  35.875  20.818  1.00  0.00     0.093 A 
ATOM     17  C   UNL     1      26.645  36.152  20.265  1.00  0.00     0.131 A 
ENDROOT
BRANCH   6  18
ATOM     18  O   UNL     1      31.375  35.584  17.875  1.00  0.00    -0.507 OA
ATOM     19  H   UNL     1      31.823  36.402  18.262  1.00  0.00     0.293 HD
ENDBRANCH   6  18
BRANCH  17  20
ATOM     20  O   UNL     1      26.900  37.422  19.749  1.00  0.00    -0.507 OA
ATOM     21  H   UNL     1      26.336  37.819  19.007  1.00  0.00     0.293 HD
ENDBRANCH  17  20
BRANCH  15  22
ATOM     22  O   UNL     1      23.844  34.359  21.875  1.00  0.00    -0.508 OA
ATOM     23  H   UNL     1      23.210  33.686  21.461  1.00  0.00     0.293 HD
ENDBRANCH  15  22
TORSDOF 3
ENDMDL
MODEL 3
REMARK VINA RESULT:    -5.195      1.380      6.335
REMARK INTER + INTRA:          -5.651
REMARK INTER:                  -5.651
REMARK INTRA:                   0.000
REMARK UNBOUND:                 0.000
REMARK SMILES Cc1cc(O)c2c(c1)C(=O)c1cc(O)cc(O)c1C2=O
REMARK SMILES IDX 1 1 2 2 8 3 7 4 6 5 4 6 3 7 19 8 20 9 18 10 11 11 9 12 10 13
REMARK SMILES IDX 12 14 13 15 15 16 16 17 5 18 17 20 14 22
REMARK H PARENT 5 19 17 21 14 23
REMARK Flexibility Score: inf
ROOT
ATOM      1  C   UNL     1      25.234  38.201  24.265  1.00  0.00     0.044 C 
ATOM      2  C   UNL     1      25.863  37.263  23.278  1.00  0.00    -0.047 A 
ATOM      3  C   UNL     1      27.159  37.500  22.808  1.00  0.00     0.016 A 
ATOM      4  C   UNL     1      27.750  36.641  21.866  1.00  0.00     0.038 A 
ATOM      5  C   UNL     1      27.030  35.521  21.383  1.00  0.00     0.076 A 
ATOM      6  C   UNL     1      25.680  35.345  21.791  1.00  0.00     0.127 A 
ATOM      7  C   UNL     1      25.125  36.199  22.750  1.00  0.00     0.050 A 
ATOM      8  C   UNL     1      27.740  34.546  20.511  1.00  0.00     0.201 C 
ATOM      9  O   UNL     1      27.310  33.367  20.399  1.00  0.00    -0.288 OA
ATOM     10  C   UNL     1      29.022  34.922  19.858  1.00  0.00     0.076 A 
ATOM     11  C   UNL     1      29.703  36.078  20.297  1.00  0.00     0.041 A 
ATOM     12  C   UNL     1      29.119  36.914  21.369  1.00  0.00     0.194 C 
ATOM     13  O   UNL     1      29.783  37.875  21.849  1.00  0.00    -0.289 OA
ATOM     14  C   UNL     1      30.935  36.426  19.715  1.00  0.00     0.059 A 
ATOM     15  C   UNL     1      31.487  35.640  18.699  1.00  0.00     0.120 A 
ATOM     16  C   UNL     1      30.813  34.503  18.258  1.00  0.00     0.093 A 
ATOM     17  C   UNL     1      29.585  34.136  18.825  1.00  0.00     0.131 A 
ENDROOT
BRANCH   6  18
ATOM     18  O   UNL     1      24.843  34.368  21.248  1.00  0.00    -0.507 OA
ATOM     19  H   UNL     1      23.862  34.282  21.473  1.00  0.00     0.293 HD
ENDBRANCH   6  18
BRANCH  17  20
ATOM     20  O   UNL     1      28.927  33.000  18.355  1.00  0.00    -0.507 OA
ATOM     21  H   UNL     1      29.392  32.321  17.765  1.00  0.00     0.293 HD
ENDBRANCH  17  20
BRANCH  15  22
ATOM     22  O   UNL     1      32.707  35.983  18.121  1.00  0.00    -0.508 OA
ATOM     23  H   UNL     1      32.784  36.203  17.135  1.00  0.00     0.293 HD
ENDBRANCH  15  22
TORSDOF 3
ENDMDL
MODEL 4
REMARK VINA RESULT:    -5.189      2.173      4.131
REMARK INTER + INTRA:          -5.644
REMARK INTER:                  -5.644
REMARK INTRA:                   0.000
REMARK UNBOUND:                 0.000
REMARK SMILES Cc1cc(O)c2c(c1)C(=O)c1cc(O)cc(O)c1C2=O
REMARK SMILES IDX 1 1 2 2 8 3 7 4 6 5 4 6 3 7 19 8 20 9 18 10 11 11 9 12 10 13
REMARK SMILES IDX 12 14 13 15 15 16 16 17 5 18 17 20 14 22
REMARK H PARENT 5 19 17 21 14 23
REMARK Flexibility Score: inf
ROOT
ATOM      1  C   UNL     1      32.146  32.634  18.832  1.00  0.00     0.044 C 
ATOM      2  C   UNL     1      30.844  32.862  19.542  1.00  0.00    -0.047 A 
ATOM      3  C   UNL     1      30.389  34.163  19.778  1.00  0.00     0.016 A 
ATOM      4  C   UNL     1      29.182  34.389  20.462  1.00  0.00     0.038 A 
ATOM      5  C   UNL     1      28.416  33.291  20.921  1.00  0.00     0.076 A 
ATOM      6  C   UNL     1      28.935  31.977  20.764  1.00  0.00     0.127 A 
ATOM      7  C   UNL     1      30.125  31.779  20.056  1.00  0.00     0.050 A 
ATOM      8  C   UNL     1      27.070  33.560  21.499  1.00  0.00     0.201 C 
ATOM      9  O   UNL     1      26.202  32.647  21.533  1.00  0.00    -0.288 OA
ATOM     10  C   UNL     1      26.705  34.934  21.934  1.00  0.00     0.076 A 
ATOM     11  C   UNL     1      27.511  36.019  21.530  1.00  0.00     0.041 A 
ATOM     12  C   UNL     1      28.722  35.775  20.715  1.00  0.00     0.194 C 
ATOM     13  O   UNL     1      29.373  36.750  20.249  1.00  0.00    -0.289 OA
ATOM     14  C   UNL     1      27.157  37.328  21.902  1.00  0.00     0.059 A 
ATOM     15  C   UNL     1      26.016  37.563  22.675  1.00  0.00     0.120 A 
ATOM     16  C   UNL     1      25.222  36.492  23.083  1.00  0.00     0.093 A 
ATOM     17  C   UNL     1      25.555  35.179  22.722  1.00  0.00     0.131 A 
ENDROOT
BRANCH   6  18
ATOM     18  O   UNL     1      28.331  30.849  21.324  1.00  0.00    -0.507 OA
ATOM     19  H   UNL     1      27.412  30.855  21.742  1.00  0.00     0.293 HD
ENDBRANCH   6  18
BRANCH  17  20
ATOM     20  O   UNL     1      24.749  34.126  23.154  1.00  0.00    -0.507 OA
ATOM     21  H   UNL     1      23.790  34.027  22.844  1.00  0.00     0.293 HD
ENDBRANCH  17  20
BRANCH  15  22
ATOM     22  O   UNL     1      25.664  38.859  23.046  1.00  0.00    -0.508 OA
ATOM     23  H   UNL     1      26.260  39.651  22.835  1.00  0.00     0.293 HD
ENDBRANCH  15  22
TORSDOF 3
ENDMDL
MODEL 5
REMARK VINA RESULT:    -5.017     10.910     12.217
REMARK INTER + INTRA:          -5.457
REMARK INTER:                  -5.457
REMARK INTRA:                   0.000
REMARK UNBOUND:                 0.000
REMARK SMILES Cc1cc(O)c2c(c1)C(=O)c1cc(O)cc(O)c1C2=O
REMARK SMILES IDX 1 1 2 2 8 3 7 4 6 5 4 6 3 7 19 8 20 9 18 10 11 11 9 12 10 13
REMARK SMILES IDX 12 14 13 15 15 16 16 17 5 18 17 20 14 22
REMARK H PARENT 5 19 17 21 14 23
REMARK Flexibility Score: inf
ROOT
ATOM      1  C   UNL     1      28.498  24.133  23.466  1.00  0.00     0.044 C 
ATOM      2  C   UNL     1      28.522  25.191  24.530  1.00  0.00    -0.047 A 
ATOM      3  C   UNL     1      29.511  25.172  25.519  1.00  0.00     0.016 A 
ATOM      4  C   UNL     1      29.530  26.145  26.534  1.00  0.00     0.038 A 
ATOM      5  C   UNL     1      28.540  27.155  26.561  1.00  0.00     0.076 A 
ATOM      6  C   UNL     1      27.483  27.107  25.612  1.00  0.00     0.127 A 
ATOM      7  C   UNL     1      27.502  26.145  24.596  1.00  0.00     0.050 A 
ATOM      8  C   UNL     1      28.680  28.258  27.551  1.00  0.00     0.201 C 
ATOM      9  O   UNL     1      28.100  29.360  27.359  1.00  0.00    -0.288 OA
ATOM     10  C   UNL     1      29.596  28.106  28.713  1.00  0.00     0.076 A 
ATOM     11  C   UNL     1      30.538  27.055  28.713  1.00  0.00     0.041 A 
ATOM     12  C   UNL     1      30.578  26.103  27.581  1.00  0.00     0.194 C 
ATOM     13  O   UNL     1      31.498  25.240  27.518  1.00  0.00    -0.289 OA
ATOM     14  C   UNL     1      31.436  26.922  29.786  1.00  0.00     0.059 A 
ATOM     15  C   UNL     1      31.398  27.818  30.858  1.00  0.00     0.120 A 
ATOM     16  C   UNL     1      30.464  28.852  30.866  1.00  0.00     0.093 A 
ATOM     17  C   UNL     1      29.561  29.005  29.805  1.00  0.00     0.131 A 
ENDROOT
BRANCH   6  18
ATOM     18  O   UNL     1      26.379  27.961  25.659  1.00  0.00    -0.507 OA
ATOM     19  H   UNL     1      25.877  28.274  24.840  1.00  0.00     0.293 HD
ENDBRANCH   6  18
BRANCH  17  20
ATOM     20  O   UNL     1      28.628  30.042  29.845  1.00  0.00    -0.507 OA
ATOM     21  H   UNL     1      28.188  30.395  29.004  1.00  0.00     0.293 HD
ENDBRANCH  17  20
BRANCH  15  22
ATOM     22  O   UNL     1      32.287  27.687  31.924  1.00  0.00    -0.508 OA
ATOM     23  H   UNL     1      31.965  27.679  32.885  1.00  0.00     0.293 HD
ENDBRANCH  15  22
TORSDOF 3
ENDMDL
MODEL 6
REMARK VINA RESULT:    -4.932      3.732      6.470
REMARK INTER + INTRA:          -5.364
REMARK INTER:                  -5.364
REMARK INTRA:                   0.000
REMARK UNBOUND:                 0.000
REMARK SMILES Cc1cc(O)c2c(c1)C(=O)c1cc(O)cc(O)c1C2=O
REMARK SMILES IDX 1 1 2 2 8 3 7 4 6 5 4 6 3 7 19 8 20 9 18 10 11 11 9 12 10 13
REMARK SMILES IDX 12 14 13 15 15 16 16 17 5 18 17 20 14 22
REMARK H PARENT 5 19 17 21 14 23
REMARK Flexibility Score: inf
ROOT
ATOM      1  C   UNL     1      29.591  34.195  28.279  1.00  0.00     0.044 C 
ATOM      2  C   UNL     1      29.072  34.054  26.878  1.00  0.00    -0.047 A 
ATOM      3  C   UNL     1      29.022  35.166  26.030  1.00  0.00     0.016 A 
ATOM      4  C   UNL     1      28.516  35.050  24.724  1.00  0.00     0.038 A 
ATOM      5  C   UNL     1      28.050  33.799  24.256  1.00  0.00     0.076 A 
ATOM      6  C   UNL     1      28.012  32.700  25.157  1.00  0.00     0.127 A 
ATOM      7  C   UNL     1      28.546  32.834  26.443  1.00  0.00     0.050 A 
ATOM      8  C   UNL     1      27.670  33.676  22.822  1.00  0.00     0.201 C 
ATOM      9  O   UNL     1      27.653  32.545  22.266  1.00  0.00    -0.288 OA
ATOM     10  C   UNL     1      27.419  34.895  22.008  1.00  0.00     0.076 A 
ATOM     11  C   UNL     1      27.825  36.151  22.509  1.00  0.00     0.041 A 
ATOM     12  C   UNL     1      28.459  36.241  23.844  1.00  0.00     0.194 C 
ATOM     13  O   UNL     1      28.935  37.341  24.239  1.00  0.00    -0.289 OA
ATOM     14  C   UNL     1      27.630  37.307  21.735  1.00  0.00     0.059 A 
ATOM     15  C   UNL     1      27.028  37.226  20.475  1.00  0.00     0.120 A 
ATOM     16  C   UNL     1      26.618  35.988  19.981  1.00  0.00     0.093 A 
ATOM     17  C   UNL     1      26.806  34.822  20.735  1.00  0.00     0.131 A 
ENDROOT
BRANCH   6  18
ATOM     18  O   UNL     1      27.422  31.475  24.837  1.00  0.00    -0.507 OA
ATOM     19  H   UNL     1      27.580  30.624  25.359  1.00  0.00     0.293 HD
ENDBRANCH   6  18
BRANCH  17  20
ATOM     20  O   UNL     1      26.374  33.599  20.222  1.00  0.00    -0.507 OA
ATOM     21  H   UNL     1      25.400  33.324  20.248  1.00  0.00     0.293 HD
ENDBRANCH  17  20
BRANCH  15  22
ATOM     22  O   UNL     1      26.833  38.371  19.707  1.00  0.00    -0.508 OA
ATOM     23  H   UNL     1      27.174  38.436  18.755  1.00  0.00     0.293 HD
ENDBRANCH  15  22
TORSDOF 3
ENDMDL
MODEL 7
REMARK VINA RESULT:    -4.920      2.331      6.186
REMARK INTER + INTRA:          -5.352
REMARK INTER:                  -5.352
REMARK INTRA:                   0.000
REMARK UNBOUND:                 0.000
REMARK SMILES Cc1cc(O)c2c(c1)C(=O)c1cc(O)cc(O)c1C2=O
REMARK SMILES IDX 1 1 2 2 8 3 7 4 6 5 4 6 3 7 19 8 20 9 18 10 11 11 9 12 10 13
REMARK SMILES IDX 12 14 13 15 15 16 16 17 5 18 17 20 14 22
REMARK H PARENT 5 19 17 21 14 23
REMARK Flexibility Score: inf
ROOT
ATOM      1  C   UNL     1      23.422  34.464  22.209  1.00  0.00     0.044 C 
ATOM      2  C   UNL     1      24.921  34.408  22.264  1.00  0.00    -0.047 A 
ATOM      3  C   UNL     1      25.687  35.285  21.490  1.00  0.00     0.016 A 
ATOM      4  C   UNL     1      27.091  35.226  21.515  1.00  0.00     0.038 A 
ATOM      5  C   UNL     1      27.742  34.271  22.332  1.00  0.00     0.076 A 
ATOM      6  C   UNL     1      26.955  33.321  23.038  1.00  0.00     0.127 A 
ATOM      7  C   UNL     1      25.560  33.418  23.016  1.00  0.00     0.050 A 
ATOM      8  C   UNL     1      29.224  34.340  22.458  1.00  0.00     0.201 C 
ATOM      9  O   UNL     1      29.800  33.818  23.450  1.00  0.00    -0.288 OA
ATOM     10  C   UNL     1      30.022  35.121  21.476  1.00  0.00     0.076 A 
ATOM     11  C   UNL     1      29.360  36.024  20.616  1.00  0.00     0.041 A 
ATOM     12  C   UNL     1      27.887  36.154  20.678  1.00  0.00     0.194 C 
ATOM     13  O   UNL     1      27.307  37.048  20.001  1.00  0.00    -0.289 OA
ATOM     14  C   UNL     1      30.105  36.797  19.709  1.00  0.00     0.059 A 
ATOM     15  C   UNL     1      31.496  36.673  19.645  1.00  0.00     0.120 A 
ATOM     16  C   UNL     1      32.152  35.776  20.487  1.00  0.00     0.093 A 
ATOM     17  C   UNL     1      31.429  34.997  21.400  1.00  0.00     0.131 A 
ENDROOT
BRANCH   6  18
ATOM     18  O   UNL     1      27.508  32.246  23.737  1.00  0.00    -0.507 OA
ATOM     19  H   UNL     1      27.249  31.282  23.579  1.00  0.00     0.293 HD
ENDBRANCH   6  18
BRANCH  17  20
ATOM     20  O   UNL     1      32.110  34.099  22.222  1.00  0.00    -0.507 OA
ATOM     21  H   UNL     1      33.018  33.728  21.968  1.00  0.00     0.293 HD
ENDBRANCH  17  20
BRANCH  15  22
ATOM     22  O   UNL     1      32.236  37.438  18.746  1.00  0.00    -0.508 OA
ATOM     23  H   UNL     1      32.591  38.354  18.994  1.00  0.00     0.293 HD
ENDBRANCH  15  22
TORSDOF 3
ENDMDL
MODEL 8
REMARK VINA RESULT:    -4.898      3.205      4.678
REMARK INTER + INTRA:          -5.327
REMARK INTER:                  -5.327
REMARK INTRA:                   0.000
REMARK UNBOUND:                 0.000
REMARK SMILES Cc1cc(O)c2c(c1)C(=O)c1cc(O)cc(O)c1C2=O
REMARK SMILES IDX 1 1 2 2 8 3 7 4 6 5 4 6 3 7 19 8 20 9 18 10 11 11 9 12 10 13
REMARK SMILES IDX 12 14 13 15 15 16 16 17 5 18 17 20 14 22
REMARK H PARENT 5 19 17 21 14 23
REMARK Flexibility Score: inf
ROOT
ATOM      1  C   UNL     1      31.538  29.222  19.904  1.00  0.00     0.044 C 
ATOM      2  C   UNL     1      30.588  30.206  20.521  1.00  0.00    -0.047 A 
ATOM      3  C   UNL     1      30.231  31.369  19.830  1.00  0.00     0.016 A 
ATOM      4  C   UNL     1      29.361  32.309  20.408  1.00  0.00     0.038 A 
ATOM      5  C   UNL     1      28.837  32.082  21.704  1.00  0.00     0.076 A 
ATOM      6  C   UNL     1      29.284  30.949  22.436  1.00  0.00     0.127 A 
ATOM      7  C   UNL     1      30.129  30.016  21.828  1.00  0.00     0.050 A 
ATOM      8  C   UNL     1      27.798  33.015  22.220  1.00  0.00     0.201 C 
ATOM      9  O   UNL     1      27.020  32.648  23.141  1.00  0.00    -0.288 OA
ATOM     10  C   UNL     1      27.596  34.340  21.577  1.00  0.00     0.076 A 
ATOM     11  C   UNL     1      28.177  34.586  20.314  1.00  0.00     0.041 A 
ATOM     12  C   UNL     1      29.003  33.541  19.667  1.00  0.00     0.194 C 
ATOM     13  O   UNL     1      29.418  33.710  18.487  1.00  0.00    -0.289 OA
ATOM     14  C   UNL     1      27.964  35.820  19.675  1.00  0.00     0.059 A 
ATOM     15  C   UNL     1      27.187  36.810  20.285  1.00  0.00     0.120 A 
ATOM     16  C   UNL     1      26.619  36.574  21.536  1.00  0.00     0.093 A 
ATOM     17  C   UNL     1      26.817  35.350  22.189  1.00  0.00     0.131 A 
ENDROOT
BRANCH   6  18
ATOM     18  O   UNL     1      28.950  30.729  23.775  1.00  0.00    -0.507 OA
ATOM     19  H   UNL     1      28.268  31.277  24.279  1.00  0.00     0.293 HD
ENDBRANCH   6  18
BRANCH  17  20
ATOM     20  O   UNL     1      26.247  35.145  23.446  1.00  0.00    -0.507 OA
ATOM     21  H   UNL     1      25.736  34.299  23.668  1.00  0.00     0.293 HD
ENDBRANCH  17  20
BRANCH  15  22
ATOM     22  O   UNL     1      26.976  38.034  19.655  1.00  0.00    -0.508 OA
ATOM     23  H   UNL     1      26.353  38.732  20.046  1.00  0.00     0.293 HD
ENDBRANCH  15  22
TORSDOF 3
ENDMDL
MODEL 9
REMARK VINA RESULT:    -4.850      1.577      2.668
REMARK INTER + INTRA:          -5.275
REMARK INTER:                  -5.275
REMARK INTRA:                   0.000
REMARK UNBOUND:                 0.000
REMARK SMILES Cc1cc(O)c2c(c1)C(=O)c1cc(O)cc(O)c1C2=O
REMARK SMILES IDX 1 1 2 2 8 3 7 4 6 5 4 6 3 7 19 8 20 9 18 10 11 11 9 12 10 13
REMARK SMILES IDX 12 14 13 15 15 16 16 17 5 18 17 20 14 22
REMARK H PARENT 5 19 17 21 14 23
REMARK Flexibility Score: inf
ROOT
ATOM      1  C   UNL     1      33.956  35.532  14.117  1.00  0.00     0.044 C 
ATOM      2  C   UNL     1      33.371  35.938  15.437  1.00  0.00    -0.047 A 
ATOM      3  C   UNL     1      32.447  35.109  16.082  1.00  0.00     0.016 A 
ATOM      4  C   UNL     1      31.875  35.490  17.308  1.00  0.00     0.038 A 
ATOM      5  C   UNL     1      32.233  36.724  17.901  1.00  0.00     0.076 A 
ATOM      6  C   UNL     1      33.095  37.602  17.191  1.00  0.00     0.127 A 
ATOM      7  C   UNL     1      33.672  37.188  15.985  1.00  0.00     0.050 A 
ATOM      8  C   UNL     1      31.732  37.023  19.271  1.00  0.00     0.201 C 
ATOM      9  O   UNL     1      32.327  37.868  19.992  1.00  0.00    -0.288 OA
ATOM     10  C   UNL     1      30.598  36.247  19.838  1.00  0.00     0.076 A 
ATOM     11  C   UNL     1      30.199  35.050  19.204  1.00  0.00     0.041 A 
ATOM     12  C   UNL     1      30.887  34.605  17.972  1.00  0.00     0.194 C 
ATOM     13  O   UNL     1      30.618  33.477  17.475  1.00  0.00    -0.289 OA
ATOM     14  C   UNL     1      29.154  34.286  19.750  1.00  0.00     0.059 A 
ATOM     15  C   UNL     1      28.499  34.705  20.912  1.00  0.00     0.120 A 
ATOM     16  C   UNL     1      28.884  35.891  21.536  1.00  0.00     0.093 A 
ATOM     17  C   UNL     1      29.926  36.667  21.010  1.00  0.00     0.131 A 
ENDROOT
BRANCH   6  18
ATOM     18  O   UNL     1      33.376  38.902  17.617  1.00  0.00    -0.507 OA
ATOM     19  H   UNL     1      32.704  39.498  18.080  1.00  0.00     0.293 HD
ENDBRANCH   6  18
BRANCH  17  20
ATOM     20  O   UNL     1      30.282  37.856  21.648  1.00  0.00    -0.507 OA
ATOM     21  H   UNL     1      30.015  38.760  21.278  1.00  0.00     0.293 HD
ENDBRANCH  17  20
BRANCH  15  22
ATOM     22  O   UNL     1      27.462  33.950  21.455  1.00  0.00    -0.508 OA
ATOM     23  H   UNL     1      27.133  33.102  21.008  1.00  0.00     0.293 HD
ENDBRANCH  15  22
TORSDOF 3
ENDMDL
