MODEL 1
REMARK VINA RESULT:    -3.762      0.000      0.000
REMARK INTER + INTRA:          -5.028
REMARK INTER:                  -4.861
REMARK INTRA:                  -0.167
REMARK UNBOUND:                -0.167
REMARK SMILES C=CC(=O)CCCCC
REMARK SMILES IDX 6 1 7 2 8 3 9 4 5 5 3 6 4 7 2 8 1 9
REMARK H PARENT
REMARK Flexibility Score: inf
ROOT
ATOM      1  C   UNL     1      72.551  33.525  54.448  1.00  0.00     0.008 C 
ENDROOT
BRANCH   1   2
ATOM      2  C   UNL     1      72.428  34.484  55.640  1.00  0.00     0.000 C 
BRANCH   2   3
ATOM      3  C   UNL     1      71.204  34.140  56.498  1.00  0.00    -0.003 C 
ATOM      4  C   UNL     1      71.535  33.059  57.523  1.00  0.00     0.004 C 
ENDBRANCH   2   3
ENDBRANCH   1   2
BRANCH   1   5
ATOM      5  C   UNL     1      72.770  34.269  53.122  1.00  0.00     0.080 C 
BRANCH   5   6
ATOM      6  C   UNL     1      74.231  34.476  52.833  1.00  0.00     0.155 C 
ATOM      7  O   UNL     1      74.989  33.473  52.745  1.00  0.00    -0.295 OA
BRANCH   6   8
ATOM      8  C   UNL     1      74.772  35.842  52.685  1.00  0.00     0.039 C 
ATOM      9  C   UNL     1      76.002  36.077  52.231  1.00  0.00     0.012 C 
ENDBRANCH   6   8
ENDBRANCH   5   6
ENDBRANCH   1   5
TORSDOF 5
ENDMDL
MODEL 2
REMARK VINA RESULT:    -3.570      1.354      5.082
REMARK INTER + INTRA:          -4.780
REMARK INTER:                  -4.665
REMARK INTRA:                  -0.115
REMARK UNBOUND:                -0.167
REMARK SMILES C=CC(=O)CCCCC
REMARK SMILES IDX 6 1 7 2 8 3 9 4 5 5 3 6 4 7 2 8 1 9
REMARK H PARENT
REMARK Flexibility Score: inf
ROOT
ATOM      1  C   UNL     1      73.319  35.128  53.268  1.00  0.00     0.008 C 
ENDROOT
BRANCH   1   2
ATOM      2  C   UNL     1      74.653  34.631  52.695  1.00  0.00     0.000 C 
BRANCH   2   3
ATOM      3  C   UNL     1      75.538  35.807  52.265  1.00  0.00    -0.003 C 
ATOM      4  C   UNL     1      76.886  35.320  51.740  1.00  0.00     0.004 C 
ENDBRANCH   2   3
ENDBRANCH   1   2
BRANCH   1   5
ATOM      5  C   UNL     1      73.244  34.968  54.793  1.00  0.00     0.080 C 
BRANCH   5   6
ATOM      6  C   UNL     1      72.297  33.871  55.194  1.00  0.00     0.155 C 
ATOM      7  O   UNL     1      72.307  32.785  54.555  1.00  0.00    -0.295 OA
BRANCH   6   8
ATOM      8  C   UNL     1      71.346  34.080  56.304  1.00  0.00     0.039 C 
ATOM      9  C   UNL     1      71.402  33.375  57.434  1.00  0.00     0.012 C 
ENDBRANCH   6   8
ENDBRANCH   5   6
ENDBRANCH   1   5
TORSDOF 5
ENDMDL
MODEL 3
REMARK VINA RESULT:    -3.515      2.196      5.117
REMARK INTER + INTRA:          -4.709
REMARK INTER:                  -4.507
REMARK INTRA:                  -0.201
REMARK UNBOUND:                -0.167
REMARK SMILES C=CC(=O)CCCCC
REMARK SMILES IDX 6 1 7 2 8 3 9 4 5 5 3 6 4 7 2 8 1 9
REMARK H PARENT
REMARK Flexibility Score: inf
ROOT
ATOM      1  C   UNL     1      72.422  33.410  54.526  1.00  0.00     0.008 C 
ENDROOT
BRANCH   1   2
ATOM      2  C   UNL     1      72.772  34.133  53.218  1.00  0.00     0.000 C 
BRANCH   2   3
ATOM      3  C   UNL     1      73.576  35.410  53.494  1.00  0.00    -0.003 C 
ATOM      4  C   UNL     1      74.850  35.452  52.656  1.00  0.00     0.004 C 
ENDBRANCH   2   3
ENDBRANCH   1   2
BRANCH   1   5
ATOM      5  C   UNL     1      72.312  34.375  55.714  1.00  0.00     0.080 C 
BRANCH   5   6
ATOM      6  C   UNL     1      71.193  33.994  56.643  1.00  0.00     0.155 C 
ATOM      7  O   UNL     1      70.070  34.554  56.516  1.00  0.00    -0.295 OA
BRANCH   6   8
ATOM      8  C   UNL     1      71.419  32.998  57.709  1.00  0.00     0.039 C 
ATOM      9  C   UNL     1      72.638  32.678  58.141  1.00  0.00     0.012 C 
ENDBRANCH   6   8
ENDBRANCH   5   6
ENDBRANCH   1   5
TORSDOF 5
ENDMDL
MODEL 4
REMARK VINA RESULT:    -3.350     16.454     17.336
REMARK INTER + INTRA:          -4.496
REMARK INTER:                  -3.928
REMARK INTRA:                  -0.569
REMARK UNBOUND:                -0.167
REMARK SMILES C=CC(=O)CCCCC
REMARK SMILES IDX 6 1 7 2 8 3 9 4 5 5 3 6 4 7 2 8 1 9
REMARK H PARENT
REMARK Flexibility Score: inf
ROOT
ATOM      1  C   UNL     1      86.452  31.934  64.455  1.00  0.00     0.008 C 
ENDROOT
BRANCH   1   2
ATOM      2  C   UNL     1      87.202  32.944  65.335  1.00  0.00     0.000 C 
BRANCH   2   3
ATOM      3  C   UNL     1      87.850  32.248  66.538  1.00  0.00    -0.003 C 
ATOM      4  C   UNL     1      87.595  30.744  66.509  1.00  0.00     0.004 C 
ENDBRANCH   2   3
ENDBRANCH   1   2
BRANCH   1   5
ATOM      5  C   UNL     1      84.965  32.283  64.305  1.00  0.00     0.080 C 
BRANCH   5   6
ATOM      6  C   UNL     1      84.093  31.385  65.137  1.00  0.00     0.155 C 
ATOM      7  O   UNL     1      83.811  30.233  64.709  1.00  0.00    -0.295 OA
BRANCH   6   8
ATOM      8  C   UNL     1      83.550  31.861  66.424  1.00  0.00     0.039 C 
ATOM      9  C   UNL     1      84.299  31.961  67.522  1.00  0.00     0.012 C 
ENDBRANCH   6   8
ENDBRANCH   5   6
ENDBRANCH   1   5
TORSDOF 5
ENDMDL
MODEL 5
REMARK VINA RESULT:    -3.304     16.867     17.843
REMARK INTER + INTRA:          -4.437
REMARK INTER:                  -3.907
REMARK INTRA:                  -0.529
REMARK UNBOUND:                -0.167
REMARK SMILES C=CC(=O)CCCCC
REMARK SMILES IDX 6 1 7 2 8 3 9 4 5 5 3 6 4 7 2 8 1 9
REMARK H PARENT
REMARK Flexibility Score: inf
ROOT
ATOM      1  C   UNL     1      86.872  31.917  66.391  1.00  0.00     0.008 C 
ENDROOT
BRANCH   1   2
ATOM      2  C   UNL     1      87.646  30.596  66.507  1.00  0.00     0.000 C 
BRANCH   2   3
ATOM      3  C   UNL     1      87.709  29.876  65.154  1.00  0.00    -0.003 C 
ATOM      4  C   UNL     1      87.763  30.873  64.000  1.00  0.00     0.004 C 
ENDBRANCH   2   3
ENDBRANCH   1   2
BRANCH   1   5
ATOM      5  C   UNL     1      85.707  31.999  67.387  1.00  0.00     0.080 C 
BRANCH   5   6
ATOM      6  C   UNL     1      84.375  31.895  66.699  1.00  0.00     0.155 C 
ATOM      7  O   UNL     1      83.320  32.002  67.382  1.00  0.00    -0.295 OA
BRANCH   6   8
ATOM      8  C   UNL     1      84.306  31.638  65.247  1.00  0.00     0.039 C 
ATOM      9  C   UNL     1      83.644  30.602  64.735  1.00  0.00     0.012 C 
ENDBRANCH   6   8
ENDBRANCH   5   6
ENDBRANCH   1   5
TORSDOF 5
ENDMDL
MODEL 6
REMARK VINA RESULT:    -3.263     16.128     17.076
REMARK INTER + INTRA:          -4.383
REMARK INTER:                  -3.933
REMARK INTRA:                  -0.450
REMARK UNBOUND:                -0.167
REMARK SMILES C=CC(=O)CCCCC
REMARK SMILES IDX 6 1 7 2 8 3 9 4 5 5 3 6 4 7 2 8 1 9
REMARK H PARENT
REMARK Flexibility Score: inf
ROOT
ATOM      1  C   UNL     1      85.848  32.427  65.021  1.00  0.00     0.008 C 
ENDROOT
BRANCH   1   2
ATOM      2  C   UNL     1      86.986  31.531  64.511  1.00  0.00     0.000 C 
BRANCH   2   3
ATOM      3  C   UNL     1      87.246  30.370  65.479  1.00  0.00    -0.003 C 
ATOM      4  C   UNL     1      87.822  29.161  64.747  1.00  0.00     0.004 C 
ENDBRANCH   2   3
ENDBRANCH   1   2
BRANCH   1   5
ATOM      5  C   UNL     1      85.164  31.847  66.267  1.00  0.00     0.080 C 
BRANCH   5   6
ATOM      6  C   UNL     1      83.691  31.637  66.050  1.00  0.00     0.155 C 
ATOM      7  O   UNL     1      82.891  31.863  66.998  1.00  0.00    -0.295 OA
BRANCH   6   8
ATOM      8  C   UNL     1      83.194  31.145  64.750  1.00  0.00     0.039 C 
ATOM      9  C   UNL     1      83.156  29.849  64.444  1.00  0.00     0.012 C 
ENDBRANCH   6   8
ENDBRANCH   5   6
ENDBRANCH   1   5
TORSDOF 5
ENDMDL
MODEL 7
REMARK VINA RESULT:    -3.263     16.740     17.711
REMARK INTER + INTRA:          -4.383
REMARK INTER:                  -3.789
REMARK INTRA:                  -0.594
REMARK UNBOUND:                -0.167
REMARK SMILES C=CC(=O)CCCCC
REMARK SMILES IDX 6 1 7 2 8 3 9 4 5 5 3 6 4 7 2 8 1 9
REMARK H PARENT
REMARK Flexibility Score: inf
ROOT
ATOM      1  C   UNL     1      86.909  30.771  65.163  1.00  0.00     0.008 C 
ENDROOT
BRANCH   1   2
ATOM      2  C   UNL     1      87.490  31.029  66.560  1.00  0.00     0.000 C 
BRANCH   2   3
ATOM      3  C   UNL     1      87.805  32.517  66.756  1.00  0.00    -0.003 C 
ATOM      4  C   UNL     1      87.816  33.260  65.423  1.00  0.00     0.004 C 
ENDBRANCH   2   3
ENDBRANCH   1   2
BRANCH   1   5
ATOM      5  C   UNL     1      85.433  30.351  65.215  1.00  0.00     0.080 C 
BRANCH   5   6
ATOM      6  C   UNL     1      84.516  31.539  65.301  1.00  0.00     0.155 C 
ATOM      7  O   UNL     1      84.509  32.381  64.362  1.00  0.00    -0.295 OA
BRANCH   6   8
ATOM      8  C   UNL     1      83.659  31.731  66.487  1.00  0.00     0.039 C 
ATOM      9  C   UNL     1      84.147  32.107  67.669  1.00  0.00     0.012 C 
ENDBRANCH   6   8
ENDBRANCH   5   6
ENDBRANCH   1   5
TORSDOF 5
ENDMDL
MODEL 8
REMARK VINA RESULT:    -3.219     16.620     17.406
REMARK INTER + INTRA:          -4.326
REMARK INTER:                  -3.924
REMARK INTRA:                  -0.402
REMARK UNBOUND:                -0.167
REMARK SMILES C=CC(=O)CCCCC
REMARK SMILES IDX 6 1 7 2 8 3 9 4 5 5 3 6 4 7 2 8 1 9
REMARK H PARENT
REMARK Flexibility Score: inf
ROOT
ATOM      1  C   UNL     1      84.726  31.981  66.987  1.00  0.00     0.008 C 
ENDROOT
BRANCH   1   2
ATOM      2  C   UNL     1      83.370  31.626  66.362  1.00  0.00     0.000 C 
BRANCH   2   3
ATOM      3  C   UNL     1      83.526  31.268  64.879  1.00  0.00    -0.003 C 
ATOM      4  C   UNL     1      82.747  30.002  64.533  1.00  0.00     0.004 C 
ENDBRANCH   2   3
ENDBRANCH   1   2
BRANCH   1   5
ATOM      5  C   UNL     1      85.763  32.394  65.933  1.00  0.00     0.080 C 
BRANCH   5   6
ATOM      6  C   UNL     1      87.152  31.963  66.317  1.00  0.00     0.155 C 
ATOM      7  O   UNL     1      87.968  32.825  66.743  1.00  0.00    -0.295 OA
BRANCH   6   8
ATOM      8  C   UNL     1      87.560  30.552  66.167  1.00  0.00     0.039 C 
ATOM      9  C   UNL     1      87.358  29.866  65.043  1.00  0.00     0.012 C 
ENDBRANCH   6   8
ENDBRANCH   5   6
ENDBRANCH   1   5
TORSDOF 5
ENDMDL
