MODEL 1
REMARK VINA RESULT:    -6.099      0.000      0.000
REMARK INTER + INTRA:          -7.982
REMARK INTER:                  -7.704
REMARK INTRA:                  -0.278
REMARK UNBOUND:                -0.278
REMARK SMILES O=C(C=Cc1ccc(O)cc1)c1ccc(O)cc1O
REMARK SMILES IDX 4 1 3 2 5 3 6 4 7 5 8 6 11 7 10 8 9 9 2 11 1 12 12 13 18 14
REMARK SMILES IDX 13 15 17 16 14 17 15 18 19 19 16 21
REMARK H PARENT 9 10 19 20 16 22
REMARK Flexibility Score: inf
ROOT
ATOM      1  C   UNL     1      72.096  33.521  53.518  1.00  0.00     0.012 C 
ATOM      2  C   UNL     1      72.897  34.306  52.782  1.00  0.00     0.053 C 
ENDROOT
BRANCH   1   3
ATOM      3  C   UNL     1      72.173  33.352  54.983  1.00  0.00    -0.025 A 
ATOM      4  C   UNL     1      73.203  32.576  55.535  1.00  0.00     0.012 A 
ATOM      5  C   UNL     1      73.263  32.362  56.916  1.00  0.00     0.047 A 
ATOM      6  C   UNL     1      72.279  32.903  57.756  1.00  0.00     0.115 A 
ATOM      7  C   UNL     1      71.173  33.867  55.826  1.00  0.00     0.012 A 
ATOM      8  C   UNL     1      71.234  33.652  57.206  1.00  0.00     0.047 A 
BRANCH   6   9
ATOM      9  O   UNL     1      72.329  32.697  59.132  1.00  0.00    -0.508 OA
ATOM     10  H   UNL     1      73.055  33.114  59.704  1.00  0.00     0.293 HD
ENDBRANCH   6   9
ENDBRANCH   1   3
BRANCH   2  11
ATOM     11  C   UNL     1      74.109  35.010  53.271  1.00  0.00     0.189 C 
ATOM     12  O   UNL     1      74.084  35.663  54.349  1.00  0.00    -0.289 OA
BRANCH  11  13
ATOM     13  C   UNL     1      75.373  34.957  52.507  1.00  0.00     0.064 A 
ATOM     14  C   UNL     1      76.144  33.777  52.427  1.00  0.00     0.130 A 
ATOM     15  C   UNL     1      75.833  36.122  51.872  1.00  0.00     0.020 A 
ATOM     16  C   UNL     1      77.332  33.771  51.679  1.00  0.00     0.093 A 
ATOM     17  C   UNL     1      77.020  36.108  51.135  1.00  0.00     0.047 A 
ATOM     18  C   UNL     1      77.769  34.934  51.032  1.00  0.00     0.119 A 
BRANCH  14  19
ATOM     19  O   UNL     1      75.750  32.625  53.107  1.00  0.00    -0.507 OA
ATOM     20  H   UNL     1      74.795  32.489  53.415  1.00  0.00     0.293 HD
ENDBRANCH  14  19
BRANCH  18  21
ATOM     21  O   UNL     1      78.948  34.933  50.290  1.00  0.00    -0.508 OA
ATOM     22  H   UNL     1      79.024  34.423  49.417  1.00  0.00     0.293 HD
ENDBRANCH  18  21
ENDBRANCH  11  13
ENDBRANCH   2  11
TORSDOF 6
ENDMDL
MODEL 2
REMARK VINA RESULT:    -5.925      2.661      7.514
REMARK INTER + INTRA:          -7.762
REMARK INTER:                  -7.598
REMARK INTRA:                  -0.164
REMARK UNBOUND:                -0.278
REMARK SMILES O=C(C=Cc1ccc(O)cc1)c1ccc(O)cc1O
REMARK SMILES IDX 4 1 3 2 5 3 6 4 7 5 8 6 11 7 10 8 9 9 2 11 1 12 12 13 18 14
REMARK SMILES IDX 13 15 17 16 14 17 15 18 19 19 16 21
REMARK H PARENT 9 10 19 20 16 22
REMARK Flexibility Score: inf
ROOT
ATOM      1  C   UNL     1      79.088  35.715  52.641  1.00  0.00     0.012 C 
ATOM      2  C   UNL     1      77.814  36.125  52.744  1.00  0.00     0.053 C 
ENDROOT
BRANCH   1   3
ATOM      3  C   UNL     1      79.660  34.969  51.503  1.00  0.00    -0.025 A 
ATOM      4  C   UNL     1      79.761  35.594  50.251  1.00  0.00     0.012 A 
ATOM      5  C   UNL     1      80.251  34.887  49.148  1.00  0.00     0.047 A 
ATOM      6  C   UNL     1      80.625  33.543  49.281  1.00  0.00     0.115 A 
ATOM      7  C   UNL     1      80.008  33.613  51.625  1.00  0.00     0.012 A 
ATOM      8  C   UNL     1      80.498  32.909  50.522  1.00  0.00     0.047 A 
BRANCH   6   9
ATOM      9  O   UNL     1      81.117  32.830  48.191  1.00  0.00    -0.508 OA
ATOM     10  H   UNL     1      82.111  32.682  48.060  1.00  0.00     0.293 HD
ENDBRANCH   6   9
ENDBRANCH   1   3
BRANCH   2  11
ATOM     11  C   UNL     1      76.709  35.757  51.824  1.00  0.00     0.189 C 
ATOM     12  O   UNL     1      76.802  35.978  50.586  1.00  0.00    -0.289 OA
BRANCH  11  13
ATOM     13  C   UNL     1      75.479  35.121  52.338  1.00  0.00     0.064 A 
ATOM     14  C   UNL     1      75.411  33.736  52.598  1.00  0.00     0.130 A 
ATOM     15  C   UNL     1      74.338  35.915  52.542  1.00  0.00     0.020 A 
ATOM     16  C   UNL     1      74.224  33.178  53.097  1.00  0.00     0.093 A 
ATOM     17  C   UNL     1      73.158  35.349  53.034  1.00  0.00     0.047 A 
ATOM     18  C   UNL     1      73.099  33.983  53.317  1.00  0.00     0.119 A 
BRANCH  14  19
ATOM     19  O   UNL     1      76.505  32.911  52.335  1.00  0.00    -0.507 OA
ATOM     20  H   UNL     1      77.285  32.842  52.977  1.00  0.00     0.293 HD
ENDBRANCH  14  19
BRANCH  18  21
ATOM     21  O   UNL     1      71.919  33.434  53.812  1.00  0.00    -0.508 OA
ATOM     22  H   UNL     1      71.144  33.203  53.199  1.00  0.00     0.293 HD
ENDBRANCH  18  21
ENDBRANCH  11  13
ENDBRANCH   2  11
TORSDOF 6
ENDMDL
MODEL 3
REMARK VINA RESULT:    -5.511      2.115      3.486
REMARK INTER + INTRA:          -7.239
REMARK INTER:                  -7.349
REMARK INTRA:                   0.110
REMARK UNBOUND:                -0.278
REMARK SMILES O=C(C=Cc1ccc(O)cc1)c1ccc(O)cc1O
REMARK SMILES IDX 4 1 3 2 5 3 6 4 7 5 8 6 11 7 10 8 9 9 2 11 1 12 12 13 18 14
REMARK SMILES IDX 13 15 17 16 14 17 15 18 19 19 16 21
REMARK H PARENT 9 10 19 20 16 22
REMARK Flexibility Score: inf
ROOT
ATOM      1  C   UNL     1      75.034  35.939  52.073  1.00  0.00     0.012 C 
ATOM      2  C   UNL     1      76.168  35.376  51.627  1.00  0.00     0.053 C 
ENDROOT
BRANCH   1   3
ATOM      3  C   UNL     1      74.087  35.322  53.023  1.00  0.00    -0.025 A 
ATOM      4  C   UNL     1      74.163  35.654  54.384  1.00  0.00     0.012 A 
ATOM      5  C   UNL     1      73.309  35.042  55.307  1.00  0.00     0.047 A 
ATOM      6  C   UNL     1      72.386  34.076  54.881  1.00  0.00     0.115 A 
ATOM      7  C   UNL     1      73.182  34.331  52.605  1.00  0.00     0.012 A 
ATOM      8  C   UNL     1      72.329  33.721  53.530  1.00  0.00     0.047 A 
BRANCH   6   9
ATOM      9  O   UNL     1      71.531  33.461  55.791  1.00  0.00    -0.508 OA
ATOM     10  H   UNL     1      71.837  32.683  56.364  1.00  0.00     0.293 HD
ENDBRANCH   6   9
ENDBRANCH   1   3
BRANCH   2  11
ATOM     11  C   UNL     1      76.591  33.974  51.864  1.00  0.00     0.189 C 
ATOM     12  O   UNL     1      75.739  33.048  51.940  1.00  0.00    -0.289 OA
BRANCH  11  13
ATOM     13  C   UNL     1      78.021  33.631  52.011  1.00  0.00     0.064 A 
ATOM     14  C   UNL     1      78.454  32.296  52.160  1.00  0.00     0.130 A 
ATOM     15  C   UNL     1      78.969  34.667  52.034  1.00  0.00     0.020 A 
ATOM     16  C   UNL     1      79.824  32.017  52.284  1.00  0.00     0.093 A 
ATOM     17  C   UNL     1      80.331  34.380  52.164  1.00  0.00     0.047 A 
ATOM     18  C   UNL     1      80.762  33.057  52.284  1.00  0.00     0.119 A 
BRANCH  14  19
ATOM     19  O   UNL     1      77.530  31.253  52.215  1.00  0.00    -0.507 OA
ATOM     20  H   UNL     1      76.532  31.423  52.173  1.00  0.00     0.293 HD
ENDBRANCH  14  19
BRANCH  18  21
ATOM     21  O   UNL     1      82.123  32.787  52.408  1.00  0.00    -0.508 OA
ATOM     22  H   UNL     1      82.769  32.959  51.646  1.00  0.00     0.293 HD
ENDBRANCH  18  21
ENDBRANCH  11  13
ENDBRANCH   2  11
TORSDOF 6
ENDMDL
MODEL 4
REMARK VINA RESULT:    -4.900      2.034      6.693
REMARK INTER + INTRA:          -6.467
REMARK INTER:                  -6.477
REMARK INTRA:                   0.011
REMARK UNBOUND:                -0.278
REMARK SMILES O=C(C=Cc1ccc(O)cc1)c1ccc(O)cc1O
REMARK SMILES IDX 4 1 3 2 5 3 6 4 7 5 8 6 11 7 10 8 9 9 2 11 1 12 12 13 18 14
REMARK SMILES IDX 13 15 17 16 14 17 15 18 19 19 16 21
REMARK H PARENT 9 10 19 20 16 22
REMARK Flexibility Score: inf
ROOT
ATOM      1  C   UNL     1      76.830  35.817  50.809  1.00  0.00     0.012 C 
ATOM      2  C   UNL     1      75.790  36.085  51.615  1.00  0.00     0.053 C 
ENDROOT
BRANCH   1   3
ATOM      3  C   UNL     1      78.019  35.025  51.180  1.00  0.00    -0.025 A 
ATOM      4  C   UNL     1      77.855  33.714  51.652  1.00  0.00     0.012 A 
ATOM      5  C   UNL     1      78.965  32.966  52.057  1.00  0.00     0.047 A 
ATOM      6  C   UNL     1      80.248  33.529  52.016  1.00  0.00     0.115 A 
ATOM      7  C   UNL     1      79.304  35.596  51.169  1.00  0.00     0.012 A 
ATOM      8  C   UNL     1      80.412  34.846  51.575  1.00  0.00     0.047 A 
BRANCH   6   9
ATOM      9  O   UNL     1      81.360  32.793  52.415  1.00  0.00    -0.508 OA
ATOM     10  H   UNL     1      81.893  32.239  51.755  1.00  0.00     0.293 HD
ENDBRANCH   6   9
ENDBRANCH   1   3
BRANCH   2  11
ATOM     11  C   UNL     1      75.720  35.788  53.067  1.00  0.00     0.189 C 
ATOM     12  O   UNL     1      76.658  36.125  53.839  1.00  0.00    -0.289 OA
BRANCH  11  13
ATOM     13  C   UNL     1      74.546  35.097  53.641  1.00  0.00     0.064 A 
ATOM     14  C   UNL     1      74.084  33.866  53.127  1.00  0.00     0.130 A 
ATOM     15  C   UNL     1      73.857  35.699  54.706  1.00  0.00     0.020 A 
ATOM     16  C   UNL     1      72.973  33.240  53.713  1.00  0.00     0.093 A 
ATOM     17  C   UNL     1      72.747  35.071  55.279  1.00  0.00     0.047 A 
ATOM     18  C   UNL     1      72.306  33.840  54.789  1.00  0.00     0.119 A 
BRANCH  14  19
ATOM     19  O   UNL     1      74.704  33.281  52.024  1.00  0.00    -0.507 OA
ATOM     20  H   UNL     1      74.336  33.389  51.087  1.00  0.00     0.293 HD
ENDBRANCH  14  19
BRANCH  18  21
ATOM     21  O   UNL     1      71.202  33.224  55.373  1.00  0.00    -0.508 OA
ATOM     22  H   UNL     1      71.204  32.235  55.597  1.00  0.00     0.293 HD
ENDBRANCH  18  21
ENDBRANCH  11  13
ENDBRANCH   2  11
TORSDOF 6
ENDMDL
MODEL 5
REMARK VINA RESULT:    -4.722      1.578      2.418
REMARK INTER + INTRA:          -6.243
REMARK INTER:                  -5.262
REMARK INTRA:                  -0.980
REMARK UNBOUND:                -0.278
REMARK SMILES O=C(C=Cc1ccc(O)cc1)c1ccc(O)cc1O
REMARK SMILES IDX 4 1 3 2 5 3 6 4 7 5 8 6 11 7 10 8 9 9 2 11 1 12 12 13 18 14
REMARK SMILES IDX 13 15 17 16 14 17 15 18 19 19 16 21
REMARK H PARENT 9 10 19 20 16 22
REMARK Flexibility Score: inf
ROOT
ATOM      1  C   UNL     1      73.120  34.344  52.426  1.00  0.00     0.012 C 
ATOM      2  C   UNL     1      74.190  34.936  51.874  1.00  0.00     0.053 C 
ENDROOT
BRANCH   1   3
ATOM      3  C   UNL     1      73.003  33.927  53.838  1.00  0.00    -0.025 A 
ATOM      4  C   UNL     1      73.452  32.654  54.220  1.00  0.00     0.012 A 
ATOM      5  C   UNL     1      73.303  32.222  55.542  1.00  0.00     0.047 A 
ATOM      6  C   UNL     1      72.684  33.050  56.489  1.00  0.00     0.115 A 
ATOM      7  C   UNL     1      72.357  34.742  54.784  1.00  0.00     0.012 A 
ATOM      8  C   UNL     1      72.209  34.308  56.104  1.00  0.00     0.047 A 
BRANCH   6   9
ATOM      9  O   UNL     1      72.532  32.631  57.807  1.00  0.00    -0.508 OA
ATOM     10  H   UNL     1      71.811  33.016  58.406  1.00  0.00     0.293 HD
ENDBRANCH   6   9
ENDBRANCH   1   3
BRANCH   2  11
ATOM     11  C   UNL     1      75.509  35.124  52.527  1.00  0.00     0.189 C 
ATOM     12  O   UNL     1      75.719  36.110  53.284  1.00  0.00    -0.289 OA
BRANCH  11  13
ATOM     13  C   UNL     1      76.605  34.157  52.307  1.00  0.00     0.064 A 
ATOM     14  C   UNL     1      77.892  34.571  51.902  1.00  0.00     0.130 A 
ATOM     15  C   UNL     1      76.346  32.787  52.478  1.00  0.00     0.020 A 
ATOM     16  C   UNL     1      78.905  33.617  51.718  1.00  0.00     0.093 A 
ATOM     17  C   UNL     1      77.360  31.844  52.287  1.00  0.00     0.047 A 
ATOM     18  C   UNL     1      78.641  32.255  51.912  1.00  0.00     0.119 A 
BRANCH  14  19
ATOM     19  O   UNL     1      78.158  35.917  51.654  1.00  0.00    -0.507 OA
ATOM     20  H   UNL     1      77.430  36.620  51.697  1.00  0.00     0.293 HD
ENDBRANCH  14  19
BRANCH  18  21
ATOM     21  O   UNL     1      79.642  31.305  51.730  1.00  0.00    -0.508 OA
ATOM     22  H   UNL     1      80.415  31.464  51.093  1.00  0.00     0.293 HD
ENDBRANCH  18  21
ENDBRANCH  11  13
ENDBRANCH   2  11
TORSDOF 6
ENDMDL
MODEL 6
REMARK VINA RESULT:    -4.315      1.972      6.949
REMARK INTER + INTRA:          -5.728
REMARK INTER:                  -5.965
REMARK INTRA:                   0.236
REMARK UNBOUND:                -0.278
REMARK SMILES O=C(C=Cc1ccc(O)cc1)c1ccc(O)cc1O
REMARK SMILES IDX 4 1 3 2 5 3 6 4 7 5 8 6 11 7 10 8 9 9 2 11 1 12 12 13 18 14
REMARK SMILES IDX 13 15 17 16 14 17 15 18 19 19 16 21
REMARK H PARENT 9 10 19 20 16 22
REMARK Flexibility Score: inf
ROOT
ATOM      1  C   UNL     1      76.836  36.041  51.432  1.00  0.00     0.012 C 
ATOM      2  C   UNL     1      75.612  35.526  51.628  1.00  0.00     0.053 C 
ENDROOT
BRANCH   1   3
ATOM      3  C   UNL     1      78.110  35.376  51.772  1.00  0.00    -0.025 A 
ATOM      4  C   UNL     1      78.946  35.945  52.745  1.00  0.00     0.012 A 
ATOM      5  C   UNL     1      80.180  35.358  53.044  1.00  0.00     0.047 A 
ATOM      6  C   UNL     1      80.600  34.211  52.358  1.00  0.00     0.115 A 
ATOM      7  C   UNL     1      78.549  34.242  51.066  1.00  0.00     0.012 A 
ATOM      8  C   UNL     1      79.782  33.658  51.367  1.00  0.00     0.047 A 
BRANCH   6   9
ATOM      9  O   UNL     1      81.825  33.618  52.648  1.00  0.00    -0.508 OA
ATOM     10  H   UNL     1      81.917  32.613  52.751  1.00  0.00     0.293 HD
ENDBRANCH   6   9
ENDBRANCH   1   3
BRANCH   2  11
ATOM     11  C   UNL     1      75.305  34.281  52.376  1.00  0.00     0.189 C 
ATOM     12  O   UNL     1      75.961  33.225  52.166  1.00  0.00    -0.289 OA
BRANCH  11  13
ATOM     13  C   UNL     1      74.227  34.254  53.386  1.00  0.00     0.064 A 
ATOM     14  C   UNL     1      74.185  35.176  54.454  1.00  0.00     0.130 A 
ATOM     15  C   UNL     1      73.236  33.262  53.295  1.00  0.00     0.020 A 
ATOM     16  C   UNL     1      73.134  35.119  55.382  1.00  0.00     0.093 A 
ATOM     17  C   UNL     1      72.196  33.210  54.228  1.00  0.00     0.047 A 
ATOM     18  C   UNL     1      72.139  34.139  55.269  1.00  0.00     0.119 A 
BRANCH  14  19
ATOM     19  O   UNL     1      75.194  36.125  54.611  1.00  0.00    -0.507 OA
ATOM     20  H   UNL     1      75.601  36.606  53.818  1.00  0.00     0.293 HD
ENDBRANCH  14  19
BRANCH  18  21
ATOM     21  O   UNL     1      71.095  34.077  56.189  1.00  0.00    -0.508 OA
ATOM     22  H   UNL     1      71.247  34.253  57.176  1.00  0.00     0.293 HD
ENDBRANCH  18  21
ENDBRANCH  11  13
ENDBRANCH   2  11
TORSDOF 6
ENDMDL
MODEL 7
REMARK VINA RESULT:    -4.061      1.177      6.564
REMARK INTER + INTRA:          -5.407
REMARK INTER:                  -4.933
REMARK INTRA:                  -0.474
REMARK UNBOUND:                -0.278
REMARK SMILES O=C(C=Cc1ccc(O)cc1)c1ccc(O)cc1O
REMARK SMILES IDX 4 1 3 2 5 3 6 4 7 5 8 6 11 7 10 8 9 9 2 11 1 12 12 13 18 14
REMARK SMILES IDX 13 15 17 16 14 17 15 18 19 19 16 21
REMARK H PARENT 9 10 19 20 16 22
REMARK Flexibility Score: inf
ROOT
ATOM      1  C   UNL     1      74.181  35.229  51.693  1.00  0.00     0.012 C 
ATOM      2  C   UNL     1      73.325  35.285  52.726  1.00  0.00     0.053 C 
ENDROOT
BRANCH   1   3
ATOM      3  C   UNL     1      75.640  35.028  51.799  1.00  0.00    -0.025 A 
ATOM      4  C   UNL     1      76.501  36.119  51.613  1.00  0.00     0.012 A 
ATOM      5  C   UNL     1      77.887  35.939  51.658  1.00  0.00     0.047 A 
ATOM      6  C   UNL     1      78.426  34.661  51.867  1.00  0.00     0.115 A 
ATOM      7  C   UNL     1      76.184  33.744  51.978  1.00  0.00     0.012 A 
ATOM      8  C   UNL     1      77.570  33.566  52.023  1.00  0.00     0.047 A 
BRANCH   6   9
ATOM      9  O   UNL     1      79.803  34.470  51.915  1.00  0.00    -0.508 OA
ATOM     10  H   UNL     1      80.330  34.201  51.092  1.00  0.00     0.293 HD
ENDBRANCH   6   9
ENDBRANCH   1   3
BRANCH   2  11
ATOM     11  C   UNL     1      73.701  35.331  54.161  1.00  0.00     0.189 C 
ATOM     12  O   UNL     1      74.599  36.117  54.567  1.00  0.00    -0.289 OA
BRANCH  11  13
ATOM     13  C   UNL     1      73.026  34.461  55.147  1.00  0.00     0.064 A 
ATOM     14  C   UNL     1      73.344  33.092  55.269  1.00  0.00     0.130 A 
ATOM     15  C   UNL     1      72.020  35.009  55.960  1.00  0.00     0.020 A 
ATOM     16  C   UNL     1      72.686  32.307  56.229  1.00  0.00     0.093 A 
ATOM     17  C   UNL     1      71.366  34.218  56.909  1.00  0.00     0.047 A 
ATOM     18  C   UNL     1      71.699  32.869  57.049  1.00  0.00     0.119 A 
BRANCH  14  19
ATOM     19  O   UNL     1      74.286  32.504  54.426  1.00  0.00    -0.507 OA
ATOM     20  H   UNL     1      74.129  31.598  54.001  1.00  0.00     0.293 HD
ENDBRANCH  14  19
BRANCH  18  21
ATOM     21  O   UNL     1      71.041  32.094  58.002  1.00  0.00    -0.508 OA
ATOM     22  H   UNL     1      70.218  31.551  57.767  1.00  0.00     0.293 HD
ENDBRANCH  18  21
ENDBRANCH  11  13
ENDBRANCH   2  11
TORSDOF 6
ENDMDL
