MODEL 1
REMARK VINA RESULT:    -5.773      0.000      0.000
REMARK INTER + INTRA:          -6.845
REMARK INTER:                  -6.279
REMARK INTRA:                  -0.566
REMARK UNBOUND:                -0.566
REMARK SMILES C=C(C)[C@@H]1CC[C@@]2(C)CC[C@]3(C)[C@H](CC[C@@H]4[C@]5(C)CC[C@H](O)C(C)(C)[C@H]5CC[C@@]43C)[C@@H]12
REMARK SMILES IDX 4 1 5 2 6 3 7 4 31 5 13 6 14 7 15 8 16 9 17 10 19 11 20 12
REMARK SMILES IDX 21 13 23 14 26 15 27 16 28 17 29 18 11 19 10 20 9 21 12 22
REMARK SMILES IDX 30 23 24 24 25 25 18 26 8 27 2 28 3 29 1 30 22 31
REMARK H PARENT 22 32
REMARK Flexibility Score: inf
ROOT
ATOM      1  C   UNL     1     -39.550  31.491  12.365  1.00  0.00     0.018 C 
ATOM      2  C   UNL     1     -38.362  30.683  11.881  1.00  0.00     0.009 C 
ATOM      3  C   UNL     1     -37.135  31.204  12.622  1.00  0.00     0.008 C 
ATOM      4  C   UNL     1     -37.586  32.281  13.645  1.00  0.00    -0.029 C 
ATOM      5  C   UNL     1     -39.139  32.174  13.705  1.00  0.00     0.006 C 
ATOM      6  C   UNL     1     -39.921  33.536  13.883  1.00  0.00    -0.000 C 
ATOM      7  C   UNL     1     -41.280  33.288  14.564  1.00  0.00     0.005 C 
ATOM      8  C   UNL     1     -42.158  34.524  14.479  1.00  0.00     0.005 C 
ATOM      9  C   UNL     1     -41.537  35.836  15.059  1.00  0.00     0.002 C 
ATOM     10  C   UNL     1     -42.526  37.092  14.865  1.00  0.00    -0.026 C 
ATOM     11  C   UNL     1     -44.016  36.677  15.138  1.00  0.00     0.010 C 
ATOM     12  C   UNL     1     -45.056  37.775  14.843  1.00  0.00     0.033 C 
ATOM     13  C   UNL     1     -44.942  38.279  13.391  1.00  0.00     0.120 C 
ATOM     14  C   UNL     1     -43.503  38.744  12.995  1.00  0.00    -0.006 C 
ATOM     15  C   UNL     1     -42.454  37.612  13.379  1.00  0.00     0.003 C 
ATOM     16  C   UNL     1     -41.004  37.909  12.935  1.00  0.00     0.005 C 
ATOM     17  C   UNL     1     -40.053  36.710  13.125  1.00  0.00     0.008 C 
ATOM     18  C   UNL     1     -40.027  36.068  14.565  1.00  0.00    -0.024 C 
ATOM     19  C   UNL     1     -39.161  34.682  14.623  1.00  0.00    -0.024 C 
ATOM     20  C   UNL     1     -37.728  34.856  13.978  1.00  0.00     0.008 C 
ATOM     21  C   UNL     1     -37.175  33.678  13.150  1.00  0.00     0.007 C 
ATOM     22  C   UNL     1     -38.962  34.258  16.125  1.00  0.00     0.012 C 
ATOM     23  C   UNL     1     -39.294  37.092  15.494  1.00  0.00     0.012 C 
ATOM     24  C   UNL     1     -43.491  38.980  11.449  1.00  0.00     0.014 C 
ATOM     25  C   UNL     1     -43.212  40.125  13.654  1.00  0.00     0.014 C 
ATOM     26  C   UNL     1     -42.145  38.197  15.904  1.00  0.00     0.012 C 
ATOM     27  C   UNL     1     -36.878  31.976  14.999  1.00  0.00     0.011 C 
ENDROOT
BRANCH   1  28
ATOM     28  C   UNL     1     -40.812  30.642  12.471  1.00  0.00    -0.077 C 
ATOM     29  C   UNL     1     -42.027  30.950  11.619  1.00  0.00     0.039 C 
ATOM     30  C   UNL     1     -40.873  29.632  13.359  1.00  0.00     0.008 C 
ENDBRANCH   1  28
BRANCH  13  31
ATOM     31  O   UNL     1     -45.371  37.270  12.517  1.00  0.00    -0.393 OA
ATOM     32  H   UNL     1     -44.583  36.696  12.316  1.00  0.00     0.210 HD
ENDBRANCH  13  31
TORSDOF 2
ENDMDL
MODEL 2
REMARK VINA RESULT:    -5.136      3.499      5.689
REMARK INTER + INTRA:          -6.152
REMARK INTER:                  -5.600
REMARK INTRA:                  -0.552
REMARK UNBOUND:                -0.566
REMARK SMILES C=C(C)[C@@H]1CC[C@@]2(C)CC[C@]3(C)[C@H](CC[C@@H]4[C@]5(C)CC[C@H](O)C(C)(C)[C@H]5CC[C@@]43C)[C@@H]12
REMARK SMILES IDX 4 1 5 2 6 3 7 4 31 5 13 6 14 7 15 8 16 9 17 10 19 11 20 12
REMARK SMILES IDX 21 13 23 14 26 15 27 16 28 17 29 18 11 19 10 20 9 21 12 22
REMARK SMILES IDX 30 23 24 24 25 25 18 26 8 27 2 28 3 29 1 30 22 31
REMARK H PARENT 22 32
REMARK Flexibility Score: inf
ROOT
ATOM      1  C   UNL     1     -40.570  31.773  13.343  1.00  0.00     0.018 C 
ATOM      2  C   UNL     1     -40.890  30.337  13.707  1.00  0.00     0.009 C 
ATOM      3  C   UNL     1     -39.560  29.625  13.931  1.00  0.00     0.008 C 
ATOM      4  C   UNL     1     -38.409  30.658  13.798  1.00  0.00    -0.029 C 
ATOM      5  C   UNL     1     -39.101  32.054  13.786  1.00  0.00     0.006 C 
ATOM      6  C   UNL     1     -38.449  33.143  12.844  1.00  0.00    -0.000 C 
ATOM      7  C   UNL     1     -38.753  34.557  13.371  1.00  0.00     0.005 C 
ATOM      8  C   UNL     1     -38.389  35.607  12.335  1.00  0.00     0.005 C 
ATOM      9  C   UNL     1     -36.914  35.568  11.821  1.00  0.00     0.002 C 
ATOM     10  C   UNL     1     -36.655  36.682  10.688  1.00  0.00    -0.026 C 
ATOM     11  C   UNL     1     -37.383  38.027  11.050  1.00  0.00     0.010 C 
ATOM     12  C   UNL     1     -37.311  39.113   9.959  1.00  0.00     0.033 C 
ATOM     13  C   UNL     1     -37.867  38.597   8.617  1.00  0.00     0.120 C 
ATOM     14  C   UNL     1     -37.208  37.264   8.131  1.00  0.00    -0.006 C 
ATOM     15  C   UNL     1     -37.240  36.196   9.308  1.00  0.00     0.003 C 
ATOM     16  C   UNL     1     -36.715  34.797   8.913  1.00  0.00     0.005 C 
ATOM     17  C   UNL     1     -36.956  33.729   9.999  1.00  0.00     0.008 C 
ATOM     18  C   UNL     1     -36.437  34.082  11.446  1.00  0.00    -0.024 C 
ATOM     19  C   UNL     1     -36.918  32.998  12.572  1.00  0.00    -0.024 C 
ATOM     20  C   UNL     1     -36.607  31.513  12.129  1.00  0.00     0.008 C 
ATOM     21  C   UNL     1     -37.655  30.435  12.477  1.00  0.00     0.007 C 
ATOM     22  C   UNL     1     -36.146  33.269  13.915  1.00  0.00     0.012 C 
ATOM     23  C   UNL     1     -34.875  34.002  11.387  1.00  0.00     0.012 C 
ATOM     24  C   UNL     1     -38.039  36.743   6.913  1.00  0.00     0.014 C 
ATOM     25  C   UNL     1     -35.778  37.568   7.593  1.00  0.00     0.014 C 
ATOM     26  C   UNL     1     -35.121  36.979  10.616  1.00  0.00     0.012 C 
ATOM     27  C   UNL     1     -37.438  30.445  14.998  1.00  0.00     0.011 C 
ENDROOT
BRANCH   1  28
ATOM     28  C   UNL     1     -41.585  32.748  13.929  1.00  0.00    -0.077 C 
ATOM     29  C   UNL     1     -41.655  32.987  15.424  1.00  0.00     0.039 C 
ATOM     30  C   UNL     1     -42.462  33.376  13.123  1.00  0.00     0.008 C 
ENDBRANCH   1  28
BRANCH  13  31
ATOM     31  O   UNL     1     -39.254  38.427   8.727  1.00  0.00    -0.393 OA
ATOM     32  H   UNL     1     -39.545  38.887   9.560  1.00  0.00     0.210 HD
ENDBRANCH  13  31
TORSDOF 2
ENDMDL
MODEL 3
REMARK VINA RESULT:    -4.791     12.283     15.265
REMARK INTER + INTRA:          -5.777
REMARK INTER:                  -5.213
REMARK INTRA:                  -0.563
REMARK UNBOUND:                -0.566
REMARK SMILES C=C(C)[C@@H]1CC[C@@]2(C)CC[C@]3(C)[C@H](CC[C@@H]4[C@]5(C)CC[C@H](O)C(C)(C)[C@H]5CC[C@@]43C)[C@@H]12
REMARK SMILES IDX 4 1 5 2 6 3 7 4 31 5 13 6 14 7 15 8 16 9 17 10 19 11 20 12
REMARK SMILES IDX 21 13 23 14 26 15 27 16 28 17 29 18 11 19 10 20 9 21 12 22
REMARK SMILES IDX 30 23 24 24 25 25 18 26 8 27 2 28 3 29 1 30 22 31
REMARK H PARENT 22 32
REMARK Flexibility Score: inf
ROOT
ATOM      1  C   UNL     1     -46.263  29.706  -0.113  1.00  0.00     0.018 C 
ATOM      2  C   UNL     1     -45.809  28.264  -0.004  1.00  0.00     0.009 C 
ATOM      3  C   UNL     1     -46.971  27.472   0.586  1.00  0.00     0.008 C 
ATOM      4  C   UNL     1     -48.189  28.418   0.753  1.00  0.00    -0.029 C 
ATOM      5  C   UNL     1     -47.820  29.716  -0.026  1.00  0.00     0.006 C 
ATOM      6  C   UNL     1     -48.320  31.073   0.610  1.00  0.00    -0.000 C 
ATOM      7  C   UNL     1     -48.492  32.145  -0.482  1.00  0.00     0.005 C 
ATOM      8  C   UNL     1     -48.687  33.518   0.137  1.00  0.00     0.005 C 
ATOM      9  C   UNL     1     -49.868  33.640   1.153  1.00  0.00     0.002 C 
ATOM     10  C   UNL     1     -49.946  35.117   1.790  1.00  0.00    -0.026 C 
ATOM     11  C   UNL     1     -49.659  36.212   0.700  1.00  0.00     0.010 C 
ATOM     12  C   UNL     1     -49.573  37.652   1.240  1.00  0.00     0.033 C 
ATOM     13  C   UNL     1     -48.512  37.772   2.352  1.00  0.00     0.120 C 
ATOM     14  C   UNL     1     -48.697  36.744   3.515  1.00  0.00    -0.006 C 
ATOM     15  C   UNL     1     -48.851  35.281   2.912  1.00  0.00     0.003 C 
ATOM     16  C   UNL     1     -48.930  34.159   3.972  1.00  0.00     0.005 C 
ATOM     17  C   UNL     1     -48.861  32.743   3.363  1.00  0.00     0.008 C 
ATOM     18  C   UNL     1     -49.892  32.434   2.211  1.00  0.00    -0.024 C 
ATOM     19  C   UNL     1     -49.612  30.996   1.483  1.00  0.00    -0.024 C 
ATOM     20  C   UNL     1     -49.461  29.824   2.533  1.00  0.00     0.008 C 
ATOM     21  C   UNL     1     -48.400  28.743   2.241  1.00  0.00     0.007 C 
ATOM     22  C   UNL     1     -50.826  30.645   0.545  1.00  0.00     0.012 C 
ATOM     23  C   UNL     1     -51.297  32.324   2.891  1.00  0.00     0.012 C 
ATOM     24  C   UNL     1     -47.422  36.818   4.418  1.00  0.00     0.014 C 
ATOM     25  C   UNL     1     -49.895  37.189   4.406  1.00  0.00     0.014 C 
ATOM     26  C   UNL     1     -51.394  35.356   2.330  1.00  0.00     0.012 C 
ATOM     27  C   UNL     1     -49.444  27.682   0.195  1.00  0.00     0.011 C 
ENDROOT
BRANCH   1  28
ATOM     28  C   UNL     1     -45.713  30.383  -1.364  1.00  0.00    -0.077 C 
ATOM     29  C   UNL     1     -44.720  31.522  -1.254  1.00  0.00     0.039 C 
ATOM     30  C   UNL     1     -46.142  30.002  -2.581  1.00  0.00     0.008 C 
ENDBRANCH   1  28
BRANCH  13  31
ATOM     31  O   UNL     1     -47.236  37.627   1.789  1.00  0.00    -0.393 OA
ATOM     32  H   UNL     1     -46.638  38.289   2.232  1.00  0.00     0.210 HD
ENDBRANCH  13  31
TORSDOF 2
ENDMDL
MODEL 4
REMARK VINA RESULT:    -4.726      4.201      6.924
REMARK INTER + INTRA:          -5.706
REMARK INTER:                  -5.141
REMARK INTRA:                  -0.565
REMARK UNBOUND:                -0.566
REMARK SMILES C=C(C)[C@@H]1CC[C@@]2(C)CC[C@]3(C)[C@H](CC[C@@H]4[C@]5(C)CC[C@H](O)C(C)(C)[C@H]5CC[C@@]43C)[C@@H]12
REMARK SMILES IDX 4 1 5 2 6 3 7 4 31 5 13 6 14 7 15 8 16 9 17 10 19 11 20 12
REMARK SMILES IDX 21 13 23 14 26 15 27 16 28 17 29 18 11 19 10 20 9 21 12 22
REMARK SMILES IDX 30 23 24 24 25 25 18 26 8 27 2 28 3 29 1 30 22 31
REMARK H PARENT 22 32
REMARK Flexibility Score: inf
ROOT
ATOM      1  C   UNL     1     -37.405  37.477   7.846  1.00  0.00     0.018 C 
ATOM      2  C   UNL     1     -37.189  38.860   7.265  1.00  0.00     0.009 C 
ATOM      3  C   UNL     1     -36.571  39.716   8.366  1.00  0.00     0.008 C 
ATOM      4  C   UNL     1     -36.315  38.825   9.610  1.00  0.00    -0.029 C 
ATOM      5  C   UNL     1     -36.518  37.359   9.122  1.00  0.00     0.006 C 
ATOM      6  C   UNL     1     -37.184  36.370  10.158  1.00  0.00    -0.000 C 
ATOM      7  C   UNL     1     -36.753  34.921   9.868  1.00  0.00     0.005 C 
ATOM      8  C   UNL     1     -37.600  33.938  10.657  1.00  0.00     0.005 C 
ATOM      9  C   UNL     1     -37.625  34.156  12.205  1.00  0.00     0.002 C 
ATOM     10  C   UNL     1     -38.597  33.099  12.933  1.00  0.00    -0.026 C 
ATOM     11  C   UNL     1     -38.456  31.673  12.288  1.00  0.00     0.010 C 
ATOM     12  C   UNL     1     -39.448  30.623  12.824  1.00  0.00     0.033 C 
ATOM     13  C   UNL     1     -40.907  31.095  12.663  1.00  0.00     0.120 C 
ATOM     14  C   UNL     1     -41.186  32.502  13.284  1.00  0.00    -0.006 C 
ATOM     15  C   UNL     1     -40.101  33.539  12.761  1.00  0.00     0.003 C 
ATOM     16  C   UNL     1     -40.337  34.996  13.219  1.00  0.00     0.005 C 
ATOM     17  C   UNL     1     -39.403  36.010  12.527  1.00  0.00     0.008 C 
ATOM     18  C   UNL     1     -37.860  35.693  12.602  1.00  0.00    -0.024 C 
ATOM     19  C   UNL     1     -36.964  36.694  11.669  1.00  0.00    -0.024 C 
ATOM     20  C   UNL     1     -37.316  38.213  11.931  1.00  0.00     0.008 C 
ATOM     21  C   UNL     1     -37.336  39.157  10.711  1.00  0.00     0.007 C 
ATOM     22  C   UNL     1     -35.441  36.490  12.005  1.00  0.00     0.012 C 
ATOM     23  C   UNL     1     -37.426  35.953  14.083  1.00  0.00     0.012 C 
ATOM     24  C   UNL     1     -42.614  32.946  12.825  1.00  0.00     0.014 C 
ATOM     25  C   UNL     1     -41.242  32.375  14.836  1.00  0.00     0.014 C 
ATOM     26  C   UNL     1     -38.178  32.982  14.435  1.00  0.00     0.012 C 
ATOM     27  C   UNL     1     -34.875  39.127  10.123  1.00  0.00     0.011 C 
ENDROOT
BRANCH   1  28
ATOM     28  C   UNL     1     -37.149  36.381   6.817  1.00  0.00    -0.077 C 
ATOM     29  C   UNL     1     -38.266  35.454   6.379  1.00  0.00     0.039 C 
ATOM     30  C   UNL     1     -35.912  36.197   6.320  1.00  0.00     0.008 C 
ENDBRANCH   1  28
BRANCH  13  31
ATOM     31  O   UNL     1     -41.242  31.102  11.302  1.00  0.00    -0.393 OA
ATOM     32  H   UNL     1     -41.549  30.185  11.067  1.00  0.00     0.210 HD
ENDBRANCH  13  31
TORSDOF 2
ENDMDL
MODEL 5
REMARK VINA RESULT:    -4.717     15.458     18.637
REMARK INTER + INTRA:          -5.696
REMARK INTER:                  -5.229
REMARK INTRA:                  -0.467
REMARK UNBOUND:                -0.566
REMARK SMILES C=C(C)[C@@H]1CC[C@@]2(C)CC[C@]3(C)[C@H](CC[C@@H]4[C@]5(C)CC[C@H](O)C(C)(C)[C@H]5CC[C@@]43C)[C@@H]12
REMARK SMILES IDX 4 1 5 2 6 3 7 4 31 5 13 6 14 7 15 8 16 9 17 10 19 11 20 12
REMARK SMILES IDX 21 13 23 14 26 15 27 16 28 17 29 18 11 19 10 20 9 21 12 22
REMARK SMILES IDX 30 23 24 24 25 25 18 26 8 27 2 28 3 29 1 30 22 31
REMARK H PARENT 22 32
REMARK Flexibility Score: inf
ROOT
ATOM      1  C   UNL     1     -48.769  28.925   2.048  1.00  0.00     0.018 C 
ATOM      2  C   UNL     1     -48.323  30.351   1.796  1.00  0.00     0.009 C 
ATOM      3  C   UNL     1     -47.515  30.346   0.503  1.00  0.00     0.008 C 
ATOM      4  C   UNL     1     -47.544  28.917  -0.101  1.00  0.00    -0.029 C 
ATOM      5  C   UNL     1     -48.632  28.146   0.704  1.00  0.00     0.006 C 
ATOM      6  C   UNL     1     -48.334  26.620   0.988  1.00  0.00    -0.000 C 
ATOM      7  C   UNL     1     -49.650  25.842   1.168  1.00  0.00     0.005 C 
ATOM      8  C   UNL     1     -49.384  24.454   1.724  1.00  0.00     0.005 C 
ATOM      9  C   UNL     1     -48.389  23.575   0.900  1.00  0.00     0.002 C 
ATOM     10  C   UNL     1     -48.134  22.151   1.608  1.00  0.00    -0.026 C 
ATOM     11  C   UNL     1     -49.471  21.576   2.200  1.00  0.00     0.010 C 
ATOM     12  C   UNL     1     -49.307  20.282   3.021  1.00  0.00     0.033 C 
ATOM     13  C   UNL     1     -48.298  20.470   4.171  1.00  0.00     0.120 C 
ATOM     14  C   UNL     1     -46.911  21.025   3.710  1.00  0.00    -0.006 C 
ATOM     15  C   UNL     1     -47.128  22.317   2.809  1.00  0.00     0.003 C 
ATOM     16  C   UNL     1     -45.821  23.023   2.382  1.00  0.00     0.005 C 
ATOM     17  C   UNL     1     -46.062  24.385   1.698  1.00  0.00     0.008 C 
ATOM     18  C   UNL     1     -47.065  24.380   0.481  1.00  0.00    -0.024 C 
ATOM     19  C   UNL     1     -47.424  25.886  -0.047  1.00  0.00    -0.024 C 
ATOM     20  C   UNL     1     -46.122  26.748  -0.297  1.00  0.00     0.008 C 
ATOM     21  C   UNL     1     -46.175  28.241   0.088  1.00  0.00     0.007 C 
ATOM     22  C   UNL     1     -48.202  25.786  -1.411  1.00  0.00     0.012 C 
ATOM     23  C   UNL     1     -46.329  23.658  -0.697  1.00  0.00     0.012 C 
ATOM     24  C   UNL     1     -46.100  21.398   4.994  1.00  0.00     0.014 C 
ATOM     25  C   UNL     1     -46.116  19.888   3.001  1.00  0.00     0.014 C 
ATOM     26  C   UNL     1     -47.619  21.140   0.532  1.00  0.00     0.012 C 
ATOM     27  C   UNL     1     -47.857  29.049  -1.622  1.00  0.00     0.011 C 
ENDROOT
BRANCH   1  28
ATOM     28  C   UNL     1     -50.167  28.864   2.653  1.00  0.00    -0.077 C 
ATOM     29  C   UNL     1     -51.305  29.665   2.055  1.00  0.00     0.039 C 
ATOM     30  C   UNL     1     -50.393  28.128   3.758  1.00  0.00     0.008 C 
ENDBRANCH   1  28
BRANCH  13  31
ATOM     31  O   UNL     1     -48.852  21.324   5.135  1.00  0.00    -0.393 OA
ATOM     32  H   UNL     1     -49.804  21.058   5.256  1.00  0.00     0.210 HD
ENDBRANCH  13  31
TORSDOF 2
ENDMDL
MODEL 6
REMARK VINA RESULT:    -4.714     13.408     17.603
REMARK INTER + INTRA:          -5.693
REMARK INTER:                  -5.226
REMARK INTRA:                  -0.468
REMARK UNBOUND:                -0.566
REMARK SMILES C=C(C)[C@@H]1CC[C@@]2(C)CC[C@]3(C)[C@H](CC[C@@H]4[C@]5(C)CC[C@H](O)C(C)(C)[C@H]5CC[C@@]43C)[C@@H]12
REMARK SMILES IDX 4 1 5 2 6 3 7 4 31 5 13 6 14 7 15 8 16 9 17 10 19 11 20 12
REMARK SMILES IDX 21 13 23 14 26 15 27 16 28 17 29 18 11 19 10 20 9 21 12 22
REMARK SMILES IDX 30 23 24 24 25 25 18 26 8 27 2 28 3 29 1 30 22 31
REMARK H PARENT 22 32
REMARK Flexibility Score: inf
ROOT
ATOM      1  C   UNL     1     -49.012  34.344   2.157  1.00  0.00     0.018 C 
ATOM      2  C   UNL     1     -49.426  35.786   1.940  1.00  0.00     0.009 C 
ATOM      3  C   UNL     1     -50.894  35.772   1.526  1.00  0.00     0.008 C 
ATOM      4  C   UNL     1     -51.417  34.312   1.581  1.00  0.00    -0.029 C 
ATOM      5  C   UNL     1     -50.314  33.501   2.323  1.00  0.00     0.006 C 
ATOM      6  C   UNL     1     -50.074  32.026   1.811  1.00  0.00    -0.000 C 
ATOM      7  C   UNL     1     -49.505  31.151   2.942  1.00  0.00     0.005 C 
ATOM      8  C   UNL     1     -49.001  29.826   2.398  1.00  0.00     0.005 C 
ATOM      9  C   UNL     1     -50.043  28.987   1.589  1.00  0.00     0.002 C 
ATOM     10  C   UNL     1     -49.388  27.635   1.011  1.00  0.00    -0.026 C 
ATOM     11  C   UNL     1     -48.424  26.984   2.067  1.00  0.00     0.010 C 
ATOM     12  C   UNL     1     -47.640  25.759   1.557  1.00  0.00     0.033 C 
ATOM     13  C   UNL     1     -46.828  26.101   0.292  1.00  0.00     0.120 C 
ATOM     14  C   UNL     1     -47.679  26.742  -0.851  1.00  0.00    -0.006 C 
ATOM     15  C   UNL     1     -48.524  27.956  -0.268  1.00  0.00     0.003 C 
ATOM     16  C   UNL     1     -49.326  28.743  -1.330  1.00  0.00     0.005 C 
ATOM     17  C   UNL     1     -49.959  30.036  -0.776  1.00  0.00     0.008 C 
ATOM     18  C   UNL     1     -50.844  29.875   0.519  1.00  0.00    -0.024 C 
ATOM     19  C   UNL     1     -51.298  31.311   1.156  1.00  0.00    -0.024 C 
ATOM     20  C   UNL     1     -51.934  32.264   0.065  1.00  0.00     0.008 C 
ATOM     21  C   UNL     1     -51.599  33.767   0.155  1.00  0.00     0.007 C 
ATOM     22  C   UNL     1     -52.384  31.065   2.267  1.00  0.00     0.012 C 
ATOM     23  C   UNL     1     -52.156  29.149   0.071  1.00  0.00     0.012 C 
ATOM     24  C   UNL     1     -46.688  27.258  -1.946  1.00  0.00     0.014 C 
ATOM     25  C   UNL     1     -48.545  25.636  -1.526  1.00  0.00     0.014 C 
ATOM     26  C   UNL     1     -50.531  26.608   0.717  1.00  0.00     0.012 C 
ATOM     27  C   UNL     1     -52.792  34.328   2.315  1.00  0.00     0.011 C 
ENDROOT
BRANCH   1  28
ATOM     28  C   UNL     1     -48.036  34.201   3.320  1.00  0.00    -0.077 C 
ATOM     29  C   UNL     1     -48.317  34.866   4.653  1.00  0.00     0.039 C 
ATOM     30  C   UNL     1     -46.888  33.517   3.158  1.00  0.00     0.008 C 
ENDBRANCH   1  28
BRANCH  13  31
ATOM     31  O   UNL     1     -45.776  26.960   0.638  1.00  0.00    -0.393 OA
ATOM     32  H   UNL     1     -46.103  27.893   0.522  1.00  0.00     0.210 HD
ENDBRANCH  13  31
TORSDOF 2
ENDMDL
MODEL 7
REMARK VINA RESULT:    -4.696     13.417     16.795
REMARK INTER + INTRA:          -5.673
REMARK INTER:                  -5.114
REMARK INTRA:                  -0.559
REMARK UNBOUND:                -0.566
REMARK SMILES C=C(C)[C@@H]1CC[C@@]2(C)CC[C@]3(C)[C@H](CC[C@@H]4[C@]5(C)CC[C@H](O)C(C)(C)[C@H]5CC[C@@]43C)[C@@H]12
REMARK SMILES IDX 4 1 5 2 6 3 7 4 31 5 13 6 14 7 15 8 16 9 17 10 19 11 20 12
REMARK SMILES IDX 21 13 23 14 26 15 27 16 28 17 29 18 11 19 10 20 9 21 12 22
REMARK SMILES IDX 30 23 24 24 25 25 18 26 8 27 2 28 3 29 1 30 22 31
REMARK H PARENT 22 32
REMARK Flexibility Score: inf
ROOT
ATOM      1  C   UNL     1     -46.139  25.221  -0.606  1.00  0.00     0.018 C 
ATOM      2  C   UNL     1     -45.519  23.855  -0.393  1.00  0.00     0.009 C 
ATOM      3  C   UNL     1     -46.459  23.074   0.518  1.00  0.00     0.008 C 
ATOM      4  C   UNL     1     -47.722  23.934   0.792  1.00  0.00    -0.029 C 
ATOM      5  C   UNL     1     -47.645  25.119  -0.215  1.00  0.00     0.006 C 
ATOM      6  C   UNL     1     -48.164  26.514   0.316  1.00  0.00    -0.000 C 
ATOM      7  C   UNL     1     -48.650  27.386  -0.856  1.00  0.00     0.005 C 
ATOM      8  C   UNL     1     -48.876  28.819  -0.405  1.00  0.00     0.005 C 
ATOM      9  C   UNL     1     -49.856  29.002   0.798  1.00  0.00     0.002 C 
ATOM     10  C   UNL     1     -49.975  30.549   1.229  1.00  0.00    -0.026 C 
ATOM     11  C   UNL     1     -50.015  31.480  -0.035  1.00  0.00     0.010 C 
ATOM     12  C   UNL     1     -49.988  32.990   0.275  1.00  0.00     0.033 C 
ATOM     13  C   UNL     1     -48.759  33.366   1.127  1.00  0.00     0.120 C 
ATOM     14  C   UNL     1     -48.614  32.519   2.433  1.00  0.00    -0.006 C 
ATOM     15  C   UNL     1     -48.717  30.973   2.079  1.00  0.00     0.003 C 
ATOM     16  C   UNL     1     -48.477  30.027   3.277  1.00  0.00     0.005 C 
ATOM     17  C   UNL     1     -48.367  28.543   2.867  1.00  0.00     0.008 C 
ATOM     18  C   UNL     1     -49.553  27.977   1.995  1.00  0.00    -0.024 C 
ATOM     19  C   UNL     1     -49.257  26.471   1.430  1.00  0.00    -0.024 C 
ATOM     20  C   UNL     1     -48.788  25.492   2.580  1.00  0.00     0.008 C 
ATOM     21  C   UNL     1     -47.688  24.467   2.234  1.00  0.00     0.007 C 
ATOM     22  C   UNL     1     -50.577  25.882   0.809  1.00  0.00     0.012 C 
ATOM     23  C   UNL     1     -50.788  27.861   2.949  1.00  0.00     0.012 C 
ATOM     24  C   UNL     1     -47.210  32.834   3.047  1.00  0.00     0.014 C 
ATOM     25  C   UNL     1     -49.669  33.000   3.474  1.00  0.00     0.014 C 
ATOM     26  C   UNL     1     -51.317  30.752   2.008  1.00  0.00     0.012 C 
ATOM     27  C   UNL     1     -48.970  23.021   0.601  1.00  0.00     0.011 C 
ENDROOT
BRANCH   1  28
ATOM     28  C   UNL     1     -45.906  25.738  -2.022  1.00  0.00    -0.077 C 
ATOM     29  C   UNL     1     -45.238  27.077  -2.257  1.00  0.00     0.039 C 
ATOM     30  C   UNL     1     -46.336  25.025  -3.080  1.00  0.00     0.008 C 
ENDBRANCH   1  28
BRANCH  13  31
ATOM     31  O   UNL     1     -47.602  33.238   0.348  1.00  0.00    -0.393 OA
ATOM     32  H   UNL     1     -46.908  32.802   0.915  1.00  0.00     0.210 HD
ENDBRANCH  13  31
TORSDOF 2
ENDMDL
MODEL 8
REMARK VINA RESULT:    -4.522     12.665     16.752
REMARK INTER + INTRA:          -5.485
REMARK INTER:                  -4.956
REMARK INTRA:                  -0.529
REMARK UNBOUND:                -0.566
REMARK SMILES C=C(C)[C@@H]1CC[C@@]2(C)CC[C@]3(C)[C@H](CC[C@@H]4[C@]5(C)CC[C@H](O)C(C)(C)[C@H]5CC[C@@]43C)[C@@H]12
REMARK SMILES IDX 4 1 5 2 6 3 7 4 31 5 13 6 14 7 15 8 16 9 17 10 19 11 20 12
REMARK SMILES IDX 21 13 23 14 26 15 27 16 28 17 29 18 11 19 10 20 9 21 12 22
REMARK SMILES IDX 30 23 24 24 25 25 18 26 8 27 2 28 3 29 1 30 22 31
REMARK H PARENT 22 32
REMARK Flexibility Score: inf
ROOT
ATOM      1  C   UNL     1     -48.097  36.023   2.815  1.00  0.00     0.018 C 
ATOM      2  C   UNL     1     -47.691  37.435   2.440  1.00  0.00     0.009 C 
ATOM      3  C   UNL     1     -48.538  37.839   1.238  1.00  0.00     0.008 C 
ATOM      4  C   UNL     1     -49.545  36.700   0.927  1.00  0.00    -0.029 C 
ATOM      5  C   UNL     1     -49.480  35.741   2.153  1.00  0.00     0.006 C 
ATOM      6  C   UNL     1     -49.625  34.200   1.835  1.00  0.00    -0.000 C 
ATOM      7  C   UNL     1     -50.190  33.452   3.056  1.00  0.00     0.005 C 
ATOM      8  C   UNL     1     -50.063  31.949   2.874  1.00  0.00     0.005 C 
ATOM      9  C   UNL     1     -50.719  31.367   1.581  1.00  0.00     0.002 C 
ATOM     10  C   UNL     1     -50.475  29.780   1.460  1.00  0.00    -0.026 C 
ATOM     11  C   UNL     1     -50.620  29.084   2.861  1.00  0.00     0.010 C 
ATOM     12  C   UNL     1     -50.267  27.584   2.875  1.00  0.00     0.033 C 
ATOM     13  C   UNL     1     -48.839  27.338   2.346  1.00  0.00     0.120 C 
ATOM     14  C   UNL     1     -48.569  27.968   0.941  1.00  0.00    -0.006 C 
ATOM     15  C   UNL     1     -49.011  29.495   0.949  1.00  0.00     0.003 C 
ATOM     16  C   UNL     1     -48.690  30.259  -0.355  1.00  0.00     0.005 C 
ATOM     17  C   UNL     1     -48.928  31.779  -0.244  1.00  0.00     0.008 C 
ATOM     18  C   UNL     1     -50.352  32.221   0.272  1.00  0.00    -0.024 C 
ATOM     19  C   UNL     1     -50.448  33.827   0.561  1.00  0.00    -0.024 C 
ATOM     20  C   UNL     1     -49.922  34.678  -0.664  1.00  0.00     0.008 C 
ATOM     21  C   UNL     1     -49.115  35.954  -0.346  1.00  0.00     0.007 C 
ATOM     22  C   UNL     1     -51.951  34.220   0.807  1.00  0.00     0.012 C 
ATOM     23  C   UNL     1     -51.357  31.914  -0.887  1.00  0.00     0.012 C 
ATOM     24  C   UNL     1     -47.034  27.857   0.661  1.00  0.00     0.014 C 
ATOM     25  C   UNL     1     -49.280  27.111  -0.148  1.00  0.00     0.014 C 
ATOM     26  C   UNL     1     -51.565  29.174   0.515  1.00  0.00     0.012 C 
ATOM     27  C   UNL     1     -50.944  37.350   0.707  1.00  0.00     0.011 C 
ENDROOT
BRANCH   1  28
ATOM     28  C   UNL     1     -48.084  35.809   4.324  1.00  0.00    -0.077 C 
ATOM     29  C   UNL     1     -48.941  36.666   5.235  1.00  0.00     0.039 C 
ATOM     30  C   UNL     1     -47.273  34.883   4.868  1.00  0.00     0.008 C 
ENDBRANCH   1  28
BRANCH  13  31
ATOM     31  O   UNL     1     -47.913  27.834   3.274  1.00  0.00    -0.393 OA
ATOM     32  H   UNL     1     -47.107  28.121   2.765  1.00  0.00     0.210 HD
ENDBRANCH  13  31
TORSDOF 2
ENDMDL
