MODEL 1
REMARK VINA RESULT:    -0.181      0.000      0.000
REMARK INTER + INTRA:          -0.334
REMARK INTER:                  -0.213
REMARK INTRA:                  -0.121
REMARK UNBOUND:                -0.121
REMARK SMILES O=C([O-])CCC(=O)[O-]
REMARK SMILES IDX 4 1 2 2 1 3 3 4 5 5 6 6 7 7 8 8
REMARK H PARENT
REMARK Flexibility Score: inf
ROOT
ATOM      1  C   UNL     1     160.505 182.465 178.416  1.00  0.00     0.059 C 
ENDROOT
BRANCH   1   2
ATOM      2  C   UNL     1     160.285 183.458 179.513  1.00  0.00     0.042 C 
ATOM      3  O   UNL     1     159.137 183.933 179.717  1.00  0.00    -0.550 OA
ATOM      4  O   UNL     1     161.339 183.823 180.342  1.00  0.00    -0.550 OA
ENDBRANCH   1   2
BRANCH   1   5
ATOM      5  C   UNL     1     159.666 181.208 178.656  1.00  0.00     0.059 C 
BRANCH   5   6
ATOM      6  C   UNL     1     158.716 180.990 177.523  1.00  0.00     0.042 C 
ATOM      7  O   UNL     1     158.673 179.876 176.936  1.00  0.00    -0.550 OA
ATOM      8  O   UNL     1     157.909 182.031 177.081  1.00  0.00    -0.550 OA
ENDBRANCH   5   6
ENDBRANCH   1   5
TORSDOF 3
ENDMDL
MODEL 2
REMARK VINA RESULT:    -0.160      1.918      3.862
REMARK INTER + INTRA:          -0.310
REMARK INTER:                  -0.220
REMARK INTRA:                  -0.090
REMARK UNBOUND:                -0.121
REMARK SMILES O=C([O-])CCC(=O)[O-]
REMARK SMILES IDX 4 1 2 2 1 3 3 4 5 5 6 6 7 7 8 8
REMARK H PARENT
REMARK Flexibility Score: inf
ROOT
ATOM      1  C   UNL     1     160.089 180.771 178.296  1.00  0.00     0.059 C 
ENDROOT
BRANCH   1   2
ATOM      2  C   UNL     1     158.824 180.937 177.517  1.00  0.00     0.042 C 
ATOM      3  O   UNL     1     158.590 182.016 176.910  1.00  0.00    -0.550 OA
ATOM      4  O   UNL     1     157.923 179.884 177.420  1.00  0.00    -0.550 OA
ENDBRANCH   1   2
BRANCH   1   5
ATOM      5  C   UNL     1     160.706 182.134 178.613  1.00  0.00     0.059 C 
BRANCH   5   6
ATOM      6  C   UNL     1     161.971 182.329 177.839  1.00  0.00     0.042 C 
ATOM      7  O   UNL     1     162.504 181.357 177.240  1.00  0.00    -0.550 OA
ATOM      8  O   UNL     1     162.590 183.572 177.820  1.00  0.00    -0.550 OA
ENDBRANCH   5   6
ENDBRANCH   1   5
TORSDOF 3
ENDMDL
MODEL 3
REMARK VINA RESULT:    -0.157     24.034     24.949
REMARK INTER + INTRA:          -0.306
REMARK INTER:                  -0.117
REMARK INTRA:                  -0.188
REMARK UNBOUND:                -0.121
REMARK SMILES O=C([O-])CCC(=O)[O-]
REMARK SMILES IDX 4 1 2 2 1 3 3 4 5 5 6 6 7 7 8 8
REMARK H PARENT
REMARK Flexibility Score: inf
ROOT
ATOM      1  C   UNL     1     176.238 199.682 184.031  1.00  0.00     0.059 C 
ENDROOT
BRANCH   1   2
ATOM      2  C   UNL     1     177.160 199.339 185.157  1.00  0.00     0.042 C 
ATOM      3  O   UNL     1     178.125 200.098 185.440  1.00  0.00    -0.550 OA
ATOM      4  O   UNL     1     176.927 198.206 185.926  1.00  0.00    -0.550 OA
ENDBRANCH   1   2
BRANCH   1   5
ATOM      5  C   UNL     1     176.156 198.524 183.034  1.00  0.00     0.059 C 
BRANCH   5   6
ATOM      6  C   UNL     1     177.494 198.273 182.413  1.00  0.00     0.042 C 
ATOM      7  O   UNL     1     178.032 199.152 181.690  1.00  0.00    -0.550 OA
ATOM      8  O   UNL     1     178.125 197.049 182.594  1.00  0.00    -0.550 OA
ENDBRANCH   5   6
ENDBRANCH   1   5
TORSDOF 3
ENDMDL
MODEL 4
REMARK VINA RESULT:    -0.140     23.331     24.596
REMARK INTER + INTRA:          -0.286
REMARK INTER:                  -0.093
REMARK INTRA:                  -0.193
REMARK UNBOUND:                -0.121
REMARK SMILES O=C([O-])CCC(=O)[O-]
REMARK SMILES IDX 4 1 2 2 1 3 3 4 5 5 6 6 7 7 8 8
REMARK H PARENT
REMARK Flexibility Score: inf
ROOT
ATOM      1  C   UNL     1     175.888 197.623 183.701  1.00  0.00     0.059 C 
ENDROOT
BRANCH   1   2
ATOM      2  C   UNL     1     176.562 196.815 184.764  1.00  0.00     0.042 C 
ATOM      3  O   UNL     1     177.473 196.000 184.459  1.00  0.00    -0.550 OA
ATOM      4  O   UNL     1     176.220 196.997 186.098  1.00  0.00    -0.550 OA
ENDBRANCH   1   2
BRANCH   1   5
ATOM      5  C   UNL     1     176.035 199.118 183.991  1.00  0.00     0.059 C 
BRANCH   5   6
ATOM      6  C   UNL     1     177.470 199.529 183.905  1.00  0.00     0.042 C 
ATOM      7  O   UNL     1     178.104 199.398 182.825  1.00  0.00    -0.550 OA
ATOM      8  O   UNL     1     178.124 200.013 185.032  1.00  0.00    -0.550 OA
ENDBRANCH   5   6
ENDBRANCH   1   5
TORSDOF 3
ENDMDL
MODEL 5
REMARK VINA RESULT:    -0.129     23.397     24.462
REMARK INTER + INTRA:          -0.273
REMARK INTER:                  -0.093
REMARK INTRA:                  -0.180
REMARK UNBOUND:                -0.121
REMARK SMILES O=C([O-])CCC(=O)[O-]
REMARK SMILES IDX 4 1 2 2 1 3 3 4 5 5 6 6 7 7 8 8
REMARK H PARENT
REMARK Flexibility Score: inf
ROOT
ATOM      1  C   UNL     1     175.363 198.575 183.524  1.00  0.00     0.059 C 
ENDROOT
BRANCH   1   2
ATOM      2  C   UNL     1     176.408 197.923 184.371  1.00  0.00     0.042 C 
ATOM      3  O   UNL     1     176.817 196.764 184.095  1.00  0.00    -0.550 OA
ATOM      4  O   UNL     1     176.968 198.613 185.439  1.00  0.00    -0.550 OA
ENDBRANCH   1   2
BRANCH   1   5
ATOM      5  C   UNL     1     175.877 199.904 182.968  1.00  0.00     0.059 C 
BRANCH   5   6
ATOM      6  C   UNL     1     176.968 199.668 181.973  1.00  0.00     0.042 C 
ATOM      7  O   UNL     1     178.123 200.125 182.178  1.00  0.00    -0.550 OA
ATOM      8  O   UNL     1     176.698 198.985 180.793  1.00  0.00    -0.550 OA
ENDBRANCH   5   6
ENDBRANCH   1   5
TORSDOF 3
ENDMDL
MODEL 6
REMARK VINA RESULT:    -0.126     23.804     25.216
REMARK INTER + INTRA:          -0.269
REMARK INTER:                  -0.076
REMARK INTRA:                  -0.193
REMARK UNBOUND:                -0.121
REMARK SMILES O=C([O-])CCC(=O)[O-]
REMARK SMILES IDX 4 1 2 2 1 3 3 4 5 5 6 6 7 7 8 8
REMARK H PARENT
REMARK Flexibility Score: inf
ROOT
ATOM      1  C   UNL     1     176.248 198.010 187.600  1.00  0.00     0.059 C 
ENDROOT
BRANCH   1   2
ATOM      2  C   UNL     1     174.938 198.725 187.507  1.00  0.00     0.042 C 
ATOM      3  O   UNL     1     174.689 199.693 188.273  1.00  0.00    -0.550 OA
ATOM      4  O   UNL     1     174.010 198.355 186.542  1.00  0.00    -0.550 OA
ENDBRANCH   1   2
BRANCH   1   5
ATOM      5  C   UNL     1     176.983 198.062 186.259  1.00  0.00     0.059 C 
BRANCH   5   6
ATOM      6  C   UNL     1     177.357 199.470 185.922  1.00  0.00     0.042 C 
ATOM      7  O   UNL     1     178.125 200.121 186.680  1.00  0.00    -0.550 OA
ATOM      8  O   UNL     1     176.820 200.083 184.797  1.00  0.00    -0.550 OA
ENDBRANCH   5   6
ENDBRANCH   1   5
TORSDOF 3
ENDMDL
MODEL 7
REMARK VINA RESULT:    -0.119     22.376     23.681
REMARK INTER + INTRA:          -0.261
REMARK INTER:                  -0.068
REMARK INTRA:                  -0.193
REMARK UNBOUND:                -0.121
REMARK SMILES O=C([O-])CCC(=O)[O-]
REMARK SMILES IDX 4 1 2 2 1 3 3 4 5 5 6 6 7 7 8 8
REMARK H PARENT
REMARK Flexibility Score: inf
ROOT
ATOM      1  C   UNL     1     177.109 197.770 181.665  1.00  0.00     0.059 C 
ENDROOT
BRANCH   1   2
ATOM      2  C   UNL     1     177.423 199.189 182.019  1.00  0.00     0.042 C 
ATOM      3  O   UNL     1     177.124 200.121 181.227  1.00  0.00    -0.550 OA
ATOM      4  O   UNL     1     178.003 199.487 183.245  1.00  0.00    -0.550 OA
ENDBRANCH   1   2
BRANCH   1   5
ATOM      5  C   UNL     1     175.600 197.584 181.489  1.00  0.00     0.059 C 
BRANCH   5   6
ATOM      6  C   UNL     1     174.891 197.800 182.787  1.00  0.00     0.042 C 
ATOM      7  O   UNL     1     173.994 198.679 182.882  1.00  0.00    -0.550 OA
ATOM      8  O   UNL     1     175.254 197.064 183.909  1.00  0.00    -0.550 OA
ENDBRANCH   5   6
ENDBRANCH   1   5
TORSDOF 3
ENDMDL
MODEL 8
REMARK VINA RESULT:    -0.113     22.179     23.650
REMARK INTER + INTRA:          -0.254
REMARK INTER:                  -0.064
REMARK INTRA:                  -0.190
REMARK UNBOUND:                -0.121
REMARK SMILES O=C([O-])CCC(=O)[O-]
REMARK SMILES IDX 4 1 2 2 1 3 3 4 5 5 6 6 7 7 8 8
REMARK H PARENT
REMARK Flexibility Score: inf
ROOT
ATOM      1  C   UNL     1     175.198 197.240 183.471  1.00  0.00     0.059 C 
ENDROOT
BRANCH   1   2
ATOM      2  C   UNL     1     174.082 198.208 183.240  1.00  0.00     0.042 C 
ATOM      3  O   UNL     1     173.826 198.615 182.076  1.00  0.00    -0.550 OA
ATOM      4  O   UNL     1     173.292 198.625 184.304  1.00  0.00    -0.550 OA
ENDBRANCH   1   2
BRANCH   1   5
ATOM      5  C   UNL     1     176.184 197.796 184.500  1.00  0.00     0.059 C 
BRANCH   5   6
ATOM      6  C   UNL     1     176.845 199.032 183.978  1.00  0.00     0.042 C 
ATOM      7  O   UNL     1     176.753 200.116 184.611  1.00  0.00    -0.550 OA
ATOM      8  O   UNL     1     177.522 198.999 182.765  1.00  0.00    -0.550 OA
ENDBRANCH   5   6
ENDBRANCH   1   5
TORSDOF 3
ENDMDL
MODEL 9
REMARK VINA RESULT:    -0.105     22.075     23.706
REMARK INTER + INTRA:          -0.244
REMARK INTER:                  -0.055
REMARK INTRA:                  -0.189
REMARK UNBOUND:                -0.121
REMARK SMILES O=C([O-])CCC(=O)[O-]
REMARK SMILES IDX 4 1 2 2 1 3 3 4 5 5 6 6 7 7 8 8
REMARK H PARENT
REMARK Flexibility Score: inf
ROOT
ATOM      1  C   UNL     1     174.777 199.575 183.888  1.00  0.00     0.059 C 
ENDROOT
BRANCH   1   2
ATOM      2  C   UNL     1     176.230 199.929 183.848  1.00  0.00     0.042 C 
ATOM      3  O   UNL     1     176.812 200.094 182.744  1.00  0.00    -0.550 OA
ATOM      4  O   UNL     1     176.931 200.125 185.032  1.00  0.00    -0.550 OA
ENDBRANCH   1   2
BRANCH   1   5
ATOM      5  C   UNL     1     174.562 198.285 184.682  1.00  0.00     0.059 C 
BRANCH   5   6
ATOM      6  C   UNL     1     175.249 197.138 184.012  1.00  0.00     0.042 C 
ATOM      7  O   UNL     1     174.884 196.762 182.867  1.00  0.00    -0.550 OA
ATOM      8  O   UNL     1     176.261 196.452 184.672  1.00  0.00    -0.550 OA
ENDBRANCH   5   6
ENDBRANCH   1   5
TORSDOF 3
ENDMDL
