MODEL 1
REMARK VINA RESULT:    -2.941      0.000      0.000
REMARK INTER + INTRA:          -2.941
REMARK INTER:                  -2.941
REMARK INTRA:                   0.000
REMARK UNBOUND:                 0.000
REMARK SMILES CC(=O)[O-]
REMARK SMILES IDX 1 1 2 2 3 3 4 4
REMARK H PARENT
REMARK Flexibility Score: inf
ROOT
ATOM      1  C   UNL     1      94.339   5.280   9.020  1.00  0.00     0.063 C 
ATOM      2  C   UNL     1      95.014   6.544   9.433  1.00  0.00     0.038 C 
ATOM      3  O   UNL     1      95.862   7.084   8.676  1.00  0.00    -0.550 OA
ATOM      4  O   UNL     1      94.668   7.158  10.630  1.00  0.00    -0.550 OA
ENDROOT
TORSDOF 0
ENDMDL
MODEL 2
REMARK VINA RESULT:    -2.939      0.149      1.621
REMARK INTER + INTRA:          -2.939
REMARK INTER:                  -2.939
REMARK INTRA:                   0.000
REMARK UNBOUND:                 0.000
REMARK SMILES CC(=O)[O-]
REMARK SMILES IDX 1 1 2 2 3 3 4 4
REMARK H PARENT
REMARK Flexibility Score: inf
ROOT
ATOM      1  C   UNL     1      94.310   5.237   9.051  1.00  0.00     0.063 C 
ATOM      2  C   UNL     1      94.948   6.540   9.391  1.00  0.00     0.038 C 
ATOM      3  O   UNL     1      94.581   7.177  10.412  1.00  0.00    -0.550 OA
ATOM      4  O   UNL     1      95.988   7.031   8.611  1.00  0.00    -0.550 OA
ENDROOT
TORSDOF 0
ENDMDL
MODEL 3
REMARK VINA RESULT:    -2.927     20.104     20.675
REMARK INTER + INTRA:          -2.927
REMARK INTER:                  -2.927
REMARK INTRA:                   0.000
REMARK UNBOUND:                 0.000
REMARK SMILES CC(=O)[O-]
REMARK SMILES IDX 1 1 2 2 3 3 4 4
REMARK H PARENT
REMARK Flexibility Score: inf
ROOT
ATOM      1  C   UNL     1      88.485  -4.977  -4.778  1.00  0.00     0.063 C 
ATOM      2  C   UNL     1      88.497  -5.208  -6.251  1.00  0.00     0.038 C 
ATOM      3  O   UNL     1      88.431  -6.379  -6.707  1.00  0.00    -0.550 OA
ATOM      4  O   UNL     1      88.527  -4.129  -7.125  1.00  0.00    -0.550 OA
ENDROOT
TORSDOF 0
ENDMDL
MODEL 4
REMARK VINA RESULT:    -2.849     20.580     21.180
REMARK INTER + INTRA:          -2.849
REMARK INTER:                  -2.849
REMARK INTRA:                   0.000
REMARK UNBOUND:                 0.000
REMARK SMILES CC(=O)[O-]
REMARK SMILES IDX 1 1 2 2 3 3 4 4
REMARK H PARENT
REMARK Flexibility Score: inf
ROOT
ATOM      1  C   UNL     1      88.453  -5.139  -5.253  1.00  0.00     0.063 C 
ATOM      2  C   UNL     1      88.704  -6.321  -6.127  1.00  0.00     0.038 C 
ATOM      3  O   UNL     1      87.824  -6.704  -6.940  1.00  0.00    -0.550 OA
ATOM      4  O   UNL     1      89.932  -6.970  -6.084  1.00  0.00    -0.550 OA
ENDROOT
TORSDOF 0
ENDMDL
MODEL 5
REMARK VINA RESULT:    -2.812      1.378      1.764
REMARK INTER + INTRA:          -2.812
REMARK INTER:                  -2.812
REMARK INTRA:                   0.000
REMARK UNBOUND:                 0.000
REMARK SMILES CC(=O)[O-]
REMARK SMILES IDX 1 1 2 2 3 3 4 4
REMARK H PARENT
REMARK Flexibility Score: inf
ROOT
ATOM      1  C   UNL     1      94.422   5.401   9.166  1.00  0.00     0.063 C 
ATOM      2  C   UNL     1      93.948   6.345  10.218  1.00  0.00     0.038 C 
ATOM      3  O   UNL     1      94.768   7.089  10.816  1.00  0.00    -0.550 OA
ATOM      4  O   UNL     1      92.592   6.446  10.503  1.00  0.00    -0.550 OA
ENDROOT
TORSDOF 0
ENDMDL
MODEL 6
REMARK VINA RESULT:    -2.674      1.431      2.005
REMARK INTER + INTRA:          -2.674
REMARK INTER:                  -2.674
REMARK INTRA:                   0.000
REMARK UNBOUND:                 0.000
REMARK SMILES CC(=O)[O-]
REMARK SMILES IDX 1 1 2 2 3 3 4 4
REMARK H PARENT
REMARK Flexibility Score: inf
ROOT
ATOM      1  C   UNL     1      93.770   7.149   9.983  1.00  0.00     0.063 C 
ATOM      2  C   UNL     1      94.729   6.341   9.176  1.00  0.00     0.038 C 
ATOM      3  O   UNL     1      94.478   5.136   8.915  1.00  0.00    -0.550 OA
ATOM      4  O   UNL     1      95.878   6.932   8.664  1.00  0.00    -0.550 OA
ENDROOT
TORSDOF 0
ENDMDL
MODEL 7
REMARK VINA RESULT:    -2.535     21.127     21.518
REMARK INTER + INTRA:          -2.535
REMARK INTER:                  -2.535
REMARK INTRA:                   0.000
REMARK UNBOUND:                 0.000
REMARK SMILES CC(=O)[O-]
REMARK SMILES IDX 1 1 2 2 3 3 4 4
REMARK H PARENT
REMARK Flexibility Score: inf
ROOT
ATOM      1  C   UNL     1      89.795  -7.144  -5.894  1.00  0.00     0.063 C 
ATOM      2  C   UNL     1      88.493  -6.553  -6.316  1.00  0.00     0.038 C 
ATOM      3  O   UNL     1      87.437  -7.234  -6.244  1.00  0.00    -0.550 OA
ATOM      4  O   UNL     1      88.433  -5.230  -6.738  1.00  0.00    -0.550 OA
ENDROOT
TORSDOF 0
ENDMDL
MODEL 8
REMARK VINA RESULT:    -2.508      4.670      5.164
REMARK INTER + INTRA:          -2.508
REMARK INTER:                  -2.508
REMARK INTRA:                   0.000
REMARK UNBOUND:                 0.000
REMARK SMILES CC(=O)[O-]
REMARK SMILES IDX 1 1 2 2 3 3 4 4
REMARK H PARENT
REMARK Flexibility Score: inf
ROOT
ATOM      1  C   UNL     1      90.285   5.726  10.736  1.00  0.00     0.063 C 
ATOM      2  C   UNL     1      90.537   6.631  11.893  1.00  0.00     0.038 C 
ATOM      3  O   UNL     1      91.700   6.757  12.356  1.00  0.00    -0.550 OA
ATOM      4  O   UNL     1      89.496   7.380  12.430  1.00  0.00    -0.550 OA
ENDROOT
TORSDOF 0
ENDMDL
MODEL 9
REMARK VINA RESULT:    -2.402     17.725     18.291
REMARK INTER + INTRA:          -2.402
REMARK INTER:                  -2.402
REMARK INTRA:                   0.000
REMARK UNBOUND:                 0.000
REMARK SMILES CC(=O)[O-]
REMARK SMILES IDX 1 1 2 2 3 3 4 4
REMARK H PARENT
REMARK Flexibility Score: inf
ROOT
ATOM      1  C   UNL     1      96.818  -4.514  -5.589  1.00  0.00     0.063 C 
ATOM      2  C   UNL     1      96.658  -3.070  -5.923  1.00  0.00     0.038 C 
ATOM      3  O   UNL     1      97.244  -2.193  -5.236  1.00  0.00    -0.550 OA
ATOM      4  O   UNL     1      95.904  -2.690  -7.027  1.00  0.00    -0.550 OA
ENDROOT
TORSDOF 0
ENDMDL
