MODEL 1
REMARK VINA RESULT:    24.266      0.000      0.000
REMARK INTER + INTRA:          28.246
REMARK INTER:                  28.521
REMARK INTRA:                  -0.275
REMARK UNBOUND:                -0.275
REMARK SMILES O=c1c(O)c(-c2ccc(O)cc2)oc2cc(O)cc(O)c12
REMARK SMILES IDX 5 1 3 2 2 3 1 4 21 5 19 6 18 7 16 8 15 9 14 10 13 11 6 12
REMARK SMILES IDX 7 13 8 14 9 15 12 16 11 17 10 18 4 20 20 22 17 24
REMARK H PARENT 10 19 4 21 20 23 17 25
REMARK Flexibility Score: inf
ROOT
ATOM      1  C   UNL     1      17.889  95.456   9.006  1.00  0.00     0.180 A 
ATOM      2  C   UNL     1      16.492  95.463   9.161  1.00  0.00     0.208 A 
ATOM      3  C   UNL     1      15.818  96.694   9.195  1.00  0.00     0.238 A 
ATOM      4  O   UNL     1      14.573  96.697   9.388  1.00  0.00    -0.285 OA
ATOM      5  C   UNL     1      16.545  97.901   9.058  1.00  0.00     0.111 A 
ATOM      6  C   UNL     1      15.960  99.203   9.038  1.00  0.00     0.134 A 
ATOM      7  C   UNL     1      16.788 100.331   9.028  1.00  0.00     0.093 A 
ATOM      8  C   UNL     1      18.179 100.205   8.972  1.00  0.00     0.123 A 
ATOM      9  C   UNL     1      18.756  98.938   8.932  1.00  0.00     0.094 A 
ATOM     10  C   UNL     1      17.958  97.794   8.976  1.00  0.00     0.146 A 
ATOM     11  O   UNL     1      18.551  96.606   8.947  1.00  0.00    -0.452 OA
ENDROOT
BRANCH   1  12
ATOM     12  C   UNL     1      18.667  94.198   8.936  1.00  0.00     0.021 A 
ATOM     13  C   UNL     1      19.062  93.648   7.702  1.00  0.00     0.016 A 
ATOM     14  C   UNL     1      19.818  92.472   7.662  1.00  0.00     0.047 A 
ATOM     15  C   UNL     1      20.200  91.840   8.852  1.00  0.00     0.115 A 
ATOM     16  C   UNL     1      19.073  93.568  10.125  1.00  0.00     0.016 A 
ATOM     17  C   UNL     1      19.828  92.392  10.081  1.00  0.00     0.047 A 
BRANCH  15  18
ATOM     18  O   UNL     1      20.953  90.667   8.824  1.00  0.00    -0.508 OA
ATOM     19  H   UNL     1      20.512  89.758   8.745  1.00  0.00     0.293 HD
ENDBRANCH  15  18
ENDBRANCH   1  12
BRANCH   2  20
ATOM     20  O   UNL     1      15.796  94.262   9.317  1.00  0.00    -0.502 OA
ATOM     21  H   UNL     1      15.861  93.504   8.647  1.00  0.00     0.293 HD
ENDBRANCH   2  20
BRANCH   6  22
ATOM     22  O   UNL     1      14.582  99.438   8.998  1.00  0.00    -0.507 OA
ATOM     23  H   UNL     1      13.878  98.719   8.946  1.00  0.00     0.293 HD
ENDBRANCH   6  22
BRANCH   8  24
ATOM     24  O   UNL     1      18.994 101.334   8.948  1.00  0.00    -0.508 OA
ATOM     25  H   UNL     1      19.145 101.861   8.096  1.00  0.00     0.293 HD
ENDBRANCH   8  24
TORSDOF 5
ENDMDL
MODEL 2
REMARK VINA RESULT:    25.805      1.584      6.315
REMARK INTER + INTRA:          30.055
REMARK INTER:                  30.266
REMARK INTRA:                  -0.210
REMARK UNBOUND:                -0.275
REMARK SMILES O=c1c(O)c(-c2ccc(O)cc2)oc2cc(O)cc(O)c12
REMARK SMILES IDX 5 1 3 2 2 3 1 4 21 5 19 6 18 7 16 8 15 9 14 10 13 11 6 12
REMARK SMILES IDX 7 13 8 14 9 15 12 16 11 17 10 18 4 20 20 22 17 24
REMARK H PARENT 10 19 4 21 20 23 17 25
REMARK Flexibility Score: inf
ROOT
ATOM      1  C   UNL     1      17.790  97.567   8.945  1.00  0.00     0.180 A 
ATOM      2  C   UNL     1      16.473  97.275   9.337  1.00  0.00     0.208 A 
ATOM      3  C   UNL     1      16.001  95.958   9.211  1.00  0.00     0.238 A 
ATOM      4  O   UNL     1      14.804  95.713   9.514  1.00  0.00    -0.285 OA
ATOM      5  C   UNL     1      16.857  94.948   8.708  1.00  0.00     0.111 A 
ATOM      6  C   UNL     1      16.497  93.574   8.575  1.00  0.00     0.134 A 
ATOM      7  C   UNL     1      17.378  92.687   7.945  1.00  0.00     0.093 A 
ATOM      8  C   UNL     1      18.634  93.113   7.501  1.00  0.00     0.123 A 
ATOM      9  C   UNL     1      19.016  94.440   7.680  1.00  0.00     0.094 A 
ATOM     10  C   UNL     1      18.145  95.355   8.273  1.00  0.00     0.146 A 
ATOM     11  O   UNL     1      18.546  96.613   8.415  1.00  0.00    -0.452 OA
ENDROOT
BRANCH   1  12
ATOM     12  C   UNL     1      18.366  98.925   9.071  1.00  0.00     0.021 A 
ATOM     13  C   UNL     1      19.344  99.219  10.039  1.00  0.00     0.016 A 
ATOM     14  C   UNL     1      19.892 100.503  10.124  1.00  0.00     0.047 A 
ATOM     15  C   UNL     1      19.481 101.504   9.234  1.00  0.00     0.115 A 
ATOM     16  C   UNL     1      17.977  99.930   8.169  1.00  0.00     0.016 A 
ATOM     17  C   UNL     1      18.525 101.213   8.257  1.00  0.00     0.047 A 
BRANCH  15  18
ATOM     18  O   UNL     1      20.020 102.787   9.309  1.00  0.00    -0.508 OA
ATOM     19  H   UNL     1      21.022 102.942   9.296  1.00  0.00     0.293 HD
ENDBRANCH  15  18
ENDBRANCH   1  12
BRANCH   2  20
ATOM     20  O   UNL     1      15.638  98.291   9.810  1.00  0.00    -0.502 OA
ATOM     21  H   UNL     1      15.403  99.105   9.254  1.00  0.00     0.293 HD
ENDBRANCH   2  20
BRANCH   6  22
ATOM     22  O   UNL     1      15.307  93.027   9.067  1.00  0.00    -0.507 OA
ATOM     23  H   UNL     1      15.114  92.040   9.137  1.00  0.00     0.293 HD
ENDBRANCH   6  22
BRANCH   8  24
ATOM     24  O   UNL     1      19.510  92.220   6.888  1.00  0.00    -0.508 OA
ATOM     25  H   UNL     1      19.182  91.361   6.465  1.00  0.00     0.293 HD
ENDBRANCH   8  24
TORSDOF 5
ENDMDL
MODEL 3
REMARK VINA RESULT:    27.235      1.414      3.302
REMARK INTER + INTRA:          31.737
REMARK INTER:                  31.972
REMARK INTRA:                  -0.236
REMARK UNBOUND:                -0.275
REMARK SMILES O=c1c(O)c(-c2ccc(O)cc2)oc2cc(O)cc(O)c12
REMARK SMILES IDX 5 1 3 2 2 3 1 4 21 5 19 6 18 7 16 8 15 9 14 10 13 11 6 12
REMARK SMILES IDX 7 13 8 14 9 15 12 16 11 17 10 18 4 20 20 22 17 24
REMARK H PARENT 10 19 4 21 20 23 17 25
REMARK Flexibility Score: inf
ROOT
ATOM      1  C   UNL     1      17.643  95.321   8.962  1.00  0.00     0.180 A 
ATOM      2  C   UNL     1      18.074  96.643   8.759  1.00  0.00     0.208 A 
ATOM      3  C   UNL     1      17.156  97.692   8.924  1.00  0.00     0.238 A 
ATOM      4  O   UNL     1      17.534  98.870   8.689  1.00  0.00    -0.285 OA
ATOM      5  C   UNL     1      15.821  97.408   9.304  1.00  0.00     0.111 A 
ATOM      6  C   UNL     1      14.818  98.394   9.538  1.00  0.00     0.134 A 
ATOM      7  C   UNL     1      13.499  97.994   9.783  1.00  0.00     0.093 A 
ATOM      8  C   UNL     1      13.161  96.640   9.866  1.00  0.00     0.123 A 
ATOM      9  C   UNL     1      14.146  95.670   9.697  1.00  0.00     0.094 A 
ATOM     10  C   UNL     1      15.463  96.039   9.417  1.00  0.00     0.146 A 
ATOM     11  O   UNL     1      16.369  95.082   9.253  1.00  0.00    -0.452 OA
ENDROOT
BRANCH   1  12
ATOM     12  C   UNL     1      18.558  94.165   8.831  1.00  0.00     0.021 A 
ATOM     13  C   UNL     1      18.960  93.687   7.569  1.00  0.00     0.016 A 
ATOM     14  C   UNL     1      19.844  92.609   7.470  1.00  0.00     0.047 A 
ATOM     15  C   UNL     1      20.348  92.003   8.628  1.00  0.00     0.115 A 
ATOM     16  C   UNL     1      19.085  93.564   9.986  1.00  0.00     0.016 A 
ATOM     17  C   UNL     1      19.968  92.485   9.884  1.00  0.00     0.047 A 
BRANCH  15  18
ATOM     18  O   UNL     1      21.230  90.927   8.542  1.00  0.00    -0.508 OA
ATOM     19  H   UNL     1      22.190  91.053   8.243  1.00  0.00     0.293 HD
ENDBRANCH  15  18
ENDBRANCH   1  12
BRANCH   2  20
ATOM     20  O   UNL     1      19.389  96.900   8.363  1.00  0.00    -0.502 OA
ATOM     21  H   UNL     1      20.074  97.315   8.984  1.00  0.00     0.293 HD
ENDBRANCH   2  20
BRANCH   6  22
ATOM     22  O   UNL     1      15.068  99.770   9.570  1.00  0.00    -0.507 OA
ATOM     23  H   UNL     1      15.978 100.186   9.689  1.00  0.00     0.293 HD
ENDBRANCH   6  22
BRANCH   8  24
ATOM     24  O   UNL     1      11.849  96.250  10.125  1.00  0.00    -0.508 OA
ATOM     25  H   UNL     1      11.104  96.929  10.221  1.00  0.00     0.293 HD
ENDBRANCH   8  24
TORSDOF 5
ENDMDL
