MODEL 1
REMARK VINA RESULT:    -2.792      0.000      0.000
REMARK INTER + INTRA:          -3.854
REMARK INTER:                  -3.364
REMARK INTRA:                  -0.490
REMARK UNBOUND:                -0.490
REMARK SMILES NC(=O)C[C@H]([NH3+])C(=O)[O-]
REMARK SMILES IDX 4 1 5 2 6 3 7 7 8 8 9 9 2 10 3 11 1 12
REMARK H PARENT 6 4 6 5 6 6 1 13 1 14
REMARK Flexibility Score: inf
ROOT
ATOM      1  C   UNL     1      12.344  -0.444   0.070  1.00  0.00     0.171 C 
ENDROOT
BRANCH   1   2
ATOM      2  C   UNL     1      12.747   1.045   0.092  1.00  0.00     0.237 C 
BRANCH   2   3
ATOM      3  N   UNL     1      12.831   1.535   1.472  1.00  0.00    -0.350 N 
ATOM      4  H   UNL     1      11.873   1.585   1.890  1.00  0.00     0.345 HD
ATOM      5  H   UNL     1      13.428   0.902   2.055  1.00  0.00     0.345 HD
ATOM      6  H   UNL     1      13.242   2.496   1.483  1.00  0.00     0.345 HD
ENDBRANCH   2   3
BRANCH   2   7
ATOM      7  C   UNL     1      11.774   1.880  -0.700  1.00  0.00     0.100 C 
ATOM      8  O   UNL     1      10.643   2.169  -0.224  1.00  0.00    -0.544 OA
ATOM      9  O   UNL     1      12.116   2.326  -1.971  1.00  0.00    -0.544 OA
ENDBRANCH   2   7
ENDBRANCH   1   2
BRANCH   1  10
ATOM     10  C   UNL     1      11.439  -0.790   1.217  1.00  0.00     0.223 C 
ATOM     11  O   UNL     1      11.933  -1.160   2.316  1.00  0.00    -0.275 OA
ATOM     12  N   UNL     1      10.023  -0.667   1.081  1.00  0.00    -0.369 N 
ATOM     13  H   UNL     1       9.396  -0.896   1.885  1.00  0.00     0.159 HD
ATOM     14  H   UNL     1       9.601  -0.347   0.182  1.00  0.00     0.159 HD
ENDBRANCH   1  10
TORSDOF 4
ENDMDL
MODEL 2
REMARK VINA RESULT:    -2.718      1.007      1.073
REMARK INTER + INTRA:          -3.764
REMARK INTER:                  -3.287
REMARK INTRA:                  -0.477
REMARK UNBOUND:                -0.490
REMARK SMILES NC(=O)C[C@H]([NH3+])C(=O)[O-]
REMARK SMILES IDX 4 1 5 2 6 3 7 7 8 8 9 9 2 10 3 11 1 12
REMARK H PARENT 6 4 6 5 6 6 1 13 1 14
REMARK Flexibility Score: inf
ROOT
ATOM      1  C   UNL     1      10.945  -0.464   0.350  1.00  0.00     0.171 C 
ENDROOT
BRANCH   1   2
ATOM      2  C   UNL     1      12.090   0.314  -0.331  1.00  0.00     0.237 C 
BRANCH   2   3
ATOM      3  N   UNL     1      13.245   0.420   0.567  1.00  0.00    -0.350 N 
ATOM      4  H   UNL     1      13.979  -0.270   0.285  1.00  0.00     0.345 HD
ATOM      5  H   UNL     1      13.650   1.385   0.537  1.00  0.00     0.345 HD
ATOM      6  H   UNL     1      12.952   0.204   1.547  1.00  0.00     0.345 HD
ENDBRANCH   2   3
BRANCH   2   7
ATOM      7  C   UNL     1      11.633   1.685  -0.759  1.00  0.00     0.100 C 
ATOM      8  O   UNL     1      10.820   2.338  -0.052  1.00  0.00    -0.544 OA
ATOM      9  O   UNL     1      12.098   2.231  -1.949  1.00  0.00    -0.544 OA
ENDBRANCH   2   7
ENDBRANCH   1   2
BRANCH   1  10
ATOM     10  C   UNL     1      11.060  -0.422   1.846  1.00  0.00     0.223 C 
ATOM     11  O   UNL     1      11.765  -1.278   2.445  1.00  0.00    -0.275 OA
ATOM     12  N   UNL     1      10.406   0.604   2.592  1.00  0.00    -0.369 N 
ATOM     13  H   UNL     1      10.499   0.639   3.632  1.00  0.00     0.159 HD
ATOM     14  H   UNL     1       9.832   1.330   2.109  1.00  0.00     0.159 HD
ENDBRANCH   1  10
TORSDOF 4
ENDMDL
MODEL 3
REMARK VINA RESULT:    -2.704      1.838      1.911
REMARK INTER + INTRA:          -3.747
REMARK INTER:                  -3.266
REMARK INTRA:                  -0.481
REMARK UNBOUND:                -0.490
REMARK SMILES NC(=O)C[C@H]([NH3+])C(=O)[O-]
REMARK SMILES IDX 4 1 5 2 6 3 7 7 8 8 9 9 2 10 3 11 1 12
REMARK H PARENT 6 4 6 5 6 6 1 13 1 14
REMARK Flexibility Score: inf
ROOT
ATOM      1  C   UNL     1      11.393   0.002   1.327  1.00  0.00     0.171 C 
ENDROOT
BRANCH   1   2
ATOM      2  C   UNL     1      11.190   1.467   1.766  1.00  0.00     0.237 C 
BRANCH   2   3
ATOM      3  N   UNL     1      10.302   1.536   2.932  1.00  0.00    -0.350 N 
ATOM      4  H   UNL     1      10.535   0.768   3.602  1.00  0.00     0.345 HD
ATOM      5  H   UNL     1      10.399   2.459   3.417  1.00  0.00     0.345 HD
ATOM      6  H   UNL     1       9.309   1.414   2.628  1.00  0.00     0.345 HD
ENDBRANCH   2   3
BRANCH   2   7
ATOM      7  C   UNL     1      10.637   2.298   0.637  1.00  0.00     0.100 C 
ATOM      8  O   UNL     1       9.402   2.295   0.387  1.00  0.00    -0.544 OA
ATOM      9  O   UNL     1      11.492   3.063  -0.145  1.00  0.00    -0.544 OA
ENDBRANCH   2   7
ENDBRANCH   1   2
BRANCH   1  10
ATOM     10  C   UNL     1      10.160  -0.822   1.560  1.00  0.00     0.223 C 
ATOM     11  O   UNL     1       9.988  -1.393   2.670  1.00  0.00    -0.275 OA
ATOM     12  N   UNL     1       9.164  -0.933   0.543  1.00  0.00    -0.369 N 
ATOM     13  H   UNL     1       8.300  -1.496   0.712  1.00  0.00     0.159 HD
ATOM     14  H   UNL     1       9.286  -0.453  -0.375  1.00  0.00     0.159 HD
ENDBRANCH   1  10
TORSDOF 4
ENDMDL
MODEL 4
REMARK VINA RESULT:    -2.681      1.619      2.527
REMARK INTER + INTRA:          -3.720
REMARK INTER:                  -3.472
REMARK INTRA:                  -0.248
REMARK UNBOUND:                -0.490
REMARK SMILES NC(=O)C[C@H]([NH3+])C(=O)[O-]
REMARK SMILES IDX 4 1 5 2 6 3 7 7 8 8 9 9 2 10 3 11 1 12
REMARK H PARENT 6 4 6 5 6 6 1 13 1 14
REMARK Flexibility Score: inf
ROOT
ATOM      1  C   UNL     1      12.067  -0.421   0.081  1.00  0.00     0.171 C 
ENDROOT
BRANCH   1   2
ATOM      2  C   UNL     1      10.895   0.264   0.815  1.00  0.00     0.237 C 
BRANCH   2   3
ATOM      3  N   UNL     1       9.722  -0.616   0.842  1.00  0.00    -0.350 N 
ATOM      4  H   UNL     1       8.852  -0.045   0.958  1.00  0.00     0.345 HD
ATOM      5  H   UNL     1       9.654  -1.171  -0.044  1.00  0.00     0.345 HD
ATOM      6  H   UNL     1       9.791  -1.274   1.652  1.00  0.00     0.345 HD
ENDBRANCH   2   3
BRANCH   2   7
ATOM      7  C   UNL     1      10.546   1.580   0.167  1.00  0.00     0.100 C 
ATOM      8  O   UNL     1      11.361   2.145  -0.611  1.00  0.00    -0.544 OA
ATOM      9  O   UNL     1       9.325   2.184   0.436  1.00  0.00    -0.544 OA
ENDBRANCH   2   7
ENDBRANCH   1   2
BRANCH   1  10
ATOM     10  C   UNL     1      12.923  -1.214   1.025  1.00  0.00     0.223 C 
ATOM     11  O   UNL     1      12.515  -1.450   2.194  1.00  0.00    -0.275 OA
ATOM     12  N   UNL     1      14.182  -1.733   0.596  1.00  0.00    -0.369 N 
ATOM     13  H   UNL     1      14.770  -2.296   1.250  1.00  0.00     0.159 HD
ATOM     14  H   UNL     1      14.526  -1.559  -0.374  1.00  0.00     0.159 HD
ENDBRANCH   1  10
TORSDOF 4
ENDMDL
MODEL 5
REMARK VINA RESULT:    -2.671      2.074      2.106
REMARK INTER + INTRA:          -3.708
REMARK INTER:                  -3.425
REMARK INTRA:                  -0.283
REMARK UNBOUND:                -0.490
REMARK SMILES NC(=O)C[C@H]([NH3+])C(=O)[O-]
REMARK SMILES IDX 4 1 5 2 6 3 7 7 8 8 9 9 2 10 3 11 1 12
REMARK H PARENT 6 4 6 5 6 6 1 13 1 14
REMARK Flexibility Score: inf
ROOT
ATOM      1  C   UNL     1      11.001   0.087   0.305  1.00  0.00     0.171 C 
ENDROOT
BRANCH   1   2
ATOM      2  C   UNL     1      10.876   1.592   0.621  1.00  0.00     0.237 C 
BRANCH   2   3
ATOM      3  N   UNL     1       9.465   1.991   0.678  1.00  0.00    -0.350 N 
ATOM      4  H   UNL     1       9.213   2.266   1.655  1.00  0.00     0.345 HD
ATOM      5  H   UNL     1       9.282   2.796   0.034  1.00  0.00     0.345 HD
ATOM      6  H   UNL     1       8.858   1.186   0.399  1.00  0.00     0.345 HD
ENDBRANCH   2   3
BRANCH   2   7
ATOM      7  C   UNL     1      11.613   2.421  -0.400  1.00  0.00     0.100 C 
ATOM      8  O   UNL     1      11.944   3.609  -0.140  1.00  0.00    -0.544 OA
ATOM      9  O   UNL     1      11.919   1.881  -1.642  1.00  0.00    -0.544 OA
ENDBRANCH   2   7
ENDBRANCH   1   2
BRANCH   1  10
ATOM     10  C   UNL     1       9.944  -0.715   1.007  1.00  0.00     0.223 C 
ATOM     11  O   UNL     1       8.917  -1.087   0.377  1.00  0.00    -0.275 OA
ATOM     12  N   UNL     1      10.111  -1.091   2.374  1.00  0.00    -0.369 N 
ATOM     13  H   UNL     1       9.380  -1.660   2.857  1.00  0.00     0.159 HD
ATOM     14  H   UNL     1      10.963  -0.804   2.904  1.00  0.00     0.159 HD
ENDBRANCH   1  10
TORSDOF 4
ENDMDL
MODEL 6
REMARK VINA RESULT:    -2.670      2.388      3.185
REMARK INTER + INTRA:          -3.706
REMARK INTER:                  -3.224
REMARK INTRA:                  -0.482
REMARK UNBOUND:                -0.490
REMARK SMILES NC(=O)C[C@H]([NH3+])C(=O)[O-]
REMARK SMILES IDX 4 1 5 2 6 3 7 7 8 8 9 9 2 10 3 11 1 12
REMARK H PARENT 6 4 6 5 6 6 1 13 1 14
REMARK Flexibility Score: inf
ROOT
ATOM      1  C   UNL     1      11.811  -0.363  -0.335  1.00  0.00     0.171 C 
ENDROOT
BRANCH   1   2
ATOM      2  C   UNL     1      10.600   0.303   0.351  1.00  0.00     0.237 C 
BRANCH   2   3
ATOM      3  N   UNL     1      11.047   1.214   1.411  1.00  0.00    -0.350 N 
ATOM      4  H   UNL     1      11.740   1.896   1.025  1.00  0.00     0.345 HD
ATOM      5  H   UNL     1      10.235   1.738   1.815  1.00  0.00     0.345 HD
ATOM      6  H   UNL     1      11.513   0.670   2.173  1.00  0.00     0.345 HD
ENDBRANCH   2   3
BRANCH   2   7
ATOM      7  C   UNL     1       9.661  -0.733   0.914  1.00  0.00     0.100 C 
ATOM      8  O   UNL     1       9.850  -1.211   2.065  1.00  0.00    -0.544 OA
ATOM      9  O   UNL     1       8.585  -1.178   0.157  1.00  0.00    -0.544 OA
ENDBRANCH   2   7
ENDBRANCH   1   2
BRANCH   1  10
ATOM     10  C   UNL     1      12.969  -0.513   0.609  1.00  0.00     0.223 C 
ATOM     11  O   UNL     1      13.864   0.373   0.649  1.00  0.00    -0.275 OA
ATOM     12  N   UNL     1      13.043  -1.636   1.488  1.00  0.00    -0.369 N 
ATOM     13  H   UNL     1      13.843  -1.731   2.153  1.00  0.00     0.159 HD
ATOM     14  H   UNL     1      12.301  -2.369   1.477  1.00  0.00     0.159 HD
ENDBRANCH   1  10
TORSDOF 4
ENDMDL
MODEL 7
REMARK VINA RESULT:    -2.628      8.668      9.162
REMARK INTER + INTRA:          -3.655
REMARK INTER:                  -3.253
REMARK INTRA:                  -0.403
REMARK UNBOUND:                -0.490
REMARK SMILES NC(=O)C[C@H]([NH3+])C(=O)[O-]
REMARK SMILES IDX 4 1 5 2 6 3 7 7 8 8 9 9 2 10 3 11 1 12
REMARK H PARENT 6 4 6 5 6 6 1 13 1 14
REMARK Flexibility Score: inf
ROOT
ATOM      1  C   UNL     1       6.782   1.243  -8.082  1.00  0.00     0.171 C 
ENDROOT
BRANCH   1   2
ATOM      2  C   UNL     1       6.235   2.298  -7.098  1.00  0.00     0.237 C 
BRANCH   2   3
ATOM      3  N   UNL     1       7.336   3.055  -6.492  1.00  0.00    -0.350 N 
ATOM      4  H   UNL     1       7.505   3.932  -7.037  1.00  0.00     0.345 HD
ATOM      5  H   UNL     1       7.112   3.303  -5.500  1.00  0.00     0.345 HD
ATOM      6  H   UNL     1       8.212   2.484  -6.512  1.00  0.00     0.345 HD
ENDBRANCH   2   3
BRANCH   2   7
ATOM      7  C   UNL     1       5.393   1.653  -6.027  1.00  0.00     0.100 C 
ATOM      8  O   UNL     1       5.673   1.815  -4.809  1.00  0.00    -0.544 OA
ATOM      9  O   UNL     1       4.306   0.863  -6.380  1.00  0.00    -0.544 OA
ENDBRANCH   2   7
ENDBRANCH   1   2
BRANCH   1  10
ATOM     10  C   UNL     1       7.518   0.147  -7.366  1.00  0.00     0.223 C 
ATOM     11  O   UNL     1       8.674   0.362  -6.913  1.00  0.00    -0.275 OA
ATOM     12  N   UNL     1       6.902  -1.125  -7.165  1.00  0.00    -0.369 N 
ATOM     13  H   UNL     1       7.411  -1.881  -6.655  1.00  0.00     0.159 HD
ATOM     14  H   UNL     1       5.939  -1.312  -7.521  1.00  0.00     0.159 HD
ENDBRANCH   1  10
TORSDOF 4
ENDMDL
MODEL 8
REMARK VINA RESULT:    -2.572      8.313      9.325
REMARK INTER + INTRA:          -3.588
REMARK INTER:                  -3.119
REMARK INTRA:                  -0.469
REMARK UNBOUND:                -0.490
REMARK SMILES NC(=O)C[C@H]([NH3+])C(=O)[O-]
REMARK SMILES IDX 4 1 5 2 6 3 7 7 8 8 9 9 2 10 3 11 1 12
REMARK H PARENT 6 4 6 5 6 6 1 13 1 14
REMARK Flexibility Score: inf
ROOT
ATOM      1  C   UNL     1       7.237   2.866  -6.590  1.00  0.00     0.171 C 
ENDROOT
BRANCH   1   2
ATOM      2  C   UNL     1       7.746   1.973  -7.740  1.00  0.00     0.237 C 
BRANCH   2   3
ATOM      3  N   UNL     1       6.671   1.714  -8.705  1.00  0.00    -0.350 N 
ATOM      4  H   UNL     1       6.404   2.604  -9.185  1.00  0.00     0.345 HD
ATOM      5  H   UNL     1       6.977   1.014  -9.421  1.00  0.00     0.345 HD
ATOM      6  H   UNL     1       5.829   1.346  -8.206  1.00  0.00     0.345 HD
ENDBRANCH   2   3
BRANCH   2   7
ATOM      7  C   UNL     1       8.297   0.673  -7.211  1.00  0.00     0.100 C 
ATOM      8  O   UNL     1       9.510   0.580  -6.880  1.00  0.00    -0.544 OA
ATOM      9  O   UNL     1       7.470  -0.437  -7.099  1.00  0.00    -0.544 OA
ENDBRANCH   2   7
ENDBRANCH   1   2
BRANCH   1  10
ATOM     10  C   UNL     1       5.825   2.526  -6.207  1.00  0.00     0.223 C 
ATOM     11  O   UNL     1       4.866   3.157  -6.726  1.00  0.00    -0.275 OA
ATOM     12  N   UNL     1       5.562   1.468  -5.286  1.00  0.00    -0.369 N 
ATOM     13  H   UNL     1       4.579   1.223  -5.032  1.00  0.00     0.159 HD
ATOM     14  H   UNL     1       6.346   0.926  -4.861  1.00  0.00     0.159 HD
ENDBRANCH   1  10
TORSDOF 4
ENDMDL
MODEL 9
REMARK VINA RESULT:    -2.565      1.657      3.657
REMARK INTER + INTRA:          -3.580
REMARK INTER:                  -3.075
REMARK INTRA:                  -0.505
REMARK UNBOUND:                -0.490
REMARK SMILES NC(=O)C[C@H]([NH3+])C(=O)[O-]
REMARK SMILES IDX 4 1 5 2 6 3 7 7 8 8 9 9 2 10 3 11 1 12
REMARK H PARENT 6 4 6 5 6 6 1 13 1 14
REMARK Flexibility Score: inf
ROOT
ATOM      1  C   UNL     1      11.421   1.165  -0.250  1.00  0.00     0.171 C 
ENDROOT
BRANCH   1   2
ATOM      2  C   UNL     1      11.324  -0.369  -0.115  1.00  0.00     0.237 C 
BRANCH   2   3
ATOM      3  N   UNL     1       9.992  -0.760   0.360  1.00  0.00    -0.350 N 
ATOM      4  H   UNL     1      10.018  -0.925   1.392  1.00  0.00     0.345 HD
ATOM      5  H   UNL     1       9.289  -0.013   0.147  1.00  0.00     0.345 HD
ATOM      6  H   UNL     1       9.697  -1.649  -0.106  1.00  0.00     0.345 HD
ENDBRANCH   2   3
BRANCH   2   7
ATOM      7  C   UNL     1      12.387  -0.898   0.814  1.00  0.00     0.100 C 
ATOM      8  O   UNL     1      13.447  -1.400   0.353  1.00  0.00    -0.544 OA
ATOM      9  O   UNL     1      12.194  -0.847   2.188  1.00  0.00    -0.544 OA
ENDBRANCH   2   7
ENDBRANCH   1   2
BRANCH   1  10
ATOM     10  C   UNL     1      10.510   1.865   0.717  1.00  0.00     0.223 C 
ATOM     11  O   UNL     1       9.342   2.178   0.363  1.00  0.00    -0.275 OA
ATOM     12  N   UNL     1      10.947   2.145   2.047  1.00  0.00    -0.369 N 
ATOM     13  H   UNL     1      10.307   2.620   2.722  1.00  0.00     0.159 HD
ATOM     14  H   UNL     1      11.906   1.877   2.359  1.00  0.00     0.159 HD
ENDBRANCH   1  10
TORSDOF 4
ENDMDL
