MODEL 1
REMARK VINA RESULT:    -5.599      0.000      0.000
REMARK INTER + INTRA:          -6.642
REMARK INTER:                  -6.417
REMARK INTRA:                  -0.225
REMARK UNBOUND:                -0.225
REMARK SMILES COC(=O)c1ccccc1O
REMARK SMILES IDX 5 1 6 2 7 3 8 4 9 5 10 6 3 7 4 8 2 9 1 10 11 11
REMARK H PARENT 11 12
REMARK Flexibility Score: inf
ROOT
ATOM      1  C   UNL     1      18.513 -10.799  68.020  1.00  0.00     0.101 A 
ATOM      2  C   UNL     1      17.629 -11.889  67.895  1.00  0.00     0.019 A 
ATOM      3  C   UNL     1      16.815 -12.023  66.769  1.00  0.00     0.001 A 
ATOM      4  C   UNL     1      16.870 -11.074  65.749  1.00  0.00     0.004 A 
ATOM      5  C   UNL     1      17.740  -9.988  65.853  1.00  0.00     0.047 A 
ATOM      6  C   UNL     1      18.564  -9.840  66.979  1.00  0.00     0.130 A 
ENDROOT
BRANCH   1   7
ATOM      7  C   UNL     1      19.369 -10.684  69.231  1.00  0.00     0.341 C 
ATOM      8  O   UNL     1      19.383  -9.607  69.890  1.00  0.00    -0.246 OA
BRANCH   7   9
ATOM      9  O   UNL     1      20.160 -11.761  69.647  1.00  0.00    -0.465 OA
ATOM     10  C   UNL     1      20.924 -12.548  68.742  1.00  0.00     0.282 C 
ENDBRANCH   7   9
ENDBRANCH   1   7
BRANCH   6  11
ATOM     11  O   UNL     1      19.423  -8.745  67.057  1.00  0.00    -0.507 OA
ATOM     12  H   UNL     1      20.405  -8.853  67.280  1.00  0.00     0.293 HD
ENDBRANCH   6  11
TORSDOF 3
ENDMDL
MODEL 2
REMARK VINA RESULT:    -5.400      1.203      1.399
REMARK INTER + INTRA:          -6.414
REMARK INTER:                  -6.094
REMARK INTRA:                  -0.320
REMARK UNBOUND:                -0.225
REMARK SMILES COC(=O)c1ccccc1O
REMARK SMILES IDX 5 1 6 2 7 3 8 4 9 5 10 6 3 7 4 8 2 9 1 10 11 11
REMARK H PARENT 11 12
REMARK Flexibility Score: inf
ROOT
ATOM      1  C   UNL     1      19.006 -10.186  67.588  1.00  0.00     0.101 A 
ATOM      2  C   UNL     1      17.615 -10.274  67.379  1.00  0.00     0.019 A 
ATOM      3  C   UNL     1      17.073 -10.118  66.102  1.00  0.00     0.001 A 
ATOM      4  C   UNL     1      17.909  -9.872  65.013  1.00  0.00     0.004 A 
ATOM      5  C   UNL     1      19.289  -9.782  65.198  1.00  0.00     0.047 A 
ATOM      6  C   UNL     1      19.847  -9.937  66.476  1.00  0.00     0.130 A 
ENDROOT
BRANCH   1   7
ATOM      7  C   UNL     1      19.554 -10.358  68.960  1.00  0.00     0.341 C 
ATOM      8  O   UNL     1      19.235  -9.543  69.870  1.00  0.00    -0.246 OA
BRANCH   7   9
ATOM      9  O   UNL     1      20.422 -11.416  69.251  1.00  0.00    -0.465 OA
ATOM     10  C   UNL     1      20.158 -12.758  68.858  1.00  0.00     0.282 C 
ENDBRANCH   7   9
ENDBRANCH   1   7
BRANCH   6  11
ATOM     11  O   UNL     1      21.229  -9.842  66.632  1.00  0.00    -0.507 OA
ATOM     12  H   UNL     1      21.799  -9.285  66.006  1.00  0.00     0.293 HD
ENDBRANCH   6  11
TORSDOF 3
ENDMDL
MODEL 3
REMARK VINA RESULT:    -5.393      0.930      2.073
REMARK INTER + INTRA:          -6.406
REMARK INTER:                  -6.132
REMARK INTRA:                  -0.274
REMARK UNBOUND:                -0.225
REMARK SMILES COC(=O)c1ccccc1O
REMARK SMILES IDX 5 1 6 2 7 3 8 4 9 5 10 6 3 7 4 8 2 9 1 10 11 11
REMARK H PARENT 11 12
REMARK Flexibility Score: inf
ROOT
ATOM      1  C   UNL     1      18.627 -10.835  67.954  1.00  0.00     0.101 A 
ATOM      2  C   UNL     1      18.798  -9.886  66.926  1.00  0.00     0.019 A 
ATOM      3  C   UNL     1      18.064  -9.977  65.741  1.00  0.00     0.001 A 
ATOM      4  C   UNL     1      17.148 -11.012  65.564  1.00  0.00     0.004 A 
ATOM      5  C   UNL     1      16.963 -11.961  66.570  1.00  0.00     0.047 A 
ATOM      6  C   UNL     1      17.694 -11.883  67.765  1.00  0.00     0.130 A 
ENDROOT
BRANCH   1   7
ATOM      7  C   UNL     1      19.423 -10.712  69.204  1.00  0.00     0.341 C 
ATOM      8  O   UNL     1      19.398  -9.634  69.861  1.00  0.00    -0.246 OA
BRANCH   7   9
ATOM      9  O   UNL     1      20.201 -11.782  69.659  1.00  0.00    -0.465 OA
ATOM     10  C   UNL     1      20.982 -12.591  68.787  1.00  0.00     0.282 C 
ENDBRANCH   7   9
ENDBRANCH   1   7
BRANCH   6  11
ATOM     11  O   UNL     1      17.489 -12.845  68.754  1.00  0.00    -0.507 OA
ATOM     12  H   UNL     1      17.944 -12.786  69.657  1.00  0.00     0.293 HD
ENDBRANCH   6  11
TORSDOF 3
ENDMDL
MODEL 4
REMARK VINA RESULT:    -5.034      2.097      2.970
REMARK INTER + INTRA:          -5.995
REMARK INTER:                  -5.747
REMARK INTRA:                  -0.248
REMARK UNBOUND:                -0.225
REMARK SMILES COC(=O)c1ccccc1O
REMARK SMILES IDX 5 1 6 2 7 3 8 4 9 5 10 6 3 7 4 8 2 9 1 10 11 11
REMARK H PARENT 11 12
REMARK Flexibility Score: inf
ROOT
ATOM      1  C   UNL     1      19.233 -11.938  68.354  1.00  0.00     0.101 A 
ATOM      2  C   UNL     1      19.599 -10.577  68.359  1.00  0.00     0.019 A 
ATOM      3  C   UNL     1      18.756  -9.609  67.809  1.00  0.00     0.001 A 
ATOM      4  C   UNL     1      17.535  -9.982  67.248  1.00  0.00     0.004 A 
ATOM      5  C   UNL     1      17.154 -11.324  67.235  1.00  0.00     0.047 A 
ATOM      6  C   UNL     1      17.991 -12.307  67.783  1.00  0.00     0.130 A 
ENDROOT
BRANCH   1   7
ATOM      7  C   UNL     1      20.152 -12.946  68.947  1.00  0.00     0.341 C 
ATOM      8  O   UNL     1      20.169 -14.124  68.494  1.00  0.00    -0.246 OA
BRANCH   7   9
ATOM      9  O   UNL     1      20.998 -12.599  70.007  1.00  0.00    -0.465 OA
ATOM     10  C   UNL     1      21.862 -13.536  70.638  1.00  0.00     0.282 C 
ENDBRANCH   7   9
ENDBRANCH   1   7
BRANCH   6  11
ATOM     11  O   UNL     1      17.585 -13.641  67.756  1.00  0.00    -0.507 OA
ATOM     12  H   UNL     1      17.546 -14.169  66.892  1.00  0.00     0.293 HD
ENDBRANCH   6  11
TORSDOF 3
ENDMDL
MODEL 5
REMARK VINA RESULT:    -4.958      1.559      3.358
REMARK INTER + INTRA:          -5.907
REMARK INTER:                  -5.583
REMARK INTRA:                  -0.324
REMARK UNBOUND:                -0.225
REMARK SMILES COC(=O)c1ccccc1O
REMARK SMILES IDX 5 1 6 2 7 3 8 4 9 5 10 6 3 7 4 8 2 9 1 10 11 11
REMARK H PARENT 11 12
REMARK Flexibility Score: inf
ROOT
ATOM      1  C   UNL     1      20.096 -11.020  68.224  1.00  0.00     0.101 A 
ATOM      2  C   UNL     1      20.183 -12.267  68.873  1.00  0.00     0.019 A 
ATOM      3  C   UNL     1      20.982 -13.288  68.355  1.00  0.00     0.001 A 
ATOM      4  C   UNL     1      21.708 -13.081  67.183  1.00  0.00     0.004 A 
ATOM      5  C   UNL     1      21.637 -11.853  66.526  1.00  0.00     0.047 A 
ATOM      6  C   UNL     1      20.838 -10.818  67.035  1.00  0.00     0.130 A 
ENDROOT
BRANCH   1   7
ATOM      7  C   UNL     1      19.237  -9.952  68.801  1.00  0.00     0.341 C 
ATOM      8  O   UNL     1      19.381  -9.613  70.008  1.00  0.00    -0.246 OA
BRANCH   7   9
ATOM      9  O   UNL     1      18.268  -9.318  68.015  1.00  0.00    -0.465 OA
ATOM     10  C   UNL     1      17.324 -10.037  67.231  1.00  0.00     0.282 C 
ENDBRANCH   7   9
ENDBRANCH   1   7
BRANCH   6  11
ATOM     11  O   UNL     1      20.785  -9.600  66.357  1.00  0.00    -0.507 OA
ATOM     12  H   UNL     1      20.646  -8.724  66.845  1.00  0.00     0.293 HD
ENDBRANCH   6  11
TORSDOF 3
ENDMDL
MODEL 6
REMARK VINA RESULT:    -4.900      1.366      2.294
REMARK INTER + INTRA:          -5.841
REMARK INTER:                  -5.581
REMARK INTRA:                  -0.260
REMARK UNBOUND:                -0.225
REMARK SMILES COC(=O)c1ccccc1O
REMARK SMILES IDX 5 1 6 2 7 3 8 4 9 5 10 6 3 7 4 8 2 9 1 10 11 11
REMARK H PARENT 11 12
REMARK Flexibility Score: inf
ROOT
ATOM      1  C   UNL     1      19.156 -11.876  67.966  1.00  0.00     0.101 A 
ATOM      2  C   UNL     1      18.571 -12.206  66.727  1.00  0.00     0.019 A 
ATOM      3  C   UNL     1      17.818 -11.267  66.020  1.00  0.00     0.001 A 
ATOM      4  C   UNL     1      17.637  -9.984  66.536  1.00  0.00     0.004 A 
ATOM      5  C   UNL     1      18.208  -9.637  67.761  1.00  0.00     0.047 A 
ATOM      6  C   UNL     1      18.967 -10.571  68.482  1.00  0.00     0.130 A 
ENDROOT
BRANCH   1   7
ATOM      7  C   UNL     1      19.953 -12.898  68.695  1.00  0.00     0.341 C 
ATOM      8  O   UNL     1      19.760 -14.125  68.468  1.00  0.00    -0.246 OA
BRANCH   7   9
ATOM      9  O   UNL     1      20.916 -12.511  69.634  1.00  0.00    -0.465 OA
ATOM     10  C   UNL     1      21.652 -13.448  70.411  1.00  0.00     0.282 C 
ENDBRANCH   7   9
ENDBRANCH   1   7
BRANCH   6  11
ATOM     11  O   UNL     1      19.526 -10.198  69.704  1.00  0.00    -0.507 OA
ATOM     12  H   UNL     1      19.926 -10.879  70.338  1.00  0.00     0.293 HD
ENDBRANCH   6  11
TORSDOF 3
ENDMDL
MODEL 7
REMARK VINA RESULT:    -4.773      1.787      2.334
REMARK INTER + INTRA:          -5.696
REMARK INTER:                  -5.432
REMARK INTRA:                  -0.264
REMARK UNBOUND:                -0.225
REMARK SMILES COC(=O)c1ccccc1O
REMARK SMILES IDX 5 1 6 2 7 3 8 4 9 5 10 6 3 7 4 8 2 9 1 10 11 11
REMARK H PARENT 11 12
REMARK Flexibility Score: inf
ROOT
ATOM      1  C   UNL     1      19.827 -10.697  67.327  1.00  0.00     0.101 A 
ATOM      2  C   UNL     1      20.967 -11.068  66.588  1.00  0.00     0.019 A 
ATOM      3  C   UNL     1      21.100 -10.702  65.247  1.00  0.00     0.001 A 
ATOM      4  C   UNL     1      20.099  -9.960  64.623  1.00  0.00     0.004 A 
ATOM      5  C   UNL     1      18.962  -9.581  65.337  1.00  0.00     0.047 A 
ATOM      6  C   UNL     1      18.815  -9.942  66.685  1.00  0.00     0.130 A 
ENDROOT
BRANCH   1   7
ATOM      7  C   UNL     1      19.714 -11.100  68.754  1.00  0.00     0.341 C 
ATOM      8  O   UNL     1      19.573 -10.220  69.647  1.00  0.00    -0.246 OA
BRANCH   7   9
ATOM      9  O   UNL     1      19.764 -12.451  69.116  1.00  0.00    -0.465 OA
ATOM     10  C   UNL     1      20.950 -13.075  69.594  1.00  0.00     0.282 C 
ENDBRANCH   7   9
ENDBRANCH   1   7
BRANCH   6  11
ATOM     11  O   UNL     1      17.668  -9.550  67.375  1.00  0.00    -0.507 OA
ATOM     12  H   UNL     1      17.598  -9.631  68.382  1.00  0.00     0.293 HD
ENDBRANCH   6  11
TORSDOF 3
ENDMDL
MODEL 8
REMARK VINA RESULT:    -4.665      3.591      5.086
REMARK INTER + INTRA:          -5.571
REMARK INTER:                  -5.286
REMARK INTRA:                  -0.285
REMARK UNBOUND:                -0.225
REMARK SMILES COC(=O)c1ccccc1O
REMARK SMILES IDX 5 1 6 2 7 3 8 4 9 5 10 6 3 7 4 8 2 9 1 10 11 11
REMARK H PARENT 11 12
REMARK Flexibility Score: inf
ROOT
ATOM      1  C   UNL     1      17.608 -10.249  64.587  1.00  0.00     0.101 A 
ATOM      2  C   UNL     1      17.054 -10.288  65.882  1.00  0.00     0.019 A 
ATOM      3  C   UNL     1      17.827  -9.969  67.000  1.00  0.00     0.001 A 
ATOM      4  C   UNL     1      19.164  -9.602  66.844  1.00  0.00     0.004 A 
ATOM      5  C   UNL     1      19.731  -9.556  65.571  1.00  0.00     0.047 A 
ATOM      6  C   UNL     1      18.966  -9.875  64.438  1.00  0.00     0.130 A 
ENDROOT
BRANCH   1   7
ATOM      7  C   UNL     1      16.760 -10.594  63.416  1.00  0.00     0.341 C 
ATOM      8  O   UNL     1      15.630 -10.049  63.276  1.00  0.00    -0.246 OA
BRANCH   7   9
ATOM      9  O   UNL     1      17.204 -11.522  62.466  1.00  0.00    -0.465 OA
ATOM     10  C   UNL     1      16.431 -12.650  62.073  1.00  0.00     0.282 C 
ENDBRANCH   7   9
ENDBRANCH   1   7
BRANCH   6  11
ATOM     11  O   UNL     1      19.559  -9.821  63.177  1.00  0.00    -0.507 OA
ATOM     12  H   UNL     1      20.303  -9.166  62.966  1.00  0.00     0.293 HD
ENDBRANCH   6  11
TORSDOF 3
ENDMDL
MODEL 9
REMARK VINA RESULT:    -4.627     15.638     16.901
REMARK INTER + INTRA:          -5.529
REMARK INTER:                  -5.178
REMARK INTRA:                  -0.351
REMARK UNBOUND:                -0.225
REMARK SMILES COC(=O)c1ccccc1O
REMARK SMILES IDX 5 1 6 2 7 3 8 4 9 5 10 6 3 7 4 8 2 9 1 10 11 11
REMARK H PARENT 11 12
REMARK Flexibility Score: inf
ROOT
ATOM      1  C   UNL     1       6.577  -9.025  56.123  1.00  0.00     0.101 A 
ATOM      2  C   UNL     1       5.920  -7.854  55.696  1.00  0.00     0.019 A 
ATOM      3  C   UNL     1       5.442  -6.925  56.623  1.00  0.00     0.001 A 
ATOM      4  C   UNL     1       5.612  -7.149  57.989  1.00  0.00     0.004 A 
ATOM      5  C   UNL     1       6.261  -8.302  58.432  1.00  0.00     0.047 A 
ATOM      6  C   UNL     1       6.746  -9.244  57.512  1.00  0.00     0.130 A 
ENDROOT
BRANCH   1   7
ATOM      7  C   UNL     1       7.076  -9.995  55.112  1.00  0.00     0.341 C 
ATOM      8  O   UNL     1       6.364 -10.279  54.109  1.00  0.00    -0.246 OA
BRANCH   7   9
ATOM      9  O   UNL     1       8.330 -10.598  55.265  1.00  0.00    -0.465 OA
ATOM     10  C   UNL     1       9.549  -9.911  55.013  1.00  0.00     0.282 C 
ENDBRANCH   7   9
ENDBRANCH   1   7
BRANCH   6  11
ATOM     11  O   UNL     1       7.391 -10.387  57.983  1.00  0.00    -0.507 OA
ATOM     12  H   UNL     1       7.135 -11.314  57.662  1.00  0.00     0.293 HD
ENDBRANCH   6  11
TORSDOF 3
ENDMDL
