MODEL 1
REMARK VINA RESULT:    -7.686      0.000      0.000
REMARK INTER + INTRA:          -8.874
REMARK INTER:                  -8.810
REMARK INTRA:                  -0.064
REMARK UNBOUND:                -0.064
REMARK SMILES CC1(C)CC[C@]23CO[C@@]4(C=C[C@H]5[C@]6(C)CC[C@H](O)[C@](C)(CO)[C@@H]6CC[C@]5(C)[C@]4(C)C[C@@H]2O)[C@H]3C1
REMARK SMILES IDX 1 1 2 2 4 3 5 4 6 5 7 6 8 7 9 8 33 9 34 10 10 11 11 12 12 13
REMARK SMILES IDX 13 14 15 15 16 16 17 17 19 18 23 19 24 20 25 21 26 22 28 23
REMARK SMILES IDX 30 24 31 25 29 26 27 27 20 28 14 29 3 30 32 31 21 33 22 34
REMARK SMILES IDX 18 36
REMARK H PARENT 32 32 22 35 18 37
REMARK Flexibility Score: inf
ROOT
ATOM      1  C   UNL     1      46.300  -2.849  57.164  1.00  0.00     0.011 C 
ATOM      2  C   UNL     1      45.657  -3.847  58.157  1.00  0.00    -0.035 C 
ATOM      3  C   UNL     1      45.736  -5.292  57.623  1.00  0.00     0.007 C 
ATOM      4  C   UNL     1      44.839  -5.525  56.399  1.00  0.00     0.013 C 
ATOM      5  C   UNL     1      43.373  -5.036  56.560  1.00  0.00     0.026 C 
ATOM      6  C   UNL     1      42.549  -5.875  57.558  1.00  0.00     0.171 C 
ATOM      7  O   UNL     1      41.596  -5.021  58.176  1.00  0.00    -0.369 OA
ATOM      8  C   UNL     1      41.742  -3.740  57.583  1.00  0.00     0.096 C 
ATOM      9  C   UNL     1      43.244  -3.661  57.194  1.00  0.00     0.037 C 
ATOM     10  C   UNL     1      44.181  -3.479  58.430  1.00  0.00     0.014 C 
ATOM     11  C   UNL     1      41.340  -2.638  58.560  1.00  0.00     0.005 C 
ATOM     12  C   UNL     1      40.050  -2.431  58.837  1.00  0.00    -0.024 C 
ATOM     13  C   UNL     1      39.037  -3.453  58.379  1.00  0.00     0.024 C 
ATOM     14  C   UNL     1      37.569  -3.295  58.947  1.00  0.00    -0.022 C 
ATOM     15  C   UNL     1      37.644  -3.408  60.516  1.00  0.00     0.010 C 
ATOM     16  C   UNL     1      37.521  -4.843  61.020  1.00  0.00     0.033 C 
ATOM     17  C   UNL     1      36.152  -5.477  60.700  1.00  0.00     0.123 C 
ATOM     18  C   UNL     1      35.510  -4.970  59.351  1.00  0.00     0.020 C 
ATOM     19  C   UNL     1      36.617  -4.437  58.341  1.00  0.00     0.006 C 
ATOM     20  C   UNL     1      37.404  -5.615  57.661  1.00  0.00     0.005 C 
ATOM     21  C   UNL     1      38.643  -5.281  56.775  1.00  0.00     0.008 C 
ATOM     22  C   UNL     1      39.184  -3.816  56.846  1.00  0.00    -0.017 C 
ATOM     23  C   UNL     1      40.748  -3.650  56.335  1.00  0.00     0.009 C 
ATOM     24  C   UNL     1      41.150  -4.726  55.258  1.00  0.00     0.043 C 
ATOM     25  C   UNL     1      42.674  -4.989  55.153  1.00  0.00     0.124 C 
ATOM     26  C   UNL     1      40.968  -2.251  55.639  1.00  0.00     0.015 C 
ATOM     27  C   UNL     1      38.255  -2.968  55.922  1.00  0.00     0.013 C 
ATOM     28  C   UNL     1      34.490  -3.827  59.648  1.00  0.00     0.017 C 
ATOM     29  C   UNL     1      37.005  -1.875  58.591  1.00  0.00     0.012 C 
ATOM     30  C   UNL     1      46.442  -3.772  59.484  1.00  0.00     0.011 C 
ENDROOT
BRANCH  25  31
ATOM     31  O   UNL     1      42.858  -6.208  54.469  1.00  0.00    -0.392 OA
ATOM     32  H   UNL     1      41.974  -6.486  54.107  1.00  0.00     0.210 HD
ENDBRANCH  25  31
BRANCH  18  33
ATOM     33  C   UNL     1      34.660  -6.110  58.685  1.00  0.00     0.165 C 
BRANCH  33  34
ATOM     34  O   UNL     1      33.380  -5.651  58.327  1.00  0.00    -0.396 OA
ATOM     35  H   UNL     1      33.445  -4.669  58.188  1.00  0.00     0.210 HD
ENDBRANCH  33  34
ENDBRANCH  18  33
BRANCH  17  36
ATOM     36  O   UNL     1      36.317  -6.874  60.687  1.00  0.00    -0.392 OA
ATOM     37  H   UNL     1      37.270  -7.060  60.899  1.00  0.00     0.210 HD
ENDBRANCH  17  36
TORSDOF 4
ENDMDL
MODEL 2
REMARK VINA RESULT:    -7.677      1.855      2.814
REMARK INTER + INTRA:          -8.864
REMARK INTER:                  -8.603
REMARK INTRA:                  -0.261
REMARK UNBOUND:                -0.064
REMARK SMILES CC1(C)CC[C@]23CO[C@@]4(C=C[C@H]5[C@]6(C)CC[C@H](O)[C@](C)(CO)[C@@H]6CC[C@]5(C)[C@]4(C)C[C@@H]2O)[C@H]3C1
REMARK SMILES IDX 1 1 2 2 4 3 5 4 6 5 7 6 8 7 9 8 33 9 34 10 10 11 11 12 12 13
REMARK SMILES IDX 13 14 15 15 16 16 17 17 19 18 23 19 24 20 25 21 26 22 28 23
REMARK SMILES IDX 30 24 31 25 29 26 27 27 20 28 14 29 3 30 32 31 21 33 22 34
REMARK SMILES IDX 18 36
REMARK H PARENT 32 32 22 35 18 37
REMARK Flexibility Score: inf
ROOT
ATOM      1  C   UNL     1      46.719  -7.259  57.211  1.00  0.00     0.011 C 
ATOM      2  C   UNL     1      45.440  -8.040  56.824  1.00  0.00    -0.035 C 
ATOM      3  C   UNL     1      45.234  -8.048  55.295  1.00  0.00     0.007 C 
ATOM      4  C   UNL     1      44.877  -6.665  54.735  1.00  0.00     0.013 C 
ATOM      5  C   UNL     1      43.725  -5.934  55.480  1.00  0.00     0.026 C 
ATOM      6  C   UNL     1      42.343  -6.585  55.267  1.00  0.00     0.171 C 
ATOM      7  O   UNL     1      41.571  -6.380  56.442  1.00  0.00    -0.369 OA
ATOM      8  C   UNL     1      42.362  -5.603  57.328  1.00  0.00     0.096 C 
ATOM      9  C   UNL     1      43.825  -6.003  56.994  1.00  0.00     0.037 C 
ATOM     10  C   UNL     1      44.196  -7.431  57.508  1.00  0.00     0.014 C 
ATOM     11  C   UNL     1      42.001  -5.896  58.782  1.00  0.00     0.005 C 
ATOM     12  C   UNL     1      40.858  -5.428  59.291  1.00  0.00    -0.024 C 
ATOM     13  C   UNL     1      39.832  -4.840  58.353  1.00  0.00     0.024 C 
ATOM     14  C   UNL     1      38.405  -4.538  58.967  1.00  0.00    -0.022 C 
ATOM     15  C   UNL     1      37.808  -5.896  59.492  1.00  0.00     0.010 C 
ATOM     16  C   UNL     1      37.020  -6.656  58.428  1.00  0.00     0.033 C 
ATOM     17  C   UNL     1      35.766  -5.896  57.953  1.00  0.00     0.123 C 
ATOM     18  C   UNL     1      35.924  -4.327  57.964  1.00  0.00     0.020 C 
ATOM     19  C   UNL     1      37.450  -3.892  57.850  1.00  0.00     0.006 C 
ATOM     20  C   UNL     1      37.996  -4.055  56.386  1.00  0.00     0.005 C 
ATOM     21  C   UNL     1      39.518  -3.844  56.121  1.00  0.00     0.008 C 
ATOM     22  C   UNL     1      40.444  -3.755  57.379  1.00  0.00    -0.017 C 
ATOM     23  C   UNL     1      42.039  -4.061  57.063  1.00  0.00     0.009 C 
ATOM     24  C   UNL     1      42.449  -3.678  55.592  1.00  0.00     0.043 C 
ATOM     25  C   UNL     1      43.704  -4.419  55.063  1.00  0.00     0.124 C 
ATOM     26  C   UNL     1      42.973  -3.202  58.000  1.00  0.00     0.015 C 
ATOM     27  C   UNL     1      40.303  -2.297  57.916  1.00  0.00     0.013 C 
ATOM     28  C   UNL     1      35.319  -3.743  59.279  1.00  0.00     0.017 C 
ATOM     29  C   UNL     1      38.542  -3.565  60.190  1.00  0.00     0.012 C 
ATOM     30  C   UNL     1      45.608  -9.497  57.304  1.00  0.00     0.011 C 
ENDROOT
BRANCH  25  31
ATOM     31  O   UNL     1      43.723  -4.292  53.659  1.00  0.00    -0.392 OA
ATOM     32  H   UNL     1      44.627  -4.562  53.344  1.00  0.00     0.210 HD
ENDBRANCH  25  31
BRANCH  18  33
ATOM     33  C   UNL     1      35.080  -3.682  56.807  1.00  0.00     0.165 C 
BRANCH  33  34
ATOM     34  O   UNL     1      33.704  -3.917  56.985  1.00  0.00    -0.396 OA
ATOM     35  H   UNL     1      33.585  -4.308  57.891  1.00  0.00     0.210 HD
ENDBRANCH  33  34
ENDBRANCH  18  33
BRANCH  17  36
ATOM     36  O   UNL     1      35.443  -6.362  56.666  1.00  0.00    -0.392 OA
ATOM     37  H   UNL     1      35.473  -7.355  56.695  1.00  0.00     0.210 HD
ENDBRANCH  17  36
TORSDOF 4
ENDMDL
MODEL 3
REMARK VINA RESULT:    -7.590     14.201     17.528
REMARK INTER + INTRA:          -8.764
REMARK INTER:                  -8.696
REMARK INTRA:                  -0.068
REMARK UNBOUND:                -0.064
REMARK SMILES CC1(C)CC[C@]23CO[C@@]4(C=C[C@H]5[C@]6(C)CC[C@H](O)[C@](C)(CO)[C@@H]6CC[C@]5(C)[C@]4(C)C[C@@H]2O)[C@H]3C1
REMARK SMILES IDX 1 1 2 2 4 3 5 4 6 5 7 6 8 7 9 8 33 9 34 10 10 11 11 12 12 13
REMARK SMILES IDX 13 14 15 15 16 16 17 17 19 18 23 19 24 20 25 21 26 22 28 23
REMARK SMILES IDX 30 24 31 25 29 26 27 27 20 28 14 29 3 30 32 31 21 33 22 34
REMARK SMILES IDX 18 36
REMARK H PARENT 32 32 22 35 18 37
REMARK Flexibility Score: inf
ROOT
ATOM      1  C   UNL     1      29.206 -15.488  64.716  1.00  0.00     0.011 C 
ATOM      2  C   UNL     1      30.559 -16.222  64.557  1.00  0.00    -0.035 C 
ATOM      3  C   UNL     1      30.509 -17.625  65.198  1.00  0.00     0.007 C 
ATOM      4  C   UNL     1      30.414 -17.578  66.729  1.00  0.00     0.013 C 
ATOM      5  C   UNL     1      31.452 -16.652  67.421  1.00  0.00     0.026 C 
ATOM      6  C   UNL     1      32.900 -17.179  67.339  1.00  0.00     0.171 C 
ATOM      7  O   UNL     1      33.777 -16.062  67.295  1.00  0.00    -0.369 OA
ATOM      8  C   UNL     1      32.972 -14.898  67.403  1.00  0.00     0.096 C 
ATOM      9  C   UNL     1      31.621 -15.299  66.750  1.00  0.00     0.037 C 
ATOM     10  C   UNL     1      31.707 -15.406  65.194  1.00  0.00     0.014 C 
ATOM     11  C   UNL     1      33.626 -13.715  66.694  1.00  0.00     0.005 C 
ATOM     12  C   UNL     1      34.683 -13.111  67.244  1.00  0.00    -0.024 C 
ATOM     13  C   UNL     1      35.363 -13.768  68.421  1.00  0.00     0.024 C 
ATOM     14  C   UNL     1      36.749 -13.151  68.870  1.00  0.00    -0.022 C 
ATOM     15  C   UNL     1      37.744 -13.264  67.655  1.00  0.00     0.010 C 
ATOM     16  C   UNL     1      38.512 -14.582  67.630  1.00  0.00     0.033 C 
ATOM     17  C   UNL     1      39.443 -14.758  68.847  1.00  0.00     0.123 C 
ATOM     18  C   UNL     1      38.902 -14.090  70.170  1.00  0.00     0.020 C 
ATOM     19  C   UNL     1      37.318 -13.943  70.145  1.00  0.00     0.006 C 
ATOM     20  C   UNL     1      36.599 -15.316  70.404  1.00  0.00     0.005 C 
ATOM     21  C   UNL     1      35.050 -15.398  70.242  1.00  0.00     0.008 C 
ATOM     22  C   UNL     1      34.349 -14.175  69.565  1.00  0.00    -0.017 C 
ATOM     23  C   UNL     1      32.852 -14.515  68.949  1.00  0.00     0.009 C 
ATOM     24  C   UNL     1      32.125 -15.675  69.728  1.00  0.00     0.043 C 
ATOM     25  C   UNL     1      31.026 -16.404  68.913  1.00  0.00     0.124 C 
ATOM     26  C   UNL     1      31.898 -13.264  69.066  1.00  0.00     0.015 C 
ATOM     27  C   UNL     1      34.207 -13.090  70.676  1.00  0.00     0.013 C 
ATOM     28  C   UNL     1      39.548 -12.681  70.354  1.00  0.00     0.017 C 
ATOM     29  C   UNL     1      36.574 -11.630  69.212  1.00  0.00     0.012 C 
ATOM     30  C   UNL     1      30.841 -16.382  63.048  1.00  0.00     0.011 C 
ENDROOT
BRANCH  25  31
ATOM     31  O   UNL     1      30.748 -17.626  69.558  1.00  0.00    -0.392 OA
ATOM     32  H   UNL     1      31.367 -18.310  69.187  1.00  0.00     0.210 HD
ENDBRANCH  25  31
BRANCH  18  33
ATOM     33  C   UNL     1      39.359 -14.914  71.427  1.00  0.00     0.165 C 
BRANCH  33  34
ATOM     34  O   UNL     1      40.387 -14.254  72.125  1.00  0.00    -0.396 OA
ATOM     35  H   UNL     1      40.011 -13.959  72.996  1.00  0.00     0.210 HD
ENDBRANCH  33  34
ENDBRANCH  18  33
BRANCH  17  36
ATOM     36  O   UNL     1      39.658 -16.136  69.029  1.00  0.00    -0.392 OA
ATOM     37  H   UNL     1      39.159 -16.407  69.845  1.00  0.00     0.210 HD
ENDBRANCH  17  36
TORSDOF 4
ENDMDL
MODEL 4
REMARK VINA RESULT:    -7.524      1.998      7.717
REMARK INTER + INTRA:          -8.689
REMARK INTER:                  -8.619
REMARK INTRA:                  -0.069
REMARK UNBOUND:                -0.064
REMARK SMILES CC1(C)CC[C@]23CO[C@@]4(C=C[C@H]5[C@]6(C)CC[C@H](O)[C@](C)(CO)[C@@H]6CC[C@]5(C)[C@]4(C)C[C@@H]2O)[C@H]3C1
REMARK SMILES IDX 1 1 2 2 4 3 5 4 6 5 7 6 8 7 9 8 33 9 34 10 10 11 11 12 12 13
REMARK SMILES IDX 13 14 15 15 16 16 17 17 19 18 23 19 24 20 25 21 26 22 28 23
REMARK SMILES IDX 30 24 31 25 29 26 27 27 20 28 14 29 3 30 32 31 21 33 22 34
REMARK SMILES IDX 18 36
REMARK H PARENT 32 32 22 35 18 37
REMARK Flexibility Score: inf
ROOT
ATOM      1  C   UNL     1      34.128  -4.024  62.065  1.00  0.00     0.011 C 
ATOM      2  C   UNL     1      35.384  -3.129  61.936  1.00  0.00    -0.035 C 
ATOM      3  C   UNL     1      35.089  -1.875  61.087  1.00  0.00     0.007 C 
ATOM      4  C   UNL     1      34.846  -2.200  59.607  1.00  0.00     0.013 C 
ATOM      5  C   UNL     1      35.919  -3.114  58.953  1.00  0.00     0.026 C 
ATOM      6  C   UNL     1      37.287  -2.425  58.771  1.00  0.00     0.171 C 
ATOM      7  O   UNL     1      38.301  -3.414  58.890  1.00  0.00    -0.369 OA
ATOM      8  C   UNL     1      37.646  -4.660  59.071  1.00  0.00     0.096 C 
ATOM      9  C   UNL     1      36.328  -4.301  59.809  1.00  0.00     0.037 C 
ATOM     10  C   UNL     1      36.556  -3.913  61.305  1.00  0.00     0.014 C 
ATOM     11  C   UNL     1      38.516  -5.621  59.877  1.00  0.00     0.005 C 
ATOM     12  C   UNL     1      39.581  -6.192  59.307  1.00  0.00    -0.024 C 
ATOM     13  C   UNL     1      40.047  -5.681  57.965  1.00  0.00     0.024 C 
ATOM     14  C   UNL     1      41.449  -6.212  57.457  1.00  0.00    -0.022 C 
ATOM     15  C   UNL     1      42.539  -5.778  58.507  1.00  0.00     0.010 C 
ATOM     16  C   UNL     1      43.130  -4.400  58.225  1.00  0.00     0.033 C 
ATOM     17  C   UNL     1      43.902  -4.340  56.891  1.00  0.00     0.123 C 
ATOM     18  C   UNL     1      43.320  -5.285  55.770  1.00  0.00     0.020 C 
ATOM     19  C   UNL     1      41.779  -5.599  56.011  1.00  0.00     0.006 C 
ATOM     20  C   UNL     1      40.867  -4.380  55.622  1.00  0.00     0.005 C 
ATOM     21  C   UNL     1      39.345  -4.441  55.956  1.00  0.00     0.008 C 
ATOM     22  C   UNL     1      38.879  -5.595  56.903  1.00  0.00    -0.017 C 
ATOM     23  C   UNL     1      37.420  -5.320  57.633  1.00  0.00     0.009 C 
ATOM     24  C   UNL     1      36.476  -4.401  56.770  1.00  0.00     0.043 C 
ATOM     25  C   UNL     1      35.380  -3.665  57.584  1.00  0.00     0.124 C 
ATOM     26  C   UNL     1      36.629  -6.668  57.838  1.00  0.00     0.015 C 
ATOM     27  C   UNL     1      38.766  -6.868  56.008  1.00  0.00     0.013 C 
ATOM     28  C   UNL     1      44.120  -6.624  55.739  1.00  0.00     0.017 C 
ATOM     29  C   UNL     1      41.438  -7.779  57.391  1.00  0.00     0.012 C 
ATOM     30  C   UNL     1      35.794  -2.677  63.354  1.00  0.00     0.011 C 
ENDROOT
BRANCH  25  31
ATOM     31  O   UNL     1      34.883  -2.613  56.788  1.00  0.00    -0.392 OA
ATOM     32  H   UNL     1      35.599  -2.354  56.150  1.00  0.00     0.210 HD
ENDBRANCH  25  31
BRANCH  18  33
ATOM     33  C   UNL     1      43.537  -4.650  54.350  1.00  0.00     0.165 C 
BRANCH  33  34
ATOM     34  O   UNL     1      43.847  -5.633  53.392  1.00  0.00    -0.396 OA
ATOM     35  H   UNL     1      44.832  -5.618  53.260  1.00  0.00     0.210 HD
ENDBRANCH  33  34
ENDBRANCH  18  33
BRANCH  17  36
ATOM     36  O   UNL     1      43.918  -3.000  56.463  1.00  0.00    -0.392 OA
ATOM     37  H   UNL     1      44.397  -2.974  55.593  1.00  0.00     0.210 HD
ENDBRANCH  17  36
TORSDOF 4
ENDMDL
MODEL 5
REMARK VINA RESULT:    -7.473     12.575     15.781
REMARK INTER + INTRA:          -8.630
REMARK INTER:                  -8.402
REMARK INTRA:                  -0.228
REMARK UNBOUND:                -0.064
REMARK SMILES CC1(C)CC[C@]23CO[C@@]4(C=C[C@H]5[C@]6(C)CC[C@H](O)[C@](C)(CO)[C@@H]6CC[C@]5(C)[C@]4(C)C[C@@H]2O)[C@H]3C1
REMARK SMILES IDX 1 1 2 2 4 3 5 4 6 5 7 6 8 7 9 8 33 9 34 10 10 11 11 12 12 13
REMARK SMILES IDX 13 14 15 15 16 16 17 17 19 18 23 19 24 20 25 21 26 22 28 23
REMARK SMILES IDX 30 24 31 25 29 26 27 27 20 28 14 29 3 30 32 31 21 33 22 34
REMARK SMILES IDX 18 36
REMARK H PARENT 32 32 22 35 18 37
REMARK Flexibility Score: inf
ROOT
ATOM      1  C   UNL     1      41.898 -11.545  68.006  1.00  0.00     0.011 C 
ATOM      2  C   UNL     1      40.635 -10.865  68.587  1.00  0.00    -0.035 C 
ATOM      3  C   UNL     1      40.697 -10.801  70.127  1.00  0.00     0.007 C 
ATOM      4  C   UNL     1      40.578 -12.182  70.786  1.00  0.00     0.013 C 
ATOM      5  C   UNL     1      39.391 -13.049  70.280  1.00  0.00     0.026 C 
ATOM      6  C   UNL     1      38.010 -12.515  70.712  1.00  0.00     0.171 C 
ATOM      7  O   UNL     1      37.070 -12.846  69.699  1.00  0.00    -0.369 OA
ATOM      8  C   UNL     1      37.768 -13.591  68.713  1.00  0.00     0.096 C 
ATOM      9  C   UNL     1      39.221 -13.044  68.770  1.00  0.00     0.037 C 
ATOM     10  C   UNL     1      39.356 -11.616  68.154  1.00  0.00     0.014 C 
ATOM     11  C   UNL     1      37.134 -13.402  67.337  1.00  0.00     0.005 C 
ATOM     12  C   UNL     1      35.972 -13.996  67.052  1.00  0.00    -0.024 C 
ATOM     13  C   UNL     1      35.185 -14.628  68.176  1.00  0.00     0.024 C 
ATOM     14  C   UNL     1      33.711 -15.087  67.833  1.00  0.00    -0.022 C 
ATOM     15  C   UNL     1      32.902 -13.815  67.379  1.00  0.00     0.010 C 
ATOM     16  C   UNL     1      32.240 -13.078  68.540  1.00  0.00     0.033 C 
ATOM     17  C   UNL     1      31.166 -13.925  69.253  1.00  0.00     0.123 C 
ATOM     18  C   UNL     1      31.472 -15.472  69.264  1.00  0.00     0.020 C 
ATOM     19  C   UNL     1      33.030 -15.761  69.121  1.00  0.00     0.006 C 
ATOM     20  C   UNL     1      33.802 -15.479  70.460  1.00  0.00     0.005 C 
ATOM     21  C   UNL     1      35.361 -15.539  70.458  1.00  0.00     0.008 C 
ATOM     22  C   UNL     1      36.060 -15.604  69.061  1.00  0.00    -0.017 C 
ATOM     23  C   UNL     1      37.647 -15.141  69.080  1.00  0.00     0.009 C 
ATOM     24  C   UNL     1      38.341 -15.414  70.467  1.00  0.00     0.043 C 
ATOM     25  C   UNL     1      39.590 -14.538  70.742  1.00  0.00     0.124 C 
ATOM     26  C   UNL     1      38.485 -15.957  68.021  1.00  0.00     0.015 C 
ATOM     27  C   UNL     1      35.970 -17.094  68.604  1.00  0.00     0.013 C 
ATOM     28  C   UNL     1      30.709 -16.171  68.096  1.00  0.00     0.017 C 
ATOM     29  C   UNL     1      33.728 -16.102  66.637  1.00  0.00     0.012 C 
ATOM     30  C   UNL     1      40.575  -9.423  68.039  1.00  0.00     0.011 C 
ENDROOT
BRANCH  25  31
ATOM     31  O   UNL     1      39.863 -14.594  72.124  1.00  0.00    -0.392 OA
ATOM     32  H   UNL     1      39.373 -15.375  72.496  1.00  0.00     0.210 HD
ENDBRANCH  25  31
BRANCH  18  33
ATOM     33  C   UNL     1      30.907 -16.134  70.572  1.00  0.00     0.165 C 
BRANCH  33  34
ATOM     34  O   UNL     1      29.595 -15.703  70.837  1.00  0.00    -0.396 OA
ATOM     35  H   UNL     1      29.111 -16.463  71.255  1.00  0.00     0.210 HD
ENDBRANCH  33  34
ENDBRANCH  18  33
BRANCH  17  36
ATOM     36  O   UNL     1      31.027 -13.428  70.562  1.00  0.00    -0.392 OA
ATOM     37  H   UNL     1      31.716 -13.875  71.121  1.00  0.00     0.210 HD
ENDBRANCH  17  36
TORSDOF 4
ENDMDL
MODEL 6
REMARK VINA RESULT:    -7.356      2.221      7.867
REMARK INTER + INTRA:          -8.495
REMARK INTER:                  -8.229
REMARK INTRA:                  -0.267
REMARK UNBOUND:                -0.064
REMARK SMILES CC1(C)CC[C@]23CO[C@@]4(C=C[C@H]5[C@]6(C)CC[C@H](O)[C@](C)(CO)[C@@H]6CC[C@]5(C)[C@]4(C)C[C@@H]2O)[C@H]3C1
REMARK SMILES IDX 1 1 2 2 4 3 5 4 6 5 7 6 8 7 9 8 33 9 34 10 10 11 11 12 12 13
REMARK SMILES IDX 13 14 15 15 16 16 17 17 19 18 23 19 24 20 25 21 26 22 28 23
REMARK SMILES IDX 30 24 31 25 29 26 27 27 20 28 14 29 3 30 32 31 21 33 22 34
REMARK SMILES IDX 18 36
REMARK H PARENT 32 32 22 35 18 37
REMARK Flexibility Score: inf
ROOT
ATOM      1  C   UNL     1      34.590  -4.271  59.325  1.00  0.00     0.011 C 
ATOM      2  C   UNL     1      35.527  -3.289  58.581  1.00  0.00    -0.035 C 
ATOM      3  C   UNL     1      35.222  -3.267  57.069  1.00  0.00     0.007 C 
ATOM      4  C   UNL     1      35.601  -4.577  56.365  1.00  0.00     0.013 C 
ATOM      5  C   UNL     1      37.036  -5.091  56.668  1.00  0.00     0.026 C 
ATOM      6  C   UNL     1      38.147  -4.218  56.050  1.00  0.00     0.171 C 
ATOM      7  O   UNL     1      39.282  -4.273  56.904  1.00  0.00    -0.369 OA
ATOM      8  C   UNL     1      38.961  -5.161  57.963  1.00  0.00     0.096 C 
ATOM      9  C   UNL     1      37.423  -5.019  58.135  1.00  0.00     0.037 C 
ATOM     10  C   UNL     1      37.009  -3.669  58.801  1.00  0.00     0.014 C 
ATOM     11  C   UNL     1      39.720  -4.791  59.235  1.00  0.00     0.005 C 
ATOM     12  C   UNL     1      41.027  -5.051  59.329  1.00  0.00    -0.024 C 
ATOM     13  C   UNL     1      41.775  -5.469  58.086  1.00  0.00     0.024 C 
ATOM     14  C   UNL     1      43.353  -5.517  58.195  1.00  0.00    -0.022 C 
ATOM     15  C   UNL     1      43.855  -4.069  58.557  1.00  0.00     0.010 C 
ATOM     16  C   UNL     1      44.119  -3.201  57.330  1.00  0.00     0.033 C 
ATOM     17  C   UNL     1      45.259  -3.744  56.445  1.00  0.00     0.123 C 
ATOM     18  C   UNL     1      45.374  -5.317  56.439  1.00  0.00     0.020 C 
ATOM     19  C   UNL     1      43.987  -6.006  56.804  1.00  0.00     0.006 C 
ATOM     20  C   UNL     1      42.977  -5.958  55.602  1.00  0.00     0.005 C 
ATOM     21  C   UNL     1      41.508  -6.428  55.833  1.00  0.00     0.008 C 
ATOM     22  C   UNL     1      41.067  -6.656  57.316  1.00  0.00    -0.017 C 
ATOM     23  C   UNL     1      39.429  -6.630  57.544  1.00  0.00     0.009 C 
ATOM     24  C   UNL     1      38.634  -7.096  56.267  1.00  0.00     0.043 C 
ATOM     25  C   UNL     1      37.171  -6.586  56.202  1.00  0.00     0.124 C 
ATOM     26  C   UNL     1      39.004  -7.622  58.694  1.00  0.00     0.015 C 
ATOM     27  C   UNL     1      41.614  -8.061  57.717  1.00  0.00     0.013 C 
ATOM     28  C   UNL     1      46.460  -5.772  57.464  1.00  0.00     0.017 C 
ATOM     29  C   UNL     1      43.782  -6.482  59.355  1.00  0.00     0.012 C 
ATOM     30  C   UNL     1      35.286  -1.875  59.151  1.00  0.00     0.011 C 
ENDROOT
BRANCH  25  31
ATOM     31  O   UNL     1      36.719  -6.734  54.875  1.00  0.00    -0.392 OA
ATOM     32  H   UNL     1      36.321  -7.641  54.792  1.00  0.00     0.210 HD
ENDBRANCH  25  31
BRANCH  18  33
ATOM     33  C   UNL     1      45.892  -5.825  55.046  1.00  0.00     0.165 C 
BRANCH  33  34
ATOM     34  O   UNL     1      47.160  -5.295  54.748  1.00  0.00    -0.396 OA
ATOM     35  H   UNL     1      47.368  -5.535  53.806  1.00  0.00     0.210 HD
ENDBRANCH  33  34
ENDBRANCH  18  33
BRANCH  17  36
ATOM     36  O   UNL     1      45.065  -3.248  55.143  1.00  0.00    -0.392 OA
ATOM     37  H   UNL     1      44.455  -2.466  55.213  1.00  0.00     0.210 HD
ENDBRANCH  17  36
TORSDOF 4
ENDMDL
MODEL 7
REMARK VINA RESULT:    -7.264     12.951     16.544
REMARK INTER + INTRA:          -8.390
REMARK INTER:                  -8.307
REMARK INTRA:                  -0.083
REMARK UNBOUND:                -0.064
REMARK SMILES CC1(C)CC[C@]23CO[C@@]4(C=C[C@H]5[C@]6(C)CC[C@H](O)[C@](C)(CO)[C@@H]6CC[C@]5(C)[C@]4(C)C[C@@H]2O)[C@H]3C1
REMARK SMILES IDX 1 1 2 2 4 3 5 4 6 5 7 6 8 7 9 8 33 9 34 10 10 11 11 12 12 13
REMARK SMILES IDX 13 14 15 15 16 16 17 17 19 18 23 19 24 20 25 21 26 22 28 23
REMARK SMILES IDX 30 24 31 25 29 26 27 27 20 28 14 29 3 30 32 31 21 33 22 34
REMARK SMILES IDX 18 36
REMARK H PARENT 32 32 22 35 18 37
REMARK Flexibility Score: inf
ROOT
ATOM      1  C   UNL     1      32.373 -14.434  67.027  1.00  0.00     0.011 C 
ATOM      2  C   UNL     1      33.578 -14.941  66.200  1.00  0.00    -0.035 C 
ATOM      3  C   UNL     1      33.776 -16.460  66.379  1.00  0.00     0.007 C 
ATOM      4  C   UNL     1      34.248 -16.838  67.789  1.00  0.00     0.013 C 
ATOM      5  C   UNL     1      35.462 -16.021  68.314  1.00  0.00     0.026 C 
ATOM      6  C   UNL     1      36.782 -16.341  67.582  1.00  0.00     0.171 C 
ATOM      7  O   UNL     1      37.574 -15.161  67.562  1.00  0.00    -0.369 OA
ATOM      8  C   UNL     1      36.857 -14.167  68.278  1.00  0.00     0.096 C 
ATOM      9  C   UNL     1      35.364 -14.528  68.051  1.00  0.00     0.037 C 
ATOM     10  C   UNL     1      34.874 -14.202  66.604  1.00  0.00     0.014 C 
ATOM     11  C   UNL     1      37.198 -12.771  67.764  1.00  0.00     0.005 C 
ATOM     12  C   UNL     1      38.379 -12.222  68.061  1.00  0.00    -0.024 C 
ATOM     13  C   UNL     1      39.448 -13.091  68.680  1.00  0.00     0.024 C 
ATOM     14  C   UNL     1      40.898 -12.465  68.776  1.00  0.00    -0.022 C 
ATOM     15  C   UNL     1      41.378 -12.134  67.314  1.00  0.00     0.010 C 
ATOM     16  C   UNL     1      42.093 -13.302  66.639  1.00  0.00     0.033 C 
ATOM     17  C   UNL     1      43.406 -13.692  67.347  1.00  0.00     0.123 C 
ATOM     18  C   UNL     1      43.384 -13.470  68.909  1.00  0.00     0.020 C 
ATOM     19  C   UNL     1      41.900 -13.501  69.482  1.00  0.00     0.006 C 
ATOM     20  C   UNL     1      41.335 -14.965  69.563  1.00  0.00     0.005 C 
ATOM     21  C   UNL     1      39.836 -15.175  69.936  1.00  0.00     0.008 C 
ATOM     22  C   UNL     1      38.926 -13.903  69.934  1.00  0.00    -0.017 C 
ATOM     23  C   UNL     1      37.310 -14.230  69.809  1.00  0.00     0.009 C 
ATOM     24  C   UNL     1      36.928 -15.631  70.418  1.00  0.00     0.043 C 
ATOM     25  C   UNL     1      35.611 -16.234  69.863  1.00  0.00     0.124 C 
ATOM     26  C   UNL     1      36.457 -13.173  70.611  1.00  0.00     0.015 C 
ATOM     27  C   UNL     1      39.195 -13.179  71.290  1.00  0.00     0.013 C 
ATOM     28  C   UNL     1      44.043 -12.099  69.258  1.00  0.00     0.017 C 
ATOM     29  C   UNL     1      40.850 -11.122  69.585  1.00  0.00     0.012 C 
ATOM     30  C   UNL     1      33.288 -14.656  64.711  1.00  0.00     0.011 C 
ENDROOT
BRANCH  25  31
ATOM     31  O   UNL     1      35.597 -17.608  70.178  1.00  0.00    -0.392 OA
ATOM     32  H   UNL     1      35.692 -17.692  71.164  1.00  0.00     0.210 HD
ENDBRANCH  25  31
BRANCH  18  33
ATOM     33  C   UNL     1      44.275 -14.544  69.629  1.00  0.00     0.165 C 
BRANCH  33  34
ATOM     34  O   UNL     1      44.680 -14.103  70.901  1.00  0.00    -0.396 OA
ATOM     35  H   UNL     1      43.918 -14.248  71.522  1.00  0.00     0.210 HD
ENDBRANCH  33  34
ENDBRANCH  18  33
BRANCH  17  36
ATOM     36  O   UNL     1      43.682 -15.035  67.032  1.00  0.00    -0.392 OA
ATOM     37  H   UNL     1      44.670 -15.126  66.970  1.00  0.00     0.210 HD
ENDBRANCH  17  36
TORSDOF 4
ENDMDL
MODEL 8
REMARK VINA RESULT:    -7.233     13.607     17.268
REMARK INTER + INTRA:          -8.355
REMARK INTER:                  -8.093
REMARK INTRA:                  -0.261
REMARK UNBOUND:                -0.064
REMARK SMILES CC1(C)CC[C@]23CO[C@@]4(C=C[C@H]5[C@]6(C)CC[C@H](O)[C@](C)(CO)[C@@H]6CC[C@]5(C)[C@]4(C)C[C@@H]2O)[C@H]3C1
REMARK SMILES IDX 1 1 2 2 4 3 5 4 6 5 7 6 8 7 9 8 33 9 34 10 10 11 11 12 12 13
REMARK SMILES IDX 13 14 15 15 16 16 17 17 19 18 23 19 24 20 25 21 26 22 28 23
REMARK SMILES IDX 30 24 31 25 29 26 27 27 20 28 14 29 3 30 32 31 21 33 22 34
REMARK SMILES IDX 18 36
REMARK H PARENT 32 32 22 35 18 37
REMARK Flexibility Score: inf
ROOT
ATOM      1  C   UNL     1      30.313 -15.450  66.497  1.00  0.00     0.011 C 
ATOM      2  C   UNL     1      31.607 -16.162  66.033  1.00  0.00    -0.035 C 
ATOM      3  C   UNL     1      31.744 -17.550  66.691  1.00  0.00     0.007 C 
ATOM      4  C   UNL     1      32.015 -17.471  68.199  1.00  0.00     0.013 C 
ATOM      5  C   UNL     1      33.167 -16.510  68.607  1.00  0.00     0.026 C 
ATOM      6  C   UNL     1      34.565 -17.011  68.191  1.00  0.00     0.171 C 
ATOM      7  O   UNL     1      35.380 -15.879  67.919  1.00  0.00    -0.369 OA
ATOM      8  C   UNL     1      34.596 -14.728  68.196  1.00  0.00     0.096 C 
ATOM      9  C   UNL     1      33.138 -15.170  67.892  1.00  0.00     0.037 C 
ATOM     10  C   UNL     1      32.853 -15.310  66.363  1.00  0.00     0.014 C 
ATOM     11  C   UNL     1      35.034 -13.549  67.331  1.00  0.00     0.005 C 
ATOM     12  C   UNL     1      36.177 -12.913  67.602  1.00  0.00    -0.024 C 
ATOM     13  C   UNL     1      37.134 -13.531  68.594  1.00  0.00     0.024 C 
ATOM     14  C   UNL     1      38.572 -12.878  68.688  1.00  0.00    -0.022 C 
ATOM     15  C   UNL     1      39.250 -13.000  67.272  1.00  0.00     0.010 C 
ATOM     16  C   UNL     1      40.022 -14.303  67.087  1.00  0.00     0.033 C 
ATOM     17  C   UNL     1      41.220 -14.433  68.050  1.00  0.00     0.123 C 
ATOM     18  C   UNL     1      40.995 -13.747  69.452  1.00  0.00     0.020 C 
ATOM     19  C   UNL     1      39.447 -13.630  69.803  1.00  0.00     0.006 C 
ATOM     20  C   UNL     1      38.844 -15.010  70.250  1.00  0.00     0.005 C 
ATOM     21  C   UNL     1      37.303 -15.125  70.464  1.00  0.00     0.008 C 
ATOM     22  C   UNL     1      36.431 -13.931  69.953  1.00  0.00    -0.017 C 
ATOM     23  C   UNL     1      34.839 -14.313  69.719  1.00  0.00     0.009 C 
ATOM     24  C   UNL     1      34.348 -15.468  70.669  1.00  0.00     0.043 C 
ATOM     25  C   UNL     1      33.104 -16.237  70.153  1.00  0.00     0.124 C 
ATOM     26  C   UNL     1      33.911 -13.078  70.039  1.00  0.00     0.015 C 
ATOM     27  C   UNL     1      36.533 -12.824  71.048  1.00  0.00     0.013 C 
ATOM     28  C   UNL     1      41.632 -12.322  69.452  1.00  0.00     0.017 C 
ATOM     29  C   UNL     1      38.447 -11.353  69.035  1.00  0.00     0.012 C 
ATOM     30  C   UNL     1      31.524 -16.350  64.503  1.00  0.00     0.011 C 
ENDROOT
BRANCH  25  31
ATOM     31  O   UNL     1      33.016 -17.449  70.867  1.00  0.00    -0.392 OA
ATOM     32  H   UNL     1      32.121 -17.480  71.299  1.00  0.00     0.210 HD
ENDBRANCH  25  31
BRANCH  18  33
ATOM     33  C   UNL     1      41.757 -14.533  70.577  1.00  0.00     0.165 C 
BRANCH  33  34
ATOM     34  O   UNL     1      43.148 -14.507  70.367  1.00  0.00    -0.396 OA
ATOM     35  H   UNL     1      43.306 -14.694  69.404  1.00  0.00     0.210 HD
ENDBRANCH  33  34
ENDBRANCH  18  33
BRANCH  17  36
ATOM     36  O   UNL     1      41.505 -15.803  68.199  1.00  0.00    -0.392 OA
ATOM     37  H   UNL     1      41.894 -15.926  69.105  1.00  0.00     0.210 HD
ENDBRANCH  17  36
TORSDOF 4
ENDMDL
MODEL 9
REMARK VINA RESULT:    -7.153     13.140     16.583
REMARK INTER + INTRA:          -8.263
REMARK INTER:                  -8.017
REMARK INTRA:                  -0.246
REMARK UNBOUND:                -0.064
REMARK SMILES CC1(C)CC[C@]23CO[C@@]4(C=C[C@H]5[C@]6(C)CC[C@H](O)[C@](C)(CO)[C@@H]6CC[C@]5(C)[C@]4(C)C[C@@H]2O)[C@H]3C1
REMARK SMILES IDX 1 1 2 2 4 3 5 4 6 5 7 6 8 7 9 8 33 9 34 10 10 11 11 12 12 13
REMARK SMILES IDX 13 14 15 15 16 16 17 17 19 18 23 19 24 20 25 21 26 22 28 23
REMARK SMILES IDX 30 24 31 25 29 26 27 27 20 28 14 29 3 30 32 31 21 33 22 34
REMARK SMILES IDX 18 36
REMARK H PARENT 32 32 22 35 18 37
REMARK Flexibility Score: inf
ROOT
ATOM      1  C   UNL     1      31.431 -14.996  58.181  1.00  0.00     0.011 C 
ATOM      2  C   UNL     1      32.706 -15.428  58.944  1.00  0.00    -0.035 C 
ATOM      3  C   UNL     1      32.933 -16.949  58.831  1.00  0.00     0.007 C 
ATOM      4  C   UNL     1      31.881 -17.767  59.593  1.00  0.00     0.013 C 
ATOM      5  C   UNL     1      31.638 -17.316  61.060  1.00  0.00     0.026 C 
ATOM      6  C   UNL     1      32.824 -17.614  62.001  1.00  0.00     0.171 C 
ATOM      7  O   UNL     1      32.860 -16.605  63.002  1.00  0.00    -0.369 OA
ATOM      8  C   UNL     1      31.748 -15.753  62.772  1.00  0.00     0.096 C 
ATOM      9  C   UNL     1      31.527 -15.811  61.235  1.00  0.00     0.037 C 
ATOM     10  C   UNL     1      32.617 -15.030  60.435  1.00  0.00     0.014 C 
ATOM     11  C   UNL     1      32.038 -14.336  63.259  1.00  0.00     0.005 C 
ATOM     12  C   UNL     1      32.049 -14.072  64.569  1.00  0.00    -0.024 C 
ATOM     13  C   UNL     1      32.029 -15.226  65.542  1.00  0.00     0.024 C 
ATOM     14  C   UNL     1      32.299 -14.873  67.060  1.00  0.00    -0.022 C 
ATOM     15  C   UNL     1      33.732 -14.227  67.158  1.00  0.00     0.010 C 
ATOM     16  C   UNL     1      34.841 -15.255  67.358  1.00  0.00     0.033 C 
ATOM     17  C   UNL     1      34.721 -16.016  68.694  1.00  0.00     0.123 C 
ATOM     18  C   UNL     1      33.236 -16.233  69.178  1.00  0.00     0.020 C 
ATOM     19  C   UNL     1      32.213 -16.200  67.959  1.00  0.00     0.006 C 
ATOM     20  C   UNL     1      32.260 -17.529  67.122  1.00  0.00     0.005 C 
ATOM     21  C   UNL     1      31.455 -17.609  65.789  1.00  0.00     0.008 C 
ATOM     22  C   UNL     1      30.877 -16.265  65.235  1.00  0.00    -0.017 C 
ATOM     23  C   UNL     1      30.513 -16.302  63.622  1.00  0.00     0.009 C 
ATOM     24  C   UNL     1      30.123 -17.744  63.123  1.00  0.00     0.043 C 
ATOM     25  C   UNL     1      30.314 -17.968  61.601  1.00  0.00     0.124 C 
ATOM     26  C   UNL     1      29.263 -15.393  63.306  1.00  0.00     0.015 C 
ATOM     27  C   UNL     1      29.571 -15.992  66.045  1.00  0.00     0.013 C 
ATOM     28  C   UNL     1      32.847 -15.125  70.206  1.00  0.00     0.017 C 
ATOM     29  C   UNL     1      31.256 -13.813  67.560  1.00  0.00     0.012 C 
ATOM     30  C   UNL     1      33.911 -14.703  58.307  1.00  0.00     0.011 C 
ENDROOT
BRANCH  25  31
ATOM     31  O   UNL     1      30.314 -19.357  61.363  1.00  0.00    -0.392 OA
ATOM     32  H   UNL     1      29.393 -19.692  61.535  1.00  0.00     0.210 HD
ENDBRANCH  25  31
BRANCH  18  33
ATOM     33  C   UNL     1      33.107 -17.584  69.968  1.00  0.00     0.165 C 
BRANCH  33  34
ATOM     34  O   UNL     1      34.107 -17.699  70.951  1.00  0.00    -0.396 OA
ATOM     35  H   UNL     1      34.416 -18.643  70.951  1.00  0.00     0.210 HD
ENDBRANCH  33  34
ENDBRANCH  18  33
BRANCH  17  36
ATOM     36  O   UNL     1      35.389 -17.245  68.551  1.00  0.00    -0.392 OA
ATOM     37  H   UNL     1      36.294 -17.138  68.950  1.00  0.00     0.210 HD
ENDBRANCH  17  36
TORSDOF 4
ENDMDL
