MODEL 1
REMARK VINA RESULT:    -3.696      0.000      0.000
REMARK INTER + INTRA:          -3.810
REMARK INTER:                  -4.344
REMARK INTRA:                   0.534
REMARK UNBOUND:                 0.534
REMARK SMILES O=c1c(O)c(-c2ccc(O)cc2)oc2cc(O)cc(O)c12
REMARK SMILES IDX 5 1 3 2 2 3 1 4 21 5 19 6 18 7 16 8 15 9 14 10 13 11 6 12
REMARK SMILES IDX 7 13 8 14 9 15 12 16 11 17 10 18 4 20 20 22 17 24
REMARK H PARENT 10 19 4 21 20 23 17 25
REMARK Flexibility Score: inf
ROOT
ATOM      1  C   UNL     1      -5.694  -4.130  -9.834  1.00  0.00     0.180 A 
ATOM      2  C   UNL     1      -7.091  -4.002  -9.959  1.00  0.00     0.208 A 
ATOM      3  C   UNL     1      -7.877  -5.164 -10.002  1.00  0.00     0.238 A 
ATOM      4  O   UNL     1      -9.128  -5.063 -10.125  1.00  0.00    -0.285 OA
ATOM      5  C   UNL     1      -7.259  -6.428  -9.899  1.00  0.00     0.111 A 
ATOM      6  C   UNL     1      -7.980  -7.646  -9.930  1.00  0.00     0.134 A 
ATOM      7  C   UNL     1      -7.292  -8.864  -9.812  1.00  0.00     0.093 A 
ATOM      8  C   UNL     1      -5.903  -8.887  -9.664  1.00  0.00     0.123 A 
ATOM      9  C   UNL     1      -5.187  -7.686  -9.634  1.00  0.00     0.094 A 
ATOM     10  C   UNL     1      -5.853  -6.462  -9.751  1.00  0.00     0.146 A 
ATOM     11  O   UNL     1      -5.147  -5.337  -9.725  1.00  0.00    -0.452 OA
ENDROOT
BRANCH   1  12
ATOM     12  C   UNL     1      -4.796  -2.952  -9.800  1.00  0.00     0.021 A 
ATOM     13  C   UNL     1      -5.305  -1.684 -10.125  1.00  0.00     0.016 A 
ATOM     14  C   UNL     1      -4.481  -0.556 -10.077  1.00  0.00     0.047 A 
ATOM     15  C   UNL     1      -3.143  -0.678  -9.691  1.00  0.00     0.115 A 
ATOM     16  C   UNL     1      -3.453  -3.066  -9.392  1.00  0.00     0.016 A 
ATOM     17  C   UNL     1      -2.632  -1.936  -9.345  1.00  0.00     0.047 A 
BRANCH  15  18
ATOM     18  O   UNL     1      -2.332   0.454  -9.648  1.00  0.00    -0.508 OA
ATOM     19  H   UNL     1      -1.429   0.442  -9.189  1.00  0.00     0.293 HD
ENDBRANCH  15  18
ENDBRANCH   1  12
BRANCH   2  20
ATOM     20  O   UNL     1      -7.683  -2.738 -10.009  1.00  0.00    -0.502 OA
ATOM     21  H   UNL     1      -7.221  -1.907  -9.658  1.00  0.00     0.293 HD
ENDBRANCH   2  20
BRANCH   6  22
ATOM     22  O   UNL     1      -9.367  -7.657 -10.074  1.00  0.00    -0.507 OA
ATOM     23  H   UNL     1      -9.816  -8.077 -10.880  1.00  0.00     0.293 HD
ENDBRANCH   6  22
BRANCH   8  24
ATOM     24  O   UNL     1      -5.245 -10.109  -9.549  1.00  0.00    -0.508 OA
ATOM     25  H   UNL     1      -4.877 -10.431  -8.661  1.00  0.00     0.293 HD
ENDBRANCH   8  24
TORSDOF 5
ENDMDL
MODEL 2
REMARK VINA RESULT:    -1.885      1.957      3.148
REMARK INTER + INTRA:          -1.682
REMARK INTER:                  -2.255
REMARK INTRA:                   0.573
REMARK UNBOUND:                 0.534
REMARK SMILES O=c1c(O)c(-c2ccc(O)cc2)oc2cc(O)cc(O)c12
REMARK SMILES IDX 5 1 3 2 2 3 1 4 21 5 19 6 18 7 16 8 15 9 14 10 13 11 6 12
REMARK SMILES IDX 7 13 8 14 9 15 12 16 11 17 10 18 4 20 20 22 17 24
REMARK H PARENT 10 19 4 21 20 23 17 25
REMARK Flexibility Score: inf
ROOT
ATOM      1  C   UNL     1      -4.938  -1.250 -10.049  1.00  0.00     0.180 A 
ATOM      2  C   UNL     1      -6.262  -0.776  -9.967  1.00  0.00     0.208 A 
ATOM      3  C   UNL     1      -7.315  -1.704  -9.948  1.00  0.00     0.238 A 
ATOM      4  O   UNL     1      -8.505  -1.292  -9.887  1.00  0.00    -0.285 OA
ATOM      5  C   UNL     1      -7.028  -3.085  -9.990  1.00  0.00     0.111 A 
ATOM      6  C   UNL     1      -8.030  -4.085  -9.972  1.00  0.00     0.134 A 
ATOM      7  C   UNL     1      -7.662  -5.438 -10.008  1.00  0.00     0.093 A 
ATOM      8  C   UNL     1      -6.317  -5.811 -10.060  1.00  0.00     0.123 A 
ATOM      9  C   UNL     1      -5.323  -4.827 -10.080  1.00  0.00     0.094 A 
ATOM     10  C   UNL     1      -5.668  -3.473 -10.047  1.00  0.00     0.146 A 
ATOM     11  O   UNL     1      -4.705  -2.559 -10.071  1.00  0.00    -0.452 OA
ENDROOT
BRANCH   1  12
ATOM     12  C   UNL     1      -3.775  -0.334 -10.091  1.00  0.00     0.021 A 
ATOM     13  C   UNL     1      -3.987   1.055 -10.064  1.00  0.00     0.016 A 
ATOM     14  C   UNL     1      -2.903   1.937 -10.080  1.00  0.00     0.047 A 
ATOM     15  C   UNL     1      -1.595   1.445 -10.108  1.00  0.00     0.115 A 
ATOM     16  C   UNL     1      -2.456  -0.824 -10.099  1.00  0.00     0.016 A 
ATOM     17  C   UNL     1      -1.374   0.062 -10.114  1.00  0.00     0.047 A 
BRANCH  15  18
ATOM     18  O   UNL     1      -0.524   2.336 -10.124  1.00  0.00    -0.508 OA
ATOM     19  H   UNL     1      -0.564   3.221  -9.632  1.00  0.00     0.293 HD
ENDBRANCH  15  18
ENDBRANCH   1  12
BRANCH   2  20
ATOM     20  O   UNL     1      -6.517   0.594  -9.877  1.00  0.00    -0.502 OA
ATOM     21  H   UNL     1      -6.146   1.168  -9.129  1.00  0.00     0.293 HD
ENDBRANCH   2  20
BRANCH   6  22
ATOM     22  O   UNL     1      -9.382  -3.746  -9.918  1.00  0.00    -0.507 OA
ATOM     23  H   UNL     1      -9.688  -2.782  -9.864  1.00  0.00     0.293 HD
ENDBRANCH   6  22
BRANCH   8  24
ATOM     24  O   UNL     1      -5.979  -7.162 -10.094  1.00  0.00    -0.508 OA
ATOM     25  H   UNL     1      -6.184  -7.740 -10.901  1.00  0.00     0.293 HD
ENDBRANCH   8  24
TORSDOF 5
ENDMDL
