MODEL 1
REMARK VINA RESULT:    -4.267      0.000      0.000
REMARK INTER + INTRA:         -11.513
REMARK INTER:                  -9.257
REMARK INTRA:                  -2.257
REMARK UNBOUND:                -2.257
REMARK SMILES CCCCCCCCCCCCCCCCCCCCCC(=O)[O-]
REMARK SMILES IDX 12 1 11 2 10 3 9 4 8 5 7 6 6 7 5 8 4 9 3 10 2 11 1 12 13 13
REMARK SMILES IDX 14 14 15 15 16 16 17 17 18 18 19 19 20 20 21 21 22 22 23 23
REMARK SMILES IDX 24 24
REMARK H PARENT
REMARK Flexibility Score: inf
ROOT
ATOM      1  C   UNL     1     -42.618  28.573   0.138  1.00  0.00     0.000 C 
ENDROOT
BRANCH   1   2
ATOM      2  C   UNL     1     -43.411  29.856   0.436  1.00  0.00     0.000 C 
BRANCH   2   3
ATOM      3  C   UNL     1     -44.877  29.764  -0.023  1.00  0.00     0.000 C 
BRANCH   3   4
ATOM      4  C   UNL     1     -45.038  28.945  -1.313  1.00  0.00    -0.000 C 
BRANCH   4   5
ATOM      5  C   UNL     1     -45.941  27.717  -1.122  1.00  0.00    -0.000 C 
BRANCH   5   6
ATOM      6  C   UNL     1     -45.176  26.422  -1.413  1.00  0.00    -0.000 C 
BRANCH   6   7
ATOM      7  C   UNL     1     -45.930  25.551  -2.423  1.00  0.00    -0.000 C 
BRANCH   7   8
ATOM      8  C   UNL     1     -46.878  26.401  -3.281  1.00  0.00    -0.000 C 
BRANCH   8   9
ATOM      9  C   UNL     1     -46.390  26.566  -4.731  1.00  0.00    -0.000 C 
BRANCH   9  10
ATOM     10  C   UNL     1     -46.045  28.009  -5.142  1.00  0.00    -0.000 C 
BRANCH  10  11
ATOM     11  C   UNL     1     -45.755  28.153  -6.643  1.00  0.00    -0.003 C 
ATOM     12  C   UNL     1     -45.448  26.798  -7.276  1.00  0.00     0.004 C 
ENDBRANCH  10  11
ENDBRANCH   9  10
ENDBRANCH   8   9
ENDBRANCH   7   8
ENDBRANCH   6   7
ENDBRANCH   5   6
ENDBRANCH   4   5
ENDBRANCH   3   4
ENDBRANCH   2   3
ENDBRANCH   1   2
BRANCH   1  13
ATOM     13  C   UNL     1     -42.823  27.490   1.213  1.00  0.00     0.000 C 
BRANCH  13  14
ATOM     14  C   UNL     1     -43.348  28.072   2.543  1.00  0.00     0.000 C 
BRANCH  14  15
ATOM     15  C   UNL     1     -44.680  27.453   3.005  1.00  0.00     0.000 C 
BRANCH  15  16
ATOM     16  C   UNL     1     -45.704  28.460   3.561  1.00  0.00     0.000 C 
BRANCH  16  17
ATOM     17  C   UNL     1     -46.850  27.842   4.391  1.00  0.00     0.000 C 
BRANCH  17  18
ATOM     18  C   UNL     1     -46.981  28.373   5.830  1.00  0.00     0.000 C 
BRANCH  18  19
ATOM     19  C   UNL     1     -45.622  28.687   6.477  1.00  0.00     0.000 C 
BRANCH  19  20
ATOM     20  C   UNL     1     -44.984  27.454   7.137  1.00  0.00     0.006 C 
BRANCH  20  21
ATOM     21  C   UNL     1     -43.645  27.064   6.495  1.00  0.00     0.053 C 
BRANCH  21  22
ATOM     22  C   UNL     1     -42.666  28.191   6.601  1.00  0.00     0.041 C 
ATOM     23  O   UNL     1     -42.137  28.468   7.710  1.00  0.00    -0.550 OA
ATOM     24  O   UNL     1     -42.375  28.968   5.485  1.00  0.00    -0.550 OA
ENDBRANCH  21  22
ENDBRANCH  20  21
ENDBRANCH  19  20
ENDBRANCH  18  19
ENDBRANCH  17  18
ENDBRANCH  16  17
ENDBRANCH  15  16
ENDBRANCH  14  15
ENDBRANCH  13  14
ENDBRANCH   1  13
TORSDOF 20
ENDMDL
MODEL 2
REMARK VINA RESULT:    -4.213      1.268      1.786
REMARK INTER + INTRA:         -11.396
REMARK INTER:                  -9.494
REMARK INTRA:                  -1.902
REMARK UNBOUND:                -2.257
REMARK SMILES CCCCCCCCCCCCCCCCCCCCCC(=O)[O-]
REMARK SMILES IDX 12 1 11 2 10 3 9 4 8 5 7 6 6 7 5 8 4 9 3 10 2 11 1 12 13 13
REMARK SMILES IDX 14 14 15 15 16 16 17 17 18 18 19 19 20 20 21 21 22 22 23 23
REMARK SMILES IDX 24 24
REMARK H PARENT
REMARK Flexibility Score: inf
ROOT
ATOM      1  C   UNL     1     -43.214  27.423   1.753  1.00  0.00     0.000 C 
ENDROOT
BRANCH   1   2
ATOM      2  C   UNL     1     -42.965  27.814   0.288  1.00  0.00     0.000 C 
BRANCH   2   3
ATOM      3  C   UNL     1     -44.258  28.218  -0.444  1.00  0.00     0.000 C 
BRANCH   3   4
ATOM      4  C   UNL     1     -45.512  27.613   0.204  1.00  0.00    -0.000 C 
BRANCH   4   5
ATOM      5  C   UNL     1     -46.284  26.692  -0.753  1.00  0.00    -0.000 C 
BRANCH   5   6
ATOM      6  C   UNL     1     -45.324  25.904  -1.650  1.00  0.00    -0.000 C 
BRANCH   6   7
ATOM      7  C   UNL     1     -45.775  25.951  -3.115  1.00  0.00    -0.000 C 
BRANCH   7   8
ATOM      8  C   UNL     1     -46.377  27.321  -3.459  1.00  0.00    -0.000 C 
BRANCH   8   9
ATOM      9  C   UNL     1     -46.736  27.462  -4.949  1.00  0.00    -0.000 C 
BRANCH   9  10
ATOM     10  C   UNL     1     -45.852  26.647  -5.911  1.00  0.00    -0.000 C 
BRANCH  10  11
ATOM     11  C   UNL     1     -45.581  27.372  -7.237  1.00  0.00    -0.003 C 
ATOM     12  C   UNL     1     -45.302  28.856  -7.006  1.00  0.00     0.004 C 
ENDBRANCH  10  11
ENDBRANCH   9  10
ENDBRANCH   8   9
ENDBRANCH   7   8
ENDBRANCH   6   7
ENDBRANCH   5   6
ENDBRANCH   4   5
ENDBRANCH   3   4
ENDBRANCH   2   3
ENDBRANCH   1   2
BRANCH   1  13
ATOM     13  C   UNL     1     -43.060  28.615   2.716  1.00  0.00     0.000 C 
BRANCH  13  14
ATOM     14  C   UNL     1     -44.250  28.739   3.693  1.00  0.00     0.000 C 
BRANCH  14  15
ATOM     15  C   UNL     1     -44.989  27.411   3.938  1.00  0.00     0.000 C 
BRANCH  15  16
ATOM     16  C   UNL     1     -45.198  27.051   5.421  1.00  0.00     0.000 C 
BRANCH  16  17
ATOM     17  C   UNL     1     -46.603  27.365   5.982  1.00  0.00     0.000 C 
BRANCH  17  18
ATOM     18  C   UNL     1     -46.639  27.819   7.452  1.00  0.00     0.000 C 
BRANCH  18  19
ATOM     19  C   UNL     1     -45.373  27.422   8.230  1.00  0.00     0.000 C 
BRANCH  19  20
ATOM     20  C   UNL     1     -44.660  28.633   8.853  1.00  0.00     0.006 C 
BRANCH  20  21
ATOM     21  C   UNL     1     -43.942  29.500   7.809  1.00  0.00     0.053 C 
BRANCH  21  22
ATOM     22  C   UNL     1     -42.509  29.086   7.682  1.00  0.00     0.041 C 
ATOM     23  O   UNL     1     -42.189  28.141   6.913  1.00  0.00    -0.550 OA
ATOM     24  O   UNL     1     -41.533  29.712   8.449  1.00  0.00    -0.550 OA
ENDBRANCH  21  22
ENDBRANCH  20  21
ENDBRANCH  19  20
ENDBRANCH  18  19
ENDBRANCH  17  18
ENDBRANCH  16  17
ENDBRANCH  15  16
ENDBRANCH  14  15
ENDBRANCH  13  14
ENDBRANCH   1  13
TORSDOF 20
ENDMDL
MODEL 3
REMARK VINA RESULT:    -3.884      4.600      9.779
REMARK INTER + INTRA:         -10.681
REMARK INTER:                  -8.202
REMARK INTRA:                  -2.479
REMARK UNBOUND:                -2.257
REMARK SMILES CCCCCCCCCCCCCCCCCCCCCC(=O)[O-]
REMARK SMILES IDX 12 1 11 2 10 3 9 4 8 5 7 6 6 7 5 8 4 9 3 10 2 11 1 12 13 13
REMARK SMILES IDX 14 14 15 15 16 16 17 17 18 18 19 19 20 20 21 21 22 22 23 23
REMARK SMILES IDX 24 24
REMARK H PARENT
REMARK Flexibility Score: inf
ROOT
ATOM      1  C   UNL     1     -43.175  27.467   1.457  1.00  0.00     0.000 C 
ENDROOT
BRANCH   1   2
ATOM      2  C   UNL     1     -43.093  28.896   2.018  1.00  0.00     0.000 C 
BRANCH   2   3
ATOM      3  C   UNL     1     -43.388  28.958   3.527  1.00  0.00     0.000 C 
BRANCH   3   4
ATOM      4  C   UNL     1     -44.585  29.864   3.854  1.00  0.00    -0.000 C 
BRANCH   4   5
ATOM      5  C   UNL     1     -45.832  29.516   3.028  1.00  0.00    -0.000 C 
BRANCH   5   6
ATOM      6  C   UNL     1     -46.493  28.233   3.544  1.00  0.00    -0.000 C 
BRANCH   6   7
ATOM      7  C   UNL     1     -47.001  28.415   4.979  1.00  0.00    -0.000 C 
BRANCH   7   8
ATOM      8  C   UNL     1     -46.673  27.184   5.836  1.00  0.00    -0.000 C 
BRANCH   8   9
ATOM      9  C   UNL     1     -45.342  27.319   6.597  1.00  0.00    -0.000 C 
BRANCH   9  10
ATOM     10  C   UNL     1     -45.131  28.672   7.303  1.00  0.00    -0.000 C 
BRANCH  10  11
ATOM     11  C   UNL     1     -43.648  29.033   7.475  1.00  0.00    -0.003 C 
ATOM     12  C   UNL     1     -42.745  27.931   6.926  1.00  0.00     0.004 C 
ENDBRANCH  10  11
ENDBRANCH   9  10
ENDBRANCH   8   9
ENDBRANCH   7   8
ENDBRANCH   6   7
ENDBRANCH   5   6
ENDBRANCH   4   5
ENDBRANCH   3   4
ENDBRANCH   2   3
ENDBRANCH   1   2
BRANCH   1  13
ATOM     13  C   UNL     1     -43.405  27.442  -0.065  1.00  0.00     0.000 C 
BRANCH  13  14
ATOM     14  C   UNL     1     -44.284  28.617  -0.546  1.00  0.00     0.000 C 
BRANCH  14  15
ATOM     15  C   UNL     1     -45.650  28.180  -1.105  1.00  0.00     0.000 C 
BRANCH  15  16
ATOM     16  C   UNL     1     -46.133  26.797  -0.626  1.00  0.00     0.000 C 
BRANCH  16  17
ATOM     17  C   UNL     1     -46.244  25.722  -1.729  1.00  0.00     0.000 C 
BRANCH  17  18
ATOM     18  C   UNL     1     -45.733  26.148  -3.117  1.00  0.00     0.000 C 
BRANCH  18  19
ATOM     19  C   UNL     1     -46.870  26.374  -4.128  1.00  0.00     0.000 C 
BRANCH  19  20
ATOM     20  C   UNL     1     -46.433  27.238  -5.322  1.00  0.00     0.006 C 
BRANCH  20  21
ATOM     21  C   UNL     1     -45.656  26.439  -6.379  1.00  0.00     0.053 C 
BRANCH  21  22
ATOM     22  C   UNL     1     -46.334  26.535  -7.709  1.00  0.00     0.041 C 
ATOM     23  O   UNL     1     -46.642  27.661  -8.183  1.00  0.00    -0.550 OA
ATOM     24  O   UNL     1     -46.669  25.379  -8.405  1.00  0.00    -0.550 OA
ENDBRANCH  21  22
ENDBRANCH  20  21
ENDBRANCH  19  20
ENDBRANCH  18  19
ENDBRANCH  17  18
ENDBRANCH  16  17
ENDBRANCH  15  16
ENDBRANCH  14  15
ENDBRANCH  13  14
ENDBRANCH   1  13
TORSDOF 20
ENDMDL
MODEL 4
REMARK VINA RESULT:    -3.862      1.219      1.983
REMARK INTER + INTRA:         -10.633
REMARK INTER:                  -8.760
REMARK INTRA:                  -1.874
REMARK UNBOUND:                -2.257
REMARK SMILES CCCCCCCCCCCCCCCCCCCCCC(=O)[O-]
REMARK SMILES IDX 12 1 11 2 10 3 9 4 8 5 7 6 6 7 5 8 4 9 3 10 2 11 1 12 13 13
REMARK SMILES IDX 14 14 15 15 16 16 17 17 18 18 19 19 20 20 21 21 22 22 23 23
REMARK SMILES IDX 24 24
REMARK H PARENT
REMARK Flexibility Score: inf
ROOT
ATOM      1  C   UNL     1     -43.379  27.479  -0.356  1.00  0.00     0.000 C 
ENDROOT
BRANCH   1   2
ATOM      2  C   UNL     1     -44.673  28.303  -0.438  1.00  0.00     0.000 C 
BRANCH   2   3
ATOM      3  C   UNL     1     -45.937  27.429  -0.357  1.00  0.00     0.000 C 
BRANCH   3   4
ATOM      4  C   UNL     1     -47.021  27.871  -1.352  1.00  0.00    -0.000 C 
BRANCH   4   5
ATOM      5  C   UNL     1     -46.496  27.964  -2.793  1.00  0.00    -0.000 C 
BRANCH   5   6
ATOM      6  C   UNL     1     -46.228  26.571  -3.371  1.00  0.00    -0.000 C 
BRANCH   6   7
ATOM      7  C   UNL     1     -46.965  26.375  -4.701  1.00  0.00    -0.000 C 
BRANCH   7   8
ATOM      8  C   UNL     1     -45.979  26.366  -5.878  1.00  0.00    -0.000 C 
BRANCH   8   9
ATOM      9  C   UNL     1     -46.640  26.737  -7.217  1.00  0.00    -0.000 C 
BRANCH   9  10
ATOM     10  C   UNL     1     -46.322  28.154  -7.729  1.00  0.00    -0.000 C 
BRANCH  10  11
ATOM     11  C   UNL     1     -45.185  28.832  -6.950  1.00  0.00    -0.003 C 
ATOM     12  C   UNL     1     -45.733  29.845  -5.947  1.00  0.00     0.004 C 
ENDBRANCH  10  11
ENDBRANCH   9  10
ENDBRANCH   8   9
ENDBRANCH   7   8
ENDBRANCH   6   7
ENDBRANCH   5   6
ENDBRANCH   4   5
ENDBRANCH   3   4
ENDBRANCH   2   3
ENDBRANCH   1   2
BRANCH   1  13
ATOM     13  C   UNL     1     -42.541  27.818   0.890  1.00  0.00     0.000 C 
BRANCH  13  14
ATOM     14  C   UNL     1     -42.887  29.206   1.472  1.00  0.00     0.000 C 
BRANCH  14  15
ATOM     15  C   UNL     1     -43.310  29.167   2.952  1.00  0.00     0.000 C 
BRANCH  15  16
ATOM     16  C   UNL     1     -44.046  27.884   3.382  1.00  0.00     0.000 C 
BRANCH  16  17
ATOM     17  C   UNL     1     -45.395  28.110   4.098  1.00  0.00     0.000 C 
BRANCH  17  18
ATOM     18  C   UNL     1     -45.683  27.161   5.276  1.00  0.00     0.000 C 
BRANCH  18  19
ATOM     19  C   UNL     1     -46.040  27.908   6.571  1.00  0.00     0.000 C 
BRANCH  19  20
ATOM     20  C   UNL     1     -44.993  28.966   6.950  1.00  0.00     0.006 C 
BRANCH  20  21
ATOM     21  C   UNL     1     -44.059  28.501   8.077  1.00  0.00     0.053 C 
BRANCH  21  22
ATOM     22  C   UNL     1     -42.631  28.578   7.638  1.00  0.00     0.041 C 
ATOM     23  O   UNL     1     -41.759  29.071   8.402  1.00  0.00    -0.550 OA
ATOM     24  O   UNL     1     -42.269  28.148   6.366  1.00  0.00    -0.550 OA
ENDBRANCH  21  22
ENDBRANCH  20  21
ENDBRANCH  19  20
ENDBRANCH  18  19
ENDBRANCH  17  18
ENDBRANCH  16  17
ENDBRANCH  15  16
ENDBRANCH  14  15
ENDBRANCH  13  14
ENDBRANCH   1  13
TORSDOF 20
ENDMDL
MODEL 5
REMARK VINA RESULT:    -3.508      4.316      9.505
REMARK INTER + INTRA:          -9.867
REMARK INTER:                  -7.586
REMARK INTRA:                  -2.281
REMARK UNBOUND:                -2.257
REMARK SMILES CCCCCCCCCCCCCCCCCCCCCC(=O)[O-]
REMARK SMILES IDX 12 1 11 2 10 3 9 4 8 5 7 6 6 7 5 8 4 9 3 10 2 11 1 12 13 13
REMARK SMILES IDX 14 14 15 15 16 16 17 17 18 18 19 19 20 20 21 21 22 22 23 23
REMARK SMILES IDX 24 24
REMARK H PARENT
REMARK Flexibility Score: inf
ROOT
ATOM      1  C   UNL     1     -43.359  27.347   1.452  1.00  0.00     0.000 C 
ENDROOT
BRANCH   1   2
ATOM      2  C   UNL     1     -43.231  28.714   2.143  1.00  0.00     0.000 C 
BRANCH   2   3
ATOM      3  C   UNL     1     -43.076  28.592   3.670  1.00  0.00     0.000 C 
BRANCH   3   4
ATOM      4  C   UNL     1     -43.342  29.920   4.395  1.00  0.00    -0.000 C 
BRANCH   4   5
ATOM      5  C   UNL     1     -43.565  29.733   5.903  1.00  0.00    -0.000 C 
BRANCH   5   6
ATOM      6  C   UNL     1     -42.828  28.493   6.418  1.00  0.00    -0.000 C 
BRANCH   6   7
ATOM      7  C   UNL     1     -43.812  27.461   6.981  1.00  0.00    -0.000 C 
BRANCH   7   8
ATOM      8  C   UNL     1     -45.262  27.930   6.798  1.00  0.00    -0.000 C 
BRANCH   8   9
ATOM      9  C   UNL     1     -46.037  27.094   5.763  1.00  0.00    -0.000 C 
BRANCH   9  10
ATOM     10  C   UNL     1     -47.104  27.869   4.967  1.00  0.00    -0.000 C 
BRANCH  10  11
ATOM     11  C   UNL     1     -46.725  28.069   3.493  1.00  0.00    -0.003 C 
ATOM     12  C   UNL     1     -46.851  29.536   3.086  1.00  0.00     0.004 C 
ENDBRANCH  10  11
ENDBRANCH   9  10
ENDBRANCH   8   9
ENDBRANCH   7   8
ENDBRANCH   6   7
ENDBRANCH   5   6
ENDBRANCH   4   5
ENDBRANCH   3   4
ENDBRANCH   2   3
ENDBRANCH   1   2
BRANCH   1  13
ATOM     13  C   UNL     1     -43.519  27.471  -0.075  1.00  0.00     0.000 C 
BRANCH  13  14
ATOM     14  C   UNL     1     -44.440  28.643  -0.476  1.00  0.00     0.000 C 
BRANCH  14  15
ATOM     15  C   UNL     1     -45.941  28.313  -0.376  1.00  0.00     0.000 C 
BRANCH  15  16
ATOM     16  C   UNL     1     -46.644  28.077  -1.727  1.00  0.00     0.000 C 
BRANCH  16  17
ATOM     17  C   UNL     1     -46.010  26.985  -2.616  1.00  0.00     0.000 C 
BRANCH  17  18
ATOM     18  C   UNL     1     -46.901  26.467  -3.759  1.00  0.00     0.000 C 
BRANCH  18  19
ATOM     19  C   UNL     1     -47.118  27.512  -4.867  1.00  0.00     0.000 C 
BRANCH  19  20
ATOM     20  C   UNL     1     -45.821  28.241  -5.251  1.00  0.00     0.006 C 
BRANCH  20  21
ATOM     21  C   UNL     1     -45.634  28.359  -6.771  1.00  0.00     0.053 C 
BRANCH  21  22
ATOM     22  C   UNL     1     -46.023  27.081  -7.446  1.00  0.00     0.041 C 
ATOM     23  O   UNL     1     -47.089  27.016  -8.114  1.00  0.00    -0.550 OA
ATOM     24  O   UNL     1     -45.232  25.947  -7.297  1.00  0.00    -0.550 OA
ENDBRANCH  21  22
ENDBRANCH  20  21
ENDBRANCH  19  20
ENDBRANCH  18  19
ENDBRANCH  17  18
ENDBRANCH  16  17
ENDBRANCH  15  16
ENDBRANCH  14  15
ENDBRANCH  13  14
ENDBRANCH   1  13
TORSDOF 20
ENDMDL
MODEL 6
REMARK VINA RESULT:    -3.388      4.352     10.101
REMARK INTER + INTRA:          -9.605
REMARK INTER:                  -7.408
REMARK INTRA:                  -2.197
REMARK UNBOUND:                -2.257
REMARK SMILES CCCCCCCCCCCCCCCCCCCCCC(=O)[O-]
REMARK SMILES IDX 12 1 11 2 10 3 9 4 8 5 7 6 6 7 5 8 4 9 3 10 2 11 1 12 13 13
REMARK SMILES IDX 14 14 15 15 16 16 17 17 18 18 19 19 20 20 21 21 22 22 23 23
REMARK SMILES IDX 24 24
REMARK H PARENT
REMARK Flexibility Score: inf
ROOT
ATOM      1  C   UNL     1     -46.004  27.875   2.379  1.00  0.00     0.000 C 
ENDROOT
BRANCH   1   2
ATOM      2  C   UNL     1     -46.091  29.197   3.157  1.00  0.00     0.000 C 
BRANCH   2   3
ATOM      3  C   UNL     1     -47.084  29.127   4.331  1.00  0.00     0.000 C 
BRANCH   3   4
ATOM      4  C   UNL     1     -46.773  27.971   5.294  1.00  0.00    -0.000 C 
BRANCH   4   5
ATOM      5  C   UNL     1     -47.124  28.308   6.752  1.00  0.00    -0.000 C 
BRANCH   5   6
ATOM      6  C   UNL     1     -46.345  27.416   7.724  1.00  0.00    -0.000 C 
BRANCH   6   7
ATOM      7  C   UNL     1     -45.434  28.251   8.630  1.00  0.00    -0.000 C 
BRANCH   7   8
ATOM      8  C   UNL     1     -44.009  27.679   8.651  1.00  0.00    -0.000 C 
BRANCH   8   9
ATOM      9  C   UNL     1     -42.992  28.572   7.917  1.00  0.00    -0.000 C 
BRANCH   9  10
ATOM     10  C   UNL     1     -43.568  29.883   7.349  1.00  0.00    -0.000 C 
BRANCH  10  11
ATOM     11  C   UNL     1     -43.583  29.916   5.814  1.00  0.00    -0.003 C 
ATOM     12  C   UNL     1     -43.139  28.577   5.230  1.00  0.00     0.004 C 
ENDBRANCH  10  11
ENDBRANCH   9  10
ENDBRANCH   8   9
ENDBRANCH   7   8
ENDBRANCH   6   7
ENDBRANCH   5   6
ENDBRANCH   4   5
ENDBRANCH   3   4
ENDBRANCH   2   3
ENDBRANCH   1   2
BRANCH   1  13
ATOM     13  C   UNL     1     -44.552  27.459   2.083  1.00  0.00     0.000 C 
BRANCH  13  14
ATOM     14  C   UNL     1     -43.751  28.576   1.379  1.00  0.00     0.000 C 
BRANCH  14  15
ATOM     15  C   UNL     1     -43.970  28.627  -0.144  1.00  0.00     0.000 C 
BRANCH  15  16
ATOM     16  C   UNL     1     -44.319  27.275  -0.794  1.00  0.00     0.000 C 
BRANCH  16  17
ATOM     17  C   UNL     1     -45.776  27.139  -1.286  1.00  0.00     0.000 C 
BRANCH  17  18
ATOM     18  C   UNL     1     -46.014  26.051  -2.349  1.00  0.00     0.000 C 
BRANCH  18  19
ATOM     19  C   UNL     1     -46.887  26.539  -3.518  1.00  0.00     0.000 C 
BRANCH  19  20
ATOM     20  C   UNL     1     -46.140  26.517  -4.861  1.00  0.00     0.006 C 
BRANCH  20  21
ATOM     21  C   UNL     1     -46.980  25.915  -5.996  1.00  0.00     0.053 C 
BRANCH  21  22
ATOM     22  C   UNL     1     -46.322  26.157  -7.318  1.00  0.00     0.041 C 
ATOM     23  O   UNL     1     -46.735  25.563  -8.350  1.00  0.00    -0.550 OA
ATOM     24  O   UNL     1     -45.221  27.002  -7.404  1.00  0.00    -0.550 OA
ENDBRANCH  21  22
ENDBRANCH  20  21
ENDBRANCH  19  20
ENDBRANCH  18  19
ENDBRANCH  17  18
ENDBRANCH  16  17
ENDBRANCH  15  16
ENDBRANCH  14  15
ENDBRANCH  13  14
ENDBRANCH   1  13
TORSDOF 20
ENDMDL
MODEL 7
REMARK VINA RESULT:    -3.335      4.272     10.090
REMARK INTER + INTRA:          -9.490
REMARK INTER:                  -7.588
REMARK INTRA:                  -1.902
REMARK UNBOUND:                -2.257
REMARK SMILES CCCCCCCCCCCCCCCCCCCCCC(=O)[O-]
REMARK SMILES IDX 12 1 11 2 10 3 9 4 8 5 7 6 6 7 5 8 4 9 3 10 2 11 1 12 13 13
REMARK SMILES IDX 14 14 15 15 16 16 17 17 18 18 19 19 20 20 21 21 22 22 23 23
REMARK SMILES IDX 24 24
REMARK H PARENT
REMARK Flexibility Score: inf
ROOT
ATOM      1  C   UNL     1     -44.885  29.608   0.558  1.00  0.00     0.000 C 
ENDROOT
BRANCH   1   2
ATOM      2  C   UNL     1     -46.233  29.882   1.243  1.00  0.00     0.000 C 
BRANCH   2   3
ATOM      3  C   UNL     1     -46.636  28.765   2.223  1.00  0.00     0.000 C 
BRANCH   3   4
ATOM      4  C   UNL     1     -47.115  29.315   3.575  1.00  0.00    -0.000 C 
BRANCH   4   5
ATOM      5  C   UNL     1     -46.077  29.122   4.691  1.00  0.00    -0.000 C 
BRANCH   5   6
ATOM      6  C   UNL     1     -45.878  27.636   5.004  1.00  0.00    -0.000 C 
BRANCH   6   7
ATOM      7  C   UNL     1     -44.435  27.201   4.721  1.00  0.00    -0.000 C 
BRANCH   7   8
ATOM      8  C   UNL     1     -43.790  26.591   5.974  1.00  0.00    -0.000 C 
BRANCH   8   9
ATOM      9  C   UNL     1     -42.965  27.610   6.781  1.00  0.00    -0.000 C 
BRANCH   9  10
ATOM     10  C   UNL     1     -43.794  28.617   7.599  1.00  0.00    -0.000 C 
BRANCH  10  11
ATOM     11  C   UNL     1     -44.157  28.099   8.998  1.00  0.00    -0.003 C 
ATOM     12  C   UNL     1     -45.636  27.728   9.081  1.00  0.00     0.004 C 
ENDBRANCH  10  11
ENDBRANCH   9  10
ENDBRANCH   8   9
ENDBRANCH   7   8
ENDBRANCH   6   7
ENDBRANCH   5   6
ENDBRANCH   4   5
ENDBRANCH   3   4
ENDBRANCH   2   3
ENDBRANCH   1   2
BRANCH   1  13
ATOM     13  C   UNL     1     -43.998  28.642   1.365  1.00  0.00     0.000 C 
BRANCH  13  14
ATOM     14  C   UNL     1     -43.774  27.300   0.635  1.00  0.00     0.000 C 
BRANCH  14  15
ATOM     15  C   UNL     1     -44.132  27.343  -0.862  1.00  0.00     0.000 C 
BRANCH  15  16
ATOM     16  C   UNL     1     -45.332  26.466  -1.265  1.00  0.00     0.000 C 
BRANCH  16  17
ATOM     17  C   UNL     1     -46.332  27.127  -2.239  1.00  0.00     0.000 C 
BRANCH  17  18
ATOM     18  C   UNL     1     -46.165  26.739  -3.719  1.00  0.00     0.000 C 
BRANCH  18  19
ATOM     19  C   UNL     1     -46.820  27.747  -4.678  1.00  0.00     0.000 C 
BRANCH  19  20
ATOM     20  C   UNL     1     -45.807  28.396  -5.634  1.00  0.00     0.006 C 
BRANCH  20  21
ATOM     21  C   UNL     1     -46.140  28.144  -7.112  1.00  0.00     0.053 C 
BRANCH  21  22
ATOM     22  C   UNL     1     -45.900  26.710  -7.465  1.00  0.00     0.041 C 
ATOM     23  O   UNL     1     -44.873  26.116  -7.039  1.00  0.00    -0.550 OA
ATOM     24  O   UNL     1     -46.785  26.041  -8.303  1.00  0.00    -0.550 OA
ENDBRANCH  21  22
ENDBRANCH  20  21
ENDBRANCH  19  20
ENDBRANCH  18  19
ENDBRANCH  17  18
ENDBRANCH  16  17
ENDBRANCH  15  16
ENDBRANCH  14  15
ENDBRANCH  13  14
ENDBRANCH   1  13
TORSDOF 20
ENDMDL
MODEL 8
REMARK VINA RESULT:    -3.247      1.281      2.543
REMARK INTER + INTRA:          -9.300
REMARK INTER:                  -7.379
REMARK INTRA:                  -1.922
REMARK UNBOUND:                -2.257
REMARK SMILES CCCCCCCCCCCCCCCCCCCCCC(=O)[O-]
REMARK SMILES IDX 12 1 11 2 10 3 9 4 8 5 7 6 6 7 5 8 4 9 3 10 2 11 1 12 13 13
REMARK SMILES IDX 14 14 15 15 16 16 17 17 18 18 19 19 20 20 21 21 22 22 23 23
REMARK SMILES IDX 24 24
REMARK H PARENT
REMARK Flexibility Score: inf
ROOT
ATOM      1  C   UNL     1     -43.666  26.879   2.016  1.00  0.00     0.000 C 
ENDROOT
BRANCH   1   2
ATOM      2  C   UNL     1     -42.610  27.645   1.203  1.00  0.00     0.000 C 
BRANCH   2   3
ATOM      3  C   UNL     1     -42.969  29.130   1.018  1.00  0.00     0.000 C 
BRANCH   3   4
ATOM      4  C   UNL     1     -43.027  29.539  -0.462  1.00  0.00    -0.000 C 
BRANCH   4   5
ATOM      5  C   UNL     1     -44.435  29.972  -0.899  1.00  0.00    -0.000 C 
BRANCH   5   6
ATOM      6  C   UNL     1     -45.445  28.838  -0.697  1.00  0.00    -0.000 C 
BRANCH   6   7
ATOM      7  C   UNL     1     -46.632  28.979  -1.657  1.00  0.00    -0.000 C 
BRANCH   7   8
ATOM      8  C   UNL     1     -46.148  29.196  -3.098  1.00  0.00    -0.000 C 
BRANCH   8   9
ATOM      9  C   UNL     1     -46.691  28.142  -4.079  1.00  0.00    -0.000 C 
BRANCH   9  10
ATOM     10  C   UNL     1     -46.166  26.711  -3.854  1.00  0.00    -0.000 C 
BRANCH  10  11
ATOM     11  C   UNL     1     -47.030  25.903  -2.875  1.00  0.00    -0.003 C 
ATOM     12  C   UNL     1     -46.165  25.171  -1.852  1.00  0.00     0.004 C 
ENDBRANCH  10  11
ENDBRANCH   9  10
ENDBRANCH   8   9
ENDBRANCH   7   8
ENDBRANCH   6   7
ENDBRANCH   5   6
ENDBRANCH   4   5
ENDBRANCH   3   4
ENDBRANCH   2   3
ENDBRANCH   1   2
BRANCH   1  13
ATOM     13  C   UNL     1     -44.382  27.773   3.045  1.00  0.00     0.000 C 
BRANCH  13  14
ATOM     14  C   UNL     1     -45.871  27.991   2.699  1.00  0.00     0.000 C 
BRANCH  14  15
ATOM     15  C   UNL     1     -46.586  28.977   3.641  1.00  0.00     0.000 C 
BRANCH  15  16
ATOM     16  C   UNL     1     -46.861  28.438   5.057  1.00  0.00     0.000 C 
BRANCH  16  17
ATOM     17  C   UNL     1     -46.858  29.501   6.177  1.00  0.00     0.000 C 
BRANCH  17  18
ATOM     18  C   UNL     1     -46.746  28.948   7.610  1.00  0.00     0.000 C 
BRANCH  18  19
ATOM     19  C   UNL     1     -45.311  29.001   8.159  1.00  0.00     0.000 C 
BRANCH  19  20
ATOM     20  C   UNL     1     -44.641  27.618   8.193  1.00  0.00     0.006 C 
BRANCH  20  21
ATOM     21  C   UNL     1     -43.813  27.329   6.933  1.00  0.00     0.053 C 
BRANCH  21  22
ATOM     22  C   UNL     1     -42.683  28.302   6.815  1.00  0.00     0.041 C 
ATOM     23  O   UNL     1     -41.887  28.468   7.777  1.00  0.00    -0.550 OA
ATOM     24  O   UNL     1     -42.537  29.063   5.660  1.00  0.00    -0.550 OA
ENDBRANCH  21  22
ENDBRANCH  20  21
ENDBRANCH  19  20
ENDBRANCH  18  19
ENDBRANCH  17  18
ENDBRANCH  16  17
ENDBRANCH  15  16
ENDBRANCH  14  15
ENDBRANCH  13  14
ENDBRANCH   1  13
TORSDOF 20
ENDMDL
