MODEL 1
REMARK VINA RESULT:    -4.535      0.000      0.000
REMARK INTER + INTRA:          -4.933
REMARK INTER:                  -4.933
REMARK INTRA:                   0.000
REMARK UNBOUND:                 0.000
REMARK SMILES Oc1cccc(O)c1O
REMARK SMILES IDX 4 1 5 2 6 3 8 4 2 5 3 6 7 7 1 9 9 11
REMARK H PARENT 7 8 1 10 9 12
REMARK Flexibility Score: inf
ROOT
ATOM      1  C   UNL     1      36.131 -29.990  10.288  1.00  0.00     0.008 A 
ATOM      2  C   UNL     1      35.843 -31.336  10.517  1.00  0.00     0.050 A 
ATOM      3  C   UNL     1      34.767 -31.698  11.341  1.00  0.00     0.161 A 
ATOM      4  C   UNL     1      33.975 -30.698  11.937  1.00  0.00     0.200 A 
ATOM      5  C   UNL     1      34.270 -29.342  11.701  1.00  0.00     0.161 A 
ATOM      6  C   UNL     1      35.348 -28.996  10.878  1.00  0.00     0.050 A 
ENDROOT
BRANCH   3   7
ATOM      7  O   UNL     1      34.482 -33.043  11.568  1.00  0.00    -0.504 OA
ATOM      8  H   UNL     1      34.369 -33.411  12.506  1.00  0.00     0.293 HD
ENDBRANCH   3   7
BRANCH   5   9
ATOM      9  O   UNL     1      33.506 -28.328  12.277  1.00  0.00    -0.504 OA
ATOM     10  H   UNL     1      32.666 -27.971  11.839  1.00  0.00     0.293 HD
ENDBRANCH   5   9
BRANCH   4  11
ATOM     11  O   UNL     1      32.900 -31.037  12.759  1.00  0.00    -0.502 OA
ATOM     12  H   UNL     1      32.124 -31.598  12.428  1.00  0.00     0.293 HD
ENDBRANCH   4  11
TORSDOF 3
ENDMDL
MODEL 2
REMARK VINA RESULT:    -4.486      0.161      2.811
REMARK INTER + INTRA:          -4.880
REMARK INTER:                  -4.880
REMARK INTRA:                   0.000
REMARK UNBOUND:                 0.000
REMARK SMILES Oc1cccc(O)c1O
REMARK SMILES IDX 4 1 5 2 6 3 8 4 2 5 3 6 7 7 1 9 9 11
REMARK H PARENT 7 8 1 10 9 12
REMARK Flexibility Score: inf
ROOT
ATOM      1  C   UNL     1      36.020 -30.114  10.077  1.00  0.00     0.008 A 
ATOM      2  C   UNL     1      35.268 -29.094  10.662  1.00  0.00     0.050 A 
ATOM      3  C   UNL     1      34.249 -29.402  11.575  1.00  0.00     0.161 A 
ATOM      4  C   UNL     1      33.987 -30.746  11.902  1.00  0.00     0.200 A 
ATOM      5  C   UNL     1      34.749 -31.770  11.310  1.00  0.00     0.161 A 
ATOM      6  C   UNL     1      35.761 -31.447  10.400  1.00  0.00     0.050 A 
ENDROOT
BRANCH   3   7
ATOM      7  O   UNL     1      33.499 -28.381  12.157  1.00  0.00    -0.504 OA
ATOM      8  H   UNL     1      32.659 -28.023  11.718  1.00  0.00     0.293 HD
ENDBRANCH   3   7
BRANCH   5   9
ATOM      9  O   UNL     1      34.513 -33.111  11.613  1.00  0.00    -0.504 OA
ATOM     10  H   UNL     1      34.479 -33.450  12.566  1.00  0.00     0.293 HD
ENDBRANCH   5   9
BRANCH   4  11
ATOM     11  O   UNL     1      32.978 -31.073  12.809  1.00  0.00    -0.502 OA
ATOM     12  H   UNL     1      32.189 -31.655  12.551  1.00  0.00     0.293 HD
ENDBRANCH   4  11
TORSDOF 3
ENDMDL
MODEL 3
REMARK VINA RESULT:    -4.163      1.178      2.727
REMARK INTER + INTRA:          -4.528
REMARK INTER:                  -4.528
REMARK INTRA:                   0.000
REMARK UNBOUND:                 0.000
REMARK SMILES Oc1cccc(O)c1O
REMARK SMILES IDX 4 1 5 2 6 3 8 4 2 5 3 6 7 7 1 9 9 11
REMARK H PARENT 7 8 1 10 9 12
REMARK Flexibility Score: inf
ROOT
ATOM      1  C   UNL     1      35.067 -28.528  11.409  1.00  0.00     0.008 A 
ATOM      2  C   UNL     1      34.029 -29.129  12.125  1.00  0.00     0.050 A 
ATOM      3  C   UNL     1      33.899 -30.525  12.143  1.00  0.00     0.161 A 
ATOM      4  C   UNL     1      34.819 -31.322  11.436  1.00  0.00     0.200 A 
ATOM      5  C   UNL     1      35.864 -30.711  10.716  1.00  0.00     0.161 A 
ATOM      6  C   UNL     1      35.980 -29.317  10.707  1.00  0.00     0.050 A 
ENDROOT
BRANCH   3   7
ATOM      7  O   UNL     1      32.862 -31.122  12.857  1.00  0.00    -0.504 OA
ATOM      8  H   UNL     1      32.050 -31.510  12.391  1.00  0.00     0.293 HD
ENDBRANCH   3   7
BRANCH   5   9
ATOM      9  O   UNL     1      36.791 -31.473  10.006  1.00  0.00    -0.504 OA
ATOM     10  H   UNL     1      37.050 -32.409  10.290  1.00  0.00     0.293 HD
ENDBRANCH   5   9
BRANCH   4  11
ATOM     11  O   UNL     1      34.707 -32.713  11.441  1.00  0.00    -0.502 OA
ATOM     12  H   UNL     1      33.816 -33.182  11.551  1.00  0.00     0.293 HD
ENDBRANCH   4  11
TORSDOF 3
ENDMDL
MODEL 4
REMARK VINA RESULT:    -4.156      1.143      2.193
REMARK INTER + INTRA:          -4.520
REMARK INTER:                  -4.520
REMARK INTRA:                   0.000
REMARK UNBOUND:                 0.000
REMARK SMILES Oc1cccc(O)c1O
REMARK SMILES IDX 4 1 5 2 6 3 8 4 2 5 3 6 7 7 1 9 9 11
REMARK H PARENT 7 8 1 10 9 12
REMARK Flexibility Score: inf
ROOT
ATOM      1  C   UNL     1      35.101 -28.589  11.372  1.00  0.00     0.008 A 
ATOM      2  C   UNL     1      36.010 -29.390  10.679  1.00  0.00     0.050 A 
ATOM      3  C   UNL     1      35.879 -30.786  10.697  1.00  0.00     0.161 A 
ATOM      4  C   UNL     1      34.825 -31.380  11.418  1.00  0.00     0.200 A 
ATOM      5  C   UNL     1      33.911 -30.567  12.114  1.00  0.00     0.161 A 
ATOM      6  C   UNL     1      34.055 -29.175  12.087  1.00  0.00     0.050 A 
ENDROOT
BRANCH   3   7
ATOM      7  O   UNL     1      36.789 -31.583  10.006  1.00  0.00    -0.504 OA
ATOM      8  H   UNL     1      37.787 -31.512  10.167  1.00  0.00     0.293 HD
ENDBRANCH   3   7
BRANCH   5   9
ATOM      9  O   UNL     1      32.856 -31.125  12.836  1.00  0.00    -0.504 OA
ATOM     10  H   UNL     1      31.917 -30.749  12.797  1.00  0.00     0.293 HD
ENDBRANCH   5   9
BRANCH   4  11
ATOM     11  O   UNL     1      34.677 -32.767  11.449  1.00  0.00    -0.502 OA
ATOM     12  H   UNL     1      34.256 -33.247  12.236  1.00  0.00     0.293 HD
ENDBRANCH   4  11
TORSDOF 3
ENDMDL
MODEL 5
REMARK VINA RESULT:    -4.051      0.888      2.882
REMARK INTER + INTRA:          -4.407
REMARK INTER:                  -4.407
REMARK INTRA:                   0.000
REMARK UNBOUND:                 0.000
REMARK SMILES Oc1cccc(O)c1O
REMARK SMILES IDX 4 1 5 2 6 3 8 4 2 5 3 6 7 7 1 9 9 11
REMARK H PARENT 7 8 1 10 9 12
REMARK Flexibility Score: inf
ROOT
ATOM      1  C   UNL     1      36.060 -31.256   9.486  1.00  0.00     0.008 A 
ATOM      2  C   UNL     1      35.824 -29.936   9.876  1.00  0.00     0.050 A 
ATOM      3  C   UNL     1      35.002 -29.660  10.978  1.00  0.00     0.161 A 
ATOM      4  C   UNL     1      34.412 -30.721  11.692  1.00  0.00     0.200 A 
ATOM      5  C   UNL     1      34.654 -32.049  11.295  1.00  0.00     0.161 A 
ATOM      6  C   UNL     1      35.477 -32.309  10.193  1.00  0.00     0.050 A 
ENDROOT
BRANCH   3   7
ATOM      7  O   UNL     1      34.768 -28.342  11.364  1.00  0.00    -0.504 OA
ATOM      8  H   UNL     1      35.278 -27.569  10.951  1.00  0.00     0.293 HD
ENDBRANCH   3   7
BRANCH   5   9
ATOM      9  O   UNL     1      34.085 -33.121  11.982  1.00  0.00    -0.504 OA
ATOM     10  H   UNL     1      34.536 -33.551  12.780  1.00  0.00     0.293 HD
ENDBRANCH   5   9
BRANCH   4  11
ATOM     11  O   UNL     1      33.591 -30.468  12.791  1.00  0.00    -0.502 OA
ATOM     12  H   UNL     1      33.305 -29.530  13.047  1.00  0.00     0.293 HD
ENDBRANCH   4  11
TORSDOF 3
ENDMDL
MODEL 6
REMARK VINA RESULT:    -3.696     17.931     18.734
REMARK INTER + INTRA:          -4.020
REMARK INTER:                  -4.020
REMARK INTRA:                   0.000
REMARK UNBOUND:                 0.000
REMARK SMILES Oc1cccc(O)c1O
REMARK SMILES IDX 4 1 5 2 6 3 8 4 2 5 3 6 7 7 1 9 9 11
REMARK H PARENT 7 8 1 10 9 12
REMARK Flexibility Score: inf
ROOT
ATOM      1  C   UNL     1      22.517 -24.094   0.260  1.00  0.00     0.008 A 
ATOM      2  C   UNL     1      22.272 -23.940   1.626  1.00  0.00     0.050 A 
ATOM      3  C   UNL     1      21.594 -22.807   2.099  1.00  0.00     0.161 A 
ATOM      4  C   UNL     1      21.161 -21.822   1.192  1.00  0.00     0.200 A 
ATOM      5  C   UNL     1      21.410 -21.982  -0.185  1.00  0.00     0.161 A 
ATOM      6  C   UNL     1      22.088 -23.118  -0.642  1.00  0.00     0.050 A 
ENDROOT
BRANCH   3   7
ATOM      7  O   UNL     1      21.351 -22.655   3.463  1.00  0.00    -0.504 OA
ATOM      8  H   UNL     1      20.951 -23.404   4.017  1.00  0.00     0.293 HD
ENDBRANCH   3   7
BRANCH   5   9
ATOM      9  O   UNL     1      20.994 -21.025  -1.109  1.00  0.00    -0.504 OA
ATOM     10  H   UNL     1      20.021 -20.770  -1.220  1.00  0.00     0.293 HD
ENDBRANCH   5   9
BRANCH   4  11
ATOM     11  O   UNL     1      20.485 -20.687   1.642  1.00  0.00    -0.502 OA
ATOM     12  H   UNL     1      20.953 -19.797   1.772  1.00  0.00     0.293 HD
ENDBRANCH   4  11
TORSDOF 3
ENDMDL
MODEL 7
REMARK VINA RESULT:    -3.692     17.921     18.768
REMARK INTER + INTRA:          -4.016
REMARK INTER:                  -4.016
REMARK INTRA:                   0.000
REMARK UNBOUND:                 0.000
REMARK SMILES Oc1cccc(O)c1O
REMARK SMILES IDX 4 1 5 2 6 3 8 4 2 5 3 6 7 7 1 9 9 11
REMARK H PARENT 7 8 1 10 9 12
REMARK Flexibility Score: inf
ROOT
ATOM      1  C   UNL     1      22.515 -24.093   0.274  1.00  0.00     0.008 A 
ATOM      2  C   UNL     1      22.077 -23.124  -0.631  1.00  0.00     0.050 A 
ATOM      3  C   UNL     1      21.396 -21.986  -0.173  1.00  0.00     0.161 A 
ATOM      4  C   UNL     1      21.155 -21.823   1.205  1.00  0.00     0.200 A 
ATOM      5  C   UNL     1      21.599 -22.803   2.112  1.00  0.00     0.161 A 
ATOM      6  C   UNL     1      22.277 -23.933   1.640  1.00  0.00     0.050 A 
ENDROOT
BRANCH   3   7
ATOM      7  O   UNL     1      20.960 -21.021  -1.078  1.00  0.00    -0.504 OA
ATOM      8  H   UNL     1      21.552 -20.695  -1.834  1.00  0.00     0.293 HD
ENDBRANCH   3   7
BRANCH   5   9
ATOM      9  O   UNL     1      21.376 -22.671   3.482  1.00  0.00    -0.504 OA
ATOM     10  H   UNL     1      20.649 -22.073   3.854  1.00  0.00     0.293 HD
ENDBRANCH   5   9
BRANCH   4  11
ATOM     11  O   UNL     1      20.479 -20.699   1.681  1.00  0.00    -0.502 OA
ATOM     12  H   UNL     1      20.711 -19.761   1.375  1.00  0.00     0.293 HD
ENDBRANCH   4  11
TORSDOF 3
ENDMDL
MODEL 8
REMARK VINA RESULT:    -3.441      2.225      3.650
REMARK INTER + INTRA:          -3.743
REMARK INTER:                  -3.743
REMARK INTRA:                   0.000
REMARK UNBOUND:                 0.000
REMARK SMILES Oc1cccc(O)c1O
REMARK SMILES IDX 4 1 5 2 6 3 8 4 2 5 3 6 7 7 1 9 9 11
REMARK H PARENT 7 8 1 10 9 12
REMARK Flexibility Score: inf
ROOT
ATOM      1  C   UNL     1      37.828 -31.530   9.871  1.00  0.00     0.008 A 
ATOM      2  C   UNL     1      37.289 -30.458  10.584  1.00  0.00     0.050 A 
ATOM      3  C   UNL     1      35.922 -30.160  10.485  1.00  0.00     0.161 A 
ATOM      4  C   UNL     1      35.092 -30.947   9.664  1.00  0.00     0.200 A 
ATOM      5  C   UNL     1      35.641 -32.027   8.948  1.00  0.00     0.161 A 
ATOM      6  C   UNL     1      37.007 -32.312   9.056  1.00  0.00     0.050 A 
ENDROOT
BRANCH   3   7
ATOM      7  O   UNL     1      35.387 -29.088  11.197  1.00  0.00    -0.504 OA
ATOM      8  H   UNL     1      35.247 -28.181  10.767  1.00  0.00     0.293 HD
ENDBRANCH   3   7
BRANCH   5   9
ATOM      9  O   UNL     1      34.847 -32.825   8.127  1.00  0.00    -0.504 OA
ATOM     10  H   UNL     1      33.997 -32.480   7.698  1.00  0.00     0.293 HD
ENDBRANCH   5   9
BRANCH   4  11
ATOM     11  O   UNL     1      33.730 -30.667   9.552  1.00  0.00    -0.502 OA
ATOM     12  H   UNL     1      33.247 -30.687   8.662  1.00  0.00     0.293 HD
ENDBRANCH   4  11
TORSDOF 3
ENDMDL
MODEL 9
REMARK VINA RESULT:    -3.428      2.025      2.291
REMARK INTER + INTRA:          -3.728
REMARK INTER:                  -3.728
REMARK INTRA:                   0.000
REMARK UNBOUND:                 0.000
REMARK SMILES Oc1cccc(O)c1O
REMARK SMILES IDX 4 1 5 2 6 3 8 4 2 5 3 6 7 7 1 9 9 11
REMARK H PARENT 7 8 1 10 9 12
REMARK Flexibility Score: inf
ROOT
ATOM      1  C   UNL     1      37.556 -31.251   9.871  1.00  0.00     0.008 A 
ATOM      2  C   UNL     1      36.684 -32.047   9.126  1.00  0.00     0.050 A 
ATOM      3  C   UNL     1      35.305 -31.794   9.146  1.00  0.00     0.161 A 
ATOM      4  C   UNL     1      34.800 -30.733   9.922  1.00  0.00     0.200 A 
ATOM      5  C   UNL     1      35.684 -29.934  10.671  1.00  0.00     0.161 A 
ATOM      6  C   UNL     1      37.058 -30.198  10.641  1.00  0.00     0.050 A 
ENDROOT
BRANCH   3   7
ATOM      7  O   UNL     1      34.437 -32.590   8.402  1.00  0.00    -0.504 OA
ATOM      8  H   UNL     1      34.781 -33.286   7.751  1.00  0.00     0.293 HD
ENDBRANCH   3   7
BRANCH   5   9
ATOM      9  O   UNL     1      35.215 -28.876  11.449  1.00  0.00    -0.504 OA
ATOM     10  H   UNL     1      34.325 -28.912  11.928  1.00  0.00     0.293 HD
ENDBRANCH   5   9
BRANCH   4  11
ATOM     11  O   UNL     1      33.431 -30.465   9.956  1.00  0.00    -0.502 OA
ATOM     12  H   UNL     1      32.899 -30.483  10.818  1.00  0.00     0.293 HD
ENDBRANCH   4  11
TORSDOF 3
ENDMDL
