MODEL 1
REMARK VINA RESULT:    -5.756      0.000      0.000
REMARK INTER + INTRA:          -6.181
REMARK INTER:                  -6.092
REMARK INTRA:                  -0.089
REMARK UNBOUND:                -0.089
REMARK SMILES C=C(C)[C@H]1CC=C(C)C(=O)C1
REMARK SMILES IDX 8 1 7 2 6 3 5 4 4 5 11 6 9 7 10 8 2 9 1 10 3 11
REMARK H PARENT
REMARK Flexibility Score: inf
ROOT
ATOM      1  C   UNL     1      85.153  35.427  27.093  1.00  0.00     0.048 C 
ATOM      2  C   UNL     1      86.182  36.515  26.967  1.00  0.00    -0.012 C 
ATOM      3  C   UNL     1      86.668  37.107  28.072  1.00  0.00    -0.019 C 
ATOM      4  C   UNL     1      87.686  38.215  28.003  1.00  0.00     0.036 C 
ATOM      5  C   UNL     1      88.626  38.031  26.796  1.00  0.00     0.025 C 
ATOM      6  C   UNL     1      87.807  37.908  25.496  1.00  0.00     0.089 C 
ATOM      7  C   UNL     1      86.749  36.849  25.636  1.00  0.00     0.158 C 
ATOM      8  O   UNL     1      86.320  36.269  24.602  1.00  0.00    -0.295 OA
ENDROOT
BRANCH   5   9
ATOM      9  C   UNL     1      89.655  39.150  26.707  1.00  0.00    -0.077 C 
ATOM     10  C   UNL     1      90.913  38.978  27.148  1.00  0.00     0.008 C 
ATOM     11  C   UNL     1      89.272  40.482  26.116  1.00  0.00     0.039 C 
ENDBRANCH   5   9
TORSDOF 1
ENDMDL
MODEL 2
REMARK VINA RESULT:    -5.680      1.399      2.293
REMARK INTER + INTRA:          -6.101
REMARK INTER:                  -6.013
REMARK INTRA:                  -0.088
REMARK UNBOUND:                -0.089
REMARK SMILES C=C(C)[C@H]1CC=C(C)C(=O)C1
REMARK SMILES IDX 8 1 7 2 6 3 5 4 4 5 11 6 9 7 10 8 2 9 1 10 3 11
REMARK H PARENT
REMARK Flexibility Score: inf
ROOT
ATOM      1  C   UNL     1      84.680  35.853  26.463  1.00  0.00     0.048 C 
ATOM      2  C   UNL     1      85.990  36.590  26.526  1.00  0.00    -0.012 C 
ATOM      3  C   UNL     1      86.658  36.864  25.392  1.00  0.00    -0.019 C 
ATOM      4  C   UNL     1      87.982  37.583  25.399  1.00  0.00     0.036 C 
ATOM      5  C   UNL     1      88.059  38.593  26.560  1.00  0.00     0.025 C 
ATOM      6  C   UNL     1      87.769  37.890  27.900  1.00  0.00     0.089 C 
ATOM      7  C   UNL     1      86.480  37.118  27.823  1.00  0.00     0.158 C 
ATOM      8  O   UNL     1      85.836  36.892  28.884  1.00  0.00    -0.295 OA
ENDROOT
BRANCH   5   9
ATOM      9  C   UNL     1      89.397  39.320  26.585  1.00  0.00    -0.077 C 
ATOM     10  C   UNL     1      89.502  40.604  26.201  1.00  0.00     0.008 C 
ATOM     11  C   UNL     1      90.637  38.601  27.049  1.00  0.00     0.039 C 
ENDBRANCH   5   9
TORSDOF 1
ENDMDL
MODEL 3
REMARK VINA RESULT:    -4.542      2.175      4.497
REMARK INTER + INTRA:          -4.897
REMARK INTER:                  -4.808
REMARK INTRA:                  -0.088
REMARK UNBOUND:                -0.089
REMARK SMILES C=C(C)[C@H]1CC=C(C)C(=O)C1
REMARK SMILES IDX 8 1 7 2 6 3 5 4 4 5 11 6 9 7 10 8 2 9 1 10 3 11
REMARK H PARENT
REMARK Flexibility Score: inf
ROOT
ATOM      1  C   UNL     1      87.966  37.461  24.775  1.00  0.00     0.048 C 
ATOM      2  C   UNL     1      87.181  37.386  26.055  1.00  0.00    -0.012 C 
ATOM      3  C   UNL     1      86.014  36.720  26.086  1.00  0.00    -0.019 C 
ATOM      4  C   UNL     1      85.179  36.629  27.336  1.00  0.00     0.036 C 
ATOM      5  C   UNL     1      86.066  36.615  28.596  1.00  0.00     0.025 C 
ATOM      6  C   UNL     1      86.999  37.841  28.605  1.00  0.00     0.089 C 
ATOM      7  C   UNL     1      87.753  37.940  27.308  1.00  0.00     0.158 C 
ATOM      8  O   UNL     1      88.865  38.535  27.287  1.00  0.00    -0.295 OA
ENDROOT
BRANCH   5   9
ATOM      9  C   UNL     1      85.233  36.534  29.869  1.00  0.00    -0.077 C 
ATOM     10  C   UNL     1      85.105  35.381  30.548  1.00  0.00     0.008 C 
ATOM     11  C   UNL     1      84.534  37.762  30.393  1.00  0.00     0.039 C 
ENDBRANCH   5   9
TORSDOF 1
ENDMDL
MODEL 4
REMARK VINA RESULT:    -4.491      2.082      4.330
REMARK INTER + INTRA:          -4.843
REMARK INTER:                  -4.754
REMARK INTRA:                  -0.089
REMARK UNBOUND:                -0.089
REMARK SMILES C=C(C)[C@H]1CC=C(C)C(=O)C1
REMARK SMILES IDX 8 1 7 2 6 3 5 4 4 5 11 6 9 7 10 8 2 9 1 10 3 11
REMARK H PARENT
REMARK Flexibility Score: inf
ROOT
ATOM      1  C   UNL     1      87.256  38.222  28.873  1.00  0.00     0.048 C 
ATOM      2  C   UNL     1      87.079  37.422  27.612  1.00  0.00    -0.012 C 
ATOM      3  C   UNL     1      86.229  36.380  27.596  1.00  0.00    -0.019 C 
ATOM      4  C   UNL     1      86.027  35.533  26.366  1.00  0.00     0.036 C 
ATOM      5  C   UNL     1      86.187  36.371  25.083  1.00  0.00     0.025 C 
ATOM      6  C   UNL     1      87.551  37.089  25.080  1.00  0.00     0.089 C 
ATOM      7  C   UNL     1      87.746  37.855  26.360  1.00  0.00     0.158 C 
ATOM      8  O   UNL     1      88.516  38.854  26.366  1.00  0.00    -0.295 OA
ENDROOT
BRANCH   5   9
ATOM      9  C   UNL     1      85.996  35.525  23.831  1.00  0.00    -0.077 C 
ATOM     10  C   UNL     1      84.803  35.445  23.218  1.00  0.00     0.008 C 
ATOM     11  C   UNL     1      87.158  34.758  23.254  1.00  0.00     0.039 C 
ENDBRANCH   5   9
TORSDOF 1
ENDMDL
MODEL 5
REMARK VINA RESULT:    -4.426      2.329      4.599
REMARK INTER + INTRA:          -4.773
REMARK INTER:                  -4.683
REMARK INTRA:                  -0.090
REMARK UNBOUND:                -0.089
REMARK SMILES C=C(C)[C@H]1CC=C(C)C(=O)C1
REMARK SMILES IDX 8 1 7 2 6 3 5 4 4 5 11 6 9 7 10 8 2 9 1 10 3 11
REMARK H PARENT
REMARK Flexibility Score: inf
ROOT
ATOM      1  C   UNL     1      87.843  38.308  27.898  1.00  0.00     0.048 C 
ATOM      2  C   UNL     1      87.363  37.580  26.673  1.00  0.00    -0.012 C 
ATOM      3  C   UNL     1      88.070  37.653  25.531  1.00  0.00    -0.019 C 
ATOM      4  C   UNL     1      87.626  36.960  24.270  1.00  0.00     0.036 C 
ATOM      5  C   UNL     1      86.882  35.649  24.591  1.00  0.00     0.025 C 
ATOM      6  C   UNL     1      85.709  35.922  25.552  1.00  0.00     0.089 C 
ATOM      7  C   UNL     1      86.181  36.688  26.758  1.00  0.00     0.158 C 
ATOM      8  O   UNL     1      85.537  36.590  27.838  1.00  0.00    -0.295 OA
ENDROOT
BRANCH   5   9
ATOM      9  C   UNL     1      86.417  34.941  23.325  1.00  0.00    -0.077 C 
ATOM     10  C   UNL     1      87.263  34.202  22.587  1.00  0.00     0.008 C 
ATOM     11  C   UNL     1      84.983  35.061  22.877  1.00  0.00     0.039 C 
ENDBRANCH   5   9
TORSDOF 1
ENDMDL
MODEL 6
REMARK VINA RESULT:    -4.390      1.681      2.612
REMARK INTER + INTRA:          -4.735
REMARK INTER:                  -4.641
REMARK INTRA:                  -0.094
REMARK UNBOUND:                -0.089
REMARK SMILES C=C(C)[C@H]1CC=C(C)C(=O)C1
REMARK SMILES IDX 8 1 7 2 6 3 5 4 4 5 11 6 9 7 10 8 2 9 1 10 3 11
REMARK H PARENT
REMARK Flexibility Score: inf
ROOT
ATOM      1  C   UNL     1      85.082  34.915  23.450  1.00  0.00     0.048 C 
ATOM      2  C   UNL     1      86.043  35.733  24.268  1.00  0.00    -0.012 C 
ATOM      3  C   UNL     1      87.202  36.144  23.724  1.00  0.00    -0.019 C 
ATOM      4  C   UNL     1      88.209  36.950  24.503  1.00  0.00     0.036 C 
ATOM      5  C   UNL     1      87.513  37.866  25.527  1.00  0.00     0.025 C 
ATOM      6  C   UNL     1      86.591  37.040  26.444  1.00  0.00     0.089 C 
ATOM      7  C   UNL     1      85.658  36.189  25.627  1.00  0.00     0.158 C 
ATOM      8  O   UNL     1      84.555  35.834  26.125  1.00  0.00    -0.295 OA
ENDROOT
BRANCH   5   9
ATOM      9  C   UNL     1      88.520  38.680  26.330  1.00  0.00    -0.077 C 
ATOM     10  C   UNL     1      89.077  38.192  27.451  1.00  0.00     0.008 C 
ATOM     11  C   UNL     1      88.911  40.061  25.870  1.00  0.00     0.039 C 
ENDBRANCH   5   9
TORSDOF 1
ENDMDL
MODEL 7
REMARK VINA RESULT:    -4.340      2.042      4.311
REMARK INTER + INTRA:          -4.682
REMARK INTER:                  -4.587
REMARK INTRA:                  -0.095
REMARK UNBOUND:                -0.089
REMARK SMILES C=C(C)[C@H]1CC=C(C)C(=O)C1
REMARK SMILES IDX 8 1 7 2 6 3 5 4 4 5 11 6 9 7 10 8 2 9 1 10 3 11
REMARK H PARENT
REMARK Flexibility Score: inf
ROOT
ATOM      1  C   UNL     1      88.029  37.725  25.323  1.00  0.00     0.048 C 
ATOM      2  C   UNL     1      87.289  37.512  26.614  1.00  0.00    -0.012 C 
ATOM      3  C   UNL     1      87.690  38.149  27.728  1.00  0.00    -0.019 C 
ATOM      4  C   UNL     1      86.997  37.958  29.051  1.00  0.00     0.036 C 
ATOM      5  C   UNL     1      85.491  37.698  28.856  1.00  0.00     0.025 C 
ATOM      6  C   UNL     1      85.273  36.506  27.905  1.00  0.00     0.089 C 
ATOM      7  C   UNL     1      86.047  36.699  26.631  1.00  0.00     0.158 C 
ATOM      8  O   UNL     1      85.649  36.130  25.578  1.00  0.00    -0.295 OA
ENDROOT
BRANCH   5   9
ATOM      9  C   UNL     1      84.778  37.493  30.187  1.00  0.00    -0.077 C 
ATOM     10  C   UNL     1      84.627  36.267  30.716  1.00  0.00     0.008 C 
ATOM     11  C   UNL     1      84.227  38.677  30.938  1.00  0.00     0.039 C 
ENDBRANCH   5   9
TORSDOF 1
ENDMDL
MODEL 8
REMARK VINA RESULT:    -4.220      1.846      2.641
REMARK INTER + INTRA:          -4.555
REMARK INTER:                  -4.460
REMARK INTRA:                  -0.095
REMARK UNBOUND:                -0.089
REMARK SMILES C=C(C)[C@H]1CC=C(C)C(=O)C1
REMARK SMILES IDX 8 1 7 2 6 3 5 4 4 5 11 6 9 7 10 8 2 9 1 10 3 11
REMARK H PARENT
REMARK Flexibility Score: inf
ROOT
ATOM      1  C   UNL     1      84.591  36.021  30.478  1.00  0.00     0.048 C 
ATOM      2  C   UNL     1      85.345  36.642  29.335  1.00  0.00    -0.012 C 
ATOM      3  C   UNL     1      86.294  37.563  29.581  1.00  0.00    -0.019 C 
ATOM      4  C   UNL     1      87.066  38.231  28.474  1.00  0.00     0.036 C 
ATOM      5  C   UNL     1      87.261  37.276  27.280  1.00  0.00     0.025 C 
ATOM      6  C   UNL     1      85.901  36.736  26.800  1.00  0.00     0.089 C 
ATOM      7  C   UNL     1      85.128  36.152  27.951  1.00  0.00     0.158 C 
ATOM      8  O   UNL     1      84.264  35.263  27.722  1.00  0.00    -0.295 OA
ENDROOT
BRANCH   5   9
ATOM      9  C   UNL     1      88.032  37.942  26.148  1.00  0.00    -0.077 C 
ATOM     10  C   UNL     1      88.874  38.963  26.381  1.00  0.00     0.008 C 
ATOM     11  C   UNL     1      87.861  37.457  24.731  1.00  0.00     0.039 C 
ENDBRANCH   5   9
TORSDOF 1
ENDMDL
MODEL 9
REMARK VINA RESULT:    -4.127      1.026      4.488
REMARK INTER + INTRA:          -4.456
REMARK INTER:                  -4.368
REMARK INTRA:                  -0.088
REMARK UNBOUND:                -0.089
REMARK SMILES C=C(C)[C@H]1CC=C(C)C(=O)C1
REMARK SMILES IDX 8 1 7 2 6 3 5 4 4 5 11 6 9 7 10 8 2 9 1 10 3 11
REMARK H PARENT
REMARK Flexibility Score: inf
ROOT
ATOM      1  C   UNL     1      89.204  39.357  26.317  1.00  0.00     0.048 C 
ATOM      2  C   UNL     1      88.208  38.274  26.626  1.00  0.00    -0.012 C 
ATOM      3  C   UNL     1      87.789  38.091  27.890  1.00  0.00    -0.019 C 
ATOM      4  C   UNL     1      86.807  37.009  28.258  1.00  0.00     0.036 C 
ATOM      5  C   UNL     1      85.814  36.748  27.109  1.00  0.00     0.025 C 
ATOM      6  C   UNL     1      86.573  36.429  25.807  1.00  0.00     0.089 C 
ATOM      7  C   UNL     1      87.599  37.491  25.521  1.00  0.00     0.158 C 
ATOM      8  O   UNL     1      87.966  37.686  24.330  1.00  0.00    -0.295 OA
ENDROOT
BRANCH   5   9
ATOM      9  C   UNL     1      84.821  35.648  27.463  1.00  0.00    -0.077 C 
ATOM     10  C   UNL     1      83.510  35.909  27.606  1.00  0.00     0.008 C 
ATOM     11  C   UNL     1      85.301  34.233  27.660  1.00  0.00     0.039 C 
ENDBRANCH   5   9
TORSDOF 1
ENDMDL
