MODEL 1
REMARK VINA RESULT:    -3.640      0.000      0.000
REMARK INTER + INTRA:          -5.886
REMARK INTER:                  -5.342
REMARK INTRA:                  -0.544
REMARK UNBOUND:                -0.544
REMARK SMILES O=C([O-])CCCCCCCC(=O)[O-]
REMARK SMILES IDX 7 1 6 2 5 3 4 4 2 5 1 6 3 7 8 8 9 9 10 10 11 11 12 12 13 13
REMARK H PARENT
REMARK Flexibility Score: inf
ROOT
ATOM      1  C   UNL     1      -6.097 -64.429  -1.810  1.00  0.00     0.000 C 
ENDROOT
BRANCH   1   2
ATOM      2  C   UNL     1      -7.277 -63.793  -1.059  1.00  0.00     0.000 C 
BRANCH   2   3
ATOM      3  C   UNL     1      -8.554 -64.620  -1.243  1.00  0.00     0.006 C 
BRANCH   3   4
ATOM      4  C   UNL     1      -9.114 -65.075   0.108  1.00  0.00     0.053 C 
BRANCH   4   5
ATOM      5  C   UNL     1      -8.706 -66.486   0.396  1.00  0.00     0.041 C 
ATOM      6  O   UNL     1      -8.574 -67.312  -0.545  1.00  0.00    -0.550 OA
ATOM      7  O   UNL     1      -8.521 -66.902   1.708  1.00  0.00    -0.550 OA
ENDBRANCH   4   5
ENDBRANCH   3   4
ENDBRANCH   2   3
ENDBRANCH   1   2
BRANCH   1   8
ATOM      8  C   UNL     1      -5.414 -65.545  -1.003  1.00  0.00     0.000 C 
BRANCH   8   9
ATOM      9  C   UNL     1      -5.120 -66.792  -1.851  1.00  0.00     0.006 C 
BRANCH   9  10
ATOM     10  C   UNL     1      -4.439 -66.410  -3.169  1.00  0.00     0.053 C 
BRANCH  10  11
ATOM     11  C   UNL     1      -4.333 -67.600  -4.068  1.00  0.00     0.041 C 
ATOM     12  O   UNL     1      -3.543 -67.586  -5.048  1.00  0.00    -0.550 OA
ATOM     13  O   UNL     1      -5.144 -68.709  -3.854  1.00  0.00    -0.550 OA
ENDBRANCH  10  11
ENDBRANCH   9  10
ENDBRANCH   8   9
ENDBRANCH   1   8
TORSDOF 8
ENDMDL
MODEL 2
REMARK VINA RESULT:    -3.626      1.456      5.091
REMARK INTER + INTRA:          -5.865
REMARK INTER:                  -5.365
REMARK INTRA:                  -0.500
REMARK UNBOUND:                -0.544
REMARK SMILES O=C([O-])CCCCCCCC(=O)[O-]
REMARK SMILES IDX 7 1 6 2 5 3 4 4 2 5 1 6 3 7 8 8 9 9 10 10 11 11 12 12 13 13
REMARK H PARENT
REMARK Flexibility Score: inf
ROOT
ATOM      1  C   UNL     1      -6.942 -65.183  -0.572  1.00  0.00     0.000 C 
ENDROOT
BRANCH   1   2
ATOM      2  C   UNL     1      -5.475 -65.497  -0.903  1.00  0.00     0.000 C 
BRANCH   2   3
ATOM      3  C   UNL     1      -5.366 -66.744  -1.787  1.00  0.00     0.006 C 
BRANCH   3   4
ATOM      4  C   UNL     1      -4.404 -66.510  -2.954  1.00  0.00     0.053 C 
BRANCH   4   5
ATOM      5  C   UNL     1      -4.473 -67.644  -3.927  1.00  0.00     0.041 C 
ATOM      6  O   UNL     1      -5.194 -68.647  -3.680  1.00  0.00    -0.550 OA
ATOM      7  O   UNL     1      -3.703 -67.618  -5.082  1.00  0.00    -0.550 OA
ENDBRANCH   4   5
ENDBRANCH   3   4
ENDBRANCH   2   3
ENDBRANCH   1   2
BRANCH   1   8
ATOM      8  C   UNL     1      -7.365 -65.712   0.808  1.00  0.00     0.000 C 
BRANCH   8   9
ATOM      9  C   UNL     1      -8.563 -66.669   0.734  1.00  0.00     0.006 C 
BRANCH   9  10
ATOM     10  C   UNL     1      -8.955 -66.943  -0.722  1.00  0.00     0.053 C 
BRANCH  10  11
ATOM     11  C   UNL     1      -8.877 -68.407  -1.019  1.00  0.00     0.041 C 
ATOM     12  O   UNL     1      -8.065 -68.836  -1.880  1.00  0.00    -0.550 OA
ATOM     13  O   UNL     1      -9.736 -69.293  -0.380  1.00  0.00    -0.550 OA
ENDBRANCH  10  11
ENDBRANCH   9  10
ENDBRANCH   8   9
ENDBRANCH   1   8
TORSDOF 8
ENDMDL
MODEL 3
REMARK VINA RESULT:    -3.576      1.553      4.972
REMARK INTER + INTRA:          -5.793
REMARK INTER:                  -5.139
REMARK INTRA:                  -0.654
REMARK UNBOUND:                -0.544
REMARK SMILES O=C([O-])CCCCCCCC(=O)[O-]
REMARK SMILES IDX 7 1 6 2 5 3 4 4 2 5 1 6 3 7 8 8 9 9 10 10 11 11 12 12 13 13
REMARK H PARENT
REMARK Flexibility Score: inf
ROOT
ATOM      1  C   UNL     1      -6.245 -64.299   0.649  1.00  0.00     0.000 C 
ENDROOT
BRANCH   1   2
ATOM      2  C   UNL     1      -5.032 -65.055   0.088  1.00  0.00     0.000 C 
BRANCH   2   3
ATOM      3  C   UNL     1      -5.207 -65.342  -1.408  1.00  0.00     0.006 C 
BRANCH   3   4
ATOM      4  C   UNL     1      -5.395 -66.840  -1.662  1.00  0.00     0.053 C 
BRANCH   4   5
ATOM      5  C   UNL     1      -4.759 -67.236  -2.957  1.00  0.00     0.041 C 
ATOM      6  O   UNL     1      -3.922 -66.475  -3.510  1.00  0.00    -0.550 OA
ATOM      7  O   UNL     1      -5.127 -68.422  -3.579  1.00  0.00    -0.550 OA
ENDBRANCH   4   5
ENDBRANCH   3   4
ENDBRANCH   2   3
ENDBRANCH   1   2
BRANCH   1   8
ATOM      8  C   UNL     1      -6.948 -65.063   1.783  1.00  0.00     0.000 C 
BRANCH   8   9
ATOM      9  C   UNL     1      -8.437 -65.306   1.499  1.00  0.00     0.006 C 
BRANCH   9  10
ATOM     10  C   UNL     1      -8.676 -66.742   1.021  1.00  0.00     0.053 C 
BRANCH  10  11
ATOM     11  C   UNL     1      -8.856 -66.777  -0.464  1.00  0.00     0.041 C 
ATOM     12  O   UNL     1      -8.863 -65.707  -1.127  1.00  0.00    -0.550 OA
ATOM     13  O   UNL     1      -9.066 -67.990  -1.110  1.00  0.00    -0.550 OA
ENDBRANCH  10  11
ENDBRANCH   9  10
ENDBRANCH   8   9
ENDBRANCH   1   8
TORSDOF 8
ENDMDL
MODEL 4
REMARK VINA RESULT:    -3.565      1.704      2.140
REMARK INTER + INTRA:          -5.776
REMARK INTER:                  -5.509
REMARK INTRA:                  -0.267
REMARK UNBOUND:                -0.544
REMARK SMILES O=C([O-])CCCCCCCC(=O)[O-]
REMARK SMILES IDX 7 1 6 2 5 3 4 4 2 5 1 6 3 7 8 8 9 9 10 10 11 11 12 12 13 13
REMARK H PARENT
REMARK Flexibility Score: inf
ROOT
ATOM      1  C   UNL     1      -5.262 -65.855  -1.205  1.00  0.00     0.000 C 
ENDROOT
BRANCH   1   2
ATOM      2  C   UNL     1      -6.501 -65.915  -0.299  1.00  0.00     0.000 C 
BRANCH   2   3
ATOM      3  C   UNL     1      -7.635 -66.698  -0.970  1.00  0.00     0.006 C 
BRANCH   3   4
ATOM      4  C   UNL     1      -8.749 -67.020   0.030  1.00  0.00     0.053 C 
BRANCH   4   5
ATOM      5  C   UNL     1      -9.164 -65.786   0.768  1.00  0.00     0.041 C 
ATOM      6  O   UNL     1      -9.696 -64.827   0.148  1.00  0.00    -0.550 OA
ATOM      7  O   UNL     1      -8.919 -65.674   2.130  1.00  0.00    -0.550 OA
ENDBRANCH   4   5
ENDBRANCH   3   4
ENDBRANCH   2   3
ENDBRANCH   1   2
BRANCH   1   8
ATOM      8  C   UNL     1      -5.153 -67.069  -2.142  1.00  0.00     0.000 C 
BRANCH   8   9
ATOM      9  C   UNL     1      -4.400 -66.748  -3.441  1.00  0.00     0.006 C 
BRANCH   9  10
ATOM     10  C   UNL     1      -4.430 -67.942  -4.400  1.00  0.00     0.053 C 
BRANCH  10  11
ATOM     11  C   UNL     1      -4.052 -67.513  -5.783  1.00  0.00     0.041 C 
ATOM     12  O   UNL     1      -4.326 -68.244  -6.770  1.00  0.00    -0.550 OA
ATOM     13  O   UNL     1      -3.352 -66.328  -5.977  1.00  0.00    -0.550 OA
ENDBRANCH  10  11
ENDBRANCH   9  10
ENDBRANCH   8   9
ENDBRANCH   1   8
TORSDOF 8
ENDMDL
MODEL 5
REMARK VINA RESULT:    -3.548      1.578      6.340
REMARK INTER + INTRA:          -5.751
REMARK INTER:                  -5.404
REMARK INTRA:                  -0.346
REMARK UNBOUND:                -0.544
REMARK SMILES O=C([O-])CCCCCCCC(=O)[O-]
REMARK SMILES IDX 7 1 6 2 5 3 4 4 2 5 1 6 3 7 8 8 9 9 10 10 11 11 12 12 13 13
REMARK H PARENT
REMARK Flexibility Score: inf
ROOT
ATOM      1  C   UNL     1      -5.269 -65.417  -1.894  1.00  0.00     0.000 C 
ENDROOT
BRANCH   1   2
ATOM      2  C   UNL     1      -4.827 -66.811  -2.364  1.00  0.00     0.000 C 
BRANCH   2   3
ATOM      3  C   UNL     1      -4.083 -66.729  -3.701  1.00  0.00     0.006 C 
BRANCH   3   4
ATOM      4  C   UNL     1      -4.501 -67.868  -4.635  1.00  0.00     0.053 C 
BRANCH   4   5
ATOM      5  C   UNL     1      -4.028 -67.604  -6.030  1.00  0.00     0.041 C 
ATOM      6  O   UNL     1      -3.437 -66.526  -6.304  1.00  0.00    -0.550 OA
ATOM      7  O   UNL     1      -4.285 -68.524  -7.038  1.00  0.00    -0.550 OA
ENDBRANCH   4   5
ENDBRANCH   3   4
ENDBRANCH   2   3
ENDBRANCH   1   2
BRANCH   1   8
ATOM      8  C   UNL     1      -6.538 -65.458  -1.027  1.00  0.00     0.000 C 
BRANCH   8   9
ATOM      9  C   UNL     1      -7.129 -66.871  -0.909  1.00  0.00     0.006 C 
BRANCH   9  10
ATOM     10  C   UNL     1      -8.657 -66.818  -0.818  1.00  0.00     0.053 C 
BRANCH  10  11
ATOM     11  C   UNL     1      -9.084 -66.005   0.362  1.00  0.00     0.041 C 
ATOM     12  O   UNL     1      -8.884 -66.428   1.531  1.00  0.00    -0.550 OA
ATOM     13  O   UNL     1      -9.748 -64.798   0.172  1.00  0.00    -0.550 OA
ENDBRANCH  10  11
ENDBRANCH   9  10
ENDBRANCH   8   9
ENDBRANCH   1   8
TORSDOF 8
ENDMDL
MODEL 6
REMARK VINA RESULT:    -3.528      1.909      6.428
REMARK INTER + INTRA:          -5.722
REMARK INTER:                  -5.451
REMARK INTRA:                  -0.270
REMARK UNBOUND:                -0.544
REMARK SMILES O=C([O-])CCCCCCCC(=O)[O-]
REMARK SMILES IDX 7 1 6 2 5 3 4 4 2 5 1 6 3 7 8 8 9 9 10 10 11 11 12 12 13 13
REMARK H PARENT
REMARK Flexibility Score: inf
ROOT
ATOM      1  C   UNL     1      -5.040 -67.082  -2.219  1.00  0.00     0.000 C 
ENDROOT
BRANCH   1   2
ATOM      2  C   UNL     1      -4.325 -66.656  -3.510  1.00  0.00     0.000 C 
BRANCH   2   3
ATOM      3  C   UNL     1      -4.388 -67.767  -4.565  1.00  0.00     0.006 C 
BRANCH   3   4
ATOM      4  C   UNL     1      -3.500 -67.435  -5.767  1.00  0.00     0.053 C 
BRANCH   4   5
ATOM      5  C   UNL     1      -4.304 -67.430  -7.029  1.00  0.00     0.041 C 
ATOM      6  O   UNL     1      -4.990 -66.421  -7.339  1.00  0.00    -0.550 OA
ATOM      7  O   UNL     1      -4.337 -68.559  -7.836  1.00  0.00    -0.550 OA
ENDBRANCH   4   5
ENDBRANCH   3   4
ENDBRANCH   2   3
ENDBRANCH   1   2
BRANCH   1   8
ATOM      8  C   UNL     1      -4.780 -66.117  -1.051  1.00  0.00     0.000 C 
BRANCH   8   9
ATOM      9  C   UNL     1      -6.070 -65.490  -0.504  1.00  0.00     0.006 C 
BRANCH   9  10
ATOM     10  C   UNL     1      -7.273 -66.405  -0.754  1.00  0.00     0.053 C 
BRANCH  10  11
ATOM     11  C   UNL     1      -8.551 -65.678  -0.477  1.00  0.00     0.041 C 
ATOM     12  O   UNL     1      -8.832 -64.625  -1.108  1.00  0.00    -0.550 OA
ATOM     13  O   UNL     1      -9.410 -66.136   0.515  1.00  0.00    -0.550 OA
ENDBRANCH  10  11
ENDBRANCH   9  10
ENDBRANCH   8   9
ENDBRANCH   1   8
TORSDOF 8
ENDMDL
MODEL 7
REMARK VINA RESULT:    -3.514      1.393      5.786
REMARK INTER + INTRA:          -5.702
REMARK INTER:                  -5.147
REMARK INTRA:                  -0.555
REMARK UNBOUND:                -0.544
REMARK SMILES O=C([O-])CCCCCCCC(=O)[O-]
REMARK SMILES IDX 7 1 6 2 5 3 4 4 2 5 1 6 3 7 8 8 9 9 10 10 11 11 12 12 13 13
REMARK H PARENT
REMARK Flexibility Score: inf
ROOT
ATOM      1  C   UNL     1      -6.837 -64.511  -1.155  1.00  0.00     0.000 C 
ENDROOT
BRANCH   1   2
ATOM      2  C   UNL     1      -5.702 -65.374  -0.583  1.00  0.00     0.000 C 
BRANCH   2   3
ATOM      3  C   UNL     1      -4.729 -65.803  -1.686  1.00  0.00     0.006 C 
BRANCH   3   4
ATOM      4  C   UNL     1      -5.125 -67.160  -2.273  1.00  0.00     0.053 C 
BRANCH   4   5
ATOM      5  C   UNL     1      -4.477 -67.365  -3.606  1.00  0.00     0.041 C 
ATOM      6  O   UNL     1      -3.691 -66.496  -4.067  1.00  0.00    -0.550 OA
ATOM      7  O   UNL     1      -4.780 -68.490  -4.361  1.00  0.00    -0.550 OA
ENDBRANCH   4   5
ENDBRANCH   3   4
ENDBRANCH   2   3
ENDBRANCH   1   2
BRANCH   1   8
ATOM      8  C   UNL     1      -8.211 -65.191  -1.048  1.00  0.00     0.000 C 
BRANCH   8   9
ATOM      9  C   UNL     1      -8.184 -66.444  -0.160  1.00  0.00     0.006 C 
BRANCH   9  10
ATOM     10  C   UNL     1      -8.995 -66.225   1.120  1.00  0.00     0.053 C 
BRANCH  10  11
ATOM     11  C   UNL     1      -8.133 -66.422   2.327  1.00  0.00     0.041 C 
ATOM     12  O   UNL     1      -8.354 -67.379   3.115  1.00  0.00    -0.550 OA
ATOM     13  O   UNL     1      -7.115 -65.519   2.609  1.00  0.00    -0.550 OA
ENDBRANCH  10  11
ENDBRANCH   9  10
ENDBRANCH   8   9
ENDBRANCH   1   8
TORSDOF 8
ENDMDL
MODEL 8
REMARK VINA RESULT:    -3.430      1.689      2.274
REMARK INTER + INTRA:          -5.578
REMARK INTER:                  -5.199
REMARK INTRA:                  -0.379
REMARK UNBOUND:                -0.544
REMARK SMILES O=C([O-])CCCCCCCC(=O)[O-]
REMARK SMILES IDX 7 1 6 2 5 3 4 4 2 5 1 6 3 7 8 8 9 9 10 10 11 11 12 12 13 13
REMARK H PARENT
REMARK Flexibility Score: inf
ROOT
ATOM      1  C   UNL     1      -7.262 -66.142  -0.757  1.00  0.00     0.000 C 
ENDROOT
BRANCH   1   2
ATOM      2  C   UNL     1      -8.598 -65.388  -0.679  1.00  0.00     0.000 C 
BRANCH   2   3
ATOM      3  C   UNL     1      -9.275 -65.609   0.678  1.00  0.00     0.006 C 
BRANCH   3   4
ATOM      4  C   UNL     1      -8.527 -66.660   1.502  1.00  0.00     0.053 C 
BRANCH   4   5
ATOM      5  C   UNL     1      -8.348 -66.192   2.912  1.00  0.00     0.041 C 
ATOM      6  O   UNL     1      -9.326 -66.183   3.705  1.00  0.00    -0.550 OA
ATOM      7  O   UNL     1      -7.113 -65.718   3.336  1.00  0.00    -0.550 OA
ENDBRANCH   4   5
ENDBRANCH   3   4
ENDBRANCH   2   3
ENDBRANCH   1   2
BRANCH   1   8
ATOM      8  C   UNL     1      -6.081 -65.221  -1.103  1.00  0.00     0.000 C 
BRANCH   8   9
ATOM      9  C   UNL     1      -4.793 -66.000  -1.407  1.00  0.00     0.006 C 
BRANCH   9  10
ATOM     10  C   UNL     1      -5.093 -67.249  -2.242  1.00  0.00     0.053 C 
BRANCH  10  11
ATOM     11  C   UNL     1      -4.439 -67.153  -3.583  1.00  0.00     0.041 C 
ATOM     12  O   UNL     1      -4.599 -68.066  -4.435  1.00  0.00    -0.550 OA
ATOM     13  O   UNL     1      -3.610 -66.076  -3.877  1.00  0.00    -0.550 OA
ENDBRANCH  10  11
ENDBRANCH   9  10
ENDBRANCH   8   9
ENDBRANCH   1   8
TORSDOF 8
ENDMDL
MODEL 9
REMARK VINA RESULT:    -3.410      9.681     11.892
REMARK INTER + INTRA:          -5.548
REMARK INTER:                  -5.114
REMARK INTRA:                  -0.434
REMARK UNBOUND:                -0.544
REMARK SMILES O=C([O-])CCCCCCCC(=O)[O-]
REMARK SMILES IDX 7 1 6 2 5 3 4 4 2 5 1 6 3 7 8 8 9 9 10 10 11 11 12 12 13 13
REMARK H PARENT
REMARK Flexibility Score: inf
ROOT
ATOM      1  C   UNL     1      -7.739 -72.476   4.675  1.00  0.00     0.000 C 
ENDROOT
BRANCH   1   2
ATOM      2  C   UNL     1      -7.546 -73.009   6.103  1.00  0.00     0.000 C 
BRANCH   2   3
ATOM      3  C   UNL     1      -7.414 -74.536   6.106  1.00  0.00     0.006 C 
BRANCH   3   4
ATOM      4  C   UNL     1      -6.609 -75.021   4.897  1.00  0.00     0.053 C 
BRANCH   4   5
ATOM      5  C   UNL     1      -7.277 -76.199   4.260  1.00  0.00     0.041 C 
ATOM      6  O   UNL     1      -7.465 -76.223   3.015  1.00  0.00    -0.550 OA
ATOM      7  O   UNL     1      -7.738 -77.247   5.046  1.00  0.00    -0.550 OA
ENDBRANCH   4   5
ENDBRANCH   3   4
ENDBRANCH   2   3
ENDBRANCH   1   2
BRANCH   1   8
ATOM      8  C   UNL     1      -9.220 -72.289   4.308  1.00  0.00     0.000 C 
BRANCH   8   9
ATOM      9  C   UNL     1     -10.151 -72.401   5.525  1.00  0.00     0.006 C 
BRANCH   9  10
ATOM     10  C   UNL     1     -11.402 -73.215   5.183  1.00  0.00     0.053 C 
BRANCH  10  11
ATOM     11  C   UNL     1     -12.571 -72.741   5.987  1.00  0.00     0.041 C 
ATOM     12  O   UNL     1     -12.613 -71.555   6.408  1.00  0.00    -0.550 OA
ATOM     13  O   UNL     1     -13.594 -73.624   6.315  1.00  0.00    -0.550 OA
ENDBRANCH  10  11
ENDBRANCH   9  10
ENDBRANCH   8   9
ENDBRANCH   1   8
TORSDOF 8
ENDMDL
