MODEL 1
REMARK VINA RESULT:    -3.991      0.000      0.000
REMARK INTER + INTRA:          -7.098
REMARK INTER:                  -6.091
REMARK INTRA:                  -1.007
REMARK UNBOUND:                -1.007
REMARK SMILES O=C([O-])CCCCCCCCC(=O)[O-]
REMARK SMILES IDX 7 1 6 2 5 3 4 4 2 5 1 6 3 7 8 8 9 9 10 10 11 11 12 12 13 13
REMARK SMILES IDX 14 14
REMARK H PARENT
REMARK Flexibility Score: inf
ROOT
ATOM      1  C   UNL     1     208.368 206.055 157.942  1.00  0.00     0.000 C 
ENDROOT
BRANCH   1   2
ATOM      2  C   UNL     1     208.537 207.581 157.865  1.00  0.00     0.000 C 
BRANCH   2   3
ATOM      3  C   UNL     1     207.319 208.284 157.246  1.00  0.00     0.006 C 
BRANCH   3   4
ATOM      4  C   UNL     1     206.453 207.290 156.467  1.00  0.00     0.053 C 
BRANCH   4   5
ATOM      5  C   UNL     1     205.083 207.208 157.063  1.00  0.00     0.041 C 
ATOM      6  O   UNL     1     204.178 206.549 156.485  1.00  0.00    -0.550 OA
ATOM      7  O   UNL     1     204.817 207.819 158.282  1.00  0.00    -0.550 OA
ENDBRANCH   4   5
ENDBRANCH   3   4
ENDBRANCH   2   3
ENDBRANCH   1   2
BRANCH   1   8
ATOM      8  C   UNL     1     208.243 205.547 159.389  1.00  0.00     0.000 C 
BRANCH   8   9
ATOM      9  C   UNL     1     206.790 205.233 159.780  1.00  0.00     0.000 C 
BRANCH   9  10
ATOM     10  C   UNL     1     206.389 203.782 159.455  1.00  0.00     0.006 C 
BRANCH  10  11
ATOM     11  C   UNL     1     205.421 203.701 158.269  1.00  0.00     0.053 C 
BRANCH  11  12
ATOM     12  C   UNL     1     206.082 203.131 157.051  1.00  0.00     0.041 C 
ATOM     13  O   UNL     1     206.222 203.837 156.018  1.00  0.00    -0.550 OA
ATOM     14  O   UNL     1     206.511 201.810 157.045  1.00  0.00    -0.550 OA
ENDBRANCH  11  12
ENDBRANCH  10  11
ENDBRANCH   9  10
ENDBRANCH   8   9
ENDBRANCH   1   8
TORSDOF 9
ENDMDL
MODEL 2
REMARK VINA RESULT:    -3.988      2.076      5.116
REMARK INTER + INTRA:          -7.093
REMARK INTER:                  -6.172
REMARK INTRA:                  -0.920
REMARK UNBOUND:                -1.007
REMARK SMILES O=C([O-])CCCCCCCCC(=O)[O-]
REMARK SMILES IDX 7 1 6 2 5 3 4 4 2 5 1 6 3 7 8 8 9 9 10 10 11 11 12 12 13 13
REMARK SMILES IDX 14 14
REMARK H PARENT
REMARK Flexibility Score: inf
ROOT
ATOM      1  C   UNL     1     207.446 205.608 156.186  1.00  0.00     0.000 C 
ENDROOT
BRANCH   1   2
ATOM      2  C   UNL     1     207.395 204.092 156.440  1.00  0.00     0.000 C 
BRANCH   2   3
ATOM      3  C   UNL     1     205.960 203.543 156.467  1.00  0.00     0.006 C 
BRANCH   3   4
ATOM      4  C   UNL     1     205.256 203.918 157.774  1.00  0.00     0.053 C 
BRANCH   4   5
ATOM      5  C   UNL     1     205.942 203.283 158.942  1.00  0.00     0.041 C 
ATOM      6  O   UNL     1     205.929 202.031 159.081  1.00  0.00    -0.550 OA
ATOM      7  O   UNL     1     206.640 204.069 159.850  1.00  0.00    -0.550 OA
ENDBRANCH   4   5
ENDBRANCH   3   4
ENDBRANCH   2   3
ENDBRANCH   1   2
BRANCH   1   8
ATOM      8  C   UNL     1     208.081 206.381 157.354  1.00  0.00     0.000 C 
BRANCH   8   9
ATOM      9  C   UNL     1     207.042 207.147 158.189  1.00  0.00     0.000 C 
BRANCH   9  10
ATOM     10  C   UNL     1     205.804 207.553 157.368  1.00  0.00     0.006 C 
BRANCH  10  11
ATOM     11  C   UNL     1     205.865 209.017 156.914  1.00  0.00     0.053 C 
BRANCH  11  12
ATOM     12  C   UNL     1     206.032 209.951 158.074  1.00  0.00     0.041 C 
ATOM     13  O   UNL     1     205.124 210.053 158.940  1.00  0.00    -0.550 OA
ATOM     14  O   UNL     1     207.175 210.734 158.180  1.00  0.00    -0.550 OA
ENDBRANCH  11  12
ENDBRANCH  10  11
ENDBRANCH   9  10
ENDBRANCH   8   9
ENDBRANCH   1   8
TORSDOF 9
ENDMDL
MODEL 3
REMARK VINA RESULT:    -3.981      1.106      4.455
REMARK INTER + INTRA:          -7.083
REMARK INTER:                  -6.082
REMARK INTRA:                  -1.001
REMARK UNBOUND:                -1.007
REMARK SMILES O=C([O-])CCCCCCCCC(=O)[O-]
REMARK SMILES IDX 7 1 6 2 5 3 4 4 2 5 1 6 3 7 8 8 9 9 10 10 11 11 12 12 13 13
REMARK SMILES IDX 14 14
REMARK H PARENT
REMARK Flexibility Score: inf
ROOT
ATOM      1  C   UNL     1     206.745 205.233 159.760  1.00  0.00     0.000 C 
ENDROOT
BRANCH   1   2
ATOM      2  C   UNL     1     206.338 203.795 159.398  1.00  0.00     0.000 C 
BRANCH   2   3
ATOM      3  C   UNL     1     205.164 203.741 158.408  1.00  0.00     0.006 C 
BRANCH   3   4
ATOM      4  C   UNL     1     205.639 204.028 156.981  1.00  0.00     0.053 C 
BRANCH   4   5
ATOM      5  C   UNL     1     206.735 203.087 156.593  1.00  0.00     0.041 C 
ATOM      6  O   UNL     1     206.505 201.852 156.494  1.00  0.00    -0.550 OA
ATOM      7  O   UNL     1     207.999 203.577 156.292  1.00  0.00    -0.550 OA
ENDBRANCH   4   5
ENDBRANCH   3   4
ENDBRANCH   2   3
ENDBRANCH   1   2
BRANCH   1   8
ATOM      8  C   UNL     1     208.217 205.531 159.427  1.00  0.00     0.000 C 
BRANCH   8   9
ATOM      9  C   UNL     1     208.368 206.540 158.277  1.00  0.00     0.000 C 
BRANCH   9  10
ATOM     10  C   UNL     1     207.050 207.262 157.943  1.00  0.00     0.006 C 
BRANCH  10  11
ATOM     11  C   UNL     1     206.890 207.509 156.438  1.00  0.00     0.053 C 
BRANCH  11  12
ATOM     12  C   UNL     1     205.533 208.049 156.105  1.00  0.00     0.041 C 
ATOM     13  O   UNL     1     205.281 209.272 156.270  1.00  0.00    -0.550 OA
ATOM     14  O   UNL     1     204.537 207.197 155.645  1.00  0.00    -0.550 OA
ENDBRANCH  11  12
ENDBRANCH  10  11
ENDBRANCH   9  10
ENDBRANCH   8   9
ENDBRANCH   1   8
TORSDOF 9
ENDMDL
MODEL 4
REMARK VINA RESULT:    -3.977      1.995      4.263
REMARK INTER + INTRA:          -7.077
REMARK INTER:                  -5.999
REMARK INTRA:                  -1.078
REMARK UNBOUND:                -1.007
REMARK SMILES O=C([O-])CCCCCCCCC(=O)[O-]
REMARK SMILES IDX 7 1 6 2 5 3 4 4 2 5 1 6 3 7 8 8 9 9 10 10 11 11 12 12 13 13
REMARK SMILES IDX 14 14
REMARK H PARENT
REMARK Flexibility Score: inf
ROOT
ATOM      1  C   UNL     1     205.261 207.120 157.911  1.00  0.00     0.000 C 
ENDROOT
BRANCH   1   2
ATOM      2  C   UNL     1     204.246 206.316 157.082  1.00  0.00     0.000 C 
BRANCH   2   3
ATOM      3  C   UNL     1     204.362 204.801 157.308  1.00  0.00     0.006 C 
BRANCH   3   4
ATOM      4  C   UNL     1     205.484 204.480 158.299  1.00  0.00     0.053 C 
BRANCH   4   5
ATOM      5  C   UNL     1     205.915 203.053 158.161  1.00  0.00     0.041 C 
ATOM      6  O   UNL     1     205.964 202.305 159.173  1.00  0.00    -0.550 OA
ATOM      7  O   UNL     1     206.215 202.536 156.907  1.00  0.00    -0.550 OA
ENDBRANCH   4   5
ENDBRANCH   3   4
ENDBRANCH   2   3
ENDBRANCH   1   2
BRANCH   1   8
ATOM      8  C   UNL     1     205.709 208.411 157.205  1.00  0.00     0.000 C 
BRANCH   8   9
ATOM      9  C   UNL     1     207.181 208.754 157.484  1.00  0.00     0.000 C 
BRANCH   9  10
ATOM     10  C   UNL     1     208.025 207.513 157.831  1.00  0.00     0.006 C 
BRANCH  10  11
ATOM     11  C   UNL     1     208.794 206.978 156.617  1.00  0.00     0.053 C 
BRANCH  11  12
ATOM     12  C   UNL     1     208.309 205.620 156.207  1.00  0.00     0.041 C 
ATOM     13  O   UNL     1     207.310 205.507 155.449  1.00  0.00    -0.550 OA
ATOM     14  O   UNL     1     208.939 204.481 156.690  1.00  0.00    -0.550 OA
ENDBRANCH  11  12
ENDBRANCH  10  11
ENDBRANCH   9  10
ENDBRANCH   8   9
ENDBRANCH   1   8
TORSDOF 9
ENDMDL
MODEL 5
REMARK VINA RESULT:    -3.977      1.571      2.099
REMARK INTER + INTRA:          -7.076
REMARK INTER:                  -6.197
REMARK INTRA:                  -0.879
REMARK UNBOUND:                -1.007
REMARK SMILES O=C([O-])CCCCCCCCC(=O)[O-]
REMARK SMILES IDX 7 1 6 2 5 3 4 4 2 5 1 6 3 7 8 8 9 9 10 10 11 11 12 12 13 13
REMARK SMILES IDX 14 14
REMARK H PARENT
REMARK Flexibility Score: inf
ROOT
ATOM      1  C   UNL     1     208.223 205.461 159.525  1.00  0.00     0.000 C 
ENDROOT
BRANCH   1   2
ATOM      2  C   UNL     1     208.462 206.487 158.405  1.00  0.00     0.000 C 
BRANCH   2   3
ATOM      3  C   UNL     1     207.163 207.150 157.921  1.00  0.00     0.006 C 
BRANCH   3   4
ATOM      4  C   UNL     1     207.463 208.291 156.945  1.00  0.00     0.053 C 
BRANCH   4   5
ATOM      5  C   UNL     1     206.622 209.488 157.262  1.00  0.00     0.041 C 
ATOM      6  O   UNL     1     205.412 209.522 156.914  1.00  0.00    -0.550 OA
ATOM      7  O   UNL     1     207.161 210.545 157.985  1.00  0.00    -0.550 OA
ENDBRANCH   4   5
ENDBRANCH   3   4
ENDBRANCH   2   3
ENDBRANCH   1   2
BRANCH   1   8
ATOM      8  C   UNL     1     206.728 205.227 159.803  1.00  0.00     0.000 C 
BRANCH   8   9
ATOM      9  C   UNL     1     206.280 203.800 159.448  1.00  0.00     0.000 C 
BRANCH   9  10
ATOM     10  C   UNL     1     205.518 203.732 158.112  1.00  0.00     0.006 C 
BRANCH  10  11
ATOM     11  C   UNL     1     206.281 202.931 157.050  1.00  0.00     0.053 C 
BRANCH  11  12
ATOM     12  C   UNL     1     207.114 203.819 156.177  1.00  0.00     0.041 C 
ATOM     13  O   UNL     1     206.562 204.644 155.403  1.00  0.00    -0.550 OA
ATOM     14  O   UNL     1     208.499 203.712 156.194  1.00  0.00    -0.550 OA
ENDBRANCH  11  12
ENDBRANCH  10  11
ENDBRANCH   9  10
ENDBRANCH   8   9
ENDBRANCH   1   8
TORSDOF 9
ENDMDL
MODEL 6
REMARK VINA RESULT:    -3.975      2.524      3.701
REMARK INTER + INTRA:          -7.074
REMARK INTER:                  -6.235
REMARK INTRA:                  -0.839
REMARK UNBOUND:                -1.007
REMARK SMILES O=C([O-])CCCCCCCCC(=O)[O-]
REMARK SMILES IDX 7 1 6 2 5 3 4 4 2 5 1 6 3 7 8 8 9 9 10 10 11 11 12 12 13 13
REMARK SMILES IDX 14 14
REMARK H PARENT
REMARK Flexibility Score: inf
ROOT
ATOM      1  C   UNL     1     205.622 207.860 156.549  1.00  0.00     0.000 C 
ENDROOT
BRANCH   1   2
ATOM      2  C   UNL     1     206.571 207.720 157.751  1.00  0.00     0.000 C 
BRANCH   2   3
ATOM      3  C   UNL     1     207.801 206.853 157.438  1.00  0.00     0.006 C 
BRANCH   3   4
ATOM      4  C   UNL     1     208.999 207.723 157.050  1.00  0.00     0.053 C 
BRANCH   4   5
ATOM      5  C   UNL     1     209.417 207.443 155.641  1.00  0.00     0.041 C 
ATOM      6  O   UNL     1     208.552 207.193 154.761  1.00  0.00    -0.550 OA
ATOM      7  O   UNL     1     210.759 207.506 155.288  1.00  0.00    -0.550 OA
ENDBRANCH   4   5
ENDBRANCH   3   4
ENDBRANCH   2   3
ENDBRANCH   1   2
BRANCH   1   8
ATOM      8  C   UNL     1     205.080 206.505 156.064  1.00  0.00     0.000 C 
BRANCH   8   9
ATOM      9  C   UNL     1     203.805 206.080 156.810  1.00  0.00     0.000 C 
BRANCH   9  10
ATOM     10  C   UNL     1     203.949 204.710 157.498  1.00  0.00     0.006 C 
BRANCH  10  11
ATOM     11  C   UNL     1     205.357 204.125 157.333  1.00  0.00     0.053 C 
BRANCH  11  12
ATOM     12  C   UNL     1     205.857 203.515 158.607  1.00  0.00     0.041 C 
ATOM     13  O   UNL     1     205.820 202.267 158.769  1.00  0.00    -0.550 OA
ATOM     14  O   UNL     1     206.332 204.328 159.629  1.00  0.00    -0.550 OA
ENDBRANCH  11  12
ENDBRANCH  10  11
ENDBRANCH   9  10
ENDBRANCH   8   9
ENDBRANCH   1   8
TORSDOF 9
ENDMDL
MODEL 7
REMARK VINA RESULT:    -3.975      2.008      3.565
REMARK INTER + INTRA:          -7.073
REMARK INTER:                  -5.976
REMARK INTRA:                  -1.097
REMARK UNBOUND:                -1.007
REMARK SMILES O=C([O-])CCCCCCCCC(=O)[O-]
REMARK SMILES IDX 7 1 6 2 5 3 4 4 2 5 1 6 3 7 8 8 9 9 10 10 11 11 12 12 13 13
REMARK SMILES IDX 14 14
REMARK H PARENT
REMARK Flexibility Score: inf
ROOT
ATOM      1  C   UNL     1     206.711 204.094 159.752  1.00  0.00     0.000 C 
ENDROOT
BRANCH   1   2
ATOM      2  C   UNL     1     206.896 205.610 159.577  1.00  0.00     0.000 C 
BRANCH   2   3
ATOM      3  C   UNL     1     208.270 205.977 158.995  1.00  0.00     0.006 C 
BRANCH   3   4
ATOM      4  C   UNL     1     208.141 206.452 157.545  1.00  0.00     0.053 C 
BRANCH   4   5
ATOM      5  C   UNL     1     208.229 207.944 157.471  1.00  0.00     0.041 C 
ATOM      6  O   UNL     1     207.424 208.591 156.751  1.00  0.00    -0.550 OA
ATOM      7  O   UNL     1     209.170 208.624 158.234  1.00  0.00    -0.550 OA
ENDBRANCH   4   5
ENDBRANCH   3   4
ENDBRANCH   2   3
ENDBRANCH   1   2
BRANCH   1   8
ATOM      8  C   UNL     1     205.633 203.518 158.818  1.00  0.00     0.000 C 
BRANCH   8   9
ATOM      9  C   UNL     1     206.169 203.231 157.406  1.00  0.00     0.000 C 
BRANCH   9  10
ATOM     10  C   UNL     1     205.588 204.184 156.345  1.00  0.00     0.006 C 
BRANCH  10  11
ATOM     11  C   UNL     1     204.357 204.942 156.860  1.00  0.00     0.053 C 
BRANCH  11  12
ATOM     12  C   UNL     1     204.520 206.425 156.722  1.00  0.00     0.041 C 
ATOM     13  O   UNL     1     204.492 207.162 157.742  1.00  0.00    -0.550 OA
ATOM     14  O   UNL     1     204.669 206.995 155.464  1.00  0.00    -0.550 OA
ENDBRANCH  11  12
ENDBRANCH  10  11
ENDBRANCH   9  10
ENDBRANCH   8   9
ENDBRANCH   1   8
TORSDOF 9
ENDMDL
MODEL 8
REMARK VINA RESULT:    -3.960      2.384      3.269
REMARK INTER + INTRA:          -7.050
REMARK INTER:                  -6.231
REMARK INTRA:                  -0.819
REMARK UNBOUND:                -1.007
REMARK SMILES O=C([O-])CCCCCCCCC(=O)[O-]
REMARK SMILES IDX 7 1 6 2 5 3 4 4 2 5 1 6 3 7 8 8 9 9 10 10 11 11 12 12 13 13
REMARK SMILES IDX 14 14
REMARK H PARENT
REMARK Flexibility Score: inf
ROOT
ATOM      1  C   UNL     1     206.793 206.177 154.887  1.00  0.00     0.000 C 
ENDROOT
BRANCH   1   2
ATOM      2  C   UNL     1     205.609 207.081 155.266  1.00  0.00     0.000 C 
BRANCH   2   3
ATOM      3  C   UNL     1     205.621 207.485 156.748  1.00  0.00     0.006 C 
BRANCH   3   4
ATOM      4  C   UNL     1     205.679 209.008 156.900  1.00  0.00     0.053 C 
BRANCH   4   5
ATOM      5  C   UNL     1     206.989 209.428 157.488  1.00  0.00     0.041 C 
ATOM      6  O   UNL     1     207.130 210.588 157.957  1.00  0.00    -0.550 OA
ATOM      7  O   UNL     1     208.040 208.523 157.561  1.00  0.00    -0.550 OA
ENDBRANCH   4   5
ENDBRANCH   3   4
ENDBRANCH   2   3
ENDBRANCH   1   2
BRANCH   1   8
ATOM      8  C   UNL     1     207.370 205.421 156.096  1.00  0.00     0.000 C 
BRANCH   8   9
ATOM      9  C   UNL     1     207.343 203.896 155.905  1.00  0.00     0.000 C 
BRANCH   9  10
ATOM     10  C   UNL     1     205.978 203.277 156.258  1.00  0.00     0.006 C 
BRANCH  10  11
ATOM     11  C   UNL     1     205.371 203.897 157.522  1.00  0.00     0.053 C 
BRANCH  11  12
ATOM     12  C   UNL     1     205.918 203.268 158.767  1.00  0.00     0.041 C 
ATOM     13  O   UNL     1     205.862 202.020 158.922  1.00  0.00    -0.550 OA
ATOM     14  O   UNL     1     206.459 204.063 159.770  1.00  0.00    -0.550 OA
ENDBRANCH  11  12
ENDBRANCH  10  11
ENDBRANCH   9  10
ENDBRANCH   8   9
ENDBRANCH   1   8
TORSDOF 9
ENDMDL
MODEL 9
REMARK VINA RESULT:    -3.917      2.207      5.061
REMARK INTER + INTRA:          -6.986
REMARK INTER:                  -6.011
REMARK INTRA:                  -0.974
REMARK UNBOUND:                -1.007
REMARK SMILES O=C([O-])CCCCCCCCC(=O)[O-]
REMARK SMILES IDX 7 1 6 2 5 3 4 4 2 5 1 6 3 7 8 8 9 9 10 10 11 11 12 12 13 13
REMARK SMILES IDX 14 14
REMARK H PARENT
REMARK Flexibility Score: inf
ROOT
ATOM      1  C   UNL     1     204.261 204.851 157.124  1.00  0.00     0.000 C 
ENDROOT
BRANCH   1   2
ATOM      2  C   UNL     1     205.189 204.121 158.109  1.00  0.00     0.000 C 
BRANCH   2   3
ATOM      3  C   UNL     1     206.650 204.088 157.635  1.00  0.00     0.006 C 
BRANCH   3   4
ATOM      4  C   UNL     1     206.729 203.840 156.126  1.00  0.00     0.053 C 
BRANCH   4   5
ATOM      5  C   UNL     1     207.143 202.429 155.847  1.00  0.00     0.041 C 
ATOM      6  O   UNL     1     206.352 201.478 156.083  1.00  0.00    -0.550 OA
ATOM      7  O   UNL     1     208.384 202.167 155.281  1.00  0.00    -0.550 OA
ENDBRANCH   4   5
ENDBRANCH   3   4
ENDBRANCH   2   3
ENDBRANCH   1   2
BRANCH   1   8
ATOM      8  C   UNL     1     204.258 206.375 157.334  1.00  0.00     0.000 C 
BRANCH   8   9
ATOM      9  C   UNL     1     204.892 207.132 156.156  1.00  0.00     0.000 C 
BRANCH   9  10
ATOM     10  C   UNL     1     205.864 208.235 156.613  1.00  0.00     0.006 C 
BRANCH  10  11
ATOM     11  C   UNL     1     206.710 207.799 157.816  1.00  0.00     0.053 C 
BRANCH  11  12
ATOM     12  C   UNL     1     208.141 207.570 157.435  1.00  0.00     0.041 C 
ATOM     13  O   UNL     1     209.066 207.899 158.223  1.00  0.00    -0.550 OA
ATOM     14  O   UNL     1     208.453 207.024 156.197  1.00  0.00    -0.550 OA
ENDBRANCH  11  12
ENDBRANCH  10  11
ENDBRANCH   9  10
ENDBRANCH   8   9
ENDBRANCH   1   8
TORSDOF 9
ENDMDL
