MODEL 1
REMARK VINA RESULT:    -5.050      0.000      0.000
REMARK INTER + INTRA:         -11.054
REMARK INTER:                  -9.184
REMARK INTRA:                  -1.870
REMARK UNBOUND:                -1.870
REMARK SMILES CCCCCCCCCCCCCCCC(=O)[O-]
REMARK SMILES IDX 9 1 10 2 11 3 12 4 13 5 14 6 15 7 16 8 17 9 18 10 8 11 7 12
REMARK SMILES IDX 6 13 5 14 4 15 3 16 2 17 1 18
REMARK H PARENT
REMARK Flexibility Score: inf
ROOT
ATOM      1  C   UNL     1     159.877 162.510 149.294  1.00  0.00     0.000 C 
ENDROOT
BRANCH   1   2
ATOM      2  C   UNL     1     158.666 161.985 150.081  1.00  0.00     0.000 C 
BRANCH   2   3
ATOM      3  C   UNL     1     158.728 162.437 151.548  1.00  0.00     0.000 C 
BRANCH   3   4
ATOM      4  C   UNL     1     159.027 161.278 152.514  1.00  0.00     0.000 C 
BRANCH   4   5
ATOM      5  C   UNL     1     158.922 159.902 151.835  1.00  0.00     0.000 C 
BRANCH   5   6
ATOM      6  C   UNL     1     160.166 159.025 152.072  1.00  0.00     0.006 C 
BRANCH   6   7
ATOM      7  C   UNL     1     160.770 159.147 153.480  1.00  0.00     0.053 C 
BRANCH   7   8
ATOM      8  C   UNL     1     161.717 158.026 153.783  1.00  0.00     0.041 C 
ATOM      9  O   UNL     1     162.427 158.059 154.823  1.00  0.00    -0.550 OA
ATOM     10  O   UNL     1     161.791 156.930 152.933  1.00  0.00    -0.550 OA
ENDBRANCH   7   8
ENDBRANCH   6   7
ENDBRANCH   5   6
ENDBRANCH   4   5
ENDBRANCH   3   4
ENDBRANCH   2   3
ENDBRANCH   1   2
BRANCH   1  11
ATOM     11  C   UNL     1     161.131 161.636 149.473  1.00  0.00     0.000 C 
BRANCH  11  12
ATOM     12  C   UNL     1     161.136 160.330 148.655  1.00  0.00    -0.000 C 
BRANCH  12  13
ATOM     13  C   UNL     1     160.238 160.335 147.402  1.00  0.00    -0.000 C 
BRANCH  13  14
ATOM     14  C   UNL     1     159.543 158.995 147.099  1.00  0.00    -0.000 C 
BRANCH  14  15
ATOM     15  C   UNL     1     158.878 158.377 148.342  1.00  0.00    -0.000 C 
BRANCH  15  16
ATOM     16  C   UNL     1     158.869 156.841 148.304  1.00  0.00    -0.000 C 
BRANCH  16  17
ATOM     17  C   UNL     1     157.970 156.230 149.390  1.00  0.00    -0.003 C 
ATOM     18  C   UNL     1     156.951 157.246 149.895  1.00  0.00     0.004 C 
ENDBRANCH  16  17
ENDBRANCH  15  16
ENDBRANCH  14  15
ENDBRANCH  13  14
ENDBRANCH  12  13
ENDBRANCH  11  12
ENDBRANCH   1  11
TORSDOF 14
ENDMDL
MODEL 2
REMARK VINA RESULT:    -4.984      3.552      5.210
REMARK INTER + INTRA:         -10.934
REMARK INTER:                  -9.057
REMARK INTRA:                  -1.877
REMARK UNBOUND:                -1.870
REMARK SMILES CCCCCCCCCCCCCCCC(=O)[O-]
REMARK SMILES IDX 9 1 10 2 11 3 12 4 13 5 14 6 15 7 16 8 17 9 18 10 8 11 7 12
REMARK SMILES IDX 6 13 5 14 4 15 3 16 2 17 1 18
REMARK H PARENT
REMARK Flexibility Score: inf
ROOT
ATOM      1  C   UNL     1     160.077 160.549 147.470  1.00  0.00     0.000 C 
ENDROOT
BRANCH   1   2
ATOM      2  C   UNL     1     159.108 161.094 148.531  1.00  0.00     0.000 C 
BRANCH   2   3
ATOM      3  C   UNL     1     159.792 162.159 149.402  1.00  0.00     0.000 C 
BRANCH   3   4
ATOM      4  C   UNL     1     161.272 162.363 149.036  1.00  0.00     0.000 C 
BRANCH   4   5
ATOM      5  C   UNL     1     162.224 161.933 150.164  1.00  0.00     0.000 C 
BRANCH   5   6
ATOM      6  C   UNL     1     163.626 162.556 150.029  1.00  0.00     0.006 C 
BRANCH   6   7
ATOM      7  C   UNL     1     163.629 164.084 149.870  1.00  0.00     0.053 C 
BRANCH   7   8
ATOM      8  C   UNL     1     165.018 164.645 149.862  1.00  0.00     0.041 C 
ATOM      9  O   UNL     1     165.580 164.964 150.944  1.00  0.00    -0.550 OA
ATOM     10  O   UNL     1     165.705 164.785 148.663  1.00  0.00    -0.550 OA
ENDBRANCH   7   8
ENDBRANCH   6   7
ENDBRANCH   5   6
ENDBRANCH   4   5
ENDBRANCH   3   4
ENDBRANCH   2   3
ENDBRANCH   1   2
BRANCH   1  11
ATOM     11  C   UNL     1     160.136 159.011 147.448  1.00  0.00     0.000 C 
BRANCH  11  12
ATOM     12  C   UNL     1     158.977 158.304 148.179  1.00  0.00    -0.000 C 
BRANCH  12  13
ATOM     13  C   UNL     1     159.392 157.128 149.085  1.00  0.00    -0.000 C 
BRANCH  13  14
ATOM     14  C   UNL     1     160.687 157.356 149.887  1.00  0.00    -0.000 C 
BRANCH  14  15
ATOM     15  C   UNL     1     160.421 157.643 151.375  1.00  0.00    -0.000 C 
BRANCH  15  16
ATOM     16  C   UNL     1     160.369 159.147 151.686  1.00  0.00    -0.000 C 
BRANCH  16  17
ATOM     17  C   UNL     1     158.958 159.623 152.061  1.00  0.00    -0.003 C 
ATOM     18  C   UNL     1     159.008 160.955 152.803  1.00  0.00     0.004 C 
ENDBRANCH  16  17
ENDBRANCH  15  16
ENDBRANCH  14  15
ENDBRANCH  13  14
ENDBRANCH  12  13
ENDBRANCH  11  12
ENDBRANCH   1  11
TORSDOF 14
ENDMDL
MODEL 3
REMARK VINA RESULT:    -4.983      3.086      5.496
REMARK INTER + INTRA:         -10.932
REMARK INTER:                  -8.785
REMARK INTRA:                  -2.147
REMARK UNBOUND:                -1.870
REMARK SMILES CCCCCCCCCCCCCCCC(=O)[O-]
REMARK SMILES IDX 9 1 10 2 11 3 12 4 13 5 14 6 15 7 16 8 17 9 18 10 8 11 7 12
REMARK SMILES IDX 6 13 5 14 4 15 3 16 2 17 1 18
REMARK H PARENT
REMARK Flexibility Score: inf
ROOT
ATOM      1  C   UNL     1     159.026 157.952 148.089  1.00  0.00     0.000 C 
ENDROOT
BRANCH   1   2
ATOM      2  C   UNL     1     159.704 159.116 147.350  1.00  0.00     0.000 C 
BRANCH   2   3
ATOM      3  C   UNL     1     159.211 160.468 147.887  1.00  0.00     0.000 C 
BRANCH   3   4
ATOM      4  C   UNL     1     160.316 161.538 147.905  1.00  0.00     0.000 C 
BRANCH   4   5
ATOM      5  C   UNL     1     161.418 161.231 148.933  1.00  0.00     0.000 C 
BRANCH   5   6
ATOM      6  C   UNL     1     161.972 162.500 149.607  1.00  0.00     0.006 C 
BRANCH   6   7
ATOM      7  C   UNL     1     163.386 162.342 150.191  1.00  0.00     0.053 C 
BRANCH   7   8
ATOM      8  C   UNL     1     164.237 163.547 149.930  1.00  0.00     0.041 C 
ATOM      9  O   UNL     1     165.464 163.414 149.679  1.00  0.00    -0.550 OA
ATOM     10  O   UNL     1     163.669 164.815 149.934  1.00  0.00    -0.550 OA
ENDBRANCH   7   8
ENDBRANCH   6   7
ENDBRANCH   5   6
ENDBRANCH   4   5
ENDBRANCH   3   4
ENDBRANCH   2   3
ENDBRANCH   1   2
BRANCH   1  11
ATOM     11  C   UNL     1     158.285 158.403 149.360  1.00  0.00     0.000 C 
BRANCH  11  12
ATOM     12  C   UNL     1     158.792 157.766 150.670  1.00  0.00    -0.000 C 
BRANCH  12  13
ATOM     13  C   UNL     1     160.286 157.991 150.975  1.00  0.00    -0.000 C 
BRANCH  13  14
ATOM     14  C   UNL     1     160.596 159.263 151.784  1.00  0.00    -0.000 C 
BRANCH  14  15
ATOM     15  C   UNL     1     159.544 159.546 152.871  1.00  0.00    -0.000 C 
BRANCH  15  16
ATOM     16  C   UNL     1     159.054 161.003 152.852  1.00  0.00    -0.000 C 
BRANCH  16  17
ATOM     17  C   UNL     1     158.815 161.526 151.427  1.00  0.00    -0.003 C 
ATOM     18  C   UNL     1     158.437 163.004 151.441  1.00  0.00     0.004 C 
ENDBRANCH  16  17
ENDBRANCH  15  16
ENDBRANCH  14  15
ENDBRANCH  13  14
ENDBRANCH  12  13
ENDBRANCH  11  12
ENDBRANCH   1  11
TORSDOF 14
ENDMDL
MODEL 4
REMARK VINA RESULT:    -4.957      2.320      4.160
REMARK INTER + INTRA:         -10.885
REMARK INTER:                  -8.875
REMARK INTRA:                  -2.010
REMARK UNBOUND:                -1.870
REMARK SMILES CCCCCCCCCCCCCCCC(=O)[O-]
REMARK SMILES IDX 9 1 10 2 11 3 12 4 13 5 14 6 15 7 16 8 17 9 18 10 8 11 7 12
REMARK SMILES IDX 6 13 5 14 4 15 3 16 2 17 1 18
REMARK H PARENT
REMARK Flexibility Score: inf
ROOT
ATOM      1  C   UNL     1     159.183 160.314 147.509  1.00  0.00     0.000 C 
ENDROOT
BRANCH   1   2
ATOM      2  C   UNL     1     160.350 161.253 147.850  1.00  0.00     0.000 C 
BRANCH   2   3
ATOM      3  C   UNL     1     161.033 160.825 149.158  1.00  0.00     0.000 C 
BRANCH   3   4
ATOM      4  C   UNL     1     160.668 161.733 150.344  1.00  0.00     0.000 C 
BRANCH   4   5
ATOM      5  C   UNL     1     159.221 162.250 150.267  1.00  0.00     0.000 C 
BRANCH   5   6
ATOM      6  C   UNL     1     158.611 162.517 151.656  1.00  0.00     0.006 C 
BRANCH   6   7
ATOM      7  C   UNL     1     158.954 161.457 152.715  1.00  0.00     0.053 C 
BRANCH   7   8
ATOM      8  C   UNL     1     157.820 161.228 153.667  1.00  0.00     0.041 C 
ATOM      9  O   UNL     1     157.193 162.205 154.154  1.00  0.00    -0.550 OA
ATOM     10  O   UNL     1     157.436 159.932 153.992  1.00  0.00    -0.550 OA
ENDBRANCH   7   8
ENDBRANCH   6   7
ENDBRANCH   5   6
ENDBRANCH   4   5
ENDBRANCH   3   4
ENDBRANCH   2   3
ENDBRANCH   1   2
BRANCH   1  11
ATOM     11  C   UNL     1     159.635 158.865 147.257  1.00  0.00     0.000 C 
BRANCH  11  12
ATOM     12  C   UNL     1     158.968 157.808 148.160  1.00  0.00    -0.000 C 
BRANCH  12  13
ATOM     13  C   UNL     1     158.186 158.371 149.364  1.00  0.00    -0.000 C 
BRANCH  13  14
ATOM     14  C   UNL     1     158.888 158.209 150.724  1.00  0.00    -0.000 C 
BRANCH  14  15
ATOM     15  C   UNL     1     160.236 157.475 150.612  1.00  0.00    -0.000 C 
BRANCH  15  16
ATOM     16  C   UNL     1     160.955 157.354 151.965  1.00  0.00    -0.000 C 
BRANCH  16  17
ATOM     17  C   UNL     1     160.484 158.406 152.980  1.00  0.00    -0.003 C 
ATOM     18  C   UNL     1     161.670 159.081 153.661  1.00  0.00     0.004 C 
ENDBRANCH  16  17
ENDBRANCH  15  16
ENDBRANCH  14  15
ENDBRANCH  13  14
ENDBRANCH  12  13
ENDBRANCH  11  12
ENDBRANCH   1  11
TORSDOF 14
ENDMDL
MODEL 5
REMARK VINA RESULT:    -4.941      3.294      4.860
REMARK INTER + INTRA:         -10.855
REMARK INTER:                  -8.723
REMARK INTRA:                  -2.132
REMARK UNBOUND:                -1.870
REMARK SMILES CCCCCCCCCCCCCCCC(=O)[O-]
REMARK SMILES IDX 9 1 10 2 11 3 12 4 13 5 14 6 15 7 16 8 17 9 18 10 8 11 7 12
REMARK SMILES IDX 6 13 5 14 4 15 3 16 2 17 1 18
REMARK H PARENT
REMARK Flexibility Score: inf
ROOT
ATOM      1  C   UNL     1     158.874 162.006 152.046  1.00  0.00     0.000 C 
ENDROOT
BRANCH   1   2
ATOM      2  C   UNL     1     158.713 162.588 150.633  1.00  0.00     0.000 C 
BRANCH   2   3
ATOM      3  C   UNL     1     158.938 161.506 149.566  1.00  0.00     0.000 C 
BRANCH   3   4
ATOM      4  C   UNL     1     160.188 161.769 148.709  1.00  0.00     0.000 C 
BRANCH   4   5
ATOM      5  C   UNL     1     161.493 161.625 149.508  1.00  0.00     0.000 C 
BRANCH   5   6
ATOM      6  C   UNL     1     162.250 162.958 149.657  1.00  0.00     0.006 C 
BRANCH   6   7
ATOM      7  C   UNL     1     163.710 162.812 150.116  1.00  0.00     0.053 C 
BRANCH   7   8
ATOM      8  C   UNL     1     164.413 164.132 150.180  1.00  0.00     0.041 C 
ATOM      9  O   UNL     1     165.651 164.182 150.405  1.00  0.00    -0.550 OA
ATOM     10  O   UNL     1     163.706 165.308 149.960  1.00  0.00    -0.550 OA
ENDBRANCH   7   8
ENDBRANCH   6   7
ENDBRANCH   5   6
ENDBRANCH   4   5
ENDBRANCH   3   4
ENDBRANCH   2   3
ENDBRANCH   1   2
BRANCH   1  11
ATOM     11  C   UNL     1     158.705 160.477 152.085  1.00  0.00     0.000 C 
BRANCH  11  12
ATOM     12  C   UNL     1     159.740 159.729 152.948  1.00  0.00    -0.000 C 
BRANCH  12  13
ATOM     13  C   UNL     1     160.895 159.071 152.167  1.00  0.00    -0.000 C 
BRANCH  13  14
ATOM     14  C   UNL     1     160.852 157.533 152.125  1.00  0.00    -0.000 C 
BRANCH  14  15
ATOM     15  C   UNL     1     160.426 156.988 150.750  1.00  0.00    -0.000 C 
BRANCH  15  16
ATOM     16  C   UNL     1     160.620 158.013 149.622  1.00  0.00    -0.000 C 
BRANCH  16  17
ATOM     17  C   UNL     1     159.464 158.004 148.611  1.00  0.00    -0.003 C 
ATOM     18  C   UNL     1     158.119 157.869 149.316  1.00  0.00     0.004 C 
ENDBRANCH  16  17
ENDBRANCH  15  16
ENDBRANCH  14  15
ENDBRANCH  13  14
ENDBRANCH  12  13
ENDBRANCH  11  12
ENDBRANCH   1  11
TORSDOF 14
ENDMDL
MODEL 6
REMARK VINA RESULT:    -4.910      2.625      4.152
REMARK INTER + INTRA:         -10.799
REMARK INTER:                  -8.826
REMARK INTRA:                  -1.973
REMARK UNBOUND:                -1.870
REMARK SMILES CCCCCCCCCCCCCCCC(=O)[O-]
REMARK SMILES IDX 9 1 10 2 11 3 12 4 13 5 14 6 15 7 16 8 17 9 18 10 8 11 7 12
REMARK SMILES IDX 6 13 5 14 4 15 3 16 2 17 1 18
REMARK H PARENT
REMARK Flexibility Score: inf
ROOT
ATOM      1  C   UNL     1     159.323 160.367 153.481  1.00  0.00     0.000 C 
ENDROOT
BRANCH   1   2
ATOM      2  C   UNL     1     158.768 160.699 152.088  1.00  0.00     0.000 C 
BRANCH   2   3
ATOM      3  C   UNL     1     158.745 162.217 151.855  1.00  0.00     0.000 C 
BRANCH   3   4
ATOM      4  C   UNL     1     158.670 162.587 150.364  1.00  0.00     0.000 C 
BRANCH   4   5
ATOM      5  C   UNL     1     158.989 161.398 149.443  1.00  0.00     0.000 C 
BRANCH   5   6
ATOM      6  C   UNL     1     160.322 161.566 148.692  1.00  0.00     0.006 C 
BRANCH   6   7
ATOM      7  C   UNL     1     161.571 161.306 149.549  1.00  0.00     0.053 C 
BRANCH   7   8
ATOM      8  C   UNL     1     162.416 162.534 149.697  1.00  0.00     0.041 C 
ATOM      9  O   UNL     1     161.955 163.663 149.383  1.00  0.00    -0.550 OA
ATOM     10  O   UNL     1     163.702 162.435 150.213  1.00  0.00    -0.550 OA
ENDBRANCH   7   8
ENDBRANCH   6   7
ENDBRANCH   5   6
ENDBRANCH   4   5
ENDBRANCH   3   4
ENDBRANCH   2   3
ENDBRANCH   1   2
BRANCH   1  11
ATOM     11  C   UNL     1     160.217 159.114 153.486  1.00  0.00     0.000 C 
BRANCH  11  12
ATOM     12  C   UNL     1     160.769 158.702 152.107  1.00  0.00    -0.000 C 
BRANCH  12  13
ATOM     13  C   UNL     1     160.765 157.187 151.824  1.00  0.00    -0.000 C 
BRANCH  13  14
ATOM     14  C   UNL     1     160.851 156.808 150.334  1.00  0.00    -0.000 C 
BRANCH  14  15
ATOM     15  C   UNL     1     160.330 157.920 149.407  1.00  0.00    -0.000 C 
BRANCH  15  16
ATOM     16  C   UNL     1     159.134 157.466 148.556  1.00  0.00    -0.000 C 
BRANCH  16  17
ATOM     17  C   UNL     1     158.244 156.449 149.285  1.00  0.00    -0.003 C 
ATOM     18  C   UNL     1     157.026 157.128 149.902  1.00  0.00     0.004 C 
ENDBRANCH  16  17
ENDBRANCH  15  16
ENDBRANCH  14  15
ENDBRANCH  13  14
ENDBRANCH  12  13
ENDBRANCH  11  12
ENDBRANCH   1  11
TORSDOF 14
ENDMDL
MODEL 7
REMARK VINA RESULT:    -4.903      2.505      5.438
REMARK INTER + INTRA:         -10.786
REMARK INTER:                  -8.786
REMARK INTRA:                  -2.000
REMARK UNBOUND:                -1.870
REMARK SMILES CCCCCCCCCCCCCCCC(=O)[O-]
REMARK SMILES IDX 9 1 10 2 11 3 12 4 13 5 14 6 15 7 16 8 17 9 18 10 8 11 7 12
REMARK SMILES IDX 6 13 5 14 4 15 3 16 2 17 1 18
REMARK H PARENT
REMARK Flexibility Score: inf
ROOT
ATOM      1  C   UNL     1     158.685 160.333 152.369  1.00  0.00     0.000 C 
ENDROOT
BRANCH   1   2
ATOM      2  C   UNL     1     159.744 159.632 153.234  1.00  0.00     0.000 C 
BRANCH   2   3
ATOM      3  C   UNL     1     160.776 158.906 152.357  1.00  0.00     0.000 C 
BRANCH   3   4
ATOM      4  C   UNL     1     160.135 157.851 151.439  1.00  0.00     0.000 C 
BRANCH   4   5
ATOM      5  C   UNL     1     160.681 157.909 150.003  1.00  0.00     0.000 C 
BRANCH   5   6
ATOM      6  C   UNL     1     159.565 157.875 148.941  1.00  0.00     0.006 C 
BRANCH   6   7
ATOM      7  C   UNL     1     158.157 158.149 149.491  1.00  0.00     0.053 C 
BRANCH   7   8
ATOM      8  C   UNL     1     157.347 156.895 149.608  1.00  0.00     0.041 C 
ATOM      9  O   UNL     1     156.167 156.940 150.047  1.00  0.00    -0.550 OA
ATOM     10  O   UNL     1     157.884 155.679 149.202  1.00  0.00    -0.550 OA
ENDBRANCH   7   8
ENDBRANCH   6   7
ENDBRANCH   5   6
ENDBRANCH   4   5
ENDBRANCH   3   4
ENDBRANCH   2   3
ENDBRANCH   1   2
BRANCH   1  11
ATOM     11  C   UNL     1     158.754 161.867 152.465  1.00  0.00     0.000 C 
BRANCH  11  12
ATOM     12  C   UNL     1     158.974 162.594 151.123  1.00  0.00    -0.000 C 
BRANCH  12  13
ATOM     13  C   UNL     1     158.815 161.716 149.866  1.00  0.00    -0.000 C 
BRANCH  13  14
ATOM     14  C   UNL     1     160.075 161.609 148.989  1.00  0.00    -0.000 C 
BRANCH  14  15
ATOM     15  C   UNL     1     161.371 161.552 149.816  1.00  0.00    -0.000 C 
BRANCH  15  16
ATOM     16  C   UNL     1     162.285 162.762 149.566  1.00  0.00    -0.000 C 
BRANCH  16  17
ATOM     17  C   UNL     1     163.656 162.615 150.243  1.00  0.00    -0.003 C 
ATOM     18  C   UNL     1     164.274 163.980 150.533  1.00  0.00     0.004 C 
ENDBRANCH  16  17
ENDBRANCH  15  16
ENDBRANCH  14  15
ENDBRANCH  13  14
ENDBRANCH  12  13
ENDBRANCH  11  12
ENDBRANCH   1  11
TORSDOF 14
ENDMDL
MODEL 8
REMARK VINA RESULT:    -4.901      3.291      5.572
REMARK INTER + INTRA:         -10.782
REMARK INTER:                  -9.036
REMARK INTRA:                  -1.746
REMARK UNBOUND:                -1.870
REMARK SMILES CCCCCCCCCCCCCCCC(=O)[O-]
REMARK SMILES IDX 9 1 10 2 11 3 12 4 13 5 14 6 15 7 16 8 17 9 18 10 8 11 7 12
REMARK SMILES IDX 6 13 5 14 4 15 3 16 2 17 1 18
REMARK H PARENT
REMARK Flexibility Score: inf
ROOT
ATOM      1  C   UNL     1     160.355 160.776 147.550  1.00  0.00     0.000 C 
ENDROOT
BRANCH   1   2
ATOM      2  C   UNL     1     159.607 159.488 147.172  1.00  0.00     0.000 C 
BRANCH   2   3
ATOM      3  C   UNL     1     159.590 158.500 148.348  1.00  0.00     0.000 C 
BRANCH   3   4
ATOM      4  C   UNL     1     158.206 158.389 149.009  1.00  0.00     0.000 C 
BRANCH   4   5
ATOM      5  C   UNL     1     157.870 156.951 149.439  1.00  0.00     0.000 C 
BRANCH   5   6
ATOM      6  C   UNL     1     156.436 156.813 149.984  1.00  0.00     0.006 C 
BRANCH   6   7
ATOM      7  C   UNL     1     155.853 155.394 149.885  1.00  0.00     0.053 C 
BRANCH   7   8
ATOM      8  C   UNL     1     154.356 155.398 149.931  1.00  0.00     0.041 C 
ATOM      9  O   UNL     1     153.707 156.333 149.392  1.00  0.00    -0.550 OA
ATOM     10  O   UNL     1     153.676 154.352 150.544  1.00  0.00    -0.550 OA
ENDBRANCH   7   8
ENDBRANCH   6   7
ENDBRANCH   5   6
ENDBRANCH   4   5
ENDBRANCH   3   4
ENDBRANCH   2   3
ENDBRANCH   1   2
BRANCH   1  11
ATOM     11  C   UNL     1     161.169 160.636 148.848  1.00  0.00     0.000 C 
BRANCH  11  12
ATOM     12  C   UNL     1     161.070 161.835 149.812  1.00  0.00    -0.000 C 
BRANCH  12  13
ATOM     13  C   UNL     1     159.712 162.565 149.815  1.00  0.00    -0.000 C 
BRANCH  13  14
ATOM     14  C   UNL     1     158.688 162.021 150.827  1.00  0.00    -0.000 C 
BRANCH  14  15
ATOM     15  C   UNL     1     159.352 161.324 152.028  1.00  0.00    -0.000 C 
BRANCH  15  16
ATOM     16  C   UNL     1     158.975 159.838 152.132  1.00  0.00    -0.000 C 
BRANCH  16  17
ATOM     17  C   UNL     1     160.202 158.915 152.092  1.00  0.00    -0.003 C 
ATOM     18  C   UNL     1     160.922 158.899 153.437  1.00  0.00     0.004 C 
ENDBRANCH  16  17
ENDBRANCH  15  16
ENDBRANCH  14  15
ENDBRANCH  13  14
ENDBRANCH  12  13
ENDBRANCH  11  12
ENDBRANCH   1  11
TORSDOF 14
ENDMDL
MODEL 9
REMARK VINA RESULT:    -4.873      3.099      6.007
REMARK INTER + INTRA:         -10.731
REMARK INTER:                  -8.546
REMARK INTRA:                  -2.184
REMARK UNBOUND:                -1.870
REMARK SMILES CCCCCCCCCCCCCCCC(=O)[O-]
REMARK SMILES IDX 9 1 10 2 11 3 12 4 13 5 14 6 15 7 16 8 17 9 18 10 8 11 7 12
REMARK SMILES IDX 6 13 5 14 4 15 3 16 2 17 1 18
REMARK H PARENT
REMARK Flexibility Score: inf
ROOT
ATOM      1  C   UNL     1     160.906 157.124 150.782  1.00  0.00     0.000 C 
ENDROOT
BRANCH   1   2
ATOM      2  C   UNL     1     160.734 158.113 149.619  1.00  0.00     0.000 C 
BRANCH   2   3
ATOM      3  C   UNL     1     159.601 157.667 148.683  1.00  0.00     0.000 C 
BRANCH   3   4
ATOM      4  C   UNL     1     158.276 158.394 148.966  1.00  0.00     0.000 C 
BRANCH   4   5
ATOM      5  C   UNL     1     157.465 157.729 150.090  1.00  0.00     0.000 C 
BRANCH   5   6
ATOM      6  C   UNL     1     156.830 156.394 149.656  1.00  0.00     0.006 C 
BRANCH   6   7
ATOM      7  C   UNL     1     155.525 156.044 150.388  1.00  0.00     0.053 C 
BRANCH   7   8
ATOM      8  C   UNL     1     154.981 154.715 149.961  1.00  0.00     0.041 C 
ATOM      9  O   UNL     1     153.944 154.652 149.249  1.00  0.00    -0.550 OA
ATOM     10  O   UNL     1     155.640 153.546 150.322  1.00  0.00    -0.550 OA
ENDBRANCH   7   8
ENDBRANCH   6   7
ENDBRANCH   5   6
ENDBRANCH   4   5
ENDBRANCH   3   4
ENDBRANCH   2   3
ENDBRANCH   1   2
BRANCH   1  11
ATOM     11  C   UNL     1     160.669 157.771 152.158  1.00  0.00     0.000 C 
BRANCH  11  12
ATOM     12  C   UNL     1     160.775 159.309 152.180  1.00  0.00    -0.000 C 
BRANCH  12  13
ATOM     13  C   UNL     1     159.555 160.043 152.773  1.00  0.00    -0.000 C 
BRANCH  13  14
ATOM     14  C   UNL     1     158.764 160.899 151.768  1.00  0.00    -0.000 C 
BRANCH  14  15
ATOM     15  C   UNL     1     159.662 161.868 150.979  1.00  0.00    -0.000 C 
BRANCH  15  16
ATOM     16  C   UNL     1     159.446 161.768 149.460  1.00  0.00    -0.000 C 
BRANCH  16  17
ATOM     17  C   UNL     1     160.765 161.806 148.674  1.00  0.00    -0.003 C 
ATOM     18  C   UNL     1     161.966 161.787 149.614  1.00  0.00     0.004 C 
ENDBRANCH  16  17
ENDBRANCH  15  16
ENDBRANCH  14  15
ENDBRANCH  13  14
ENDBRANCH  12  13
ENDBRANCH  11  12
ENDBRANCH   1  11
TORSDOF 14
ENDMDL
