MODEL 1
REMARK VINA RESULT:    -6.850      0.000      0.000
REMARK INTER + INTRA:         -11.192
REMARK INTER:                 -10.454
REMARK INTRA:                  -0.738
REMARK UNBOUND:                -0.738
REMARK SMILES CC(=O)CCC=C(C)CCC=C(C)CCC=C(C)C
REMARK SMILES IDX 10 1 11 2 12 3 13 4 14 5 15 6 16 7 18 8 17 9 19 10 9 11 7 12
REMARK SMILES IDX 6 13 8 14 5 15 4 16 2 17 3 18 1 19
REMARK H PARENT
REMARK Flexibility Score: inf
ROOT
ATOM      1  C   UNL     1     -28.776 -25.294  23.228  1.00  0.00     0.032 C 
ENDROOT
BRANCH   1   2
ATOM      2  C   UNL     1     -27.752 -26.275  23.751  1.00  0.00    -0.028 C 
ATOM      3  C   UNL     1     -26.479 -25.960  24.086  1.00  0.00    -0.077 C 
ATOM      4  C   UNL     1     -25.916 -24.574  23.883  1.00  0.00     0.039 C 
BRANCH   3   5
ATOM      5  C   UNL     1     -25.571 -27.039  24.638  1.00  0.00     0.034 C 
BRANCH   5   6
ATOM      6  C   UNL     1     -26.313 -28.371  24.814  1.00  0.00     0.032 C 
BRANCH   6   7
ATOM      7  C   UNL     1     -26.329 -28.825  26.254  1.00  0.00    -0.028 C 
ATOM      8  C   UNL     1     -25.974 -30.339  28.155  1.00  0.00     0.039 C 
ATOM      9  C   UNL     1     -25.952 -30.052  26.677  1.00  0.00    -0.080 C 
ATOM     10  C   UNL     1     -25.530 -31.136  25.714  1.00  0.00     0.039 C 
ENDBRANCH   6   7
ENDBRANCH   5   6
ENDBRANCH   3   5
ENDBRANCH   1   2
BRANCH   1  11
ATOM     11  C   UNL     1     -29.960 -26.027  22.586  1.00  0.00     0.034 C 
BRANCH  11  12
ATOM     12  C   UNL     1     -31.204 -25.164  22.556  1.00  0.00    -0.077 C 
ATOM     13  C   UNL     1     -31.112 -23.860  22.899  1.00  0.00    -0.028 C 
ATOM     14  C   UNL     1     -32.522 -25.780  22.154  1.00  0.00     0.039 C 
BRANCH  13  15
ATOM     15  C   UNL     1     -32.300 -22.928  22.922  1.00  0.00     0.035 C 
BRANCH  15  16
ATOM     16  C   UNL     1     -32.567 -22.303  21.546  1.00  0.00     0.079 C 
BRANCH  16  17
ATOM     17  C   UNL     1     -32.394 -20.806  21.569  1.00  0.00     0.130 C 
ATOM     18  O   UNL     1     -32.137 -20.246  22.625  1.00  0.00    -0.300 OA
ATOM     19  C   UNL     1     -32.522 -19.986  20.320  1.00  0.00     0.087 C 
ENDBRANCH  16  17
ENDBRANCH  15  16
ENDBRANCH  13  15
ENDBRANCH  11  12
ENDBRANCH   1  11
TORSDOF 9
ENDMDL
MODEL 2
REMARK VINA RESULT:    -6.759      4.585      7.769
REMARK INTER + INTRA:         -11.053
REMARK INTER:                  -9.903
REMARK INTRA:                  -1.151
REMARK UNBOUND:                -0.738
REMARK SMILES CC(=O)CCC=C(C)CCC=C(C)CCC=C(C)C
REMARK SMILES IDX 10 1 11 2 12 3 13 4 14 5 15 6 16 7 18 8 17 9 19 10 9 11 7 12
REMARK SMILES IDX 6 13 8 14 5 15 4 16 2 17 3 18 1 19
REMARK H PARENT
REMARK Flexibility Score: inf
ROOT
ATOM      1  C   UNL     1     -32.105 -19.728  21.045  1.00  0.00     0.032 C 
ENDROOT
BRANCH   1   2
ATOM      2  C   UNL     1     -32.640 -21.107  20.730  1.00  0.00    -0.028 C 
ATOM      3  C   UNL     1     -33.064 -22.001  21.652  1.00  0.00    -0.077 C 
ATOM      4  C   UNL     1     -32.962 -21.735  23.135  1.00  0.00     0.039 C 
BRANCH   3   5
ATOM      5  C   UNL     1     -33.615 -23.334  21.190  1.00  0.00     0.034 C 
BRANCH   5   6
ATOM      6  C   UNL     1     -33.551 -24.391  22.301  1.00  0.00     0.032 C 
BRANCH   6   7
ATOM      7  C   UNL     1     -32.582 -25.502  21.971  1.00  0.00    -0.028 C 
ATOM      8  C   UNL     1     -30.451 -26.722  21.973  1.00  0.00     0.039 C 
ATOM      9  C   UNL     1     -31.280 -25.517  22.332  1.00  0.00    -0.080 C 
ATOM     10  C   UNL     1     -30.638 -24.362  23.063  1.00  0.00     0.039 C 
ENDBRANCH   6   7
ENDBRANCH   5   6
ENDBRANCH   3   5
ENDBRANCH   1   2
BRANCH   1  11
ATOM     11  C   UNL     1     -30.743 -19.502  20.378  1.00  0.00     0.034 C 
BRANCH  11  12
ATOM     12  C   UNL     1     -29.935 -18.444  21.099  1.00  0.00    -0.077 C 
ATOM     13  C   UNL     1     -28.654 -18.226  20.729  1.00  0.00    -0.028 C 
ATOM     14  C   UNL     1     -30.573 -17.664  22.223  1.00  0.00     0.039 C 
BRANCH  13  15
ATOM     15  C   UNL     1     -27.763 -17.210  21.404  1.00  0.00     0.035 C 
BRANCH  15  16
ATOM     16  C   UNL     1     -26.715 -17.874  22.307  1.00  0.00     0.079 C 
BRANCH  16  17
ATOM     17  C   UNL     1     -26.805 -17.374  23.727  1.00  0.00     0.130 C 
ATOM     18  O   UNL     1     -25.987 -16.562  24.132  1.00  0.00    -0.300 OA
ATOM     19  C   UNL     1     -27.884 -17.848  24.654  1.00  0.00     0.087 C 
ENDBRANCH  16  17
ENDBRANCH  15  16
ENDBRANCH  13  15
ENDBRANCH  11  12
ENDBRANCH   1  11
TORSDOF 9
ENDMDL
MODEL 3
REMARK VINA RESULT:    -6.685      2.807      9.504
REMARK INTER + INTRA:         -10.940
REMARK INTER:                 -10.184
REMARK INTRA:                  -0.756
REMARK UNBOUND:                -0.738
REMARK SMILES CC(=O)CCC=C(C)CCC=C(C)CCC=C(C)C
REMARK SMILES IDX 10 1 11 2 12 3 13 4 14 5 15 6 16 7 18 8 17 9 19 10 9 11 7 12
REMARK SMILES IDX 6 13 8 14 5 15 4 16 2 17 3 18 1 19
REMARK H PARENT
REMARK Flexibility Score: inf
ROOT
ATOM      1  C   UNL     1     -30.372 -25.632  22.564  1.00  0.00     0.032 C 
ENDROOT
BRANCH   1   2
ATOM      2  C   UNL     1     -31.283 -24.428  22.647  1.00  0.00    -0.028 C 
ATOM      3  C   UNL     1     -32.616 -24.450  22.419  1.00  0.00    -0.077 C 
ATOM      4  C   UNL     1     -33.333 -25.699  21.964  1.00  0.00     0.039 C 
BRANCH   3   5
ATOM      5  C   UNL     1     -33.414 -23.173  22.579  1.00  0.00     0.034 C 
BRANCH   5   6
ATOM      6  C   UNL     1     -32.529 -21.927  22.430  1.00  0.00     0.032 C 
BRANCH   6   7
ATOM      7  C   UNL     1     -32.678 -21.286  21.071  1.00  0.00    -0.028 C 
ATOM      8  C   UNL     1     -32.589 -19.499  19.388  1.00  0.00     0.039 C 
ATOM      9  C   UNL     1     -32.448 -19.980  20.809  1.00  0.00    -0.080 C 
ATOM     10  C   UNL     1     -32.073 -18.999  21.894  1.00  0.00     0.039 C 
ENDBRANCH   6   7
ENDBRANCH   5   6
ENDBRANCH   3   5
ENDBRANCH   1   2
BRANCH   1  11
ATOM     11  C   UNL     1     -29.006 -25.331  23.191  1.00  0.00     0.034 C 
BRANCH  11  12
ATOM     12  C   UNL     1     -28.154 -26.578  23.305  1.00  0.00    -0.077 C 
ATOM     13  C   UNL     1     -27.031 -26.543  24.055  1.00  0.00    -0.028 C 
ATOM     14  C   UNL     1     -28.572 -27.828  22.571  1.00  0.00     0.039 C 
BRANCH  13  15
ATOM     15  C   UNL     1     -26.107 -27.728  24.210  1.00  0.00     0.035 C 
BRANCH  15  16
ATOM     16  C   UNL     1     -25.868 -28.083  25.683  1.00  0.00     0.079 C 
BRANCH  16  17
ATOM     17  C   UNL     1     -26.198 -29.526  25.971  1.00  0.00     0.130 C 
ATOM     18  O   UNL     1     -27.039 -30.098  25.293  1.00  0.00    -0.300 OA
ATOM     19  C   UNL     1     -25.507 -30.281  27.068  1.00  0.00     0.087 C 
ENDBRANCH  16  17
ENDBRANCH  15  16
ENDBRANCH  13  15
ENDBRANCH  11  12
ENDBRANCH   1  11
TORSDOF 9
ENDMDL
MODEL 4
REMARK VINA RESULT:    -6.470      4.499      7.652
REMARK INTER + INTRA:         -10.612
REMARK INTER:                  -9.392
REMARK INTRA:                  -1.220
REMARK UNBOUND:                -0.738
REMARK SMILES CC(=O)CCC=C(C)CCC=C(C)CCC=C(C)C
REMARK SMILES IDX 10 1 11 2 12 3 13 4 14 5 15 6 16 7 18 8 17 9 19 10 9 11 7 12
REMARK SMILES IDX 6 13 8 14 5 15 4 16 2 17 3 18 1 19
REMARK H PARENT
REMARK Flexibility Score: inf
ROOT
ATOM      1  C   UNL     1     -31.549 -19.903  21.098  1.00  0.00     0.032 C 
ENDROOT
BRANCH   1   2
ATOM      2  C   UNL     1     -32.288 -21.186  20.793  1.00  0.00    -0.028 C 
ATOM      3  C   UNL     1     -32.895 -21.968  21.716  1.00  0.00    -0.077 C 
ATOM      4  C   UNL     1     -32.818 -21.670  23.195  1.00  0.00     0.039 C 
BRANCH   3   5
ATOM      5  C   UNL     1     -33.636 -23.208  21.263  1.00  0.00     0.034 C 
BRANCH   5   6
ATOM      6  C   UNL     1     -33.590 -24.317  22.324  1.00  0.00     0.032 C 
BRANCH   6   7
ATOM      7  C   UNL     1     -32.636 -25.424  21.945  1.00  0.00    -0.028 C 
ATOM      8  C   UNL     1     -30.524 -26.676  21.898  1.00  0.00     0.039 C 
ATOM      9  C   UNL     1     -31.337 -25.477  22.311  1.00  0.00    -0.080 C 
ATOM     10  C   UNL     1     -30.681 -24.369  23.100  1.00  0.00     0.039 C 
ENDBRANCH   6   7
ENDBRANCH   5   6
ENDBRANCH   3   5
ENDBRANCH   1   2
BRANCH   1  11
ATOM     11  C   UNL     1     -32.481 -18.691  20.976  1.00  0.00     0.034 C 
BRANCH  11  12
ATOM     12  C   UNL     1     -32.354 -17.764  22.166  1.00  0.00    -0.077 C 
ATOM     13  C   UNL     1     -31.358 -17.965  23.056  1.00  0.00    -0.028 C 
ATOM     14  C   UNL     1     -33.349 -16.642  22.339  1.00  0.00     0.039 C 
BRANCH  13  15
ATOM     15  C   UNL     1     -31.166 -17.108  24.285  1.00  0.00     0.035 C 
BRANCH  15  16
ATOM     16  C   UNL     1     -30.243 -17.774  25.313  1.00  0.00     0.079 C 
BRANCH  16  17
ATOM     17  C   UNL     1     -30.862 -17.800  26.688  1.00  0.00     0.130 C 
ATOM     18  O   UNL     1     -30.657 -18.754  27.423  1.00  0.00    -0.300 OA
ATOM     19  C   UNL     1     -31.721 -16.672  27.177  1.00  0.00     0.087 C 
ENDBRANCH  16  17
ENDBRANCH  15  16
ENDBRANCH  13  15
ENDBRANCH  11  12
ENDBRANCH   1  11
TORSDOF 9
ENDMDL
MODEL 5
REMARK VINA RESULT:    -6.460      4.523      7.760
REMARK INTER + INTRA:         -10.597
REMARK INTER:                  -9.399
REMARK INTRA:                  -1.198
REMARK UNBOUND:                -0.738
REMARK SMILES CC(=O)CCC=C(C)CCC=C(C)CCC=C(C)C
REMARK SMILES IDX 10 1 11 2 12 3 13 4 14 5 15 6 16 7 18 8 17 9 19 10 9 11 7 12
REMARK SMILES IDX 6 13 8 14 5 15 4 16 2 17 3 18 1 19
REMARK H PARENT
REMARK Flexibility Score: inf
ROOT
ATOM      1  C   UNL     1     -31.648 -19.844  21.031  1.00  0.00     0.032 C 
ENDROOT
BRANCH   1   2
ATOM      2  C   UNL     1     -32.341 -21.160  20.758  1.00  0.00    -0.028 C 
ATOM      3  C   UNL     1     -32.944 -21.926  21.695  1.00  0.00    -0.077 C 
ATOM      4  C   UNL     1     -32.911 -21.574  23.163  1.00  0.00     0.039 C 
BRANCH   3   5
ATOM      5  C   UNL     1     -33.637 -23.204  21.271  1.00  0.00     0.034 C 
BRANCH   5   6
ATOM      6  C   UNL     1     -33.571 -24.277  22.367  1.00  0.00     0.032 C 
BRANCH   6   7
ATOM      7  C   UNL     1     -32.635 -25.404  22.001  1.00  0.00    -0.028 C 
ATOM      8  C   UNL     1     -30.537 -26.679  21.951  1.00  0.00     0.039 C 
ATOM      9  C   UNL     1     -31.330 -25.462  22.347  1.00  0.00    -0.080 C 
ATOM     10  C   UNL     1     -30.650 -24.341  23.098  1.00  0.00     0.039 C 
ENDBRANCH   6   7
ENDBRANCH   5   6
ENDBRANCH   3   5
ENDBRANCH   1   2
BRANCH   1  11
ATOM     11  C   UNL     1     -32.029 -18.794  19.981  1.00  0.00     0.034 C 
BRANCH  11  12
ATOM     12  C   UNL     1     -32.919 -17.716  20.563  1.00  0.00    -0.077 C 
ATOM     13  C   UNL     1     -32.869 -17.463  21.889  1.00  0.00    -0.028 C 
ATOM     14  C   UNL     1     -33.852 -16.956  19.651  1.00  0.00     0.039 C 
BRANCH  13  15
ATOM     15  C   UNL     1     -33.734 -16.424  22.563  1.00  0.00     0.035 C 
BRANCH  15  16
ATOM     16  C   UNL     1     -33.987 -16.756  24.039  1.00  0.00     0.079 C 
BRANCH  16  17
ATOM     17  C   UNL     1     -33.688 -15.580  24.935  1.00  0.00     0.130 C 
ATOM     18  O   UNL     1     -33.504 -15.765  26.129  1.00  0.00    -0.300 OA
ATOM     19  C   UNL     1     -33.604 -14.186  24.390  1.00  0.00     0.087 C 
ENDBRANCH  16  17
ENDBRANCH  15  16
ENDBRANCH  13  15
ENDBRANCH  11  12
ENDBRANCH   1  11
TORSDOF 9
ENDMDL
MODEL 6
REMARK VINA RESULT:    -6.390      4.601      8.179
REMARK INTER + INTRA:         -10.490
REMARK INTER:                  -9.149
REMARK INTRA:                  -1.341
REMARK UNBOUND:                -0.738
REMARK SMILES CC(=O)CCC=C(C)CCC=C(C)CCC=C(C)C
REMARK SMILES IDX 10 1 11 2 12 3 13 4 14 5 15 6 16 7 18 8 17 9 19 10 9 11 7 12
REMARK SMILES IDX 6 13 8 14 5 15 4 16 2 17 3 18 1 19
REMARK H PARENT
REMARK Flexibility Score: inf
ROOT
ATOM      1  C   UNL     1     -32.012 -18.545  22.546  1.00  0.00     0.032 C 
ENDROOT
BRANCH   1   2
ATOM      2  C   UNL     1     -32.299 -20.028  22.478  1.00  0.00    -0.028 C 
ATOM      3  C   UNL     1     -32.562 -20.714  21.342  1.00  0.00    -0.077 C 
ATOM      4  C   UNL     1     -32.683 -20.031  20.001  1.00  0.00     0.039 C 
BRANCH   3   5
ATOM      5  C   UNL     1     -32.791 -22.209  21.418  1.00  0.00     0.034 C 
BRANCH   5   6
ATOM      6  C   UNL     1     -32.423 -22.771  22.798  1.00  0.00     0.032 C 
BRANCH   6   7
ATOM      7  C   UNL     1     -31.377 -23.856  22.708  1.00  0.00    -0.028 C 
ATOM      8  C   UNL     1     -30.477 -26.108  22.319  1.00  0.00     0.039 C 
ATOM      9  C   UNL     1     -31.636 -25.152  22.425  1.00  0.00    -0.080 C 
ATOM     10  C   UNL     1     -33.044 -25.663  22.232  1.00  0.00     0.039 C 
ENDBRANCH   6   7
ENDBRANCH   5   6
ENDBRANCH   3   5
ENDBRANCH   1   2
BRANCH   1  11
ATOM     11  C   UNL     1     -30.516 -18.266  22.360  1.00  0.00     0.034 C 
BRANCH  11  12
ATOM     12  C   UNL     1     -30.223 -17.654  21.006  1.00  0.00    -0.077 C 
ATOM     13  C   UNL     1     -29.235 -18.174  20.246  1.00  0.00    -0.028 C 
ATOM     14  C   UNL     1     -31.034 -16.469  20.540  1.00  0.00     0.039 C 
BRANCH  13  15
ATOM     15  C   UNL     1     -28.856 -17.617  18.895  1.00  0.00     0.035 C 
BRANCH  15  16
ATOM     16  C   UNL     1     -27.417 -17.083  18.876  1.00  0.00     0.079 C 
BRANCH  16  17
ATOM     17  C   UNL     1     -27.208 -16.004  19.908  1.00  0.00     0.130 C 
ATOM     18  O   UNL     1     -27.813 -14.947  19.805  1.00  0.00    -0.300 OA
ATOM     19  C   UNL     1     -26.277 -16.202  21.067  1.00  0.00     0.087 C 
ENDBRANCH  16  17
ENDBRANCH  15  16
ENDBRANCH  13  15
ENDBRANCH  11  12
ENDBRANCH   1  11
TORSDOF 9
ENDMDL
MODEL 7
REMARK VINA RESULT:    -6.376      5.032      8.869
REMARK INTER + INTRA:         -10.468
REMARK INTER:                  -9.374
REMARK INTRA:                  -1.094
REMARK UNBOUND:                -0.738
REMARK SMILES CC(=O)CCC=C(C)CCC=C(C)CCC=C(C)C
REMARK SMILES IDX 10 1 11 2 12 3 13 4 14 5 15 6 16 7 18 8 17 9 19 10 9 11 7 12
REMARK SMILES IDX 6 13 8 14 5 15 4 16 2 17 3 18 1 19
REMARK H PARENT
REMARK Flexibility Score: inf
ROOT
ATOM      1  C   UNL     1     -31.979 -19.372  21.050  1.00  0.00     0.032 C 
ENDROOT
BRANCH   1   2
ATOM      2  C   UNL     1     -30.599 -19.187  20.460  1.00  0.00    -0.028 C 
ATOM      3  C   UNL     1     -30.060 -17.996  20.112  1.00  0.00    -0.077 C 
ATOM      4  C   UNL     1     -30.840 -16.705  20.201  1.00  0.00     0.039 C 
BRANCH   3   5
ATOM      5  C   UNL     1     -28.648 -17.954  19.569  1.00  0.00     0.034 C 
BRANCH   5   6
ATOM      6  C   UNL     1     -27.785 -16.923  20.310  1.00  0.00     0.032 C 
BRANCH   6   7
ATOM      7  C   UNL     1     -27.000 -17.547  21.439  1.00  0.00    -0.028 C 
ATOM      8  C   UNL     1     -26.467 -18.165  23.755  1.00  0.00     0.039 C 
ATOM      9  C   UNL     1     -27.320 -17.441  22.747  1.00  0.00    -0.080 C 
ATOM     10  C   UNL     1     -28.490 -16.611  23.221  1.00  0.00     0.039 C 
ENDBRANCH   6   7
ENDBRANCH   5   6
ENDBRANCH   3   5
ENDBRANCH   1   2
BRANCH   1  11
ATOM     11  C   UNL     1     -32.636 -20.651  20.519  1.00  0.00     0.034 C 
BRANCH  11  12
ATOM     12  C   UNL     1     -32.861 -21.665  21.621  1.00  0.00    -0.077 C 
ATOM     13  C   UNL     1     -33.346 -22.886  21.305  1.00  0.00    -0.028 C 
ATOM     14  C   UNL     1     -32.549 -21.287  23.048  1.00  0.00     0.039 C 
BRANCH  13  15
ATOM     15  C   UNL     1     -33.625 -23.954  22.337  1.00  0.00     0.035 C 
BRANCH  15  16
ATOM     16  C   UNL     1     -33.082 -25.323  21.909  1.00  0.00     0.079 C 
BRANCH  16  17
ATOM     17  C   UNL     1     -31.622 -25.478  22.254  1.00  0.00     0.130 C 
ATOM     18  O   UNL     1     -31.022 -26.481  21.895  1.00  0.00    -0.300 OA
ATOM     19  C   UNL     1     -30.885 -24.422  23.023  1.00  0.00     0.087 C 
ENDBRANCH  16  17
ENDBRANCH  15  16
ENDBRANCH  13  15
ENDBRANCH  11  12
ENDBRANCH   1  11
TORSDOF 9
ENDMDL
MODEL 8
REMARK VINA RESULT:    -6.370      4.417      8.422
REMARK INTER + INTRA:         -10.459
REMARK INTER:                  -9.516
REMARK INTRA:                  -0.943
REMARK UNBOUND:                -0.738
REMARK SMILES CC(=O)CCC=C(C)CCC=C(C)CCC=C(C)C
REMARK SMILES IDX 10 1 11 2 12 3 13 4 14 5 15 6 16 7 18 8 17 9 19 10 9 11 7 12
REMARK SMILES IDX 6 13 8 14 5 15 4 16 2 17 3 18 1 19
REMARK H PARENT
REMARK Flexibility Score: inf
ROOT
ATOM      1  C   UNL     1     -31.655 -18.667  22.690  1.00  0.00     0.032 C 
ENDROOT
BRANCH   1   2
ATOM      2  C   UNL     1     -32.204 -20.065  22.515  1.00  0.00    -0.028 C 
ATOM      3  C   UNL     1     -32.499 -20.637  21.325  1.00  0.00    -0.077 C 
ATOM      4  C   UNL     1     -32.385 -19.883  20.021  1.00  0.00     0.039 C 
BRANCH   3   5
ATOM      5  C   UNL     1     -33.004 -22.064  21.296  1.00  0.00     0.034 C 
BRANCH   5   6
ATOM      6  C   UNL     1     -32.815 -22.762  22.650  1.00  0.00     0.032 C 
BRANCH   6   7
ATOM      7  C   UNL     1     -31.595 -23.651  22.664  1.00  0.00    -0.028 C 
ATOM      8  C   UNL     1     -30.302 -25.726  22.431  1.00  0.00     0.039 C 
ATOM      9  C   UNL     1     -31.612 -24.982  22.434  1.00  0.00    -0.080 C 
ATOM     10  C   UNL     1     -32.899 -25.738  22.198  1.00  0.00     0.039 C 
ENDBRANCH   6   7
ENDBRANCH   5   6
ENDBRANCH   3   5
ENDBRANCH   1   2
BRANCH   1  11
ATOM     11  C   UNL     1     -32.789 -17.648  22.850  1.00  0.00     0.034 C 
BRANCH  11  12
ATOM     12  C   UNL     1     -32.570 -16.749  24.049  1.00  0.00    -0.077 C 
ATOM     13  C   UNL     1     -31.372 -16.761  24.673  1.00  0.00    -0.028 C 
ATOM     14  C   UNL     1     -33.698 -15.867  24.527  1.00  0.00     0.039 C 
BRANCH  13  15
ATOM     15  C   UNL     1     -31.068 -15.918  25.888  1.00  0.00     0.035 C 
BRANCH  15  16
ATOM     16  C   UNL     1     -30.084 -16.612  26.839  1.00  0.00     0.079 C 
BRANCH  16  17
ATOM     17  C   UNL     1     -30.789 -17.559  27.778  1.00  0.00     0.130 C 
ATOM     18  O   UNL     1     -30.785 -18.758  27.539  1.00  0.00    -0.300 OA
ATOM     19  C   UNL     1     -31.490 -17.062  29.007  1.00  0.00     0.087 C 
ENDBRANCH  16  17
ENDBRANCH  15  16
ENDBRANCH  13  15
ENDBRANCH  11  12
ENDBRANCH   1  11
TORSDOF 9
ENDMDL
MODEL 9
REMARK VINA RESULT:    -6.292      5.467      8.695
REMARK INTER + INTRA:         -10.340
REMARK INTER:                  -9.103
REMARK INTRA:                  -1.236
REMARK UNBOUND:                -0.738
REMARK SMILES CC(=O)CCC=C(C)CCC=C(C)CCC=C(C)C
REMARK SMILES IDX 10 1 11 2 12 3 13 4 14 5 15 6 16 7 18 8 17 9 19 10 9 11 7 12
REMARK SMILES IDX 6 13 8 14 5 15 4 16 2 17 3 18 1 19
REMARK H PARENT
REMARK Flexibility Score: inf
ROOT
ATOM      1  C   UNL     1     -31.815 -17.752  22.826  1.00  0.00     0.032 C 
ENDROOT
BRANCH   1   2
ATOM      2  C   UNL     1     -32.337 -19.104  22.396  1.00  0.00    -0.028 C 
ATOM      3  C   UNL     1     -31.813 -19.855  21.400  1.00  0.00    -0.077 C 
ATOM      4  C   UNL     1     -30.674 -19.364  20.538  1.00  0.00     0.039 C 
BRANCH   3   5
ATOM      5  C   UNL     1     -32.414 -21.213  21.103  1.00  0.00     0.034 C 
BRANCH   5   6
ATOM      6  C   UNL     1     -33.003 -21.861  22.363  1.00  0.00     0.032 C 
BRANCH   6   7
ATOM      7  C   UNL     1     -33.456 -23.280  22.112  1.00  0.00    -0.028 C 
ATOM      8  C   UNL     1     -33.287 -25.728  22.020  1.00  0.00     0.039 C 
ATOM      9  C   UNL     1     -32.675 -24.373  22.260  1.00  0.00    -0.080 C 
ATOM     10  C   UNL     1     -31.216 -24.270  22.637  1.00  0.00     0.039 C 
ENDBRANCH   6   7
ENDBRANCH   5   6
ENDBRANCH   3   5
ENDBRANCH   1   2
BRANCH   1  11
ATOM     11  C   UNL     1     -30.865 -17.886  24.023  1.00  0.00     0.034 C 
BRANCH  11  12
ATOM     12  C   UNL     1     -29.534 -17.214  23.760  1.00  0.00    -0.077 C 
ATOM     13  C   UNL     1     -28.392 -17.878  24.043  1.00  0.00    -0.028 C 
ATOM     14  C   UNL     1     -29.511 -15.813  23.198  1.00  0.00     0.039 C 
BRANCH  13  15
ATOM     15  C   UNL     1     -27.020 -17.282  23.837  1.00  0.00     0.035 C 
BRANCH  15  16
ATOM     16  C   UNL     1     -26.403 -17.705  22.498  1.00  0.00     0.079 C 
BRANCH  16  17
ATOM     17  C   UNL     1     -26.204 -16.528  21.577  1.00  0.00     0.130 C 
ATOM     18  O   UNL     1     -25.420 -15.645  21.889  1.00  0.00    -0.300 OA
ATOM     19  C   UNL     1     -26.945 -16.421  20.277  1.00  0.00     0.087 C 
ENDBRANCH  16  17
ENDBRANCH  15  16
ENDBRANCH  13  15
ENDBRANCH  11  12
ENDBRANCH   1  11
TORSDOF 9
ENDMDL
