MODEL 1
REMARK VINA RESULT:    -6.199      0.000      0.000
REMARK INTER + INTRA:          -8.483
REMARK INTER:                  -8.192
REMARK INTRA:                  -0.291
REMARK UNBOUND:                -0.291
REMARK SMILES CCCCC=CC=CCO
REMARK SMILES IDX 5 1 6 2 4 3 3 4 2 5 1 6 7 7 8 8 9 9 10 10
REMARK H PARENT 10 11
REMARK Flexibility Score: inf
ROOT
ATOM      1  C   UNL     1      10.704 -17.690  37.340  1.00  0.00    -0.027 C 
ATOM      2  C   UNL     1      10.321 -18.896  36.896  1.00  0.00    -0.005 C 
ENDROOT
BRANCH   1   3
ATOM      3  C   UNL     1      11.096 -16.536  36.457  1.00  0.00     0.027 C 
BRANCH   3   4
ATOM      4  C   UNL     1      11.479 -15.304  37.293  1.00  0.00     0.004 C 
BRANCH   4   5
ATOM      5  C   UNL     1      11.342 -15.553  38.803  1.00  0.00    -0.003 C 
ATOM      6  C   UNL     1      10.365 -14.589  39.476  1.00  0.00     0.004 C 
ENDBRANCH   4   5
ENDBRANCH   3   4
ENDBRANCH   1   3
BRANCH   2   7
ATOM      7  C   UNL     1      10.244 -19.265  35.468  1.00  0.00    -0.002 C 
ATOM      8  C   UNL     1       9.938 -20.511  35.100  1.00  0.00     0.001 C 
BRANCH   8   9
ATOM      9  C   UNL     1       9.863 -20.900  33.656  1.00  0.00     0.183 C 
BRANCH   9  10
ATOM     10  O   UNL     1       8.844 -20.175  33.025  1.00  0.00    -0.392 OA
ATOM     11  H   UNL     1       8.715 -20.600  32.138  1.00  0.00     0.210 HD
ENDBRANCH   9  10
ENDBRANCH   8   9
ENDBRANCH   2   7
TORSDOF 6
ENDMDL
MODEL 2
REMARK VINA RESULT:    -6.151      1.583      2.248
REMARK INTER + INTRA:          -8.420
REMARK INTER:                  -7.964
REMARK INTRA:                  -0.456
REMARK UNBOUND:                -0.291
REMARK SMILES CCCCC=CC=CCO
REMARK SMILES IDX 5 1 6 2 4 3 3 4 2 5 1 6 7 7 8 8 9 9 10 10
REMARK H PARENT 10 11
REMARK Flexibility Score: inf
ROOT
ATOM      1  C   UNL     1      11.216 -15.597  36.522  1.00  0.00    -0.027 C 
ATOM      2  C   UNL     1      10.866 -16.735  35.906  1.00  0.00    -0.005 C 
ENDROOT
BRANCH   1   3
ATOM      3  C   UNL     1      11.648 -15.499  37.960  1.00  0.00     0.027 C 
BRANCH   3   4
ATOM      4  C   UNL     1      10.747 -14.532  38.744  1.00  0.00     0.004 C 
BRANCH   4   5
ATOM      5  C   UNL     1       9.888 -15.251  39.796  1.00  0.00    -0.003 C 
ATOM      6  C   UNL     1      10.267 -16.722  39.964  1.00  0.00     0.004 C 
ENDBRANCH   4   5
ENDBRANCH   3   4
ENDBRANCH   1   3
BRANCH   2   7
ATOM      7  C   UNL     1      10.843 -18.058  36.563  1.00  0.00    -0.002 C 
ATOM      8  C   UNL     1      10.576 -19.164  35.863  1.00  0.00     0.001 C 
BRANCH   8   9
ATOM      9  C   UNL     1      10.544 -20.510  36.518  1.00  0.00     0.183 C 
BRANCH   9  10
ATOM     10  O   UNL     1       9.751 -21.383  35.763  1.00  0.00    -0.392 OA
ATOM     11  H   UNL     1       8.968 -20.853  35.464  1.00  0.00     0.210 HD
ENDBRANCH   9  10
ENDBRANCH   8   9
ENDBRANCH   2   7
TORSDOF 6
ENDMDL
MODEL 3
REMARK VINA RESULT:    -5.880      2.700      3.009
REMARK INTER + INTRA:          -8.062
REMARK INTER:                  -7.689
REMARK INTRA:                  -0.372
REMARK UNBOUND:                -0.291
REMARK SMILES CCCCC=CC=CCO
REMARK SMILES IDX 5 1 6 2 4 3 3 4 2 5 1 6 7 7 8 8 9 9 10 10
REMARK H PARENT 10 11
REMARK Flexibility Score: inf
ROOT
ATOM      1  C   UNL     1      10.968 -16.633  36.542  1.00  0.00    -0.027 C 
ATOM      2  C   UNL     1      10.734 -17.940  36.363  1.00  0.00    -0.005 C 
ENDROOT
BRANCH   1   3
ATOM      3  C   UNL     1      11.627 -16.038  37.758  1.00  0.00     0.027 C 
BRANCH   3   4
ATOM      4  C   UNL     1      10.992 -14.689  38.128  1.00  0.00     0.004 C 
BRANCH   4   5
ATOM      5  C   UNL     1      10.337 -14.709  39.518  1.00  0.00    -0.003 C 
ATOM      6  C   UNL     1      10.125 -16.125  40.052  1.00  0.00     0.004 C 
ENDBRANCH   4   5
ENDBRANCH   3   4
ENDBRANCH   1   3
BRANCH   2   7
ATOM      7  C   UNL     1      11.081 -18.985  37.348  1.00  0.00    -0.002 C 
ATOM      8  C   UNL     1      11.168 -20.267  36.982  1.00  0.00     0.001 C 
BRANCH   8   9
ATOM      9  C   UNL     1      11.513 -21.336  37.972  1.00  0.00     0.183 C 
BRANCH   9  10
ATOM     10  O   UNL     1      12.077 -20.757  39.115  1.00  0.00    -0.392 OA
ATOM     11  H   UNL     1      11.370 -20.181  39.508  1.00  0.00     0.210 HD
ENDBRANCH   9  10
ENDBRANCH   8   9
ENDBRANCH   2   7
TORSDOF 6
ENDMDL
MODEL 4
REMARK VINA RESULT:    -5.868      1.361      2.418
REMARK INTER + INTRA:          -8.046
REMARK INTER:                  -7.587
REMARK INTRA:                  -0.459
REMARK UNBOUND:                -0.291
REMARK SMILES CCCCC=CC=CCO
REMARK SMILES IDX 5 1 6 2 4 3 3 4 2 5 1 6 7 7 8 8 9 9 10 10
REMARK H PARENT 10 11
REMARK Flexibility Score: inf
ROOT
ATOM      1  C   UNL     1      10.940 -17.054  39.553  1.00  0.00    -0.027 C 
ATOM      2  C   UNL     1      11.176 -18.107  38.758  1.00  0.00    -0.005 C 
ENDROOT
BRANCH   1   3
ATOM      3  C   UNL     1       9.962 -15.952  39.248  1.00  0.00     0.027 C 
BRANCH   3   4
ATOM      4  C   UNL     1      10.690 -14.653  38.870  1.00  0.00     0.004 C 
BRANCH   4   5
ATOM      5  C   UNL     1      10.707 -14.407  37.353  1.00  0.00    -0.003 C 
ATOM      6  C   UNL     1      11.862 -15.119  36.651  1.00  0.00     0.004 C 
ENDBRANCH   4   5
ENDBRANCH   3   4
ENDBRANCH   1   3
BRANCH   2   7
ATOM      7  C   UNL     1      10.513 -18.326  37.457  1.00  0.00    -0.002 C 
ATOM      8  C   UNL     1      10.651 -19.484  36.806  1.00  0.00     0.001 C 
BRANCH   8   9
ATOM      9  C   UNL     1       9.989 -19.717  35.484  1.00  0.00     0.183 C 
BRANCH   9  10
ATOM     10  O   UNL     1       9.779 -21.089  35.296  1.00  0.00    -0.392 OA
ATOM     11  H   UNL     1      10.473 -21.387  34.652  1.00  0.00     0.210 HD
ENDBRANCH   9  10
ENDBRANCH   8   9
ENDBRANCH   2   7
TORSDOF 6
ENDMDL
MODEL 5
REMARK VINA RESULT:    -5.771      2.078      2.252
REMARK INTER + INTRA:          -7.917
REMARK INTER:                  -7.605
REMARK INTRA:                  -0.313
REMARK UNBOUND:                -0.291
REMARK SMILES CCCCC=CC=CCO
REMARK SMILES IDX 5 1 6 2 4 3 3 4 2 5 1 6 7 7 8 8 9 9 10 10
REMARK H PARENT 10 11
REMARK Flexibility Score: inf
ROOT
ATOM      1  C   UNL     1      10.392 -17.774  37.636  1.00  0.00    -0.027 C 
ATOM      2  C   UNL     1      10.115 -18.738  36.746  1.00  0.00    -0.005 C 
ENDROOT
BRANCH   1   3
ATOM      3  C   UNL     1      11.609 -17.748  38.520  1.00  0.00     0.027 C 
BRANCH   3   4
ATOM      4  C   UNL     1      12.160 -16.320  38.663  1.00  0.00     0.004 C 
BRANCH   4   5
ATOM      5  C   UNL     1      11.144 -15.252  38.229  1.00  0.00    -0.003 C 
ATOM      6  C   UNL     1      10.454 -14.576  39.414  1.00  0.00     0.004 C 
ENDBRANCH   4   5
ENDBRANCH   3   4
ENDBRANCH   1   3
BRANCH   2   7
ATOM      7  C   UNL     1      10.966 -19.923  36.519  1.00  0.00    -0.002 C 
ATOM      8  C   UNL     1      11.464 -20.185  35.308  1.00  0.00     0.001 C 
BRANCH   8   9
ATOM      9  C   UNL     1      12.323 -21.387  35.063  1.00  0.00     0.183 C 
BRANCH   9  10
ATOM     10  O   UNL     1      13.667 -20.999  34.988  1.00  0.00    -0.392 OA
ATOM     11  H   UNL     1      13.836 -20.779  34.036  1.00  0.00     0.210 HD
ENDBRANCH   9  10
ENDBRANCH   8   9
ENDBRANCH   2   7
TORSDOF 6
ENDMDL
MODEL 6
REMARK VINA RESULT:    -5.660      9.058     10.318
REMARK INTER + INTRA:          -7.770
REMARK INTER:                  -7.456
REMARK INTRA:                  -0.314
REMARK UNBOUND:                -0.291
REMARK SMILES CCCCC=CC=CCO
REMARK SMILES IDX 5 1 6 2 4 3 3 4 2 5 1 6 7 7 8 8 9 9 10 10
REMARK H PARENT 10 11
REMARK Flexibility Score: inf
ROOT
ATOM      1  C   UNL     1       8.492 -27.557  38.388  1.00  0.00    -0.027 C 
ATOM      2  C   UNL     1       7.232 -27.864  38.730  1.00  0.00    -0.005 C 
ENDROOT
BRANCH   1   3
ATOM      3  C   UNL     1       8.918 -26.255  37.766  1.00  0.00     0.027 C 
BRANCH   3   4
ATOM      4  C   UNL     1       9.807 -26.494  36.535  1.00  0.00     0.004 C 
BRANCH   4   5
ATOM      5  C   UNL     1       9.003 -26.522  35.226  1.00  0.00    -0.003 C 
ATOM      6  C   UNL     1       9.878 -26.308  33.991  1.00  0.00     0.004 C 
ENDBRANCH   4   5
ENDBRANCH   3   4
ENDBRANCH   1   3
BRANCH   2   7
ATOM      7  C   UNL     1       6.078 -26.964  38.529  1.00  0.00    -0.002 C 
ATOM      8  C   UNL     1       4.958 -27.408  37.955  1.00  0.00     0.001 C 
BRANCH   8   9
ATOM      9  C   UNL     1       3.783 -26.505  37.740  1.00  0.00     0.183 C 
BRANCH   9  10
ATOM     10  O   UNL     1       3.942 -25.336  38.495  1.00  0.00    -0.392 OA
ATOM     11  H   UNL     1       4.910 -25.273  38.701  1.00  0.00     0.210 HD
ENDBRANCH   9  10
ENDBRANCH   8   9
ENDBRANCH   2   7
TORSDOF 6
ENDMDL
MODEL 7
REMARK VINA RESULT:    -5.581      2.402      2.638
REMARK INTER + INTRA:          -7.667
REMARK INTER:                  -7.399
REMARK INTRA:                  -0.268
REMARK UNBOUND:                -0.291
REMARK SMILES CCCCC=CC=CCO
REMARK SMILES IDX 5 1 6 2 4 3 3 4 2 5 1 6 7 7 8 8 9 9 10 10
REMARK H PARENT 10 11
REMARK Flexibility Score: inf
ROOT
ATOM      1  C   UNL     1      10.791 -17.796  36.738  1.00  0.00    -0.027 C 
ATOM      2  C   UNL     1      10.705 -19.002  36.158  1.00  0.00    -0.005 C 
ENDROOT
BRANCH   1   3
ATOM      3  C   UNL     1      11.254 -17.555  38.149  1.00  0.00     0.027 C 
BRANCH   3   4
ATOM      4  C   UNL     1      11.990 -16.210  38.268  1.00  0.00     0.004 C 
BRANCH   4   5
ATOM      5  C   UNL     1      11.025 -15.024  38.424  1.00  0.00    -0.003 C 
ATOM      6  C   UNL     1      10.058 -15.199  39.595  1.00  0.00     0.004 C 
ENDBRANCH   4   5
ENDBRANCH   3   4
ENDBRANCH   1   3
BRANCH   2   7
ATOM      7  C   UNL     1      11.044 -20.271  36.834  1.00  0.00    -0.002 C 
ATOM      8  C   UNL     1      10.341 -21.381  36.595  1.00  0.00     0.001 C 
BRANCH   8   9
ATOM      9  C   UNL     1      10.669 -22.671  37.278  1.00  0.00     0.183 C 
BRANCH   9  10
ATOM     10  O   UNL     1      12.006 -22.658  37.696  1.00  0.00    -0.392 OA
ATOM     11  H   UNL     1      12.369 -21.775  37.424  1.00  0.00     0.210 HD
ENDBRANCH   9  10
ENDBRANCH   8   9
ENDBRANCH   2   7
TORSDOF 6
ENDMDL
MODEL 8
REMARK VINA RESULT:    -5.499      5.345      7.827
REMARK INTER + INTRA:          -7.558
REMARK INTER:                  -7.016
REMARK INTRA:                  -0.542
REMARK UNBOUND:                -0.291
REMARK SMILES CCCCC=CC=CCO
REMARK SMILES IDX 5 1 6 2 4 3 3 4 2 5 1 6 7 7 8 8 9 9 10 10
REMARK H PARENT 10 11
REMARK Flexibility Score: inf
ROOT
ATOM      1  C   UNL     1      10.364 -25.896  33.313  1.00  0.00    -0.027 C 
ATOM      2  C   UNL     1      10.731 -24.683  32.878  1.00  0.00    -0.005 C 
ENDROOT
BRANCH   1   3
ATOM      3  C   UNL     1       9.458 -26.148  34.489  1.00  0.00     0.027 C 
BRANCH   3   4
ATOM      4  C   UNL     1      10.263 -26.558  35.731  1.00  0.00     0.004 C 
BRANCH   4   5
ATOM      5  C   UNL     1      10.513 -25.380  36.686  1.00  0.00    -0.003 C 
ATOM      6  C   UNL     1      11.975 -24.935  36.706  1.00  0.00     0.004 C 
ENDBRANCH   4   5
ENDBRANCH   3   4
ENDBRANCH   1   3
BRANCH   2   7
ATOM      7  C   UNL     1      10.305 -23.415  33.505  1.00  0.00    -0.002 C 
ATOM      8  C   UNL     1       9.974 -22.360  32.757  1.00  0.00     0.001 C 
BRANCH   8   9
ATOM      9  C   UNL     1       9.547 -21.068  33.380  1.00  0.00     0.183 C 
BRANCH   9  10
ATOM     10  O   UNL     1       8.922 -20.264  32.418  1.00  0.00    -0.392 OA
ATOM     11  H   UNL     1       9.407 -19.398  32.429  1.00  0.00     0.210 HD
ENDBRANCH   9  10
ENDBRANCH   8   9
ENDBRANCH   2   7
TORSDOF 6
ENDMDL
MODEL 9
REMARK VINA RESULT:    -5.338      3.166      3.690
REMARK INTER + INTRA:          -7.345
REMARK INTER:                  -7.051
REMARK INTRA:                  -0.294
REMARK UNBOUND:                -0.291
REMARK SMILES CCCCC=CC=CCO
REMARK SMILES IDX 5 1 6 2 4 3 3 4 2 5 1 6 7 7 8 8 9 9 10 10
REMARK H PARENT 10 11
REMARK Flexibility Score: inf
ROOT
ATOM      1  C   UNL     1      10.761 -19.051  35.803  1.00  0.00    -0.027 C 
ATOM      2  C   UNL     1      11.396 -20.165  35.415  1.00  0.00    -0.005 C 
ENDROOT
BRANCH   1   3
ATOM      3  C   UNL     1      10.450 -18.695  37.232  1.00  0.00     0.027 C 
BRANCH   3   4
ATOM      4  C   UNL     1      11.119 -17.371  37.632  1.00  0.00     0.004 C 
BRANCH   4   5
ATOM      5  C   UNL     1      11.094 -16.333  36.498  1.00  0.00    -0.003 C 
ATOM      6  C   UNL     1      11.062 -14.895  37.013  1.00  0.00     0.004 C 
ENDBRANCH   4   5
ENDBRANCH   3   4
ENDBRANCH   1   3
BRANCH   2   7
ATOM      7  C   UNL     1      11.869 -21.213  36.342  1.00  0.00    -0.002 C 
ATOM      8  C   UNL     1      12.873 -22.025  36.000  1.00  0.00     0.001 C 
BRANCH   8   9
ATOM      9  C   UNL     1      13.358 -23.095  36.928  1.00  0.00     0.183 C 
BRANCH   9  10
ATOM     10  O   UNL     1      14.677 -23.438  36.604  1.00  0.00    -0.392 OA
ATOM     11  H   UNL     1      14.627 -23.948  35.754  1.00  0.00     0.210 HD
ENDBRANCH   9  10
ENDBRANCH   8   9
ENDBRANCH   2   7
TORSDOF 6
ENDMDL
