MODEL 1
REMARK VINA RESULT:     2.841      0.000      0.000
REMARK INTER + INTRA:           3.393
REMARK INTER:                   3.007
REMARK INTRA:                   0.386
REMARK UNBOUND:                 0.386
REMARK SMILES CC(C)[C@H]1CC[C@H](C)[C@H]2C=C[C@@H](C)C[C@@H]21
REMARK SMILES IDX 8 1 7 2 6 3 5 4 4 5 15 6 9 7 10 8 11 9 12 10 14 11 13 12
REMARK SMILES IDX 2 13 1 14 3 15
REMARK H PARENT
REMARK Flexibility Score: inf
ROOT
ATOM      1  C   UNL     1     -14.993  -4.850  15.618  1.00  0.00     0.008 C 
ATOM      2  C   UNL     1     -15.137  -3.329  15.801  1.00  0.00    -0.007 C 
ATOM      3  C   UNL     1     -16.502  -2.886  15.245  1.00  0.00     0.004 C 
ATOM      4  C   UNL     1     -16.706  -1.380  15.408  1.00  0.00     0.004 C 
ATOM      5  C   UNL     1     -16.643  -0.966  16.897  1.00  0.00    -0.005 C 
ATOM      6  C   UNL     1     -15.273  -1.398  17.507  1.00  0.00    -0.000 C 
ATOM      7  C   UNL     1     -14.999  -2.914  17.290  1.00  0.00     0.018 C 
ATOM      8  C   UNL     1     -13.612  -3.202  17.826  1.00  0.00    -0.027 C 
ATOM      9  C   UNL     1     -13.268  -2.732  19.031  1.00  0.00    -0.028 C 
ATOM     10  C   UNL     1     -14.295  -2.010  19.869  1.00  0.00     0.008 C 
ATOM     11  C   UNL     1     -15.152  -1.027  19.021  1.00  0.00     0.012 C 
ATOM     12  C   UNL     1     -13.635  -1.297  21.053  1.00  0.00     0.012 C 
ENDROOT
BRANCH   5  13
ATOM     13  C   UNL     1     -16.969   0.555  17.104  1.00  0.00    -0.014 C 
ATOM     14  C   UNL     1     -18.092   0.825  18.120  1.00  0.00     0.007 C 
ATOM     15  C   UNL     1     -15.717   1.365  17.479  1.00  0.00     0.007 C 
ENDBRANCH   5  13
TORSDOF 1
ENDMDL
MODEL 2
REMARK VINA RESULT:     3.119      1.143      4.084
REMARK INTER + INTRA:           3.687
REMARK INTER:                   3.893
REMARK INTRA:                  -0.206
REMARK UNBOUND:                 0.386
REMARK SMILES CC(C)[C@H]1CC[C@H](C)[C@H]2C=C[C@@H](C)C[C@@H]21
REMARK SMILES IDX 8 1 7 2 6 3 5 4 4 5 15 6 9 7 10 8 11 9 12 10 14 11 13 12
REMARK SMILES IDX 2 13 1 14 3 15
REMARK H PARENT
REMARK Flexibility Score: inf
ROOT
ATOM      1  C   UNL     1     -13.300  -3.272  14.933  1.00  0.00     0.008 C 
ATOM      2  C   UNL     1     -13.814  -3.236  16.384  1.00  0.00    -0.007 C 
ATOM      3  C   UNL     1     -12.610  -3.258  17.342  1.00  0.00     0.004 C 
ATOM      4  C   UNL     1     -13.061  -3.215  18.801  1.00  0.00     0.004 C 
ATOM      5  C   UNL     1     -13.877  -1.935  19.096  1.00  0.00    -0.005 C 
ATOM      6  C   UNL     1     -15.112  -1.866  18.144  1.00  0.00    -0.000 C 
ATOM      7  C   UNL     1     -14.694  -1.985  16.650  1.00  0.00     0.018 C 
ATOM      8  C   UNL     1     -15.965  -2.008  15.827  1.00  0.00    -0.027 C 
ATOM      9  C   UNL     1     -16.920  -1.104  16.076  1.00  0.00    -0.028 C 
ATOM     10  C   UNL     1     -16.672  -0.025  17.103  1.00  0.00     0.008 C 
ATOM     11  C   UNL     1     -15.971  -0.580  18.375  1.00  0.00     0.012 C 
ATOM     12  C   UNL     1     -17.972   0.706  17.456  1.00  0.00     0.012 C 
ENDROOT
BRANCH   5  13
ATOM     13  C   UNL     1     -14.250  -1.805  20.615  1.00  0.00    -0.014 C 
ATOM     14  C   UNL     1     -15.366  -2.759  21.072  1.00  0.00     0.007 C 
ATOM     15  C   UNL     1     -13.019  -1.962  21.523  1.00  0.00     0.007 C 
ENDBRANCH   5  13
TORSDOF 1
ENDMDL
MODEL 3
REMARK VINA RESULT:     3.267      1.227      3.850
REMARK INTER + INTRA:           3.844
REMARK INTER:                   4.118
REMARK INTRA:                  -0.274
REMARK UNBOUND:                 0.386
REMARK SMILES CC(C)[C@H]1CC[C@H](C)[C@H]2C=C[C@@H](C)C[C@@H]21
REMARK SMILES IDX 8 1 7 2 6 3 5 4 4 5 15 6 9 7 10 8 11 9 12 10 14 11 13 12
REMARK SMILES IDX 2 13 1 14 3 15
REMARK H PARENT
REMARK Flexibility Score: inf
ROOT
ATOM      1  C   UNL     1     -17.477   0.294  17.774  1.00  0.00     0.008 C 
ATOM      2  C   UNL     1     -16.783  -1.044  17.463  1.00  0.00    -0.007 C 
ATOM      3  C   UNL     1     -16.387  -1.070  15.977  1.00  0.00     0.004 C 
ATOM      4  C   UNL     1     -15.684  -2.377  15.612  1.00  0.00     0.004 C 
ATOM      5  C   UNL     1     -14.398  -2.572  16.449  1.00  0.00    -0.005 C 
ATOM      6  C   UNL     1     -14.751  -2.551  17.969  1.00  0.00    -0.000 C 
ATOM      7  C   UNL     1     -15.535  -1.266  18.360  1.00  0.00     0.018 C 
ATOM      8  C   UNL     1     -15.911  -1.395  19.822  1.00  0.00    -0.027 C 
ATOM      9  C   UNL     1     -14.979  -1.778  20.703  1.00  0.00    -0.028 C 
ATOM     10  C   UNL     1     -13.556  -1.980  20.240  1.00  0.00     0.008 C 
ATOM     11  C   UNL     1     -13.487  -2.722  18.875  1.00  0.00     0.012 C 
ATOM     12  C   UNL     1     -12.728  -2.699  21.309  1.00  0.00     0.012 C 
ENDROOT
BRANCH   5  13
ATOM     13  C   UNL     1     -13.592  -3.845  16.010  1.00  0.00    -0.014 C 
ATOM     14  C   UNL     1     -14.440  -4.910  15.295  1.00  0.00     0.007 C 
ATOM     15  C   UNL     1     -12.370  -3.483  15.151  1.00  0.00     0.007 C 
ENDBRANCH   5  13
TORSDOF 1
ENDMDL
MODEL 4
REMARK VINA RESULT:     5.010      1.313      2.002
REMARK INTER + INTRA:           5.689
REMARK INTER:                   5.813
REMARK INTRA:                  -0.124
REMARK UNBOUND:                 0.386
REMARK SMILES CC(C)[C@H]1CC[C@H](C)[C@H]2C=C[C@@H](C)C[C@@H]21
REMARK SMILES IDX 8 1 7 2 6 3 5 4 4 5 15 6 9 7 10 8 11 9 12 10 14 11 13 12
REMARK SMILES IDX 2 13 1 14 3 15
REMARK H PARENT
REMARK Flexibility Score: inf
ROOT
ATOM      1  C   UNL     1     -12.129  -4.047  16.951  1.00  0.00     0.008 C 
ATOM      2  C   UNL     1     -13.049  -2.820  17.078  1.00  0.00    -0.007 C 
ATOM      3  C   UNL     1     -14.095  -2.860  15.951  1.00  0.00     0.004 C 
ATOM      4  C   UNL     1     -15.046  -1.665  16.031  1.00  0.00     0.004 C 
ATOM      5  C   UNL     1     -15.803  -1.645  17.380  1.00  0.00    -0.005 C 
ATOM      6  C   UNL     1     -14.779  -1.606  18.558  1.00  0.00    -0.000 C 
ATOM      7  C   UNL     1     -13.748  -2.767  18.463  1.00  0.00     0.018 C 
ATOM      8  C   UNL     1     -12.751  -2.577  19.587  1.00  0.00    -0.027 C 
ATOM      9  C   UNL     1     -13.201  -2.320  20.822  1.00  0.00    -0.028 C 
ATOM     10  C   UNL     1     -14.688  -2.321  21.086  1.00  0.00     0.008 C 
ATOM     11  C   UNL     1     -15.481  -1.605  19.956  1.00  0.00     0.012 C 
ATOM     12  C   UNL     1     -15.001  -1.715  22.458  1.00  0.00     0.012 C 
ENDROOT
BRANCH   5  13
ATOM     13  C   UNL     1     -16.873  -0.498  17.442  1.00  0.00    -0.014 C 
ATOM     14  C   UNL     1     -16.298   0.880  17.809  1.00  0.00     0.007 C 
ATOM     15  C   UNL     1     -17.684  -0.400  16.140  1.00  0.00     0.007 C 
ENDBRANCH   5  13
TORSDOF 1
ENDMDL
