MODEL 1
REMARK VINA RESULT:    -7.252      0.000      0.000
REMARK INTER + INTRA:          -8.689
REMARK INTER:                  -8.523
REMARK INTRA:                  -0.166
REMARK UNBOUND:                -0.166
REMARK SMILES COc1ccc(C=CC(=O)[O-])cc1
REMARK SMILES IDX 6 1 5 2 12 3 4 4 13 5 3 6 7 7 8 8 9 9 10 10 11 11 2 12 1 13
REMARK H PARENT
REMARK Flexibility Score: inf
ROOT
ATOM      1  C   UNL     1      34.010  26.090  19.273  1.00  0.00    -0.025 A 
ATOM      2  C   UNL     1      34.789  25.250  20.084  1.00  0.00     0.012 A 
ATOM      3  C   UNL     1      33.426  27.235  19.847  1.00  0.00     0.012 A 
ATOM      4  C   UNL     1      34.961  25.531  21.442  1.00  0.00     0.047 A 
ATOM      5  C   UNL     1      33.600  27.516  21.206  1.00  0.00     0.047 A 
ATOM      6  C   UNL     1      34.370  26.660  22.016  1.00  0.00     0.118 A 
ENDROOT
BRANCH   1   7
ATOM      7  C   UNL     1      33.867  25.754  17.833  1.00  0.00     0.010 C 
ATOM      8  C   UNL     1      33.377  26.601  16.917  1.00  0.00     0.025 C 
BRANCH   8   9
ATOM      9  C   UNL     1      33.241  26.222  15.502  1.00  0.00     0.064 C 
ATOM     10  O   UNL     1      34.023  25.369  15.009  1.00  0.00    -0.545 OA
ATOM     11  O   UNL     1      32.258  26.792  14.699  1.00  0.00    -0.545 OA
ENDBRANCH   8   9
ENDBRANCH   1   7
BRANCH   6  12
ATOM     12  O   UNL     1      34.571  26.897  23.384  1.00  0.00    -0.497 OA
ATOM     13  C   UNL     1      34.391  25.920  24.404  1.00  0.00     0.278 C 
ENDBRANCH   6  12
TORSDOF 3
ENDMDL
MODEL 2
REMARK VINA RESULT:    -7.209      1.079      6.337
REMARK INTER + INTRA:          -8.639
REMARK INTER:                  -8.459
REMARK INTRA:                  -0.180
REMARK UNBOUND:                -0.166
REMARK SMILES COc1ccc(C=CC(=O)[O-])cc1
REMARK SMILES IDX 6 1 5 2 12 3 4 4 13 5 3 6 7 7 8 8 9 9 10 10 11 11 2 12 1 13
REMARK H PARENT
REMARK Flexibility Score: inf
ROOT
ATOM      1  C   UNL     1      34.125  26.005  19.741  1.00  0.00    -0.025 A 
ATOM      2  C   UNL     1      33.576  27.091  19.040  1.00  0.00     0.012 A 
ATOM      3  C   UNL     1      34.344  24.796  19.054  1.00  0.00     0.012 A 
ATOM      4  C   UNL     1      33.229  26.965  17.691  1.00  0.00     0.047 A 
ATOM      5  C   UNL     1      33.998  24.673  17.704  1.00  0.00     0.047 A 
ATOM      6  C   UNL     1      33.433  25.761  17.013  1.00  0.00     0.118 A 
ENDROOT
BRANCH   1   7
ATOM      7  C   UNL     1      34.486  26.191  21.169  1.00  0.00     0.010 C 
ATOM      8  C   UNL     1      33.981  27.159  21.945  1.00  0.00     0.025 C 
BRANCH   8   9
ATOM      9  C   UNL     1      34.378  27.314  23.353  1.00  0.00     0.064 C 
ATOM     10  O   UNL     1      34.732  28.444  23.778  1.00  0.00    -0.545 OA
ATOM     11  O   UNL     1      34.365  26.231  24.225  1.00  0.00    -0.545 OA
ENDBRANCH   8   9
ENDBRANCH   1   7
BRANCH   6  12
ATOM     12  O   UNL     1      33.067  25.686  15.661  1.00  0.00    -0.497 OA
ATOM     13  C   UNL     1      32.705  26.808  14.863  1.00  0.00     0.278 C 
ENDBRANCH   6  12
TORSDOF 3
ENDMDL
MODEL 3
REMARK VINA RESULT:    -7.177      1.076      6.231
REMARK INTER + INTRA:          -8.601
REMARK INTER:                  -8.436
REMARK INTRA:                  -0.165
REMARK UNBOUND:                -0.166
REMARK SMILES COc1ccc(C=CC(=O)[O-])cc1
REMARK SMILES IDX 6 1 5 2 12 3 4 4 13 5 3 6 7 7 8 8 9 9 10 10 11 11 2 12 1 13
REMARK H PARENT
REMARK Flexibility Score: inf
ROOT
ATOM      1  C   UNL     1      34.080  26.163  19.763  1.00  0.00    -0.025 A 
ATOM      2  C   UNL     1      34.334  24.975  19.059  1.00  0.00     0.012 A 
ATOM      3  C   UNL     1      33.444  27.226  19.093  1.00  0.00     0.012 A 
ATOM      4  C   UNL     1      33.984  24.859  17.710  1.00  0.00     0.047 A 
ATOM      5  C   UNL     1      33.094  27.107  17.743  1.00  0.00     0.047 A 
ATOM      6  C   UNL     1      33.367  25.919  17.040  1.00  0.00     0.118 A 
ENDROOT
BRANCH   1   7
ATOM      7  C   UNL     1      34.459  26.234  21.196  1.00  0.00     0.010 C 
ATOM      8  C   UNL     1      34.021  27.182  22.036  1.00  0.00     0.025 C 
BRANCH   8   9
ATOM      9  C   UNL     1      34.433  27.222  23.448  1.00  0.00     0.064 C 
ATOM     10  O   UNL     1      34.765  28.318  23.968  1.00  0.00    -0.545 OA
ATOM     11  O   UNL     1      34.459  26.065  24.220  1.00  0.00    -0.545 OA
ENDBRANCH   8   9
ENDBRANCH   1   7
BRANCH   6  12
ATOM     12  O   UNL     1      33.038  25.752  15.687  1.00  0.00    -0.497 OA
ATOM     13  C   UNL     1      32.668  26.813  14.813  1.00  0.00     0.278 C 
ENDBRANCH   6  12
TORSDOF 3
ENDMDL
MODEL 4
REMARK VINA RESULT:    -7.154      3.282      5.661
REMARK INTER + INTRA:          -8.574
REMARK INTER:                  -8.406
REMARK INTRA:                  -0.168
REMARK UNBOUND:                -0.166
REMARK SMILES COc1ccc(C=CC(=O)[O-])cc1
REMARK SMILES IDX 6 1 5 2 12 3 4 4 13 5 3 6 7 7 8 8 9 9 10 10 11 11 2 12 1 13
REMARK H PARENT
REMARK Flexibility Score: inf
ROOT
ATOM      1  C   UNL     1      33.655  24.900  17.801  1.00  0.00    -0.025 A 
ATOM      2  C   UNL     1      33.484  26.089  18.528  1.00  0.00     0.012 A 
ATOM      3  C   UNL     1      33.571  24.946  16.396  1.00  0.00     0.012 A 
ATOM      4  C   UNL     1      33.210  27.292  17.871  1.00  0.00     0.047 A 
ATOM      5  C   UNL     1      33.297  26.151  15.740  1.00  0.00     0.047 A 
ATOM      6  C   UNL     1      33.111  27.336  16.478  1.00  0.00     0.118 A 
ENDROOT
BRANCH   1   7
ATOM      7  C   UNL     1      33.956  23.650  18.543  1.00  0.00     0.010 C 
ATOM      8  C   UNL     1      33.579  22.431  18.133  1.00  0.00     0.025 C 
BRANCH   8   9
ATOM      9  C   UNL     1      33.889  21.219  18.907  1.00  0.00     0.064 C 
ATOM     10  O   UNL     1      34.668  21.292  19.892  1.00  0.00    -0.545 OA
ATOM     11  O   UNL     1      33.330  19.991  18.569  1.00  0.00    -0.545 OA
ENDBRANCH   8   9
ENDBRANCH   1   7
BRANCH   6  12
ATOM     12  O   UNL     1      32.832  28.567  15.867  1.00  0.00    -0.497 OA
ATOM     13  C   UNL     1      32.204  29.665  16.521  1.00  0.00     0.278 C 
ENDBRANCH   6  12
TORSDOF 3
ENDMDL
MODEL 5
REMARK VINA RESULT:    -6.680      1.015      1.884
REMARK INTER + INTRA:          -8.017
REMARK INTER:                  -7.853
REMARK INTRA:                  -0.164
REMARK UNBOUND:                -0.166
REMARK SMILES COc1ccc(C=CC(=O)[O-])cc1
REMARK SMILES IDX 6 1 5 2 12 3 4 4 13 5 3 6 7 7 8 8 9 9 10 10 11 11 2 12 1 13
REMARK H PARENT
REMARK Flexibility Score: inf
ROOT
ATOM      1  C   UNL     1      33.585  26.985  19.350  1.00  0.00    -0.025 A 
ATOM      2  C   UNL     1      33.440  27.771  20.504  1.00  0.00     0.012 A 
ATOM      3  C   UNL     1      34.275  25.761  19.445  1.00  0.00     0.012 A 
ATOM      4  C   UNL     1      33.992  27.359  21.720  1.00  0.00     0.047 A 
ATOM      5  C   UNL     1      34.826  25.350  20.664  1.00  0.00     0.047 A 
ATOM      6  C   UNL     1      34.690  26.152  21.812  1.00  0.00     0.118 A 
ENDROOT
BRANCH   1   7
ATOM      7  C   UNL     1      32.971  27.460  18.084  1.00  0.00     0.010 C 
ATOM      8  C   UNL     1      33.325  27.014  16.871  1.00  0.00     0.025 C 
BRANCH   8   9
ATOM      9  C   UNL     1      32.698  27.522  15.641  1.00  0.00     0.064 C 
ATOM     10  O   UNL     1      32.262  28.702  15.607  1.00  0.00    -0.545 OA
ATOM     11  O   UNL     1      32.581  26.719  14.512  1.00  0.00    -0.545 OA
ENDBRANCH   8   9
ENDBRANCH   1   7
BRANCH   6  12
ATOM     12  O   UNL     1      35.226  25.784  23.055  1.00  0.00    -0.497 OA
ATOM     13  C   UNL     1      34.485  25.743  24.270  1.00  0.00     0.278 C 
ENDBRANCH   6  12
TORSDOF 3
ENDMDL
MODEL 6
REMARK VINA RESULT:    -6.625      1.633      2.400
REMARK INTER + INTRA:          -7.953
REMARK INTER:                  -7.777
REMARK INTRA:                  -0.176
REMARK UNBOUND:                -0.166
REMARK SMILES COc1ccc(C=CC(=O)[O-])cc1
REMARK SMILES IDX 6 1 5 2 12 3 4 4 13 5 3 6 7 7 8 8 9 9 10 10 11 11 2 12 1 13
REMARK H PARENT
REMARK Flexibility Score: inf
ROOT
ATOM      1  C   UNL     1      34.403  26.102  20.558  1.00  0.00    -0.025 A 
ATOM      2  C   UNL     1      33.808  27.373  20.529  1.00  0.00     0.012 A 
ATOM      3  C   UNL     1      34.968  25.646  21.765  1.00  0.00     0.012 A 
ATOM      4  C   UNL     1      33.799  28.182  21.669  1.00  0.00     0.047 A 
ATOM      5  C   UNL     1      34.957  26.456  22.905  1.00  0.00     0.047 A 
ATOM      6  C   UNL     1      34.373  27.736  22.862  1.00  0.00     0.118 A 
ENDROOT
BRANCH   1   7
ATOM      7  C   UNL     1      34.377  25.276  19.325  1.00  0.00     0.010 C 
ATOM      8  C   UNL     1      33.731  25.629  18.206  1.00  0.00     0.025 C 
BRANCH   8   9
ATOM      9  C   UNL     1      33.722  24.773  17.009  1.00  0.00     0.064 C 
ATOM     10  O   UNL     1      33.650  23.524  17.139  1.00  0.00    -0.545 OA
ATOM     11  O   UNL     1      33.789  25.324  15.734  1.00  0.00    -0.545 OA
ENDBRANCH   8   9
ENDBRANCH   1   7
BRANCH   6  12
ATOM     12  O   UNL     1      34.339  28.586  23.977  1.00  0.00    -0.497 OA
ATOM     13  C   UNL     1      35.050  29.816  24.072  1.00  0.00     0.278 C 
ENDBRANCH   6  12
TORSDOF 3
ENDMDL
MODEL 7
REMARK VINA RESULT:    -6.517      2.145      5.913
REMARK INTER + INTRA:          -7.825
REMARK INTER:                  -7.647
REMARK INTRA:                  -0.178
REMARK UNBOUND:                -0.166
REMARK SMILES COc1ccc(C=CC(=O)[O-])cc1
REMARK SMILES IDX 6 1 5 2 12 3 4 4 13 5 3 6 7 7 8 8 9 9 10 10 11 11 2 12 1 13
REMARK H PARENT
REMARK Flexibility Score: inf
ROOT
ATOM      1  C   UNL     1      33.969  26.836  20.284  1.00  0.00    -0.025 A 
ATOM      2  C   UNL     1      34.731  25.666  20.422  1.00  0.00     0.012 A 
ATOM      3  C   UNL     1      33.062  26.932  19.210  1.00  0.00     0.012 A 
ATOM      4  C   UNL     1      34.612  24.625  19.497  1.00  0.00     0.047 A 
ATOM      5  C   UNL     1      32.943  25.889  18.286  1.00  0.00     0.047 A 
ATOM      6  C   UNL     1      33.723  24.725  18.423  1.00  0.00     0.118 A 
ENDROOT
BRANCH   1   7
ATOM      7  C   UNL     1      34.123  27.909  21.298  1.00  0.00     0.010 C 
ATOM      8  C   UNL     1      34.970  27.839  22.334  1.00  0.00     0.025 C 
BRANCH   8   9
ATOM      9  C   UNL     1      35.082  28.921  23.323  1.00  0.00     0.064 C 
ATOM     10  O   UNL     1      34.403  28.869  24.381  1.00  0.00    -0.545 OA
ATOM     11  O   UNL     1      35.930  30.003  23.110  1.00  0.00    -0.545 OA
ENDBRANCH   8   9
ENDBRANCH   1   7
BRANCH   6  12
ATOM     12  O   UNL     1      33.642  23.654  17.522  1.00  0.00    -0.497 OA
ATOM     13  C   UNL     1      33.684  22.281  17.898  1.00  0.00     0.278 C 
ENDBRANCH   6  12
TORSDOF 3
ENDMDL
MODEL 8
REMARK VINA RESULT:    -6.279      3.267      4.530
REMARK INTER + INTRA:          -7.545
REMARK INTER:                  -7.389
REMARK INTRA:                  -0.157
REMARK UNBOUND:                -0.166
REMARK SMILES COc1ccc(C=CC(=O)[O-])cc1
REMARK SMILES IDX 6 1 5 2 12 3 4 4 13 5 3 6 7 7 8 8 9 9 10 10 11 11 2 12 1 13
REMARK H PARENT
REMARK Flexibility Score: inf
ROOT
ATOM      1  C   UNL     1      33.851  25.285  18.517  1.00  0.00    -0.025 A 
ATOM      2  C   UNL     1      33.415  24.310  17.606  1.00  0.00     0.012 A 
ATOM      3  C   UNL     1      34.524  24.870  19.683  1.00  0.00     0.012 A 
ATOM      4  C   UNL     1      33.622  22.952  17.862  1.00  0.00     0.047 A 
ATOM      5  C   UNL     1      34.730  23.510  19.938  1.00  0.00     0.047 A 
ATOM      6  C   UNL     1      34.276  22.539  19.026  1.00  0.00     0.118 A 
ENDROOT
BRANCH   1   7
ATOM      7  C   UNL     1      33.618  26.715  18.195  1.00  0.00     0.010 C 
ATOM      8  C   UNL     1      32.664  27.461  18.767  1.00  0.00     0.025 C 
BRANCH   8   9
ATOM      9  C   UNL     1      32.460  28.873  18.408  1.00  0.00     0.064 C 
ATOM     10  O   UNL     1      32.891  29.303  17.307  1.00  0.00    -0.545 OA
ATOM     11  O   UNL     1      31.796  29.743  19.266  1.00  0.00    -0.545 OA
ENDBRANCH   8   9
ENDBRANCH   1   7
BRANCH   6  12
ATOM     12  O   UNL     1      34.457  21.164  19.238  1.00  0.00    -0.497 OA
ATOM     13  C   UNL     1      33.401  20.210  19.277  1.00  0.00     0.278 C 
ENDBRANCH   6  12
TORSDOF 3
ENDMDL
MODEL 9
REMARK VINA RESULT:    -6.263      1.970      2.356
REMARK INTER + INTRA:          -7.527
REMARK INTER:                  -7.349
REMARK INTRA:                  -0.178
REMARK UNBOUND:                -0.166
REMARK SMILES COc1ccc(C=CC(=O)[O-])cc1
REMARK SMILES IDX 6 1 5 2 12 3 4 4 13 5 3 6 7 7 8 8 9 9 10 10 11 11 2 12 1 13
REMARK H PARENT
REMARK Flexibility Score: inf
ROOT
ATOM      1  C   UNL     1      34.033  26.822  20.259  1.00  0.00    -0.025 A 
ATOM      2  C   UNL     1      34.880  26.184  21.179  1.00  0.00     0.012 A 
ATOM      3  C   UNL     1      33.679  28.166  20.483  1.00  0.00     0.012 A 
ATOM      4  C   UNL     1      35.343  26.862  22.310  1.00  0.00     0.047 A 
ATOM      5  C   UNL     1      34.144  28.844  21.615  1.00  0.00     0.047 A 
ATOM      6  C   UNL     1      34.980  28.192  22.541  1.00  0.00     0.118 A 
ENDROOT
BRANCH   1   7
ATOM      7  C   UNL     1      33.577  26.062  19.067  1.00  0.00     0.010 C 
ATOM      8  C   UNL     1      34.028  24.842  18.745  1.00  0.00     0.025 C 
BRANCH   8   9
ATOM      9  C   UNL     1      33.557  24.130  17.546  1.00  0.00     0.064 C 
ATOM     10  O   UNL     1      33.620  22.875  17.504  1.00  0.00    -0.545 OA
ATOM     11  O   UNL     1      33.041  24.824  16.457  1.00  0.00    -0.545 OA
ENDBRANCH   8   9
ENDBRANCH   1   7
BRANCH   6  12
ATOM     12  O   UNL     1      35.469  28.828  23.691  1.00  0.00    -0.497 OA
ATOM     13  C   UNL     1      34.946  30.040  24.224  1.00  0.00     0.278 C 
ENDBRANCH   6  12
TORSDOF 3
ENDMDL
