MODEL 1
REMARK VINA RESULT:    -3.356      0.000      0.000
REMARK INTER + INTRA:          -4.263
REMARK INTER:                  -4.042
REMARK INTRA:                  -0.221
REMARK UNBOUND:                -0.221
REMARK SMILES C=CCc1ccc(O)c(OC)c1
REMARK SMILES IDX 9 1 7 2 6 3 5 4 4 5 12 6 10 7 11 8 8 9 3 11 2 12 1 13
REMARK H PARENT 8 10
REMARK Flexibility Score: inf
ROOT
ATOM      1  C   UNL     1     132.769 143.030 140.794  1.00  0.00     0.160 A 
ATOM      2  C   UNL     1     132.215 141.749 140.610  1.00  0.00     0.157 A 
ATOM      3  C   UNL     1     132.903 140.617 141.054  1.00  0.00     0.050 A 
ATOM      4  C   UNL     1     134.144 140.744 141.680  1.00  0.00     0.008 A 
ATOM      5  C   UNL     1     134.717 142.011 141.863  1.00  0.00    -0.040 A 
ATOM      6  C   UNL     1     134.023 143.151 141.427  1.00  0.00     0.054 A 
ENDROOT
BRANCH   1   7
ATOM      7  O   UNL     1     132.053 144.150 140.344  1.00  0.00    -0.493 OA
ATOM      8  C   UNL     1     132.281 144.809 139.102  1.00  0.00     0.278 C 
ENDBRANCH   1   7
BRANCH   2   9
ATOM      9  O   UNL     1     130.978 141.584 139.987  1.00  0.00    -0.504 OA
ATOM     10  H   UNL     1     130.406 142.371 139.702  1.00  0.00     0.293 HD
ENDBRANCH   2   9
BRANCH   5  11
ATOM     11  C   UNL     1     136.041 142.153 142.564  1.00  0.00     0.062 C 
BRANCH  11  12
ATOM     12  C   UNL     1     135.911 141.818 144.024  1.00  0.00    -0.030 C 
ATOM     13  C   UNL     1     136.499 142.557 144.969  1.00  0.00     0.004 C 
ENDBRANCH  11  12
ENDBRANCH   5  11
TORSDOF 4
ENDMDL
MODEL 2
REMARK VINA RESULT:    -3.316      9.401     10.679
REMARK INTER + INTRA:          -4.216
REMARK INTER:                  -4.007
REMARK INTRA:                  -0.209
REMARK UNBOUND:                -0.221
REMARK SMILES C=CCc1ccc(O)c(OC)c1
REMARK SMILES IDX 9 1 7 2 6 3 5 4 4 5 12 6 10 7 11 8 8 9 3 11 2 12 1 13
REMARK H PARENT 8 10
REMARK Flexibility Score: inf
ROOT
ATOM      1  C   UNL     1     142.959 148.939 140.904  1.00  0.00     0.160 A 
ATOM      2  C   UNL     1     141.654 149.409 140.662  1.00  0.00     0.157 A 
ATOM      3  C   UNL     1     140.550 148.638 141.035  1.00  0.00     0.050 A 
ATOM      4  C   UNL     1     140.729 147.396 141.647  1.00  0.00     0.008 A 
ATOM      5  C   UNL     1     142.021 146.906 141.886  1.00  0.00    -0.040 A 
ATOM      6  C   UNL     1     143.132 147.684 141.522  1.00  0.00     0.054 A 
ENDROOT
BRANCH   1   7
ATOM      7  O   UNL     1     144.049 149.737 140.524  1.00  0.00    -0.493 OA
ATOM      8  C   UNL     1     144.737 149.627 139.282  1.00  0.00     0.278 C 
ENDBRANCH   1   7
BRANCH   2   9
ATOM      9  O   UNL     1     141.436 150.644 140.052  1.00  0.00    -0.504 OA
ATOM     10  H   UNL     1     141.115 151.454 140.570  1.00  0.00     0.293 HD
ENDBRANCH   2   9
BRANCH   5  11
ATOM     11  C   UNL     1     142.218 145.581 142.573  1.00  0.00     0.062 C 
BRANCH  11  12
ATOM     12  C   UNL     1     141.968 145.703 144.050  1.00  0.00    -0.030 C 
ATOM     13  C   UNL     1     142.673 145.002 144.942  1.00  0.00     0.004 C 
ENDBRANCH  11  12
ENDBRANCH   5  11
TORSDOF 4
ENDMDL
MODEL 3
REMARK VINA RESULT:    -3.312     13.443     15.207
REMARK INTER + INTRA:          -4.211
REMARK INTER:                  -4.006
REMARK INTRA:                  -0.205
REMARK UNBOUND:                -0.221
REMARK SMILES C=CCc1ccc(O)c(OC)c1
REMARK SMILES IDX 9 1 7 2 6 3 5 4 4 5 12 6 10 7 11 8 8 9 3 11 2 12 1 13
REMARK H PARENT 8 10
REMARK Flexibility Score: inf
ROOT
ATOM      1  C   UNL     1     148.994 138.681 140.937  1.00  0.00     0.160 A 
ATOM      2  C   UNL     1     149.458 139.982 140.664  1.00  0.00     0.157 A 
ATOM      3  C   UNL     1     148.679 141.091 141.006  1.00  0.00     0.050 A 
ATOM      4  C   UNL     1     147.436 140.920 141.618  1.00  0.00     0.008 A 
ATOM      5  C   UNL     1     146.953 139.632 141.888  1.00  0.00    -0.040 A 
ATOM      6  C   UNL     1     147.737 138.517 141.554  1.00  0.00     0.054 A 
ENDROOT
BRANCH   1   7
ATOM      7  O   UNL     1     149.799 137.586 140.587  1.00  0.00    -0.493 OA
ATOM      8  C   UNL     1     149.709 136.877 139.356  1.00  0.00     0.278 C 
ENDBRANCH   1   7
BRANCH   2   9
ATOM      9  O   UNL     1     150.695 140.191 140.053  1.00  0.00    -0.504 OA
ATOM     10  H   UNL     1     150.801 140.779 139.234  1.00  0.00     0.293 HD
ENDBRANCH   2   9
BRANCH   5  11
ATOM     11  C   UNL     1     145.626 139.445 142.575  1.00  0.00     0.062 C 
BRANCH  11  12
ATOM     12  C   UNL     1     145.759 139.648 144.058  1.00  0.00    -0.030 C 
ATOM     13  C   UNL     1     145.004 138.974 144.929  1.00  0.00     0.004 C 
ENDBRANCH  11  12
ENDBRANCH   5  11
TORSDOF 4
ENDMDL
MODEL 4
REMARK VINA RESULT:    -3.282      9.453     10.739
REMARK INTER + INTRA:          -4.175
REMARK INTER:                  -3.963
REMARK INTRA:                  -0.212
REMARK UNBOUND:                -0.221
REMARK SMILES C=CCc1ccc(O)c(OC)c1
REMARK SMILES IDX 9 1 7 2 6 3 5 4 4 5 12 6 10 7 11 8 8 9 3 11 2 12 1 13
REMARK H PARENT 8 10
REMARK Flexibility Score: inf
ROOT
ATOM      1  C   UNL     1     138.733 132.748 140.967  1.00  0.00     0.160 A 
ATOM      2  C   UNL     1     140.040 132.336 140.648  1.00  0.00     0.157 A 
ATOM      3  C   UNL     1     141.129 133.156 140.959  1.00  0.00     0.050 A 
ATOM      4  C   UNL     1     140.931 134.388 141.585  1.00  0.00     0.008 A 
ATOM      5  C   UNL     1     139.634 134.819 141.901  1.00  0.00    -0.040 A 
ATOM      6  C   UNL     1     138.540 133.993 141.599  1.00  0.00     0.054 A 
ENDROOT
BRANCH   1   7
ATOM      7  O   UNL     1     137.659 131.902 140.649  1.00  0.00    -0.493 OA
ATOM      8  C   UNL     1     136.918 131.959 139.434  1.00  0.00     0.278 C 
ENDBRANCH   1   7
BRANCH   2   9
ATOM      9  O   UNL     1     140.277 131.113 140.022  1.00  0.00    -0.504 OA
ATOM     10  H   UNL     1     140.802 131.040 139.158  1.00  0.00     0.293 HD
ENDBRANCH   2   9
BRANCH   5  11
ATOM     11  C   UNL     1     139.419 136.133 142.603  1.00  0.00     0.062 C 
BRANCH  11  12
ATOM     12  C   UNL     1     139.767 136.024 144.060  1.00  0.00    -0.030 C 
ATOM     13  C   UNL     1     138.997 136.563 145.009  1.00  0.00     0.004 C 
ENDBRANCH  11  12
ENDBRANCH   5  11
TORSDOF 4
ENDMDL
MODEL 5
REMARK VINA RESULT:    -3.182      3.940      5.964
REMARK INTER + INTRA:          -4.055
REMARK INTER:                  -3.852
REMARK INTRA:                  -0.203
REMARK UNBOUND:                -0.221
REMARK SMILES C=CCc1ccc(O)c(OC)c1
REMARK SMILES IDX 9 1 7 2 6 3 5 4 4 5 12 6 10 7 11 8 8 9 3 11 2 12 1 13
REMARK H PARENT 8 10
REMARK Flexibility Score: inf
ROOT
ATOM      1  C   UNL     1     138.387 142.398 142.794  1.00  0.00     0.160 A 
ATOM      2  C   UNL     1     138.486 142.627 144.180  1.00  0.00     0.157 A 
ATOM      3  C   UNL     1     137.343 142.576 144.982  1.00  0.00     0.050 A 
ATOM      4  C   UNL     1     136.095 142.302 144.419  1.00  0.00     0.008 A 
ATOM      5  C   UNL     1     135.976 142.082 143.038  1.00  0.00    -0.040 A 
ATOM      6  C   UNL     1     137.125 142.122 142.232  1.00  0.00     0.054 A 
ENDROOT
BRANCH   1   7
ATOM      7  O   UNL     1     139.553 142.449 142.014  1.00  0.00    -0.493 OA
ATOM      8  C   UNL     1     139.999 143.599 141.302  1.00  0.00     0.278 C 
ENDBRANCH   1   7
BRANCH   2   9
ATOM      9  O   UNL     1     139.716 142.904 144.777  1.00  0.00    -0.504 OA
ATOM     10  H   UNL     1     140.134 142.288 145.465  1.00  0.00     0.293 HD
ENDBRANCH   2   9
BRANCH   5  11
ATOM     11  C   UNL     1     134.637 141.757 142.433  1.00  0.00     0.062 C 
BRANCH  11  12
ATOM     12  C   UNL     1     134.779 140.736 141.340  1.00  0.00    -0.030 C 
ATOM     13  C   UNL     1     133.754 139.969 140.957  1.00  0.00     0.004 C 
ENDBRANCH  11  12
ENDBRANCH   5  11
TORSDOF 4
ENDMDL
MODEL 6
REMARK VINA RESULT:    -3.147      8.732      9.896
REMARK INTER + INTRA:          -4.012
REMARK INTER:                  -3.807
REMARK INTRA:                  -0.205
REMARK UNBOUND:                -0.221
REMARK SMILES C=CCc1ccc(O)c(OC)c1
REMARK SMILES IDX 9 1 7 2 6 3 5 4 4 5 12 6 10 7 11 8 8 9 3 11 2 12 1 13
REMARK H PARENT 8 10
REMARK Flexibility Score: inf
ROOT
ATOM      1  C   UNL     1     142.457 143.185 142.829  1.00  0.00     0.160 A 
ATOM      2  C   UNL     1     142.714 143.084 144.209  1.00  0.00     0.157 A 
ATOM      3  C   UNL     1     142.655 144.222 145.019  1.00  0.00     0.050 A 
ATOM      4  C   UNL     1     142.344 145.467 144.468  1.00  0.00     0.008 A 
ATOM      5  C   UNL     1     142.095 145.588 143.093  1.00  0.00    -0.040 A 
ATOM      6  C   UNL     1     142.144 144.445 142.280  1.00  0.00     0.054 A 
ENDROOT
BRANCH   1   7
ATOM      7  O   UNL     1     142.517 142.025 142.041  1.00  0.00    -0.493 OA
ATOM      8  C   UNL     1     143.644 141.635 141.262  1.00  0.00     0.278 C 
ENDBRANCH   1   7
BRANCH   2   9
ATOM      9  O   UNL     1     143.029 141.858 144.794  1.00  0.00    -0.504 OA
ATOM     10  H   UNL     1     143.538 141.790 145.668  1.00  0.00     0.293 HD
ENDBRANCH   2   9
BRANCH   5  11
ATOM     11  C   UNL     1     141.731 146.923 142.501  1.00  0.00     0.062 C 
BRANCH  11  12
ATOM     12  C   UNL     1     140.749 146.759 141.375  1.00  0.00    -0.030 C 
ATOM     13  C   UNL     1     139.951 147.757 140.987  1.00  0.00     0.004 C 
ENDBRANCH  11  12
ENDBRANCH   5  11
TORSDOF 4
ENDMDL
MODEL 7
REMARK VINA RESULT:    -3.108      3.314      4.895
REMARK INTER + INTRA:          -3.965
REMARK INTER:                  -3.746
REMARK INTRA:                  -0.219
REMARK UNBOUND:                -0.221
REMARK SMILES C=CCc1ccc(O)c(OC)c1
REMARK SMILES IDX 9 1 7 2 6 3 5 4 4 5 12 6 10 7 11 8 8 9 3 11 2 12 1 13
REMARK H PARENT 8 10
REMARK Flexibility Score: inf
ROOT
ATOM      1  C   UNL     1     136.735 141.306 142.214  1.00  0.00     0.160 A 
ATOM      2  C   UNL     1     135.947 142.108 143.061  1.00  0.00     0.157 A 
ATOM      3  C   UNL     1     136.172 142.102 144.441  1.00  0.00     0.050 A 
ATOM      4  C   UNL     1     137.175 141.302 144.991  1.00  0.00     0.008 A 
ATOM      5  C   UNL     1     137.962 140.488 144.164  1.00  0.00    -0.040 A 
ATOM      6  C   UNL     1     137.745 140.500 142.777  1.00  0.00     0.054 A 
ENDROOT
BRANCH   1   7
ATOM      7  O   UNL     1     136.492 141.336 140.832  1.00  0.00    -0.493 OA
ATOM      8  C   UNL     1     135.668 140.406 140.136  1.00  0.00     0.278 C 
ENDBRANCH   1   7
BRANCH   2   9
ATOM      9  O   UNL     1     134.936 142.920 142.548  1.00  0.00    -0.504 OA
ATOM     10  H   UNL     1     134.054 142.543 142.220  1.00  0.00     0.293 HD
ENDBRANCH   2   9
BRANCH   5  11
ATOM     11  C   UNL     1     139.063 139.646 144.751  1.00  0.00     0.062 C 
BRANCH  11  12
ATOM     12  C   UNL     1     139.027 138.253 144.190  1.00  0.00    -0.030 C 
ATOM     13  C   UNL     1     138.887 137.182 144.976  1.00  0.00     0.004 C 
ENDBRANCH  11  12
ENDBRANCH   5  11
TORSDOF 4
ENDMDL
MODEL 8
REMARK VINA RESULT:    -3.107     10.026     11.760
REMARK INTER + INTRA:          -3.963
REMARK INTER:                  -3.742
REMARK INTRA:                  -0.221
REMARK UNBOUND:                -0.221
REMARK SMILES C=CCc1ccc(O)c(OC)c1
REMARK SMILES IDX 9 1 7 2 6 3 5 4 4 5 12 6 10 7 11 8 8 9 3 11 2 12 1 13
REMARK H PARENT 8 10
REMARK Flexibility Score: inf
ROOT
ATOM      1  C   UNL     1     143.146 139.128 143.004  1.00  0.00     0.160 A 
ATOM      2  C   UNL     1     143.124 138.792 144.371  1.00  0.00     0.157 A 
ATOM      3  C   UNL     1     144.300 138.846 145.125  1.00  0.00     0.050 A 
ATOM      4  C   UNL     1     145.504 139.230 144.531  1.00  0.00     0.008 A 
ATOM      5  C   UNL     1     145.546 139.558 143.169  1.00  0.00    -0.040 A 
ATOM      6  C   UNL     1     144.365 139.515 142.411  1.00  0.00     0.054 A 
ENDROOT
BRANCH   1   7
ATOM      7  O   UNL     1     141.949 139.071 142.273  1.00  0.00    -0.493 OA
ATOM      8  C   UNL     1     141.546 137.969 141.467  1.00  0.00     0.278 C 
ENDBRANCH   1   7
BRANCH   2   9
ATOM      9  O   UNL     1     141.940 138.403 144.997  1.00  0.00    -0.504 OA
ATOM     10  H   UNL     1     141.792 137.460 145.337  1.00  0.00     0.293 HD
ENDBRANCH   2   9
BRANCH   5  11
ATOM     11  C   UNL     1     146.836 140.001 142.533  1.00  0.00     0.062 C 
BRANCH  11  12
ATOM     12  C   UNL     1     147.208 139.096 141.392  1.00  0.00    -0.030 C 
ATOM     13  C   UNL     1     148.361 138.421 141.378  1.00  0.00     0.004 C 
ENDBRANCH  11  12
ENDBRANCH   5  11
TORSDOF 4
ENDMDL
MODEL 9
REMARK VINA RESULT:    -3.106      6.655      8.159
REMARK INTER + INTRA:          -3.963
REMARK INTER:                  -3.743
REMARK INTRA:                  -0.220
REMARK UNBOUND:                -0.221
REMARK SMILES C=CCc1ccc(O)c(OC)c1
REMARK SMILES IDX 9 1 7 2 6 3 5 4 4 5 12 6 10 7 11 8 8 9 3 11 2 12 1 13
REMARK H PARENT 8 10
REMARK Flexibility Score: inf
ROOT
ATOM      1  C   UNL     1     139.142 138.752 142.904  1.00  0.00     0.160 A 
ATOM      2  C   UNL     1     138.771 138.928 144.250  1.00  0.00     0.157 A 
ATOM      3  C   UNL     1     138.768 137.837 145.125  1.00  0.00     0.050 A 
ATOM      4  C   UNL     1     139.129 136.567 144.672  1.00  0.00     0.008 A 
ATOM      5  C   UNL     1     139.491 136.371 143.332  1.00  0.00    -0.040 A 
ATOM      6  C   UNL     1     139.505 137.467 142.454  1.00  0.00     0.054 A 
ENDROOT
BRANCH   1   7
ATOM      7  O   UNL     1     139.142 139.866 142.050  1.00  0.00    -0.493 OA
ATOM      8  C   UNL     1     138.078 140.208 141.168  1.00  0.00     0.278 C 
ENDBRANCH   1   7
BRANCH   2   9
ATOM      9  O   UNL     1     138.404 140.182 144.738  1.00  0.00    -0.504 OA
ATOM     10  H   UNL     1     138.443 140.412 145.724  1.00  0.00     0.293 HD
ENDBRANCH   2   9
BRANCH   5  11
ATOM     11  C   UNL     1     139.909 135.009 142.848  1.00  0.00     0.062 C 
BRANCH  11  12
ATOM     12  C   UNL     1     139.144 134.622 141.613  1.00  0.00    -0.030 C 
ATOM     13  C   UNL     1     138.393 133.519 141.568  1.00  0.00     0.004 C 
ENDBRANCH  11  12
ENDBRANCH   5  11
TORSDOF 4
ENDMDL
