MODEL 1
REMARK VINA RESULT:    -3.341      0.000      0.000
REMARK INTER + INTRA:          -3.740
REMARK INTER:                  -3.731
REMARK INTRA:                  -0.009
REMARK UNBOUND:                -0.009
REMARK SMILES CCCC(=O)[O-]
REMARK SMILES IDX 3 1 4 2 5 3 6 4 2 5 1 6
REMARK H PARENT
REMARK Flexibility Score: inf
ROOT
ATOM      1  C   UNL     1      37.867 106.209 260.643  1.00  0.00     0.052 C 
ENDROOT
BRANCH   1   2
ATOM      2  C   UNL     1      37.573 106.827 261.973  1.00  0.00     0.041 C 
ATOM      3  O   UNL     1      36.391 106.866 262.406  1.00  0.00    -0.550 OA
ATOM      4  O   UNL     1      38.610 107.317 262.757  1.00  0.00    -0.550 OA
ENDBRANCH   1   2
BRANCH   1   5
ATOM      5  C   UNL     1      36.874 106.707 259.589  1.00  0.00     0.003 C 
ATOM      6  C   UNL     1      37.144 106.066 258.232  1.00  0.00     0.004 C 
ENDBRANCH   1   5
TORSDOF 2
ENDMDL
MODEL 2
REMARK VINA RESULT:    -3.289      0.801      1.506
REMARK INTER + INTRA:          -3.682
REMARK INTER:                  -3.668
REMARK INTRA:                  -0.014
REMARK UNBOUND:                -0.009
REMARK SMILES CCCC(=O)[O-]
REMARK SMILES IDX 3 1 4 2 5 3 6 4 2 5 1 6
REMARK H PARENT
REMARK Flexibility Score: inf
ROOT
ATOM      1  C   UNL     1      36.752 105.737 260.724  1.00  0.00     0.052 C 
ENDROOT
BRANCH   1   2
ATOM      2  C   UNL     1      37.018 106.553 261.949  1.00  0.00     0.041 C 
ATOM      3  O   UNL     1      38.175 106.994 262.178  1.00  0.00    -0.550 OA
ATOM      4  O   UNL     1      35.978 106.867 262.815  1.00  0.00    -0.550 OA
ENDBRANCH   1   2
BRANCH   1   5
ATOM      5  C   UNL     1      37.811 106.017 259.654  1.00  0.00     0.003 C 
ATOM      6  C   UNL     1      37.197 106.010 258.257  1.00  0.00     0.004 C 
ENDBRANCH   1   5
TORSDOF 2
ENDMDL
MODEL 3
REMARK VINA RESULT:    -3.165      2.506      3.578
REMARK INTER + INTRA:          -3.543
REMARK INTER:                  -3.530
REMARK INTRA:                  -0.013
REMARK UNBOUND:                -0.009
REMARK SMILES CCCC(=O)[O-]
REMARK SMILES IDX 3 1 4 2 5 3 6 4 2 5 1 6
REMARK H PARENT
REMARK Flexibility Score: inf
ROOT
ATOM      1  C   UNL     1      36.956 105.748 260.475  1.00  0.00     0.052 C 
ENDROOT
BRANCH   1   2
ATOM      2  C   UNL     1      37.034 106.374 259.119  1.00  0.00     0.041 C 
ATOM      3  O   UNL     1      37.725 105.839 258.213  1.00  0.00    -0.550 OA
ATOM      4  O   UNL     1      36.303 107.523 258.840  1.00  0.00    -0.550 OA
ENDBRANCH   1   2
BRANCH   1   5
ATOM      5  C   UNL     1      37.117 106.812 261.565  1.00  0.00     0.003 C 
ATOM      6  C   UNL     1      36.416 106.391 262.853  1.00  0.00     0.004 C 
ENDBRANCH   1   5
TORSDOF 2
ENDMDL
MODEL 4
REMARK VINA RESULT:    -3.147      1.730      2.192
REMARK INTER + INTRA:          -3.524
REMARK INTER:                  -3.503
REMARK INTRA:                  -0.020
REMARK UNBOUND:                -0.009
REMARK SMILES CCCC(=O)[O-]
REMARK SMILES IDX 3 1 4 2 5 3 6 4 2 5 1 6
REMARK H PARENT
REMARK Flexibility Score: inf
ROOT
ATOM      1  C   UNL     1      37.128 106.778 261.921  1.00  0.00     0.052 C 
ENDROOT
BRANCH   1   2
ATOM      2  C   UNL     1      36.286 106.234 263.031  1.00  0.00     0.041 C 
ATOM      3  O   UNL     1      36.174 106.870 264.112  1.00  0.00    -0.550 OA
ATOM      4  O   UNL     1      35.586 105.047 262.855  1.00  0.00    -0.550 OA
ENDBRANCH   1   2
BRANCH   1   5
ATOM      5  C   UNL     1      36.942 105.946 260.650  1.00  0.00     0.003 C 
ATOM      6  C   UNL     1      38.268 105.744 259.924  1.00  0.00     0.004 C 
ENDBRANCH   1   5
TORSDOF 2
ENDMDL
MODEL 5
REMARK VINA RESULT:    -3.054      2.191      3.301
REMARK INTER + INTRA:          -3.419
REMARK INTER:                  -3.414
REMARK INTRA:                  -0.005
REMARK UNBOUND:                -0.009
REMARK SMILES CCCC(=O)[O-]
REMARK SMILES IDX 3 1 4 2 5 3 6 4 2 5 1 6
REMARK H PARENT
REMARK Flexibility Score: inf
ROOT
ATOM      1  C   UNL     1      36.500 105.781 261.307  1.00  0.00     0.052 C 
ENDROOT
BRANCH   1   2
ATOM      2  C   UNL     1      37.261 106.402 260.180  1.00  0.00     0.041 C 
ATOM      3  O   UNL     1      36.687 107.194 259.387  1.00  0.00    -0.550 OA
ATOM      4  O   UNL     1      38.619 106.145 260.032  1.00  0.00    -0.550 OA
ENDBRANCH   1   2
BRANCH   1   5
ATOM      5  C   UNL     1      36.771 106.530 262.615  1.00  0.00     0.003 C 
ATOM      6  C   UNL     1      36.106 105.834 263.798  1.00  0.00     0.004 C 
ENDBRANCH   1   5
TORSDOF 2
ENDMDL
MODEL 6
REMARK VINA RESULT:    -2.960      2.676      4.302
REMARK INTER + INTRA:          -3.315
REMARK INTER:                  -3.302
REMARK INTRA:                  -0.013
REMARK UNBOUND:                -0.009
REMARK SMILES CCCC(=O)[O-]
REMARK SMILES IDX 3 1 4 2 5 3 6 4 2 5 1 6
REMARK H PARENT
REMARK Flexibility Score: inf
ROOT
ATOM      1  C   UNL     1      35.685 106.565 263.532  1.00  0.00     0.052 C 
ENDROOT
BRANCH   1   2
ATOM      2  C   UNL     1      36.876 106.606 262.629  1.00  0.00     0.041 C 
ATOM      3  O   UNL     1      37.987 107.011 263.063  1.00  0.00    -0.550 OA
ATOM      4  O   UNL     1      36.773 106.151 261.320  1.00  0.00    -0.550 OA
ENDBRANCH   1   2
BRANCH   1   5
ATOM      5  C   UNL     1      35.672 105.266 264.343  1.00  0.00     0.003 C 
ATOM      6  C   UNL     1      35.175 105.509 265.764  1.00  0.00     0.004 C 
ENDBRANCH   1   5
TORSDOF 2
ENDMDL
MODEL 7
REMARK VINA RESULT:    -2.874      3.648      5.277
REMARK INTER + INTRA:          -3.218
REMARK INTER:                  -3.208
REMARK INTRA:                  -0.010
REMARK UNBOUND:                -0.009
REMARK SMILES CCCC(=O)[O-]
REMARK SMILES IDX 3 1 4 2 5 3 6 4 2 5 1 6
REMARK H PARENT
REMARK Flexibility Score: inf
ROOT
ATOM      1  C   UNL     1      35.297 106.650 264.698  1.00  0.00     0.052 C 
ENDROOT
BRANCH   1   2
ATOM      2  C   UNL     1      35.694 106.031 263.396  1.00  0.00     0.041 C 
ATOM      3  O   UNL     1      35.384 104.838 263.141  1.00  0.00    -0.550 OA
ATOM      4  O   UNL     1      36.364 106.787 262.442  1.00  0.00    -0.550 OA
ENDBRANCH   1   2
BRANCH   1   5
ATOM      5  C   UNL     1      35.148 105.575 265.779  1.00  0.00     0.003 C 
ATOM      6  C   UNL     1      35.132 106.194 267.173  1.00  0.00     0.004 C 
ENDBRANCH   1   5
TORSDOF 2
ENDMDL
MODEL 8
REMARK VINA RESULT:    -2.860      6.048      7.075
REMARK INTER + INTRA:          -3.202
REMARK INTER:                  -3.193
REMARK INTRA:                  -0.009
REMARK UNBOUND:                -0.009
REMARK SMILES CCCC(=O)[O-]
REMARK SMILES IDX 3 1 4 2 5 3 6 4 2 5 1 6
REMARK H PARENT
REMARK Flexibility Score: inf
ROOT
ATOM      1  C   UNL     1      35.040 106.113 267.595  1.00  0.00     0.052 C 
ENDROOT
BRANCH   1   2
ATOM      2  C   UNL     1      35.194 107.274 268.526  1.00  0.00     0.041 C 
ATOM      3  O   UNL     1      35.527 107.084 269.725  1.00  0.00    -0.550 OA
ATOM      4  O   UNL     1      35.017 108.570 268.057  1.00  0.00    -0.550 OA
ENDBRANCH   1   2
BRANCH   1   5
ATOM      5  C   UNL     1      35.094 106.584 266.139  1.00  0.00     0.003 C 
ATOM      6  C   UNL     1      35.298 105.409 265.187  1.00  0.00     0.004 C 
ENDBRANCH   1   5
TORSDOF 2
ENDMDL
MODEL 9
REMARK VINA RESULT:    -2.843      4.003      4.897
REMARK INTER + INTRA:          -3.183
REMARK INTER:                  -3.159
REMARK INTRA:                  -0.025
REMARK UNBOUND:                -0.009
REMARK SMILES CCCC(=O)[O-]
REMARK SMILES IDX 3 1 4 2 5 3 6 4 2 5 1 6
REMARK H PARENT
REMARK Flexibility Score: inf
ROOT
ATOM      1  C   UNL     1      34.875 105.546 264.622  1.00  0.00     0.052 C 
ENDROOT
BRANCH   1   2
ATOM      2  C   UNL     1      35.116 105.721 266.088  1.00  0.00     0.041 C 
ATOM      3  O   UNL     1      35.191 104.716 266.842  1.00  0.00    -0.550 OA
ATOM      4  O   UNL     1      35.305 106.993 266.614  1.00  0.00    -0.550 OA
ENDBRANCH   1   2
BRANCH   1   5
ATOM      5  C   UNL     1      35.245 106.823 263.862  1.00  0.00     0.003 C 
ATOM      6  C   UNL     1      36.313 106.547 262.809  1.00  0.00     0.004 C 
ENDBRANCH   1   5
TORSDOF 2
ENDMDL
