MODEL 1
REMARK VINA RESULT:    -4.906      0.000      0.000
REMARK INTER + INTRA:          -5.892
REMARK INTER:                  -5.766
REMARK INTRA:                  -0.126
REMARK UNBOUND:                -0.126
REMARK SMILES O=C([O-])C=Cc1ccc(O)c(O)c1
REMARK SMILES IDX 6 1 13 2 7 3 11 4 8 5 9 6 5 7 4 8 2 9 1 10 3 11 12 12 10 14
REMARK H PARENT 12 13 10 15
REMARK Flexibility Score: inf
ROOT
ATOM      1  C   UNL     1    -118.131 -98.569  45.269  1.00  0.00    -0.022 A 
ATOM      2  C   UNL     1    -118.362 -97.186  45.415  1.00  0.00     0.058 A 
ATOM      3  C   UNL     1    -117.985 -99.358  46.421  1.00  0.00     0.012 A 
ATOM      4  C   UNL     1    -118.469 -96.612  46.691  1.00  0.00     0.157 A 
ATOM      5  C   UNL     1    -118.094 -98.786  47.691  1.00  0.00     0.051 A 
ATOM      6  C   UNL     1    -118.339 -97.418  47.834  1.00  0.00     0.157 A 
ENDROOT
BRANCH   1   7
ATOM      7  C   UNL     1    -117.998 -99.220  43.942  1.00  0.00     0.010 C 
ATOM      8  C   UNL     1    -116.980 -98.992  43.099  1.00  0.00     0.025 C 
BRANCH   8   9
ATOM      9  C   UNL     1    -116.886 -99.647  41.784  1.00  0.00     0.064 C 
ATOM     10  O   UNL     1    -115.778 -99.782  41.200  1.00  0.00    -0.545 OA
ATOM     11  O   UNL     1    -118.039-100.125  41.176  1.00  0.00    -0.545 OA
ENDBRANCH   8   9
ENDBRANCH   1   7
BRANCH   4  12
ATOM     12  O   UNL     1    -118.701 -95.244  46.826  1.00  0.00    -0.504 OA
ATOM     13  H   UNL     1    -118.158 -94.674  47.464  1.00  0.00     0.293 HD
ENDBRANCH   4  12
BRANCH   6  14
ATOM     14  O   UNL     1    -118.444 -96.877  49.114  1.00  0.00    -0.504 OA
ATOM     15  H   UNL     1    -119.237 -97.068  49.716  1.00  0.00     0.293 HD
ENDBRANCH   6  14
TORSDOF 4
ENDMDL
MODEL 2
REMARK VINA RESULT:    -4.238      9.267     13.217
REMARK INTER + INTRA:          -5.108
REMARK INTER:                  -4.959
REMARK INTRA:                  -0.149
REMARK UNBOUND:                -0.126
REMARK SMILES O=C([O-])C=Cc1ccc(O)c(O)c1
REMARK SMILES IDX 6 1 13 2 7 3 11 4 8 5 9 6 5 7 4 8 2 9 1 10 3 11 12 12 10 14
REMARK H PARENT 12 13 10 15
REMARK Flexibility Score: inf
ROOT
ATOM      1  C   UNL     1    -117.309 -98.359  32.841  1.00  0.00    -0.022 A 
ATOM      2  C   UNL     1    -117.926 -98.976  31.734  1.00  0.00     0.058 A 
ATOM      3  C   UNL     1    -117.213 -96.959  32.869  1.00  0.00     0.012 A 
ATOM      4  C   UNL     1    -118.457 -98.204  30.690  1.00  0.00     0.157 A 
ATOM      5  C   UNL     1    -117.743 -96.189  31.830  1.00  0.00     0.051 A 
ATOM      6  C   UNL     1    -118.368 -96.803  30.742  1.00  0.00     0.157 A 
ENDROOT
BRANCH   1   7
ATOM      7  C   UNL     1    -116.723 -99.133  33.962  1.00  0.00     0.010 C 
ATOM      8  C   UNL     1    -116.506 -98.626  35.185  1.00  0.00     0.025 C 
BRANCH   8   9
ATOM      9  C   UNL     1    -115.910 -99.421  36.271  1.00  0.00     0.064 C 
ATOM     10  O   UNL     1    -114.882-100.125  36.077  1.00  0.00    -0.545 OA
ATOM     11  O   UNL     1    -116.490 -99.398  37.532  1.00  0.00    -0.545 OA
ENDBRANCH   8   9
ENDBRANCH   1   7
BRANCH   4  12
ATOM     12  O   UNL     1    -119.069 -98.823  29.601  1.00  0.00    -0.504 OA
ATOM     13  H   UNL     1    -119.957 -98.499  29.236  1.00  0.00     0.293 HD
ENDBRANCH   4  12
BRANCH   6  14
ATOM     14  O   UNL     1    -118.889 -96.008  29.722  1.00  0.00    -0.504 OA
ATOM     15  H   UNL     1    -119.808 -96.171  29.329  1.00  0.00     0.293 HD
ENDBRANCH   6  14
TORSDOF 4
ENDMDL
MODEL 3
REMARK VINA RESULT:    -4.149      9.467     13.384
REMARK INTER + INTRA:          -5.003
REMARK INTER:                  -4.861
REMARK INTRA:                  -0.142
REMARK UNBOUND:                -0.126
REMARK SMILES O=C([O-])C=Cc1ccc(O)c(O)c1
REMARK SMILES IDX 6 1 13 2 7 3 11 4 8 5 9 6 5 7 4 8 2 9 1 10 3 11 12 12 10 14
REMARK H PARENT 12 13 10 15
REMARK Flexibility Score: inf
ROOT
ATOM      1  C   UNL     1    -117.641 -98.527  32.822  1.00  0.00    -0.022 A 
ATOM      2  C   UNL     1    -117.935 -97.392  32.039  1.00  0.00     0.058 A 
ATOM      3  C   UNL     1    -117.874 -99.802  32.283  1.00  0.00     0.012 A 
ATOM      4  C   UNL     1    -118.428 -97.535  30.733  1.00  0.00     0.157 A 
ATOM      5  C   UNL     1    -118.363 -99.944  30.982  1.00  0.00     0.051 A 
ATOM      6  C   UNL     1    -118.638 -98.818  30.202  1.00  0.00     0.157 A 
ENDROOT
BRANCH   1   7
ATOM      7  C   UNL     1    -117.130 -98.426  34.212  1.00  0.00     0.010 C 
ATOM      8  C   UNL     1    -116.178 -99.226  34.715  1.00  0.00     0.025 C 
BRANCH   8   9
ATOM      9  C   UNL     1    -115.704 -99.105  36.104  1.00  0.00     0.064 C 
ATOM     10  O   UNL     1    -114.477 -99.179  36.382  1.00  0.00    -0.545 OA
ATOM     11  O   UNL     1    -116.623 -98.907  37.125  1.00  0.00    -0.545 OA
ENDBRANCH   8   9
ENDBRANCH   1   7
BRANCH   4  12
ATOM     12  O   UNL     1    -118.713 -96.408  29.964  1.00  0.00    -0.504 OA
ATOM     13  H   UNL     1    -118.984 -96.483  28.991  1.00  0.00     0.293 HD
ENDBRANCH   4  12
BRANCH   6  14
ATOM     14  O   UNL     1    -119.124 -98.993  28.907  1.00  0.00    -0.504 OA
ATOM     15  H   UNL     1    -120.101 -99.187  28.720  1.00  0.00     0.293 HD
ENDBRANCH   6  14
TORSDOF 4
ENDMDL
MODEL 4
REMARK VINA RESULT:    -3.907      9.300     11.925
REMARK INTER + INTRA:          -4.719
REMARK INTER:                  -4.592
REMARK INTRA:                  -0.127
REMARK UNBOUND:                -0.126
REMARK SMILES O=C([O-])C=Cc1ccc(O)c(O)c1
REMARK SMILES IDX 6 1 13 2 7 3 11 4 8 5 9 6 5 7 4 8 2 9 1 10 3 11 12 12 10 14
REMARK H PARENT 12 13 10 15
REMARK Flexibility Score: inf
ROOT
ATOM      1  C   UNL     1    -117.164 -98.804  33.511  1.00  0.00    -0.022 A 
ATOM      2  C   UNL     1    -115.991 -98.274  34.085  1.00  0.00     0.058 A 
ATOM      3  C   UNL     1    -117.970 -99.657  34.283  1.00  0.00     0.012 A 
ATOM      4  C   UNL     1    -115.647 -98.574  35.411  1.00  0.00     0.157 A 
ATOM      5  C   UNL     1    -117.629 -99.954  35.604  1.00  0.00     0.051 A 
ATOM      6  C   UNL     1    -116.473 -99.414  36.176  1.00  0.00     0.157 A 
ENDROOT
BRANCH   1   7
ATOM      7  C   UNL     1    -117.564 -98.527  32.109  1.00  0.00     0.010 C 
ATOM      8  C   UNL     1    -118.271 -97.451  31.735  1.00  0.00     0.025 C 
BRANCH   8   9
ATOM      9  C   UNL     1    -118.659 -97.214  30.335  1.00  0.00     0.064 C 
ATOM     10  O   UNL     1    -118.683 -96.050  29.853  1.00  0.00    -0.545 OA
ATOM     11  O   UNL     1    -119.006 -98.292  29.531  1.00  0.00    -0.545 OA
ENDBRANCH   8   9
ENDBRANCH   1   7
BRANCH   4  12
ATOM     12  O   UNL     1    -114.486 -98.042  35.972  1.00  0.00    -0.504 OA
ATOM     13  H   UNL     1    -114.294 -97.047  35.952  1.00  0.00     0.293 HD
ENDBRANCH   4  12
BRANCH   6  14
ATOM     14  O   UNL     1    -116.160 -99.727  37.497  1.00  0.00    -0.504 OA
ATOM     15  H   UNL     1    -115.218 -99.964  37.786  1.00  0.00     0.293 HD
ENDBRANCH   6  14
TORSDOF 4
ENDMDL
MODEL 5
REMARK VINA RESULT:    -3.711      1.694      2.646
REMARK INTER + INTRA:          -4.488
REMARK INTER:                  -4.338
REMARK INTRA:                  -0.151
REMARK UNBOUND:                -0.126
REMARK SMILES O=C([O-])C=Cc1ccc(O)c(O)c1
REMARK SMILES IDX 6 1 13 2 7 3 11 4 8 5 9 6 5 7 4 8 2 9 1 10 3 11 12 12 10 14
REMARK H PARENT 12 13 10 15
REMARK Flexibility Score: inf
ROOT
ATOM      1  C   UNL     1    -118.064 -98.795  43.820  1.00  0.00    -0.022 A 
ATOM      2  C   UNL     1    -117.830 -99.559  44.982  1.00  0.00     0.058 A 
ATOM      3  C   UNL     1    -118.488 -97.464  43.959  1.00  0.00     0.012 A 
ATOM      4  C   UNL     1    -117.994 -98.991  46.254  1.00  0.00     0.157 A 
ATOM      5  C   UNL     1    -118.650 -96.898  45.225  1.00  0.00     0.051 A 
ATOM      6  C   UNL     1    -118.402 -97.652  46.375  1.00  0.00     0.157 A 
ENDROOT
BRANCH   1   7
ATOM      7  C   UNL     1    -117.915 -99.355  42.454  1.00  0.00     0.010 C 
ATOM      8  C   UNL     1    -118.197 -98.672  41.335  1.00  0.00     0.025 C 
BRANCH   8   9
ATOM      9  C   UNL     1    -118.049 -99.264  39.995  1.00  0.00     0.064 C 
ATOM     10  O   UNL     1    -118.945-100.005  39.507  1.00  0.00    -0.545 OA
ATOM     11  O   UNL     1    -116.904 -99.003  39.255  1.00  0.00    -0.545 OA
ENDBRANCH   8   9
ENDBRANCH   1   7
BRANCH   4  12
ATOM     12  O   UNL     1    -117.757 -99.752  47.397  1.00  0.00    -0.504 OA
ATOM     13  H   UNL     1    -118.487-100.309  47.827  1.00  0.00     0.293 HD
ENDBRANCH   4  12
BRANCH   6  14
ATOM     14  O   UNL     1    -118.571 -97.059  47.625  1.00  0.00    -0.504 OA
ATOM     15  H   UNL     1    -118.798 -97.600  48.451  1.00  0.00     0.293 HD
ENDBRANCH   6  14
TORSDOF 4
ENDMDL
MODEL 6
REMARK VINA RESULT:    -2.762      5.576      9.935
REMARK INTER + INTRA:          -3.373
REMARK INTER:                  -3.249
REMARK INTRA:                  -0.124
REMARK UNBOUND:                -0.126
REMARK SMILES O=C([O-])C=Cc1ccc(O)c(O)c1
REMARK SMILES IDX 6 1 13 2 7 3 11 4 8 5 9 6 5 7 4 8 2 9 1 10 3 11 12 12 10 14
REMARK H PARENT 12 13 10 15
REMARK Flexibility Score: inf
ROOT
ATOM      1  C   UNL     1    -116.884 -99.607  36.761  1.00  0.00    -0.022 A 
ATOM      2  C   UNL     1    -115.972 -98.628  36.319  1.00  0.00     0.058 A 
ATOM      3  C   UNL     1    -117.818-100.125  35.849  1.00  0.00     0.012 A 
ATOM      4  C   UNL     1    -115.980 -98.196  34.984  1.00  0.00     0.157 A 
ATOM      5  C   UNL     1    -117.825 -99.696  34.520  1.00  0.00     0.051 A 
ATOM      6  C   UNL     1    -116.909 -98.737  34.080  1.00  0.00     0.157 A 
ENDROOT
BRANCH   1   7
ATOM      7  C   UNL     1    -116.922-100.087  38.165  1.00  0.00     0.010 C 
ATOM      8  C   UNL     1    -117.158 -99.291  39.218  1.00  0.00     0.025 C 
BRANCH   8   9
ATOM      9  C   UNL     1    -117.177 -99.800  40.599  1.00  0.00     0.064 C 
ATOM     10  O   UNL     1    -116.109 -99.968  41.246  1.00  0.00    -0.545 OA
ATOM     11  O   UNL     1    -118.392-100.100  41.200  1.00  0.00    -0.545 OA
ENDBRANCH   8   9
ENDBRANCH   1   7
BRANCH   4  12
ATOM     12  O   UNL     1    -115.072 -97.230  34.555  1.00  0.00    -0.504 OA
ATOM     13  H   UNL     1    -114.813 -96.446  35.142  1.00  0.00     0.293 HD
ENDBRANCH   4  12
BRANCH   6  14
ATOM     14  O   UNL     1    -116.940 -98.331  32.747  1.00  0.00    -0.504 OA
ATOM     15  H   UNL     1    -117.627 -98.687  32.092  1.00  0.00     0.293 HD
ENDBRANCH   6  14
TORSDOF 4
ENDMDL
MODEL 7
REMARK VINA RESULT:    -2.681      5.786     10.319
REMARK INTER + INTRA:          -3.278
REMARK INTER:                  -3.141
REMARK INTRA:                  -0.137
REMARK UNBOUND:                -0.126
REMARK SMILES O=C([O-])C=Cc1ccc(O)c(O)c1
REMARK SMILES IDX 6 1 13 2 7 3 11 4 8 5 9 6 5 7 4 8 2 9 1 10 3 11 12 12 10 14
REMARK H PARENT 12 13 10 15
REMARK Flexibility Score: inf
ROOT
ATOM      1  C   UNL     1    -116.795 -99.656  36.566  1.00  0.00    -0.022 A 
ATOM      2  C   UNL     1    -117.608-100.120  35.512  1.00  0.00     0.058 A 
ATOM      3  C   UNL     1    -115.764 -98.748  36.276  1.00  0.00     0.012 A 
ATOM      4  C   UNL     1    -117.408 -99.663  34.201  1.00  0.00     0.157 A 
ATOM      5  C   UNL     1    -115.565 -98.292  34.971  1.00  0.00     0.051 A 
ATOM      6  C   UNL     1    -116.383 -98.741  33.931  1.00  0.00     0.157 A 
ENDROOT
BRANCH   1   7
ATOM      7  C   UNL     1    -116.960-100.118  37.966  1.00  0.00     0.010 C 
ATOM      8  C   UNL     1    -117.081 -99.292  39.015  1.00  0.00     0.025 C 
BRANCH   8   9
ATOM      9  C   UNL     1    -117.232 -99.787  40.393  1.00  0.00     0.064 C 
ATOM     10  O   UNL     1    -118.359-100.124  40.845  1.00  0.00    -0.545 OA
ATOM     11  O   UNL     1    -116.114 -99.884  41.210  1.00  0.00    -0.545 OA
ENDBRANCH   8   9
ENDBRANCH   1   7
BRANCH   4  12
ATOM     12  O   UNL     1    -118.219-100.125  33.166  1.00  0.00    -0.504 OA
ATOM     13  H   UNL     1    -118.272 -99.643  32.277  1.00  0.00     0.293 HD
ENDBRANCH   4  12
BRANCH   6  14
ATOM     14  O   UNL     1    -116.161 -98.266  32.639  1.00  0.00    -0.504 OA
ATOM     15  H   UNL     1    -115.290 -98.432  32.147  1.00  0.00     0.293 HD
ENDBRANCH   6  14
TORSDOF 4
ENDMDL
