MODEL 1
REMARK VINA RESULT:    -5.457      0.000      0.000
REMARK INTER + INTRA:          -6.234
REMARK INTER:                  -6.095
REMARK INTRA:                  -0.139
REMARK UNBOUND:                -0.139
REMARK SMILES O=C([O-])C=Cc1ccccc1
REMARK SMILES IDX 4 1 5 2 2 3 1 4 3 5 6 6 7 7 11 8 8 9 10 10 9 11
REMARK H PARENT
REMARK Flexibility Score: inf
ROOT
ATOM      1  C   UNL     1      15.094  14.300  30.058  1.00  0.00     0.025 C 
ATOM      2  C   UNL     1      14.053  15.054  29.681  1.00  0.00     0.010 C 
ENDROOT
BRANCH   1   3
ATOM      3  C   UNL     1      15.088  13.540  31.317  1.00  0.00     0.064 C 
ATOM      4  O   UNL     1      14.363  13.926  32.272  1.00  0.00    -0.545 OA
ATOM      5  O   UNL     1      15.867  12.400  31.472  1.00  0.00    -0.545 OA
ENDBRANCH   1   3
BRANCH   2   6
ATOM      6  C   UNL     1      14.011  15.828  28.415  1.00  0.00    -0.026 A 
ATOM      7  C   UNL     1      14.782  15.481  27.285  1.00  0.00     0.008 A 
ATOM      8  C   UNL     1      13.195  16.971  28.352  1.00  0.00     0.008 A 
ATOM      9  C   UNL     1      14.714  16.250  26.119  1.00  0.00     0.001 A 
ATOM     10  C   UNL     1      13.131  17.736  27.184  1.00  0.00     0.001 A 
ATOM     11  C   UNL     1      13.888  17.375  26.067  1.00  0.00     0.000 A 
ENDBRANCH   2   6
TORSDOF 2
ENDMDL
MODEL 2
REMARK VINA RESULT:    -5.205      2.055      3.048
REMARK INTER + INTRA:          -5.953
REMARK INTER:                  -5.818
REMARK INTRA:                  -0.135
REMARK UNBOUND:                -0.139
REMARK SMILES O=C([O-])C=Cc1ccccc1
REMARK SMILES IDX 4 1 5 2 2 3 1 4 3 5 6 6 7 7 11 8 8 9 10 10 9 11
REMARK H PARENT
REMARK Flexibility Score: inf
ROOT
ATOM      1  C   UNL     1      14.063  15.512  28.116  1.00  0.00     0.025 C 
ATOM      2  C   UNL     1      14.602  15.772  26.917  1.00  0.00     0.010 C 
ENDROOT
BRANCH   1   3
ATOM      3  C   UNL     1      14.866  14.992  29.233  1.00  0.00     0.064 C 
ATOM      4  O   UNL     1      16.119  15.118  29.209  1.00  0.00    -0.545 OA
ATOM      5  O   UNL     1      14.265  14.366  30.319  1.00  0.00    -0.545 OA
ENDBRANCH   1   3
BRANCH   2   6
ATOM      6  C   UNL     1      13.833  16.307  25.766  1.00  0.00    -0.026 A 
ATOM      7  C   UNL     1      12.583  15.783  25.376  1.00  0.00     0.008 A 
ATOM      8  C   UNL     1      14.391  17.356  25.014  1.00  0.00     0.008 A 
ATOM      9  C   UNL     1      11.904  16.316  24.276  1.00  0.00     0.001 A 
ATOM     10  C   UNL     1      13.707  17.886  23.915  1.00  0.00     0.001 A 
ATOM     11  C   UNL     1      12.463  17.368  23.548  1.00  0.00     0.000 A 
ENDBRANCH   2   6
TORSDOF 2
ENDMDL
MODEL 3
REMARK VINA RESULT:    -5.204      1.864      2.766
REMARK INTER + INTRA:          -5.951
REMARK INTER:                  -5.815
REMARK INTRA:                  -0.136
REMARK UNBOUND:                -0.139
REMARK SMILES O=C([O-])C=Cc1ccccc1
REMARK SMILES IDX 4 1 5 2 2 3 1 4 3 5 6 6 7 7 11 8 8 9 10 10 9 11
REMARK H PARENT
REMARK Flexibility Score: inf
ROOT
ATOM      1  C   UNL     1      13.784  15.328  28.878  1.00  0.00     0.025 C 
ATOM      2  C   UNL     1      14.138  15.687  27.636  1.00  0.00     0.010 C 
ENDROOT
BRANCH   1   3
ATOM      3  C   UNL     1      14.753  14.758  29.827  1.00  0.00     0.064 C 
ATOM      4  O   UNL     1      15.985  14.939  29.642  1.00  0.00    -0.545 OA
ATOM      5  O   UNL     1      14.330  14.023  30.928  1.00  0.00    -0.545 OA
ENDBRANCH   1   3
BRANCH   2   6
ATOM      6  C   UNL     1      13.199  16.277  26.649  1.00  0.00    -0.026 A 
ATOM      7  C   UNL     1      12.387  17.392  26.944  1.00  0.00     0.008 A 
ATOM      8  C   UNL     1      13.091  15.677  25.383  1.00  0.00     0.008 A 
ATOM      9  C   UNL     1      11.510  17.903  25.982  1.00  0.00     0.001 A 
ATOM     10  C   UNL     1      12.212  16.193  24.424  1.00  0.00     0.001 A 
ATOM     11  C   UNL     1      11.425  17.306  24.723  1.00  0.00     0.000 A 
ENDBRANCH   2   6
TORSDOF 2
ENDMDL
MODEL 4
REMARK VINA RESULT:    -5.060      2.183      3.141
REMARK INTER + INTRA:          -5.791
REMARK INTER:                  -5.653
REMARK INTRA:                  -0.138
REMARK UNBOUND:                -0.139
REMARK SMILES O=C([O-])C=Cc1ccccc1
REMARK SMILES IDX 4 1 5 2 2 3 1 4 3 5 6 6 7 7 11 8 8 9 10 10 9 11
REMARK H PARENT
REMARK Flexibility Score: inf
ROOT
ATOM      1  C   UNL     1      14.243  16.015  27.814  1.00  0.00     0.025 C 
ATOM      2  C   UNL     1      13.351  15.862  26.826  1.00  0.00     0.010 C 
ENDROOT
BRANCH   1   3
ATOM      3  C   UNL     1      14.169  15.227  29.055  1.00  0.00     0.064 C 
ATOM      4  O   UNL     1      13.211  15.410  29.851  1.00  0.00    -0.545 OA
ATOM      5  O   UNL     1      15.140  14.282  29.363  1.00  0.00    -0.545 OA
ENDBRANCH   1   3
BRANCH   2   6
ATOM      6  C   UNL     1      13.392  16.625  25.553  1.00  0.00    -0.026 A 
ATOM      7  C   UNL     1      14.498  17.416  25.176  1.00  0.00     0.008 A 
ATOM      8  C   UNL     1      12.269  16.585  24.709  1.00  0.00     0.008 A 
ATOM      9  C   UNL     1      14.482  18.125  23.971  1.00  0.00     0.001 A 
ATOM     10  C   UNL     1      12.259  17.296  23.505  1.00  0.00     0.001 A 
ATOM     11  C   UNL     1      13.366  18.063  23.134  1.00  0.00     0.000 A 
ENDBRANCH   2   6
TORSDOF 2
ENDMDL
MODEL 5
REMARK VINA RESULT:    -4.637      5.969      7.561
REMARK INTER + INTRA:          -5.318
REMARK INTER:                  -5.182
REMARK INTRA:                  -0.136
REMARK UNBOUND:                -0.139
REMARK SMILES O=C([O-])C=Cc1ccccc1
REMARK SMILES IDX 4 1 5 2 2 3 1 4 3 5 6 6 7 7 11 8 8 9 10 10 9 11
REMARK H PARENT
REMARK Flexibility Score: inf
ROOT
ATOM      1  C   UNL     1      12.810  17.830  22.467  1.00  0.00     0.025 C 
ATOM      2  C   UNL     1      12.021  17.659  23.536  1.00  0.00     0.010 C 
ENDROOT
BRANCH   1   3
ATOM      3  C   UNL     1      12.259  18.017  21.116  1.00  0.00     0.064 C 
ATOM      4  O   UNL     1      13.040  18.079  20.130  1.00  0.00    -0.545 OA
ATOM      5  O   UNL     1      10.889  18.124  20.908  1.00  0.00    -0.545 OA
ENDBRANCH   1   3
BRANCH   2   6
ATOM      6  C   UNL     1      12.531  17.478  24.918  1.00  0.00    -0.026 A 
ATOM      7  C   UNL     1      13.767  16.858  25.197  1.00  0.00     0.008 A 
ATOM      8  C   UNL     1      11.733  17.911  25.991  1.00  0.00     0.008 A 
ATOM      9  C   UNL     1      14.198  16.703  26.519  1.00  0.00     0.001 A 
ATOM     10  C   UNL     1      12.169  17.753  27.311  1.00  0.00     0.001 A 
ATOM     11  C   UNL     1      13.402  17.152  27.574  1.00  0.00     0.000 A 
ENDBRANCH   2   6
TORSDOF 2
ENDMDL
MODEL 6
REMARK VINA RESULT:    -4.630      5.249      6.913
REMARK INTER + INTRA:          -5.311
REMARK INTER:                  -5.181
REMARK INTRA:                  -0.130
REMARK UNBOUND:                -0.139
REMARK SMILES O=C([O-])C=Cc1ccccc1
REMARK SMILES IDX 4 1 5 2 2 3 1 4 3 5 6 6 7 7 11 8 8 9 10 10 9 11
REMARK H PARENT
REMARK Flexibility Score: inf
ROOT
ATOM      1  C   UNL     1      12.539  17.409  23.599  1.00  0.00     0.025 C 
ATOM      2  C   UNL     1      13.591  17.714  24.370  1.00  0.00     0.010 C 
ENDROOT
BRANCH   1   3
ATOM      3  C   UNL     1      12.437  17.871  22.206  1.00  0.00     0.064 C 
ATOM      4  O   UNL     1      11.303  18.096  21.707  1.00  0.00    -0.545 OA
ATOM      5  O   UNL     1      13.573  18.067  21.430  1.00  0.00    -0.545 OA
ENDBRANCH   1   3
BRANCH   2   6
ATOM      6  C   UNL     1      13.742  17.261  25.776  1.00  0.00    -0.026 A 
ATOM      7  C   UNL     1      12.931  17.747  26.823  1.00  0.00     0.008 A 
ATOM      8  C   UNL     1      14.757  16.337  26.079  1.00  0.00     0.008 A 
ATOM      9  C   UNL     1      13.121  17.296  28.133  1.00  0.00     0.001 A 
ATOM     10  C   UNL     1      14.942  15.889  27.391  1.00  0.00     0.001 A 
ATOM     11  C   UNL     1      14.123  16.366  28.416  1.00  0.00     0.000 A 
ENDBRANCH   2   6
TORSDOF 2
ENDMDL
MODEL 7
REMARK VINA RESULT:    -4.510      4.742      6.376
REMARK INTER + INTRA:          -5.176
REMARK INTER:                  -5.037
REMARK INTRA:                  -0.139
REMARK UNBOUND:                -0.139
REMARK SMILES O=C([O-])C=Cc1ccccc1
REMARK SMILES IDX 4 1 5 2 2 3 1 4 3 5 6 6 7 7 11 8 8 9 10 10 9 11
REMARK H PARENT
REMARK Flexibility Score: inf
ROOT
ATOM      1  C   UNL     1      12.969  17.434  24.592  1.00  0.00     0.025 C 
ATOM      2  C   UNL     1      14.005  16.790  25.145  1.00  0.00     0.010 C 
ENDROOT
BRANCH   1   3
ATOM      3  C   UNL     1      12.949  17.795  23.166  1.00  0.00     0.064 C 
ATOM      4  O   UNL     1      14.021  18.125  22.594  1.00  0.00    -0.545 OA
ATOM      5  O   UNL     1      11.766  17.776  22.437  1.00  0.00    -0.545 OA
ENDBRANCH   1   3
BRANCH   2   6
ATOM      6  C   UNL     1      14.063  16.395  26.574  1.00  0.00    -0.026 A 
ATOM      7  C   UNL     1      13.163  16.896  27.539  1.00  0.00     0.008 A 
ATOM      8  C   UNL     1      15.079  15.516  26.988  1.00  0.00     0.008 A 
ATOM      9  C   UNL     1      13.268  16.501  28.876  1.00  0.00     0.001 A 
ATOM     10  C   UNL     1      15.178  15.124  28.327  1.00  0.00     0.001 A 
ATOM     11  C   UNL     1      14.272  15.614  29.270  1.00  0.00     0.000 A 
ENDBRANCH   2   6
TORSDOF 2
ENDMDL
MODEL 8
REMARK VINA RESULT:    -4.411      3.047      5.310
REMARK INTER + INTRA:          -5.066
REMARK INTER:                  -4.933
REMARK INTRA:                  -0.133
REMARK UNBOUND:                -0.139
REMARK SMILES O=C([O-])C=Cc1ccccc1
REMARK SMILES IDX 4 1 5 2 2 3 1 4 3 5 6 6 7 7 11 8 8 9 10 10 9 11
REMARK H PARENT
REMARK Flexibility Score: inf
ROOT
ATOM      1  C   UNL     1      13.437  15.523  28.364  1.00  0.00     0.025 C 
ATOM      2  C   UNL     1      14.621  15.347  28.966  1.00  0.00     0.010 C 
ENDROOT
BRANCH   1   3
ATOM      3  C   UNL     1      13.227  16.575  27.357  1.00  0.00     0.064 C 
ATOM      4  O   UNL     1      12.341  16.423  26.475  1.00  0.00    -0.545 OA
ATOM      5  O   UNL     1      13.988  17.738  27.365  1.00  0.00    -0.545 OA
ENDBRANCH   1   3
BRANCH   2   6
ATOM      6  C   UNL     1      14.882  14.292  29.978  1.00  0.00    -0.026 A 
ATOM      7  C   UNL     1      15.413  13.030  29.640  1.00  0.00     0.008 A 
ATOM      8  C   UNL     1      14.554  14.552  31.320  1.00  0.00     0.008 A 
ATOM      9  C   UNL     1      15.630  12.066  30.631  1.00  0.00     0.001 A 
ATOM     10  C   UNL     1      14.774  13.585  32.306  1.00  0.00     0.001 A 
ATOM     11  C   UNL     1      15.314  12.344  31.962  1.00  0.00     0.000 A 
ENDBRANCH   2   6
TORSDOF 2
ENDMDL
