MODEL 1
REMARK VINA RESULT:    35.584      0.000      0.000
REMARK INTER + INTRA:          41.515
REMARK INTER:                  41.825
REMARK INTRA:                  -0.310
REMARK UNBOUND:                -0.310
REMARK SMILES O=c1cc(-c2ccc(O)c(O)c2)oc2cc(O)cc(O)c12
REMARK SMILES IDX 4 1 3 2 2 3 1 4 21 5 19 6 18 7 16 8 15 9 14 10 13 11 5 12
REMARK SMILES IDX 6 13 7 14 8 15 12 16 10 17 9 18 11 20 20 22 17 24
REMARK H PARENT 9 19 11 21 20 23 17 25
REMARK Flexibility Score: inf
ROOT
ATOM      1  C   UNL     1      10.165  60.479  22.359  1.00  0.00     0.138 A 
ATOM      2  C   UNL     1      11.497  60.758  22.024  1.00  0.00     0.100 A 
ATOM      3  C   UNL     1      12.118  61.894  22.544  1.00  0.00     0.197 A 
ATOM      4  O   UNL     1      13.296  62.145  22.180  1.00  0.00    -0.289 OA
ATOM      5  C   UNL     1      11.410  62.737  23.434  1.00  0.00     0.107 A 
ATOM      6  C   UNL     1      11.951  63.904  24.053  1.00  0.00     0.134 A 
ATOM      7  C   UNL     1      11.122  64.715  24.838  1.00  0.00     0.093 A 
ATOM      8  C   UNL     1       9.792  64.373  25.075  1.00  0.00     0.123 A 
ATOM      9  C   UNL     1       9.267  63.207  24.516  1.00  0.00     0.094 A 
ATOM     10  C   UNL     1      10.057  62.396  23.699  1.00  0.00     0.146 A 
ATOM     11  O   UNL     1       9.513  61.304  23.171  1.00  0.00    -0.456 OA
ENDROOT
BRANCH   1  12
ATOM     12  C   UNL     1       9.457  59.283  21.837  1.00  0.00     0.021 A 
ATOM     13  C   UNL     1      10.155  58.135  21.413  1.00  0.00     0.016 A 
ATOM     14  C   UNL     1       9.461  57.028  20.917  1.00  0.00     0.051 A 
ATOM     15  C   UNL     1       8.064  57.051  20.828  1.00  0.00     0.157 A 
ATOM     16  C   UNL     1       8.054  59.302  21.731  1.00  0.00     0.062 A 
ATOM     17  C   UNL     1       7.360  58.190  21.234  1.00  0.00     0.158 A 
BRANCH  15  18
ATOM     18  O   UNL     1       7.370  55.947  20.335  1.00  0.00    -0.504 OA
ATOM     19  H   UNL     1       7.092  55.887  19.362  1.00  0.00     0.293 HD
ENDBRANCH  15  18
BRANCH  17  20
ATOM     20  O   UNL     1       5.969  58.211  21.140  1.00  0.00    -0.504 OA
ATOM     21  H   UNL     1       5.381  57.930  21.917  1.00  0.00     0.293 HD
ENDBRANCH  17  20
ENDBRANCH   1  12
BRANCH   6  22
ATOM     22  O   UNL     1      13.289  64.299  23.950  1.00  0.00    -0.507 OA
ATOM     23  H   UNL     1      13.603  65.242  23.781  1.00  0.00     0.293 HD
ENDBRANCH   6  22
BRANCH   8  24
ATOM     24  O   UNL     1       9.002  65.195  25.874  1.00  0.00    -0.508 OA
ATOM     25  H   UNL     1       8.914  65.040  26.872  1.00  0.00     0.293 HD
ENDBRANCH   8  24
TORSDOF 5
ENDMDL
