MODEL 1
REMARK VINA RESULT:    -4.095      0.000      0.000
REMARK INTER + INTRA:         -13.441
REMARK INTER:                  -9.362
REMARK INTRA:                  -4.079
REMARK UNBOUND:                -4.079
REMARK SMILES CCCCCCCCCCCCCCCCCCCCCCCC(=O)[O-]
REMARK SMILES IDX 13 1 14 2 15 3 16 4 17 5 18 6 19 7 20 8 21 9 22 10 23 11
REMARK SMILES IDX 24 12 25 13 26 14 12 15 11 16 10 17 9 18 8 19 7 20 6 21 5 22
REMARK SMILES IDX 4 23 3 24 2 25 1 26
REMARK H PARENT
REMARK Flexibility Score: inf
ROOT
ATOM      1  C   UNL     1     104.545  97.115  97.504  1.00  0.00     0.000 C 
ENDROOT
BRANCH   1   2
ATOM      2  C   UNL     1     105.648  97.062  96.434  1.00  0.00     0.000 C 
BRANCH   2   3
ATOM      3  C   UNL     1     105.161  97.534  95.052  1.00  0.00     0.000 C 
BRANCH   3   4
ATOM      4  C   UNL     1     103.757  98.171  95.035  1.00  0.00     0.000 C 
BRANCH   4   5
ATOM      5  C   UNL     1     103.733  99.714  95.058  1.00  0.00     0.000 C 
BRANCH   5   6
ATOM      6  C   UNL     1     102.829 100.335  96.139  1.00  0.00     0.000 C 
BRANCH   6   7
ATOM      7  C   UNL     1     103.537 100.668  97.465  1.00  0.00     0.000 C 
BRANCH   7   8
ATOM      8  C   UNL     1     104.942 101.283  97.282  1.00  0.00     0.000 C 
BRANCH   8   9
ATOM      9  C   UNL     1     106.053 100.395  97.868  1.00  0.00     0.000 C 
BRANCH   9  10
ATOM     10  C   UNL     1     107.343 100.419  97.026  1.00  0.00     0.006 C 
BRANCH  10  11
ATOM     11  C   UNL     1     107.194 101.105  95.658  1.00  0.00     0.053 C 
BRANCH  11  12
ATOM     12  C   UNL     1     108.034 102.341  95.557  1.00  0.00     0.041 C 
ATOM     13  O   UNL     1     108.727 102.555  94.527  1.00  0.00    -0.550 OA
ATOM     14  O   UNL     1     108.075 103.241  96.613  1.00  0.00    -0.550 OA
ENDBRANCH  11  12
ENDBRANCH  10  11
ENDBRANCH   9  10
ENDBRANCH   8   9
ENDBRANCH   7   8
ENDBRANCH   6   7
ENDBRANCH   5   6
ENDBRANCH   4   5
ENDBRANCH   3   4
ENDBRANCH   2   3
ENDBRANCH   1   2
BRANCH   1  15
ATOM     15  C   UNL     1     104.141  95.720  98.008  1.00  0.00     0.000 C 
BRANCH  15  16
ATOM     16  C   UNL     1     102.940  95.762  98.969  1.00  0.00     0.000 C 
BRANCH  16  17
ATOM     17  C   UNL     1     102.429  97.192  99.229  1.00  0.00     0.000 C 
BRANCH  17  18
ATOM     18  C   UNL     1     100.997  97.477  98.740  1.00  0.00    -0.000 C 
BRANCH  18  19
ATOM     19  C   UNL     1     100.837  97.305  97.220  1.00  0.00    -0.000 C 
BRANCH  19  20
ATOM     20  C   UNL     1      99.636  96.420  96.847  1.00  0.00    -0.000 C 
BRANCH  20  21
ATOM     21  C   UNL     1      99.535  95.156  97.714  1.00  0.00    -0.000 C 
BRANCH  21  22
ATOM     22  C   UNL     1      98.076  94.876  98.104  1.00  0.00    -0.000 C 
BRANCH  22  23
ATOM     23  C   UNL     1      97.205  96.144  98.108  1.00  0.00    -0.000 C 
BRANCH  23  24
ATOM     24  C   UNL     1      96.889  96.709  99.506  1.00  0.00    -0.000 C 
BRANCH  24  25
ATOM     25  C   UNL     1      97.341  98.170  99.706  1.00  0.00    -0.003 C 
ATOM     26  C   UNL     1      97.421  98.944  98.390  1.00  0.00     0.004 C 
ENDBRANCH  24  25
ENDBRANCH  23  24
ENDBRANCH  22  23
ENDBRANCH  21  22
ENDBRANCH  20  21
ENDBRANCH  19  20
ENDBRANCH  18  19
ENDBRANCH  17  18
ENDBRANCH  16  17
ENDBRANCH  15  16
ENDBRANCH   1  15
TORSDOF 22
ENDMDL
MODEL 2
REMARK VINA RESULT:    -4.012      1.859      2.368
REMARK INTER + INTRA:         -13.251
REMARK INTER:                  -9.270
REMARK INTRA:                  -3.981
REMARK UNBOUND:                -4.079
REMARK SMILES CCCCCCCCCCCCCCCCCCCCCCCC(=O)[O-]
REMARK SMILES IDX 13 1 14 2 15 3 16 4 17 5 18 6 19 7 20 8 21 9 22 10 23 11
REMARK SMILES IDX 24 12 25 13 26 14 12 15 11 16 10 17 9 18 8 19 7 20 6 21 5 22
REMARK SMILES IDX 4 23 3 24 2 25 1 26
REMARK H PARENT
REMARK Flexibility Score: inf
ROOT
ATOM      1  C   UNL     1     105.271  96.996  96.509  1.00  0.00     0.000 C 
ENDROOT
BRANCH   1   2
ATOM      2  C   UNL     1     104.995  97.835  95.250  1.00  0.00     0.000 C 
BRANCH   2   3
ATOM      3  C   UNL     1     103.510  98.214  95.101  1.00  0.00     0.000 C 
BRANCH   3   4
ATOM      4  C   UNL     1     103.247  99.646  94.593  1.00  0.00     0.000 C 
BRANCH   4   5
ATOM      5  C   UNL     1     102.200 100.448  95.394  1.00  0.00     0.000 C 
BRANCH   5   6
ATOM      6  C   UNL     1     102.198 100.183  96.911  1.00  0.00     0.000 C 
BRANCH   6   7
ATOM      7  C   UNL     1     102.449 101.425  97.786  1.00  0.00     0.000 C 
BRANCH   7   8
ATOM      8  C   UNL     1     103.919 101.898  97.787  1.00  0.00     0.000 C 
BRANCH   8   9
ATOM      9  C   UNL     1     104.913 100.725  97.728  1.00  0.00     0.000 C 
BRANCH   9  10
ATOM     10  C   UNL     1     106.043 100.952  96.705  1.00  0.00     0.006 C 
BRANCH  10  11
ATOM     11  C   UNL     1     107.460 100.827  97.286  1.00  0.00     0.053 C 
BRANCH  11  12
ATOM     12  C   UNL     1     108.081  99.502  96.968  1.00  0.00     0.041 C 
ATOM     13  O   UNL     1     108.233  99.143  95.770  1.00  0.00    -0.550 OA
ATOM     14  O   UNL     1     108.465  98.649  97.995  1.00  0.00    -0.550 OA
ENDBRANCH  11  12
ENDBRANCH  10  11
ENDBRANCH   9  10
ENDBRANCH   8   9
ENDBRANCH   7   8
ENDBRANCH   6   7
ENDBRANCH   5   6
ENDBRANCH   4   5
ENDBRANCH   3   4
ENDBRANCH   2   3
ENDBRANCH   1   2
BRANCH   1  15
ATOM     15  C   UNL     1     104.146  97.103  97.551  1.00  0.00     0.000 C 
BRANCH  15  16
ATOM     16  C   UNL     1     103.844  95.759  98.237  1.00  0.00     0.000 C 
BRANCH  16  17
ATOM     17  C   UNL     1     102.519  95.772  99.023  1.00  0.00     0.000 C 
BRANCH  17  18
ATOM     18  C   UNL     1     101.561  96.928  98.679  1.00  0.00    -0.000 C 
BRANCH  18  19
ATOM     19  C   UNL     1     100.328  96.468  97.883  1.00  0.00    -0.000 C 
BRANCH  19  20
ATOM     20  C   UNL     1     100.387  96.887  96.405  1.00  0.00    -0.000 C 
BRANCH  20  21
ATOM     21  C   UNL     1      99.209  96.341  95.583  1.00  0.00    -0.000 C 
BRANCH  21  22
ATOM     22  C   UNL     1      98.262  97.476  95.164  1.00  0.00    -0.000 C 
BRANCH  22  23
ATOM     23  C   UNL     1      97.156  97.744  96.200  1.00  0.00    -0.000 C 
BRANCH  23  24
ATOM     24  C   UNL     1      97.129  99.178  96.763  1.00  0.00    -0.000 C 
BRANCH  24  25
ATOM     25  C   UNL     1      98.497  99.889  96.725  1.00  0.00    -0.003 C 
ATOM     26  C   UNL     1      98.485 101.139  95.846  1.00  0.00     0.004 C 
ENDBRANCH  24  25
ENDBRANCH  23  24
ENDBRANCH  22  23
ENDBRANCH  21  22
ENDBRANCH  20  21
ENDBRANCH  19  20
ENDBRANCH  18  19
ENDBRANCH  17  18
ENDBRANCH  16  17
ENDBRANCH  15  16
ENDBRANCH   1  15
TORSDOF 22
ENDMDL
MODEL 3
REMARK VINA RESULT:    -3.999      1.635      2.518
REMARK INTER + INTRA:         -13.220
REMARK INTER:                  -9.230
REMARK INTRA:                  -3.991
REMARK UNBOUND:                -4.079
REMARK SMILES CCCCCCCCCCCCCCCCCCCCCCCC(=O)[O-]
REMARK SMILES IDX 13 1 14 2 15 3 16 4 17 5 18 6 19 7 20 8 21 9 22 10 23 11
REMARK SMILES IDX 24 12 25 13 26 14 12 15 11 16 10 17 9 18 8 19 7 20 6 21 5 22
REMARK SMILES IDX 4 23 3 24 2 25 1 26
REMARK H PARENT
REMARK Flexibility Score: inf
ROOT
ATOM      1  C   UNL     1     104.931  97.841  95.830  1.00  0.00     0.000 C 
ENDROOT
BRANCH   1   2
ATOM      2  C   UNL     1     103.702  98.285  95.019  1.00  0.00     0.000 C 
BRANCH   2   3
ATOM      3  C   UNL     1     103.657  99.807  94.789  1.00  0.00     0.000 C 
BRANCH   3   4
ATOM      4  C   UNL     1     102.244 100.413  94.680  1.00  0.00     0.000 C 
BRANCH   4   5
ATOM      5  C   UNL     1     101.830 101.333  95.848  1.00  0.00     0.000 C 
BRANCH   5   6
ATOM      6  C   UNL     1     102.208 100.818  97.249  1.00  0.00     0.000 C 
BRANCH   6   7
ATOM      7  C   UNL     1     103.152 101.739  98.045  1.00  0.00     0.000 C 
BRANCH   7   8
ATOM      8  C   UNL     1     104.555 101.884  97.417  1.00  0.00     0.000 C 
BRANCH   8   9
ATOM      9  C   UNL     1     105.661 101.294  98.308  1.00  0.00     0.000 C 
BRANCH   9  10
ATOM     10  C   UNL     1     106.869 100.783  97.500  1.00  0.00     0.006 C 
BRANCH  10  11
ATOM     11  C   UNL     1     107.054 101.465  96.135  1.00  0.00     0.053 C 
BRANCH  11  12
ATOM     12  C   UNL     1     107.343 100.475  95.049  1.00  0.00     0.041 C 
ATOM     13  O   UNL     1     106.907 100.666  93.883  1.00  0.00    -0.550 OA
ATOM     14  O   UNL     1     108.070  99.326  95.332  1.00  0.00    -0.550 OA
ENDBRANCH  11  12
ENDBRANCH  10  11
ENDBRANCH   9  10
ENDBRANCH   8   9
ENDBRANCH   7   8
ENDBRANCH   6   7
ENDBRANCH   5   6
ENDBRANCH   4   5
ENDBRANCH   3   4
ENDBRANCH   2   3
ENDBRANCH   1   2
BRANCH   1  15
ATOM     15  C   UNL     1     104.552  97.133  97.140  1.00  0.00     0.000 C 
BRANCH  15  16
ATOM     16  C   UNL     1     104.249  98.119  98.281  1.00  0.00     0.000 C 
BRANCH  16  17
ATOM     17  C   UNL     1     103.147  97.616  99.233  1.00  0.00     0.000 C 
BRANCH  17  18
ATOM     18  C   UNL     1     102.729  96.147  99.036  1.00  0.00    -0.000 C 
BRANCH  18  19
ATOM     19  C   UNL     1     101.361  96.000  98.348  1.00  0.00    -0.000 C 
BRANCH  19  20
ATOM     20  C   UNL     1     100.754  97.352  97.942  1.00  0.00    -0.000 C 
BRANCH  20  21
ATOM     21  C   UNL     1     100.623  97.513  96.419  1.00  0.00    -0.000 C 
BRANCH  21  22
ATOM     22  C   UNL     1      99.147  97.593  96.003  1.00  0.00    -0.000 C 
BRANCH  22  23
ATOM     23  C   UNL     1      98.429  96.234  96.086  1.00  0.00    -0.000 C 
BRANCH  23  24
ATOM     24  C   UNL     1      97.484  96.073  97.293  1.00  0.00    -0.000 C 
BRANCH  24  25
ATOM     25  C   UNL     1      97.845  94.889  98.214  1.00  0.00    -0.003 C 
ATOM     26  C   UNL     1      98.549  93.757  97.465  1.00  0.00     0.004 C 
ENDBRANCH  24  25
ENDBRANCH  23  24
ENDBRANCH  22  23
ENDBRANCH  21  22
ENDBRANCH  20  21
ENDBRANCH  19  20
ENDBRANCH  18  19
ENDBRANCH  17  18
ENDBRANCH  16  17
ENDBRANCH  15  16
ENDBRANCH   1  15
TORSDOF 22
ENDMDL
MODEL 4
REMARK VINA RESULT:    -3.988      1.974      5.006
REMARK INTER + INTRA:         -13.195
REMARK INTER:                  -9.450
REMARK INTRA:                  -3.745
REMARK UNBOUND:                -4.079
REMARK SMILES CCCCCCCCCCCCCCCCCCCCCCCC(=O)[O-]
REMARK SMILES IDX 13 1 14 2 15 3 16 4 17 5 18 6 19 7 20 8 21 9 22 10 23 11
REMARK SMILES IDX 24 12 25 13 26 14 12 15 11 16 10 17 9 18 8 19 7 20 6 21 5 22
REMARK SMILES IDX 4 23 3 24 2 25 1 26
REMARK H PARENT
REMARK Flexibility Score: inf
ROOT
ATOM      1  C   UNL     1      99.747  95.645  97.939  1.00  0.00     0.000 C 
ENDROOT
BRANCH   1   2
ATOM      2  C   UNL     1     100.886  96.643  97.669  1.00  0.00     0.000 C 
BRANCH   2   3
ATOM      3  C   UNL     1     101.891  96.728  98.833  1.00  0.00     0.000 C 
BRANCH   3   4
ATOM      4  C   UNL     1     102.813  95.503  98.994  1.00  0.00     0.000 C 
BRANCH   4   5
ATOM      5  C   UNL     1     104.094  95.525  98.134  1.00  0.00     0.000 C 
BRANCH   5   6
ATOM      6  C   UNL     1     104.414  96.881  97.477  1.00  0.00     0.000 C 
BRANCH   6   7
ATOM      7  C   UNL     1     105.670  96.889  96.586  1.00  0.00     0.000 C 
BRANCH   7   8
ATOM      8  C   UNL     1     105.441  97.520  95.196  1.00  0.00     0.000 C 
BRANCH   8   9
ATOM      9  C   UNL     1     106.542  98.526  94.819  1.00  0.00     0.000 C 
BRANCH   9  10
ATOM     10  C   UNL     1     107.356  99.003  96.037  1.00  0.00     0.006 C 
BRANCH  10  11
ATOM     11  C   UNL     1     106.776 100.239  96.743  1.00  0.00     0.053 C 
BRANCH  11  12
ATOM     12  C   UNL     1     106.908 100.147  98.232  1.00  0.00     0.041 C 
ATOM     13  O   UNL     1     106.033 100.657  98.980  1.00  0.00    -0.550 OA
ATOM     14  O   UNL     1     108.015  99.525  98.794  1.00  0.00    -0.550 OA
ENDBRANCH  11  12
ENDBRANCH  10  11
ENDBRANCH   9  10
ENDBRANCH   8   9
ENDBRANCH   7   8
ENDBRANCH   6   7
ENDBRANCH   5   6
ENDBRANCH   4   5
ENDBRANCH   3   4
ENDBRANCH   2   3
ENDBRANCH   1   2
BRANCH   1  15
ATOM     15  C   UNL     1      98.886  95.377  96.694  1.00  0.00     0.000 C 
BRANCH  15  16
ATOM     16  C   UNL     1      99.285  96.259  95.498  1.00  0.00     0.000 C 
BRANCH  16  17
ATOM     17  C   UNL     1      98.159  97.211  95.053  1.00  0.00     0.000 C 
BRANCH  17  18
ATOM     18  C   UNL     1      97.645  98.174  96.139  1.00  0.00    -0.000 C 
BRANCH  18  19
ATOM     19  C   UNL     1      98.635  99.310  96.450  1.00  0.00    -0.000 C 
BRANCH  19  20
ATOM     20  C   UNL     1      98.491  99.846  97.883  1.00  0.00    -0.000 C 
BRANCH  20  21
ATOM     21  C   UNL     1      99.835  99.944  98.620  1.00  0.00    -0.000 C 
BRANCH  21  22
ATOM     22  C   UNL     1     100.847 100.763  97.804  1.00  0.00    -0.000 C 
BRANCH  22  23
ATOM     23  C   UNL     1     102.307 100.385  98.110  1.00  0.00    -0.000 C 
BRANCH  23  24
ATOM     24  C   UNL     1     103.161 100.046  96.873  1.00  0.00    -0.000 C 
BRANCH  24  25
ATOM     25  C   UNL     1     102.341  99.536  95.669  1.00  0.00    -0.003 C 
ATOM     26  C   UNL     1     102.757 100.197  94.355  1.00  0.00     0.004 C 
ENDBRANCH  24  25
ENDBRANCH  23  24
ENDBRANCH  22  23
ENDBRANCH  21  22
ENDBRANCH  20  21
ENDBRANCH  19  20
ENDBRANCH  18  19
ENDBRANCH  17  18
ENDBRANCH  16  17
ENDBRANCH  15  16
ENDBRANCH   1  15
TORSDOF 22
ENDMDL
MODEL 5
REMARK VINA RESULT:    -3.960      1.543      4.075
REMARK INTER + INTRA:         -13.133
REMARK INTER:                  -8.991
REMARK INTRA:                  -4.142
REMARK UNBOUND:                -4.079
REMARK SMILES CCCCCCCCCCCCCCCCCCCCCCCC(=O)[O-]
REMARK SMILES IDX 13 1 14 2 15 3 16 4 17 5 18 6 19 7 20 8 21 9 22 10 23 11
REMARK SMILES IDX 24 12 25 13 26 14 12 15 11 16 10 17 9 18 8 19 7 20 6 21 5 22
REMARK SMILES IDX 4 23 3 24 2 25 1 26
REMARK H PARENT
REMARK Flexibility Score: inf
ROOT
ATOM      1  C   UNL     1     101.893  99.752  99.481  1.00  0.00     0.000 C 
ENDROOT
BRANCH   1   2
ATOM      2  C   UNL     1     101.446  98.315  99.799  1.00  0.00     0.000 C 
BRANCH   2   3
ATOM      3  C   UNL     1     102.631  97.355 100.012  1.00  0.00     0.000 C 
BRANCH   3   4
ATOM      4  C   UNL     1     102.605  96.080  99.147  1.00  0.00     0.000 C 
BRANCH   4   5
ATOM      5  C   UNL     1     103.755  95.951  98.126  1.00  0.00     0.000 C 
BRANCH   5   6
ATOM      6  C   UNL     1     103.891  97.132  97.147  1.00  0.00     0.000 C 
BRANCH   6   7
ATOM      7  C   UNL     1     105.335  97.612  96.907  1.00  0.00     0.000 C 
BRANCH   7   8
ATOM      8  C   UNL     1     105.660  97.889  95.424  1.00  0.00     0.000 C 
BRANCH   8   9
ATOM      9  C   UNL     1     106.925  98.748  95.250  1.00  0.00     0.000 C 
BRANCH   9  10
ATOM     10  C   UNL     1     107.054  99.844  96.325  1.00  0.00     0.006 C 
BRANCH  10  11
ATOM     11  C   UNL     1     107.002 101.279  95.778  1.00  0.00     0.053 C 
BRANCH  11  12
ATOM     12  C   UNL     1     108.371 101.829  95.518  1.00  0.00     0.041 C 
ATOM     13  O   UNL     1     109.346 101.469  96.229  1.00  0.00    -0.550 OA
ATOM     14  O   UNL     1     108.564 102.764  94.509  1.00  0.00    -0.550 OA
ENDBRANCH  11  12
ENDBRANCH  10  11
ENDBRANCH   9  10
ENDBRANCH   8   9
ENDBRANCH   7   8
ENDBRANCH   6   7
ENDBRANCH   5   6
ENDBRANCH   4   5
ENDBRANCH   3   4
ENDBRANCH   2   3
ENDBRANCH   1   2
BRANCH   1  15
ATOM     15  C   UNL     1     103.419  99.925  99.543  1.00  0.00     0.000 C 
BRANCH  15  16
ATOM     16  C   UNL     1     103.962 100.812  98.410  1.00  0.00     0.000 C 
BRANCH  16  17
ATOM     17  C   UNL     1     102.918 101.087  97.311  1.00  0.00     0.000 C 
BRANCH  17  18
ATOM     18  C   UNL     1     103.329 100.658  95.891  1.00  0.00    -0.000 C 
BRANCH  18  19
ATOM     19  C   UNL     1     102.131 100.254  95.016  1.00  0.00    -0.000 C 
BRANCH  19  20
ATOM     20  C   UNL     1     100.804 100.845  95.519  1.00  0.00    -0.000 C 
BRANCH  20  21
ATOM     21  C   UNL     1      99.653  99.827  95.498  1.00  0.00    -0.000 C 
BRANCH  21  22
ATOM     22  C   UNL     1      99.797  98.815  96.644  1.00  0.00    -0.000 C 
BRANCH  22  23
ATOM     23  C   UNL     1     100.428  97.487  96.193  1.00  0.00    -0.000 C 
BRANCH  23  24
ATOM     24  C   UNL     1      99.493  96.264  96.274  1.00  0.00    -0.000 C 
BRANCH  24  25
ATOM     25  C   UNL     1      99.185  95.809  97.716  1.00  0.00    -0.003 C 
ATOM     26  C   UNL     1      98.627  94.387  97.775  1.00  0.00     0.004 C 
ENDBRANCH  24  25
ENDBRANCH  23  24
ENDBRANCH  22  23
ENDBRANCH  21  22
ENDBRANCH  20  21
ENDBRANCH  19  20
ENDBRANCH  18  19
ENDBRANCH  17  18
ENDBRANCH  16  17
ENDBRANCH  15  16
ENDBRANCH   1  15
TORSDOF 22
ENDMDL
MODEL 6
REMARK VINA RESULT:    -3.950      2.068      3.209
REMARK INTER + INTRA:         -13.110
REMARK INTER:                  -9.030
REMARK INTRA:                  -4.080
REMARK UNBOUND:                -4.079
REMARK SMILES CCCCCCCCCCCCCCCCCCCCCCCC(=O)[O-]
REMARK SMILES IDX 13 1 14 2 15 3 16 4 17 5 18 6 19 7 20 8 21 9 22 10 23 11
REMARK SMILES IDX 24 12 25 13 26 14 12 15 11 16 10 17 9 18 8 19 7 20 6 21 5 22
REMARK SMILES IDX 4 23 3 24 2 25 1 26
REMARK H PARENT
REMARK Flexibility Score: inf
ROOT
ATOM      1  C   UNL     1     104.276  97.001  97.627  1.00  0.00     0.000 C 
ENDROOT
BRANCH   1   2
ATOM      2  C   UNL     1     105.225  97.093  96.421  1.00  0.00     0.000 C 
BRANCH   2   3
ATOM      3  C   UNL     1     104.560  97.730  95.187  1.00  0.00     0.000 C 
BRANCH   3   4
ATOM      4  C   UNL     1     103.116  98.227  95.404  1.00  0.00     0.000 C 
BRANCH   4   5
ATOM      5  C   UNL     1     102.903  99.742  95.204  1.00  0.00     0.000 C 
BRANCH   5   6
ATOM      6  C   UNL     1     102.160 100.452  96.351  1.00  0.00     0.000 C 
BRANCH   6   7
ATOM      7  C   UNL     1     102.866 100.388  97.718  1.00  0.00     0.000 C 
BRANCH   7   8
ATOM      8  C   UNL     1     104.172 101.209  97.782  1.00  0.00     0.000 C 
BRANCH   8   9
ATOM      9  C   UNL     1     105.374 100.366  98.242  1.00  0.00     0.000 C 
BRANCH   9  10
ATOM     10  C   UNL     1     106.607 100.540  97.333  1.00  0.00     0.006 C 
BRANCH  10  11
ATOM     11  C   UNL     1     106.285 101.034  95.914  1.00  0.00     0.053 C 
BRANCH  11  12
ATOM     12  C   UNL     1     107.057 100.286  94.872  1.00  0.00     0.041 C 
ATOM     13  O   UNL     1     107.802  99.325  95.201  1.00  0.00    -0.550 OA
ATOM     14  O   UNL     1     106.977 100.669  93.539  1.00  0.00    -0.550 OA
ENDBRANCH  11  12
ENDBRANCH  10  11
ENDBRANCH   9  10
ENDBRANCH   8   9
ENDBRANCH   7   8
ENDBRANCH   6   7
ENDBRANCH   5   6
ENDBRANCH   4   5
ENDBRANCH   3   4
ENDBRANCH   2   3
ENDBRANCH   1   2
BRANCH   1  15
ATOM     15  C   UNL     1     104.080  95.558  98.119  1.00  0.00     0.000 C 
BRANCH  15  16
ATOM     16  C   UNL     1     102.742  95.357  98.850  1.00  0.00     0.000 C 
BRANCH  16  17
ATOM     17  C   UNL     1     101.773  96.540  98.664  1.00  0.00     0.000 C 
BRANCH  17  18
ATOM     18  C   UNL     1     100.534  96.245  97.799  1.00  0.00    -0.000 C 
BRANCH  18  19
ATOM     19  C   UNL     1      99.301  97.063  98.219  1.00  0.00    -0.000 C 
BRANCH  19  20
ATOM     20  C   UNL     1      99.622  98.551  98.435  1.00  0.00    -0.000 C 
BRANCH  20  21
ATOM     21  C   UNL     1      99.305  99.028  99.861  1.00  0.00    -0.000 C 
BRANCH  21  22
ATOM     22  C   UNL     1     100.180 100.232 100.241  1.00  0.00    -0.000 C 
BRANCH  22  23
ATOM     23  C   UNL     1     101.008  99.989 101.515  1.00  0.00    -0.000 C 
BRANCH  23  24
ATOM     24  C   UNL     1     101.974  98.790 101.442  1.00  0.00    -0.000 C 
BRANCH  24  25
ATOM     25  C   UNL     1     102.209  98.095 102.799  1.00  0.00    -0.003 C 
ATOM     26  C   UNL     1     101.451  98.770 103.942  1.00  0.00     0.004 C 
ENDBRANCH  24  25
ENDBRANCH  23  24
ENDBRANCH  22  23
ENDBRANCH  21  22
ENDBRANCH  20  21
ENDBRANCH  19  20
ENDBRANCH  18  19
ENDBRANCH  17  18
ENDBRANCH  16  17
ENDBRANCH  15  16
ENDBRANCH   1  15
TORSDOF 22
ENDMDL
MODEL 7
REMARK VINA RESULT:    -3.871      1.708      3.870
REMARK INTER + INTRA:         -12.928
REMARK INTER:                  -9.242
REMARK INTRA:                  -3.686
REMARK UNBOUND:                -4.079
REMARK SMILES CCCCCCCCCCCCCCCCCCCCCCCC(=O)[O-]
REMARK SMILES IDX 13 1 14 2 15 3 16 4 17 5 18 6 19 7 20 8 21 9 22 10 23 11
REMARK SMILES IDX 24 12 25 13 26 14 12 15 11 16 10 17 9 18 8 19 7 20 6 21 5 22
REMARK SMILES IDX 4 23 3 24 2 25 1 26
REMARK H PARENT
REMARK Flexibility Score: inf
ROOT
ATOM      1  C   UNL     1     101.954 101.310  97.487  1.00  0.00     0.000 C 
ENDROOT
BRANCH   1   2
ATOM      2  C   UNL     1     100.918 100.588  98.366  1.00  0.00     0.000 C 
BRANCH   2   3
ATOM      3  C   UNL     1     101.544  99.942  99.616  1.00  0.00     0.000 C 
BRANCH   3   4
ATOM      4  C   UNL     1     101.325  98.421  99.746  1.00  0.00     0.000 C 
BRANCH   4   5
ATOM      5  C   UNL     1     102.602  97.592  99.997  1.00  0.00     0.000 C 
BRANCH   5   6
ATOM      6  C   UNL     1     102.574  96.163  99.422  1.00  0.00     0.000 C 
BRANCH   6   7
ATOM      7  C   UNL     1     103.600  95.894  98.306  1.00  0.00     0.000 C 
BRANCH   7   8
ATOM      8  C   UNL     1     104.081  97.170  97.582  1.00  0.00     0.000 C 
BRANCH   8   9
ATOM      9  C   UNL     1     105.120  96.868  96.489  1.00  0.00     0.000 C 
BRANCH   9  10
ATOM     10  C   UNL     1     105.149  97.939  95.381  1.00  0.00     0.006 C 
BRANCH  10  11
ATOM     11  C   UNL     1     106.538  98.545  95.121  1.00  0.00     0.053 C 
BRANCH  11  12
ATOM     12  C   UNL     1     106.462 100.010  94.820  1.00  0.00     0.041 C 
ATOM     13  O   UNL     1     106.897 100.457  93.725  1.00  0.00    -0.550 OA
ATOM     14  O   UNL     1     105.938 100.887  95.761  1.00  0.00    -0.550 OA
ENDBRANCH  11  12
ENDBRANCH  10  11
ENDBRANCH   9  10
ENDBRANCH   8   9
ENDBRANCH   7   8
ENDBRANCH   6   7
ENDBRANCH   5   6
ENDBRANCH   4   5
ENDBRANCH   3   4
ENDBRANCH   2   3
ENDBRANCH   1   2
BRANCH   1  15
ATOM     15  C   UNL     1     102.034 100.729  96.067  1.00  0.00     0.000 C 
BRANCH  15  16
ATOM     16  C   UNL     1     100.921  99.706  95.782  1.00  0.00     0.000 C 
BRANCH  16  17
ATOM     17  C   UNL     1     101.427  98.251  95.791  1.00  0.00     0.000 C 
BRANCH  17  18
ATOM     18  C   UNL     1     100.530  97.247  96.539  1.00  0.00    -0.000 C 
BRANCH  18  19
ATOM     19  C   UNL     1      99.463  96.607  95.635  1.00  0.00    -0.000 C 
BRANCH  19  20
ATOM     20  C   UNL     1      98.916  95.289  96.207  1.00  0.00    -0.000 C 
BRANCH  20  21
ATOM     21  C   UNL     1      99.044  95.203  97.735  1.00  0.00    -0.000 C 
BRANCH  21  22
ATOM     22  C   UNL     1      97.699  94.832  98.377  1.00  0.00    -0.000 C 
BRANCH  22  23
ATOM     23  C   UNL     1      97.034  96.017  99.099  1.00  0.00    -0.000 C 
BRANCH  23  24
ATOM     24  C   UNL     1      97.803  97.349  99.002  1.00  0.00    -0.000 C 
BRANCH  24  25
ATOM     25  C   UNL     1      96.936  98.537  98.537  1.00  0.00    -0.003 C 
ATOM     26  C   UNL     1      97.568  99.304  97.375  1.00  0.00     0.004 C 
ENDBRANCH  24  25
ENDBRANCH  23  24
ENDBRANCH  22  23
ENDBRANCH  21  22
ENDBRANCH  20  21
ENDBRANCH  19  20
ENDBRANCH  18  19
ENDBRANCH  17  18
ENDBRANCH  16  17
ENDBRANCH  15  16
ENDBRANCH   1  15
TORSDOF 22
ENDMDL
MODEL 8
REMARK VINA RESULT:    -3.834      1.928      4.029
REMARK INTER + INTRA:         -12.844
REMARK INTER:                  -8.821
REMARK INTRA:                  -4.023
REMARK UNBOUND:                -4.079
REMARK SMILES CCCCCCCCCCCCCCCCCCCCCCCC(=O)[O-]
REMARK SMILES IDX 13 1 14 2 15 3 16 4 17 5 18 6 19 7 20 8 21 9 22 10 23 11
REMARK SMILES IDX 24 12 25 13 26 14 12 15 11 16 10 17 9 18 8 19 7 20 6 21 5 22
REMARK SMILES IDX 4 23 3 24 2 25 1 26
REMARK H PARENT
REMARK Flexibility Score: inf
ROOT
ATOM      1  C   UNL     1     103.850  96.993  97.287  1.00  0.00     0.000 C 
ENDROOT
BRANCH   1   2
ATOM      2  C   UNL     1     103.723  95.898  98.360  1.00  0.00     0.000 C 
BRANCH   2   3
ATOM      3  C   UNL     1     102.523  96.122  99.299  1.00  0.00     0.000 C 
BRANCH   3   4
ATOM      4  C   UNL     1     102.612  97.378 100.189  1.00  0.00     0.000 C 
BRANCH   4   5
ATOM      5  C   UNL     1     101.488  98.413  99.981  1.00  0.00     0.000 C 
BRANCH   5   6
ATOM      6  C   UNL     1     101.878  99.636  99.129  1.00  0.00     0.000 C 
BRANCH   6   7
ATOM      7  C   UNL     1     102.392 100.846  99.930  1.00  0.00     0.000 C 
BRANCH   7   8
ATOM      8  C   UNL     1     103.650 101.504  99.324  1.00  0.00     0.000 C 
BRANCH   8   9
ATOM      9  C   UNL     1     104.337 100.607  98.281  1.00  0.00     0.000 C 
BRANCH   9  10
ATOM     10  C   UNL     1     105.611  99.929  98.822  1.00  0.00     0.006 C 
BRANCH  10  11
ATOM     11  C   UNL     1     106.812  99.979  97.865  1.00  0.00     0.053 C 
BRANCH  11  12
ATOM     12  C   UNL     1     108.114  99.841  98.592  1.00  0.00     0.041 C 
ATOM     13  O   UNL     1     109.198  99.808  97.952  1.00  0.00    -0.550 OA
ATOM     14  O   UNL     1     108.128  99.720  99.975  1.00  0.00    -0.550 OA
ENDBRANCH  11  12
ENDBRANCH  10  11
ENDBRANCH   9  10
ENDBRANCH   8   9
ENDBRANCH   7   8
ENDBRANCH   6   7
ENDBRANCH   5   6
ENDBRANCH   4   5
ENDBRANCH   3   4
ENDBRANCH   2   3
ENDBRANCH   1   2
BRANCH   1  15
ATOM     15  C   UNL     1     105.221  96.984  96.591  1.00  0.00     0.000 C 
BRANCH  15  16
ATOM     16  C   UNL     1     105.228  97.801  95.287  1.00  0.00     0.000 C 
BRANCH  16  17
ATOM     17  C   UNL     1     103.855  98.414  94.955  1.00  0.00     0.000 C 
BRANCH  17  18
ATOM     18  C   UNL     1     103.866  99.922  94.644  1.00  0.00    -0.000 C 
BRANCH  18  19
ATOM     19  C   UNL     1     102.501 100.592  94.872  1.00  0.00    -0.000 C 
BRANCH  19  20
ATOM     20  C   UNL     1     101.576  99.759  95.774  1.00  0.00    -0.000 C 
BRANCH  20  21
ATOM     21  C   UNL     1     100.087 100.045  95.526  1.00  0.00    -0.000 C 
BRANCH  21  22
ATOM     22  C   UNL     1      99.215  98.892  96.046  1.00  0.00    -0.000 C 
BRANCH  22  23
ATOM     23  C   UNL     1     100.044  97.727  96.615  1.00  0.00    -0.000 C 
BRANCH  23  24
ATOM     24  C   UNL     1      99.460  96.326  96.347  1.00  0.00    -0.000 C 
BRANCH  24  25
ATOM     25  C   UNL     1      99.450  95.407  97.587  1.00  0.00    -0.003 C 
ATOM     26  C   UNL     1      98.034  95.062  98.049  1.00  0.00     0.004 C 
ENDBRANCH  24  25
ENDBRANCH  23  24
ENDBRANCH  22  23
ENDBRANCH  21  22
ENDBRANCH  20  21
ENDBRANCH  19  20
ENDBRANCH  18  19
ENDBRANCH  17  18
ENDBRANCH  16  17
ENDBRANCH  15  16
ENDBRANCH   1  15
TORSDOF 22
ENDMDL
MODEL 9
REMARK VINA RESULT:    -3.782      4.310      8.332
REMARK INTER + INTRA:         -12.725
REMARK INTER:                  -8.662
REMARK INTRA:                  -4.063
REMARK UNBOUND:                -4.079
REMARK SMILES CCCCCCCCCCCCCCCCCCCCCCCC(=O)[O-]
REMARK SMILES IDX 13 1 14 2 15 3 16 4 17 5 18 6 19 7 20 8 21 9 22 10 23 11
REMARK SMILES IDX 24 12 25 13 26 14 12 15 11 16 10 17 9 18 8 19 7 20 6 21 5 22
REMARK SMILES IDX 4 23 3 24 2 25 1 26
REMARK H PARENT
REMARK Flexibility Score: inf
ROOT
ATOM      1  C   UNL     1     100.232  99.246 100.701  1.00  0.00     0.000 C 
ENDROOT
BRANCH   1   2
ATOM      2  C   UNL     1     101.718  99.101 101.071  1.00  0.00     0.000 C 
BRANCH   2   3
ATOM      3  C   UNL     1     102.660  99.520  99.927  1.00  0.00     0.000 C 
BRANCH   3   4
ATOM      4  C   UNL     1     103.446  98.368  99.270  1.00  0.00     0.000 C 
BRANCH   4   5
ATOM      5  C   UNL     1     102.658  97.054  99.084  1.00  0.00     0.000 C 
BRANCH   5   6
ATOM      6  C   UNL     1     101.820  96.974  97.794  1.00  0.00     0.000 C 
BRANCH   6   7
ATOM      7  C   UNL     1     100.307  96.791  98.015  1.00  0.00     0.000 C 
BRANCH   7   8
ATOM      8  C   UNL     1      99.482  96.809  96.710  1.00  0.00     0.000 C 
BRANCH   8   9
ATOM      9  C   UNL     1      98.922  95.422  96.350  1.00  0.00     0.000 C 
BRANCH   9  10
ATOM     10  C   UNL     1      98.840  94.478  97.565  1.00  0.00     0.006 C 
BRANCH  10  11
ATOM     11  C   UNL     1      97.408  94.113  97.989  1.00  0.00     0.053 C 
BRANCH  11  12
ATOM     12  C   UNL     1      96.954  94.907  99.174  1.00  0.00     0.041 C 
ATOM     13  O   UNL     1      96.623  94.324 100.241  1.00  0.00    -0.550 OA
ATOM     14  O   UNL     1      96.868  96.291  99.092  1.00  0.00    -0.550 OA
ENDBRANCH  11  12
ENDBRANCH  10  11
ENDBRANCH   9  10
ENDBRANCH   8   9
ENDBRANCH   7   8
ENDBRANCH   6   7
ENDBRANCH   5   6
ENDBRANCH   4   5
ENDBRANCH   3   4
ENDBRANCH   2   3
ENDBRANCH   1   2
BRANCH   1  15
ATOM     15  C   UNL     1      99.929 100.565  99.972  1.00  0.00     0.000 C 
BRANCH  15  16
ATOM     16  C   UNL     1      99.294 100.345  98.588  1.00  0.00     0.000 C 
BRANCH  16  17
ATOM     17  C   UNL     1     100.053 101.066  97.458  1.00  0.00     0.000 C 
BRANCH  17  18
ATOM     18  C   UNL     1      99.800 100.519  96.042  1.00  0.00    -0.000 C 
BRANCH  18  19
ATOM     19  C   UNL     1     101.077  99.992  95.365  1.00  0.00    -0.000 C 
BRANCH  19  20
ATOM     20  C   UNL     1     102.342 100.262  96.195  1.00  0.00    -0.000 C 
BRANCH  20  21
ATOM     21  C   UNL     1     103.628  99.817  95.483  1.00  0.00    -0.000 C 
BRANCH  21  22
ATOM     22  C   UNL     1     103.590  98.312  95.176  1.00  0.00    -0.000 C 
BRANCH  22  23
ATOM     23  C   UNL     1     104.992  97.697  95.026  1.00  0.00    -0.000 C 
BRANCH  23  24
ATOM     24  C   UNL     1     105.640  97.230  96.344  1.00  0.00    -0.000 C 
BRANCH  24  25
ATOM     25  C   UNL     1     106.645  98.240  96.937  1.00  0.00    -0.003 C 
ATOM     26  C   UNL     1     107.442  98.975  95.860  1.00  0.00     0.004 C 
ENDBRANCH  24  25
ENDBRANCH  23  24
ENDBRANCH  22  23
ENDBRANCH  21  22
ENDBRANCH  20  21
ENDBRANCH  19  20
ENDBRANCH  18  19
ENDBRANCH  17  18
ENDBRANCH  16  17
ENDBRANCH  15  16
ENDBRANCH   1  15
TORSDOF 22
ENDMDL
