MODEL 1
REMARK VINA RESULT:    -4.580      0.000      0.000
REMARK INTER + INTRA:         -11.506
REMARK INTER:                  -9.935
REMARK INTRA:                  -1.571
REMARK UNBOUND:                -1.571
REMARK SMILES CCCCCCCCCCCCCCCCCCCCCC(=O)[O-]
REMARK SMILES IDX 12 1 11 2 10 3 9 4 8 5 7 6 6 7 5 8 4 9 3 10 2 11 1 12 13 13
REMARK SMILES IDX 14 14 15 15 16 16 17 17 18 18 19 19 20 20 21 21 22 22 23 23
REMARK SMILES IDX 24 24
REMARK H PARENT
REMARK Flexibility Score: inf
ROOT
ATOM      1  C   UNL     1      38.187  31.452  27.844  1.00  0.00     0.000 C 
ENDROOT
BRANCH   1   2
ATOM      2  C   UNL     1      37.079  31.287  28.901  1.00  0.00     0.000 C 
BRANCH   2   3
ATOM      3  C   UNL     1      36.771  29.815  29.221  1.00  0.00     0.000 C 
BRANCH   3   4
ATOM      4  C   UNL     1      35.328  29.422  28.863  1.00  0.00    -0.000 C 
BRANCH   4   5
ATOM      5  C   UNL     1      35.101  27.900  28.891  1.00  0.00    -0.000 C 
BRANCH   5   6
ATOM      6  C   UNL     1      34.010  27.488  29.895  1.00  0.00    -0.000 C 
BRANCH   6   7
ATOM      7  C   UNL     1      32.969  28.597  30.122  1.00  0.00    -0.000 C 
BRANCH   7   8
ATOM      8  C   UNL     1      31.590  28.256  29.525  1.00  0.00    -0.000 C 
BRANCH   8   9
ATOM      9  C   UNL     1      31.453  26.822  28.982  1.00  0.00    -0.000 C 
BRANCH   9  10
ATOM     10  C   UNL     1      31.144  26.780  27.477  1.00  0.00    -0.000 C 
BRANCH  10  11
ATOM     11  C   UNL     1      32.284  26.153  26.660  1.00  0.00    -0.003 C 
ATOM     12  C   UNL     1      32.870  27.116  25.628  1.00  0.00     0.004 C 
ENDBRANCH  10  11
ENDBRANCH   9  10
ENDBRANCH   8   9
ENDBRANCH   7   8
ENDBRANCH   6   7
ENDBRANCH   5   6
ENDBRANCH   4   5
ENDBRANCH   3   4
ENDBRANCH   2   3
ENDBRANCH   1   2
BRANCH   1  13
ATOM     13  C   UNL     1      39.019  32.744  27.961  1.00  0.00     0.000 C 
BRANCH  13  14
ATOM     14  C   UNL     1      39.796  32.840  29.282  1.00  0.00     0.000 C 
BRANCH  14  15
ATOM     15  C   UNL     1      40.418  31.488  29.657  1.00  0.00     0.000 C 
BRANCH  15  16
ATOM     16  C   UNL     1      41.933  31.585  29.907  1.00  0.00     0.000 C 
BRANCH  16  17
ATOM     17  C   UNL     1      42.493  32.984  29.596  1.00  0.00     0.000 C 
BRANCH  17  18
ATOM     18  C   UNL     1      43.999  33.091  29.885  1.00  0.00     0.000 C 
BRANCH  18  19
ATOM     19  C   UNL     1      44.515  34.535  29.780  1.00  0.00     0.000 C 
BRANCH  19  20
ATOM     20  C   UNL     1      43.649  35.412  28.855  1.00  0.00     0.006 C 
BRANCH  20  21
ATOM     21  C   UNL     1      44.403  35.988  27.645  1.00  0.00     0.053 C 
BRANCH  21  22
ATOM     22  C   UNL     1      43.944  35.377  26.355  1.00  0.00     0.041 C 
ATOM     23  O   UNL     1      43.033  35.929  25.682  1.00  0.00    -0.550 OA
ATOM     24  O   UNL     1      44.505  34.188  25.910  1.00  0.00    -0.550 OA
ENDBRANCH  21  22
ENDBRANCH  20  21
ENDBRANCH  19  20
ENDBRANCH  18  19
ENDBRANCH  17  18
ENDBRANCH  16  17
ENDBRANCH  15  16
ENDBRANCH  14  15
ENDBRANCH  13  14
ENDBRANCH   1  13
TORSDOF 20
ENDMDL
MODEL 2
REMARK VINA RESULT:    -2.917     13.472     15.844
REMARK INTER + INTRA:          -7.899
REMARK INTER:                  -6.886
REMARK INTRA:                  -1.013
REMARK UNBOUND:                -1.571
REMARK SMILES CCCCCCCCCCCCCCCCCCCCCC(=O)[O-]
REMARK SMILES IDX 12 1 11 2 10 3 9 4 8 5 7 6 6 7 5 8 4 9 3 10 2 11 1 12 13 13
REMARK SMILES IDX 14 14 15 15 16 16 17 17 18 18 19 19 20 20 21 21 22 22 23 23
REMARK SMILES IDX 24 24
REMARK H PARENT
REMARK Flexibility Score: inf
ROOT
ATOM      1  C   UNL     1      41.473  26.879  18.624  1.00  0.00     0.000 C 
ENDROOT
BRANCH   1   2
ATOM      2  C   UNL     1      41.241  27.446  17.211  1.00  0.00     0.000 C 
BRANCH   2   3
ATOM      3  C   UNL     1      40.343  26.546  16.345  1.00  0.00     0.000 C 
BRANCH   3   4
ATOM      4  C   UNL     1      38.988  26.249  17.010  1.00  0.00    -0.000 C 
BRANCH   4   5
ATOM      5  C   UNL     1      37.849  26.077  15.989  1.00  0.00    -0.000 C 
BRANCH   5   6
ATOM      6  C   UNL     1      36.544  25.589  16.641  1.00  0.00    -0.000 C 
BRANCH   6   7
ATOM      7  C   UNL     1      35.311  25.858  15.763  1.00  0.00    -0.000 C 
BRANCH   7   8
ATOM      8  C   UNL     1      34.721  27.266  15.973  1.00  0.00    -0.000 C 
BRANCH   8   9
ATOM      9  C   UNL     1      35.030  28.275  14.853  1.00  0.00    -0.000 C 
BRANCH   9  10
ATOM     10  C   UNL     1      34.900  29.737  15.312  1.00  0.00    -0.000 C 
BRANCH  10  11
ATOM     11  C   UNL     1      35.128  30.735  14.166  1.00  0.00    -0.003 C 
ATOM     12  C   UNL     1      33.887  30.924  13.293  1.00  0.00     0.004 C 
ENDBRANCH  10  11
ENDBRANCH   9  10
ENDBRANCH   8   9
ENDBRANCH   7   8
ENDBRANCH   6   7
ENDBRANCH   5   6
ENDBRANCH   4   5
ENDBRANCH   3   4
ENDBRANCH   2   3
ENDBRANCH   1   2
BRANCH   1  13
ATOM     13  C   UNL     1      41.997  25.432  18.672  1.00  0.00     0.000 C 
BRANCH  13  14
ATOM     14  C   UNL     1      43.142  25.174  17.681  1.00  0.00     0.000 C 
BRANCH  14  15
ATOM     15  C   UNL     1      43.144  23.713  17.207  1.00  0.00     0.000 C 
BRANCH  15  16
ATOM     16  C   UNL     1      44.565  23.157  17.022  1.00  0.00     0.000 C 
BRANCH  16  17
ATOM     17  C   UNL     1      44.657  21.655  17.345  1.00  0.00     0.000 C 
BRANCH  17  18
ATOM     18  C   UNL     1      43.409  20.880  16.895  1.00  0.00     0.000 C 
BRANCH  18  19
ATOM     19  C   UNL     1      42.766  20.084  18.043  1.00  0.00     0.000 C 
BRANCH  19  20
ATOM     20  C   UNL     1      41.454  19.393  17.627  1.00  0.00     0.006 C 
BRANCH  20  21
ATOM     21  C   UNL     1      41.214  19.357  16.108  1.00  0.00     0.053 C 
BRANCH  21  22
ATOM     22  C   UNL     1      41.119  17.955  15.588  1.00  0.00     0.041 C 
ATOM     23  O   UNL     1      41.548  17.676  14.436  1.00  0.00    -0.550 OA
ATOM     24  O   UNL     1      40.537  16.961  16.365  1.00  0.00    -0.550 OA
ENDBRANCH  21  22
ENDBRANCH  20  21
ENDBRANCH  19  20
ENDBRANCH  18  19
ENDBRANCH  17  18
ENDBRANCH  16  17
ENDBRANCH  15  16
ENDBRANCH  14  15
ENDBRANCH  13  14
ENDBRANCH   1  13
TORSDOF 20
ENDMDL
MODEL 3
REMARK VINA RESULT:    -2.872     12.993     14.623
REMARK INTER + INTRA:          -7.801
REMARK INTER:                  -7.458
REMARK INTRA:                  -0.343
REMARK UNBOUND:                -1.571
REMARK SMILES CCCCCCCCCCCCCCCCCCCCCC(=O)[O-]
REMARK SMILES IDX 12 1 11 2 10 3 9 4 8 5 7 6 6 7 5 8 4 9 3 10 2 11 1 12 13 13
REMARK SMILES IDX 14 14 15 15 16 16 17 17 18 18 19 19 20 20 21 21 22 22 23 23
REMARK SMILES IDX 24 24
REMARK H PARENT
REMARK Flexibility Score: inf
ROOT
ATOM      1  C   UNL     1      40.394  26.274  17.749  1.00  0.00     0.000 C 
ENDROOT
BRANCH   1   2
ATOM      2  C   UNL     1      41.592  25.792  16.910  1.00  0.00     0.000 C 
BRANCH   2   3
ATOM      3  C   UNL     1      42.590  24.948  17.722  1.00  0.00     0.000 C 
BRANCH   3   4
ATOM      4  C   UNL     1      42.989  23.650  17.000  1.00  0.00    -0.000 C 
BRANCH   4   5
ATOM      5  C   UNL     1      44.484  23.318  17.155  1.00  0.00    -0.000 C 
BRANCH   5   6
ATOM      6  C   UNL     1      44.723  21.844  17.525  1.00  0.00    -0.000 C 
BRANCH   6   7
ATOM      7  C   UNL     1      43.700  20.900  16.872  1.00  0.00    -0.000 C 
BRANCH   7   8
ATOM      8  C   UNL     1      42.782  20.209  17.900  1.00  0.00    -0.000 C 
BRANCH   8   9
ATOM      9  C   UNL     1      41.586  19.451  17.297  1.00  0.00    -0.000 C 
BRANCH   9  10
ATOM     10  C   UNL     1      41.557  19.504  15.761  1.00  0.00    -0.000 C 
BRANCH  10  11
ATOM     11  C   UNL     1      41.288  18.129  15.130  1.00  0.00    -0.003 C 
ATOM     12  C   UNL     1      40.597  17.164  16.093  1.00  0.00     0.004 C 
ENDBRANCH  10  11
ENDBRANCH   9  10
ENDBRANCH   8   9
ENDBRANCH   7   8
ENDBRANCH   6   7
ENDBRANCH   5   6
ENDBRANCH   4   5
ENDBRANCH   3   4
ENDBRANCH   2   3
ENDBRANCH   1   2
BRANCH   1  13
ATOM     13  C   UNL     1      40.728  27.319  18.830  1.00  0.00     0.000 C 
BRANCH  13  14
ATOM     14  C   UNL     1      41.742  28.370  18.357  1.00  0.00     0.000 C 
BRANCH  14  15
ATOM     15  C   UNL     1      41.415  28.854  16.937  1.00  0.00     0.000 C 
BRANCH  15  16
ATOM     16  C   UNL     1      42.569  29.651  16.306  1.00  0.00     0.000 C 
BRANCH  16  17
ATOM     17  C   UNL     1      42.257  31.153  16.194  1.00  0.00     0.000 C 
BRANCH  17  18
ATOM     18  C   UNL     1      43.515  31.996  15.929  1.00  0.00     0.000 C 
BRANCH  18  19
ATOM     19  C   UNL     1      44.753  31.129  15.646  1.00  0.00     0.000 C 
BRANCH  19  20
ATOM     20  C   UNL     1      45.938  31.461  16.573  1.00  0.00     0.006 C 
BRANCH  20  21
ATOM     21  C   UNL     1      47.049  30.398  16.581  1.00  0.00     0.053 C 
BRANCH  21  22
ATOM     22  C   UNL     1      47.668  30.221  15.228  1.00  0.00     0.041 C 
ATOM     23  O   UNL     1      46.940  29.998  14.223  1.00  0.00    -0.550 OA
ATOM     24  O   UNL     1      49.047  30.279  15.080  1.00  0.00    -0.550 OA
ENDBRANCH  21  22
ENDBRANCH  20  21
ENDBRANCH  19  20
ENDBRANCH  18  19
ENDBRANCH  17  18
ENDBRANCH  16  17
ENDBRANCH  15  16
ENDBRANCH  14  15
ENDBRANCH  13  14
ENDBRANCH   1  13
TORSDOF 20
ENDMDL
MODEL 4
REMARK VINA RESULT:    -2.760     13.107     15.975
REMARK INTER + INTRA:          -7.558
REMARK INTER:                  -6.962
REMARK INTRA:                  -0.596
REMARK UNBOUND:                -1.571
REMARK SMILES CCCCCCCCCCCCCCCCCCCCCC(=O)[O-]
REMARK SMILES IDX 12 1 11 2 10 3 9 4 8 5 7 6 6 7 5 8 4 9 3 10 2 11 1 12 13 13
REMARK SMILES IDX 14 14 15 15 16 16 17 17 18 18 19 19 20 20 21 21 22 22 23 23
REMARK SMILES IDX 24 24
REMARK H PARENT
REMARK Flexibility Score: inf
ROOT
ATOM      1  C   UNL     1      41.017  26.946  19.000  1.00  0.00     0.000 C 
ENDROOT
BRANCH   1   2
ATOM      2  C   UNL     1      41.708  25.570  18.996  1.00  0.00     0.000 C 
BRANCH   2   3
ATOM      3  C   UNL     1      42.511  25.307  17.710  1.00  0.00     0.000 C 
BRANCH   3   4
ATOM      4  C   UNL     1      43.727  24.396  17.950  1.00  0.00    -0.000 C 
BRANCH   4   5
ATOM      5  C   UNL     1      43.968  23.410  16.793  1.00  0.00    -0.000 C 
BRANCH   5   6
ATOM      6  C   UNL     1      44.811  22.197  17.222  1.00  0.00    -0.000 C 
BRANCH   6   7
ATOM      7  C   UNL     1      44.137  20.858  16.875  1.00  0.00    -0.000 C 
BRANCH   7   8
ATOM      8  C   UNL     1      43.286  20.299  18.032  1.00  0.00    -0.000 C 
BRANCH   8   9
ATOM      9  C   UNL     1      41.876  19.828  17.634  1.00  0.00    -0.000 C 
BRANCH   9  10
ATOM     10  C   UNL     1      41.743  19.547  16.128  1.00  0.00    -0.000 C 
BRANCH  10  11
ATOM     11  C   UNL     1      40.517  18.681  15.798  1.00  0.00    -0.003 C 
ATOM     12  C   UNL     1      40.836  17.187  15.789  1.00  0.00     0.004 C 
ENDBRANCH  10  11
ENDBRANCH   9  10
ENDBRANCH   8   9
ENDBRANCH   7   8
ENDBRANCH   6   7
ENDBRANCH   5   6
ENDBRANCH   4   5
ENDBRANCH   3   4
ENDBRANCH   2   3
ENDBRANCH   1   2
BRANCH   1  13
ATOM     13  C   UNL     1      40.834  27.593  17.614  1.00  0.00     0.000 C 
BRANCH  13  14
ATOM     14  C   UNL     1      40.110  26.679  16.615  1.00  0.00     0.000 C 
BRANCH  14  15
ATOM     15  C   UNL     1      38.720  26.283  17.135  1.00  0.00     0.000 C 
BRANCH  15  16
ATOM     16  C   UNL     1      37.655  26.282  16.026  1.00  0.00     0.000 C 
BRANCH  16  17
ATOM     17  C   UNL     1      36.365  25.559  16.448  1.00  0.00     0.000 C 
BRANCH  17  18
ATOM     18  C   UNL     1      35.116  26.141  15.768  1.00  0.00     0.000 C 
BRANCH  18  19
ATOM     19  C   UNL     1      35.015  27.666  15.931  1.00  0.00     0.000 C 
BRANCH  19  20
ATOM     20  C   UNL     1      34.958  28.408  14.582  1.00  0.00     0.006 C 
BRANCH  20  21
ATOM     21  C   UNL     1      34.983  29.941  14.704  1.00  0.00     0.053 C 
BRANCH  21  22
ATOM     22  C   UNL     1      34.216  30.604  13.600  1.00  0.00     0.041 C 
ATOM     23  O   UNL     1      34.212  30.105  12.443  1.00  0.00    -0.550 OA
ATOM     24  O   UNL     1      33.526  31.784  13.844  1.00  0.00    -0.550 OA
ENDBRANCH  21  22
ENDBRANCH  20  21
ENDBRANCH  19  20
ENDBRANCH  18  19
ENDBRANCH  17  18
ENDBRANCH  16  17
ENDBRANCH  15  16
ENDBRANCH  14  15
ENDBRANCH  13  14
ENDBRANCH   1  13
TORSDOF 20
ENDMDL
MODEL 5
REMARK VINA RESULT:    -2.732     13.506     17.110
REMARK INTER + INTRA:          -7.497
REMARK INTER:                  -7.478
REMARK INTRA:                  -0.018
REMARK UNBOUND:                -1.571
REMARK SMILES CCCCCCCCCCCCCCCCCCCCCC(=O)[O-]
REMARK SMILES IDX 12 1 11 2 10 3 9 4 8 5 7 6 6 7 5 8 4 9 3 10 2 11 1 12 13 13
REMARK SMILES IDX 14 14 15 15 16 16 17 17 18 18 19 19 20 20 21 21 22 22 23 23
REMARK SMILES IDX 24 24
REMARK H PARENT
REMARK Flexibility Score: inf
ROOT
ATOM      1  C   UNL     1      40.169  26.360  17.619  1.00  0.00     0.000 C 
ENDROOT
BRANCH   1   2
ATOM      2  C   UNL     1      40.558  27.072  18.928  1.00  0.00     0.000 C 
BRANCH   2   3
ATOM      3  C   UNL     1      41.429  28.318  18.696  1.00  0.00     0.000 C 
BRANCH   3   4
ATOM      4  C   UNL     1      41.180  28.966  17.324  1.00  0.00    -0.000 C 
BRANCH   4   5
ATOM      5  C   UNL     1      42.477  29.443  16.647  1.00  0.00    -0.000 C 
BRANCH   5   6
ATOM      6  C   UNL     1      42.271  30.725  15.821  1.00  0.00    -0.000 C 
BRANCH   6   7
ATOM      7  C   UNL     1      43.241  31.848  16.225  1.00  0.00    -0.000 C 
BRANCH   7   8
ATOM      8  C   UNL     1      44.531  31.857  15.382  1.00  0.00    -0.000 C 
BRANCH   8   9
ATOM      9  C   UNL     1      45.735  31.146  16.027  1.00  0.00    -0.000 C 
BRANCH   9  10
ATOM     10  C   UNL     1      46.598  30.387  15.005  1.00  0.00    -0.000 C 
BRANCH  10  11
ATOM     11  C   UNL     1      47.950  29.950  15.589  1.00  0.00    -0.003 C 
ATOM     12  C   UNL     1      49.129  30.320  14.689  1.00  0.00     0.004 C 
ENDBRANCH  10  11
ENDBRANCH   9  10
ENDBRANCH   8   9
ENDBRANCH   7   8
ENDBRANCH   6   7
ENDBRANCH   5   6
ENDBRANCH   4   5
ENDBRANCH   3   4
ENDBRANCH   2   3
ENDBRANCH   1   2
BRANCH   1  13
ATOM     13  C   UNL     1      41.351  25.875  16.759  1.00  0.00     0.000 C 
BRANCH  13  14
ATOM     14  C   UNL     1      42.481  25.249  17.590  1.00  0.00     0.000 C 
BRANCH  14  15
ATOM     15  C   UNL     1      43.166  24.111  16.821  1.00  0.00     0.000 C 
BRANCH  15  16
ATOM     16  C   UNL     1      44.407  23.570  17.551  1.00  0.00     0.000 C 
BRANCH  16  17
ATOM     17  C   UNL     1      44.863  22.205  17.007  1.00  0.00     0.000 C 
BRANCH  17  18
ATOM     18  C   UNL     1      44.268  21.030  17.798  1.00  0.00     0.000 C 
BRANCH  18  19
ATOM     19  C   UNL     1      43.076  20.380  17.075  1.00  0.00     0.000 C 
BRANCH  19  20
ATOM     20  C   UNL     1      42.072  19.731  18.046  1.00  0.00     0.006 C 
BRANCH  20  21
ATOM     21  C   UNL     1      40.819  19.154  17.365  1.00  0.00     0.053 C 
BRANCH  21  22
ATOM     22  C   UNL     1      41.101  18.696  15.966  1.00  0.00     0.041 C 
ATOM     23  O   UNL     1      41.530  19.513  15.107  1.00  0.00    -0.550 OA
ATOM     24  O   UNL     1      40.868  17.376  15.605  1.00  0.00    -0.550 OA
ENDBRANCH  21  22
ENDBRANCH  20  21
ENDBRANCH  19  20
ENDBRANCH  18  19
ENDBRANCH  17  18
ENDBRANCH  16  17
ENDBRANCH  15  16
ENDBRANCH  14  15
ENDBRANCH  13  14
ENDBRANCH   1  13
TORSDOF 20
ENDMDL
MODEL 6
REMARK VINA RESULT:    -2.657     13.102     16.090
REMARK INTER + INTRA:          -7.334
REMARK INTER:                  -5.960
REMARK INTRA:                  -1.374
REMARK UNBOUND:                -1.571
REMARK SMILES CCCCCCCCCCCCCCCCCCCCCC(=O)[O-]
REMARK SMILES IDX 12 1 11 2 10 3 9 4 8 5 7 6 6 7 5 8 4 9 3 10 2 11 1 12 13 13
REMARK SMILES IDX 14 14 15 15 16 16 17 17 18 18 19 19 20 20 21 21 22 22 23 23
REMARK SMILES IDX 24 24
REMARK H PARENT
REMARK Flexibility Score: inf
ROOT
ATOM      1  C   UNL     1      40.368  26.751  16.526  1.00  0.00     0.000 C 
ENDROOT
BRANCH   1   2
ATOM      2  C   UNL     1      41.801  26.201  16.649  1.00  0.00     0.000 C 
BRANCH   2   3
ATOM      3  C   UNL     1      42.055  25.485  17.987  1.00  0.00     0.000 C 
BRANCH   3   4
ATOM      4  C   UNL     1      43.365  24.679  17.986  1.00  0.00    -0.000 C 
BRANCH   4   5
ATOM      5  C   UNL     1      43.384  23.578  16.912  1.00  0.00    -0.000 C 
BRANCH   5   6
ATOM      6  C   UNL     1      44.687  22.759  16.933  1.00  0.00    -0.000 C 
BRANCH   6   7
ATOM      7  C   UNL     1      44.429  21.245  17.019  1.00  0.00    -0.000 C 
BRANCH   7   8
ATOM      8  C   UNL     1      43.484  20.863  18.175  1.00  0.00    -0.000 C 
BRANCH   8   9
ATOM      9  C   UNL     1      42.441  19.785  17.833  1.00  0.00    -0.000 C 
BRANCH   9  10
ATOM     10  C   UNL     1      42.104  19.733  16.334  1.00  0.00    -0.000 C 
BRANCH  10  11
ATOM     11  C   UNL     1      40.770  19.023  16.055  1.00  0.00    -0.003 C 
ATOM     12  C   UNL     1      40.956  17.588  15.562  1.00  0.00     0.004 C 
ENDBRANCH  10  11
ENDBRANCH   9  10
ENDBRANCH   8   9
ENDBRANCH   7   8
ENDBRANCH   6   7
ENDBRANCH   5   6
ENDBRANCH   4   5
ENDBRANCH   3   4
ENDBRANCH   2   3
ENDBRANCH   1   2
BRANCH   1  13
ATOM     13  C   UNL     1      39.537  26.713  17.822  1.00  0.00     0.000 C 
BRANCH  13  14
ATOM     14  C   UNL     1      38.279  25.840  17.705  1.00  0.00     0.000 C 
BRANCH  14  15
ATOM     15  C   UNL     1      37.682  25.919  16.293  1.00  0.00     0.000 C 
BRANCH  15  16
ATOM     16  C   UNL     1      36.233  25.406  16.237  1.00  0.00     0.000 C 
BRANCH  16  17
ATOM     17  C   UNL     1      35.270  26.428  15.609  1.00  0.00     0.000 C 
BRANCH  17  18
ATOM     18  C   UNL     1      34.615  27.340  16.659  1.00  0.00     0.000 C 
BRANCH  18  19
ATOM     19  C   UNL     1      34.616  28.818  16.234  1.00  0.00     0.000 C 
BRANCH  19  20
ATOM     20  C   UNL     1      35.004  29.013  14.757  1.00  0.00     0.006 C 
BRANCH  20  21
ATOM     21  C   UNL     1      35.070  30.484  14.311  1.00  0.00     0.053 C 
BRANCH  21  22
ATOM     22  C   UNL     1      33.985  30.824  13.335  1.00  0.00     0.041 C 
ATOM     23  O   UNL     1      33.901  30.206  12.240  1.00  0.00    -0.550 OA
ATOM     24  O   UNL     1      33.081  31.838  13.624  1.00  0.00    -0.550 OA
ENDBRANCH  21  22
ENDBRANCH  20  21
ENDBRANCH  19  20
ENDBRANCH  18  19
ENDBRANCH  17  18
ENDBRANCH  16  17
ENDBRANCH  15  16
ENDBRANCH  14  15
ENDBRANCH  13  14
ENDBRANCH   1  13
TORSDOF 20
ENDMDL
MODEL 7
REMARK VINA RESULT:    -2.521     12.448     16.519
REMARK INTER + INTRA:          -7.039
REMARK INTER:                  -6.196
REMARK INTRA:                  -0.843
REMARK UNBOUND:                -1.571
REMARK SMILES CCCCCCCCCCCCCCCCCCCCCC(=O)[O-]
REMARK SMILES IDX 12 1 11 2 10 3 9 4 8 5 7 6 6 7 5 8 4 9 3 10 2 11 1 12 13 13
REMARK SMILES IDX 14 14 15 15 16 16 17 17 18 18 19 19 20 20 21 21 22 22 23 23
REMARK SMILES IDX 24 24
REMARK H PARENT
REMARK Flexibility Score: inf
ROOT
ATOM      1  C   UNL     1      41.782  26.664  18.225  1.00  0.00     0.000 C 
ENDROOT
BRANCH   1   2
ATOM      2  C   UNL     1      41.338  28.027  18.787  1.00  0.00     0.000 C 
BRANCH   2   3
ATOM      3  C   UNL     1      41.470  29.169  17.764  1.00  0.00     0.000 C 
BRANCH   3   4
ATOM      4  C   UNL     1      42.134  28.713  16.453  1.00  0.00    -0.000 C 
BRANCH   4   5
ATOM      5  C   UNL     1      42.581  29.893  15.572  1.00  0.00    -0.000 C 
BRANCH   5   6
ATOM      6  C   UNL     1      42.534  31.236  16.319  1.00  0.00    -0.000 C 
BRANCH   6   7
ATOM      7  C   UNL     1      43.619  32.215  15.841  1.00  0.00    -0.000 C 
BRANCH   7   8
ATOM      8  C   UNL     1      44.958  31.518  15.528  1.00  0.00    -0.000 C 
BRANCH   8   9
ATOM      9  C   UNL     1      45.962  31.484  16.695  1.00  0.00    -0.000 C 
BRANCH   9  10
ATOM     10  C   UNL     1      47.034  30.395  16.528  1.00  0.00    -0.000 C 
BRANCH  10  11
ATOM     11  C   UNL     1      47.320  30.072  15.053  1.00  0.00    -0.003 C 
ATOM     12  C   UNL     1      48.750  30.416  14.640  1.00  0.00     0.004 C 
ENDBRANCH  10  11
ENDBRANCH   9  10
ENDBRANCH   8   9
ENDBRANCH   7   8
ENDBRANCH   6   7
ENDBRANCH   5   6
ENDBRANCH   4   5
ENDBRANCH   3   4
ENDBRANCH   2   3
ENDBRANCH   1   2
BRANCH   1  13
ATOM     13  C   UNL     1      40.716  25.916  17.402  1.00  0.00     0.000 C 
BRANCH  13  14
ATOM     14  C   UNL     1      39.408  26.707  17.251  1.00  0.00     0.000 C 
BRANCH  14  15
ATOM     15  C   UNL     1      38.194  25.768  17.227  1.00  0.00     0.000 C 
BRANCH  15  16
ATOM     16  C   UNL     1      37.287  26.010  16.009  1.00  0.00     0.000 C 
BRANCH  16  17
ATOM     17  C   UNL     1      35.830  25.587  16.265  1.00  0.00     0.000 C 
BRANCH  17  18
ATOM     18  C   UNL     1      34.821  26.480  15.526  1.00  0.00     0.000 C 
BRANCH  18  19
ATOM     19  C   UNL     1      35.030  27.974  15.824  1.00  0.00     0.000 C 
BRANCH  19  20
ATOM     20  C   UNL     1      35.229  28.814  14.548  1.00  0.00     0.006 C 
BRANCH  20  21
ATOM     21  C   UNL     1      34.829  30.292  14.697  1.00  0.00     0.053 C 
BRANCH  21  22
ATOM     22  C   UNL     1      34.027  30.776  13.528  1.00  0.00     0.041 C 
ATOM     23  O   UNL     1      33.252  31.762  13.656  1.00  0.00    -0.550 OA
ATOM     24  O   UNL     1      34.116  30.125  12.304  1.00  0.00    -0.550 OA
ENDBRANCH  21  22
ENDBRANCH  20  21
ENDBRANCH  19  20
ENDBRANCH  18  19
ENDBRANCH  17  18
ENDBRANCH  16  17
ENDBRANCH  15  16
ENDBRANCH  14  15
ENDBRANCH  13  14
ENDBRANCH   1  13
TORSDOF 20
ENDMDL
MODEL 8
REMARK VINA RESULT:    -2.428     11.895     13.391
REMARK INTER + INTRA:          -6.838
REMARK INTER:                  -6.496
REMARK INTRA:                  -0.342
REMARK UNBOUND:                -1.571
REMARK SMILES CCCCCCCCCCCCCCCCCCCCCC(=O)[O-]
REMARK SMILES IDX 12 1 11 2 10 3 9 4 8 5 7 6 6 7 5 8 4 9 3 10 2 11 1 12 13 13
REMARK SMILES IDX 14 14 15 15 16 16 17 17 18 18 19 19 20 20 21 21 22 22 23 23
REMARK SMILES IDX 24 24
REMARK H PARENT
REMARK Flexibility Score: inf
ROOT
ATOM      1  C   UNL     1      41.382  26.644  19.378  1.00  0.00     0.000 C 
ENDROOT
BRANCH   1   2
ATOM      2  C   UNL     1      41.704  25.722  18.188  1.00  0.00     0.000 C 
BRANCH   2   3
ATOM      3  C   UNL     1      40.753  25.928  16.996  1.00  0.00     0.000 C 
BRANCH   3   4
ATOM      4  C   UNL     1      39.329  26.308  17.437  1.00  0.00    -0.000 C 
BRANCH   4   5
ATOM      5  C   UNL     1      38.289  26.117  16.318  1.00  0.00    -0.000 C 
BRANCH   5   6
ATOM      6  C   UNL     1      36.845  26.267  16.827  1.00  0.00    -0.000 C 
BRANCH   6   7
ATOM      7  C   UNL     1      35.835  25.484  15.971  1.00  0.00    -0.000 C 
BRANCH   7   8
ATOM      8  C   UNL     1      34.956  26.397  15.095  1.00  0.00    -0.000 C 
BRANCH   8   9
ATOM      9  C   UNL     1      34.949  27.881  15.505  1.00  0.00    -0.000 C 
BRANCH   9  10
ATOM     10  C   UNL     1      35.177  28.830  14.318  1.00  0.00    -0.000 C 
BRANCH  10  11
ATOM     11  C   UNL     1      34.923  30.301  14.684  1.00  0.00    -0.003 C 
ATOM     12  C   UNL     1      34.118  31.044  13.619  1.00  0.00     0.004 C 
ENDBRANCH  10  11
ENDBRANCH   9  10
ENDBRANCH   8   9
ENDBRANCH   7   8
ENDBRANCH   6   7
ENDBRANCH   5   6
ENDBRANCH   4   5
ENDBRANCH   3   4
ENDBRANCH   2   3
ENDBRANCH   1   2
BRANCH   1  13
ATOM     13  C   UNL     1      41.282  28.143  19.038  1.00  0.00     0.000 C 
BRANCH  13  14
ATOM     14  C   UNL     1      42.102  28.535  17.801  1.00  0.00     0.000 C 
BRANCH  14  15
ATOM     15  C   UNL     1      41.565  29.827  17.168  1.00  0.00     0.000 C 
BRANCH  15  16
ATOM     16  C   UNL     1      42.419  30.301  15.980  1.00  0.00     0.000 C 
BRANCH  16  17
ATOM     17  C   UNL     1      43.007  31.705  16.200  1.00  0.00     0.000 C 
BRANCH  17  18
ATOM     18  C   UNL     1      44.298  31.933  15.399  1.00  0.00     0.000 C 
BRANCH  18  19
ATOM     19  C   UNL     1      45.519  31.261  16.049  1.00  0.00     0.000 C 
BRANCH  19  20
ATOM     20  C   UNL     1      46.389  30.495  15.035  1.00  0.00     0.006 C 
BRANCH  20  21
ATOM     21  C   UNL     1      47.745  30.030  15.592  1.00  0.00     0.053 C 
BRANCH  21  22
ATOM     22  C   UNL     1      48.883  30.428  14.702  1.00  0.00     0.041 C 
ATOM     23  O   UNL     1      49.992  30.758  15.201  1.00  0.00    -0.550 OA
ATOM     24  O   UNL     1      48.712  30.458  13.324  1.00  0.00    -0.550 OA
ENDBRANCH  21  22
ENDBRANCH  20  21
ENDBRANCH  19  20
ENDBRANCH  18  19
ENDBRANCH  17  18
ENDBRANCH  16  17
ENDBRANCH  15  16
ENDBRANCH  14  15
ENDBRANCH  13  14
ENDBRANCH   1  13
TORSDOF 20
ENDMDL
MODEL 9
REMARK VINA RESULT:    -2.143     11.572     13.091
REMARK INTER + INTRA:          -6.220
REMARK INTER:                  -5.812
REMARK INTRA:                  -0.409
REMARK UNBOUND:                -1.571
REMARK SMILES CCCCCCCCCCCCCCCCCCCCCC(=O)[O-]
REMARK SMILES IDX 12 1 11 2 10 3 9 4 8 5 7 6 6 7 5 8 4 9 3 10 2 11 1 12 13 13
REMARK SMILES IDX 14 14 15 15 16 16 17 17 18 18 19 19 20 20 21 21 22 22 23 23
REMARK SMILES IDX 24 24
REMARK H PARENT
REMARK Flexibility Score: inf
ROOT
ATOM      1  C   UNL     1      41.854  26.208  19.508  1.00  0.00     0.000 C 
ENDROOT
BRANCH   1   2
ATOM      2  C   UNL     1      40.389  26.302  19.974  1.00  0.00     0.000 C 
BRANCH   2   3
ATOM      3  C   UNL     1      39.466  26.941  18.922  1.00  0.00     0.000 C 
BRANCH   3   4
ATOM      4  C   UNL     1      38.688  25.895  18.106  1.00  0.00    -0.000 C 
BRANCH   4   5
ATOM      5  C   UNL     1      38.349  26.380  16.686  1.00  0.00    -0.000 C 
BRANCH   5   6
ATOM      6  C   UNL     1      37.244  25.537  16.025  1.00  0.00    -0.000 C 
BRANCH   6   7
ATOM      7  C   UNL     1      35.844  25.874  16.566  1.00  0.00    -0.000 C 
BRANCH   7   8
ATOM      8  C   UNL     1      34.967  26.614  15.538  1.00  0.00    -0.000 C 
BRANCH   8   9
ATOM      9  C   UNL     1      34.999  28.149  15.641  1.00  0.00    -0.000 C 
BRANCH   9  10
ATOM     10  C   UNL     1      35.055  28.839  14.268  1.00  0.00    -0.000 C 
BRANCH  10  11
ATOM     11  C   UNL     1      35.057  30.372  14.380  1.00  0.00    -0.003 C 
ATOM     12  C   UNL     1      33.982  31.028  13.515  1.00  0.00     0.004 C 
ENDBRANCH  10  11
ENDBRANCH   9  10
ENDBRANCH   8   9
ENDBRANCH   7   8
ENDBRANCH   6   7
ENDBRANCH   5   6
ENDBRANCH   4   5
ENDBRANCH   3   4
ENDBRANCH   2   3
ENDBRANCH   1   2
BRANCH   1  13
ATOM     13  C   UNL     1      42.065  25.535  18.139  1.00  0.00     0.000 C 
BRANCH  13  14
ATOM     14  C   UNL     1      41.855  26.495  16.959  1.00  0.00     0.000 C 
BRANCH  14  15
ATOM     15  C   UNL     1      42.013  27.957  17.400  1.00  0.00     0.000 C 
BRANCH  15  16
ATOM     16  C   UNL     1      42.215  28.912  16.212  1.00  0.00     0.000 C 
BRANCH  16  17
ATOM     17  C   UNL     1      41.871  30.370  16.563  1.00  0.00     0.000 C 
BRANCH  17  18
ATOM     18  C   UNL     1      42.696  31.380  15.748  1.00  0.00     0.000 C 
BRANCH  18  19
ATOM     19  C   UNL     1      43.948  31.857  16.501  1.00  0.00     0.000 C 
BRANCH  19  20
ATOM     20  C   UNL     1      45.234  31.722  15.663  1.00  0.00     0.006 C 
BRANCH  20  21
ATOM     21  C   UNL     1      46.230  30.679  16.200  1.00  0.00     0.053 C 
BRANCH  21  22
ATOM     22  C   UNL     1      47.228  30.269  15.161  1.00  0.00     0.041 C 
ATOM     23  O   UNL     1      46.840  29.903  14.019  1.00  0.00    -0.550 OA
ATOM     24  O   UNL     1      48.584  30.268  15.460  1.00  0.00    -0.550 OA
ENDBRANCH  21  22
ENDBRANCH  20  21
ENDBRANCH  19  20
ENDBRANCH  18  19
ENDBRANCH  17  18
ENDBRANCH  16  17
ENDBRANCH  15  16
ENDBRANCH  14  15
ENDBRANCH  13  14
ENDBRANCH   1  13
TORSDOF 20
ENDMDL
