MODEL 1
REMARK VINA RESULT:    -3.431      0.000      0.000
REMARK INTER + INTRA:          -4.345
REMARK INTER:                  -4.233
REMARK INTRA:                  -0.112
REMARK UNBOUND:                -0.112
REMARK SMILES CCCCCC(=O)[O-]
REMARK SMILES IDX 4 1 5 2 6 3 7 4 8 5 3 6 2 7 1 8
REMARK H PARENT
REMARK Flexibility Score: inf
ROOT
ATOM      1  C   UNL     1      24.603   1.712  18.756  1.00  0.00     0.006 C 
ENDROOT
BRANCH   1   2
ATOM      2  C   UNL     1      25.390   1.185  17.553  1.00  0.00     0.053 C 
BRANCH   2   3
ATOM      3  C   UNL     1      25.023  -0.237  17.269  1.00  0.00     0.041 C 
ATOM      4  O   UNL     1      24.670  -0.581  16.110  1.00  0.00    -0.550 OA
ATOM      5  O   UNL     1      25.116  -1.193  18.272  1.00  0.00    -0.550 OA
ENDBRANCH   2   3
ENDBRANCH   1   2
BRANCH   1   6
ATOM      6  C   UNL     1      24.313   3.213  18.607  1.00  0.00     0.000 C 
BRANCH   6   7
ATOM      7  C   UNL     1      24.690   3.753  17.219  1.00  0.00    -0.003 C 
ATOM      8  C   UNL     1      23.943   5.037  16.861  1.00  0.00     0.004 C 
ENDBRANCH   6   7
ENDBRANCH   1   6
TORSDOF 4
ENDMDL
MODEL 2
REMARK VINA RESULT:    -3.357      1.047      1.863
REMARK INTER + INTRA:          -4.253
REMARK INTER:                  -4.090
REMARK INTRA:                  -0.163
REMARK UNBOUND:                -0.112
REMARK SMILES CCCCCC(=O)[O-]
REMARK SMILES IDX 4 1 5 2 6 3 7 4 8 5 3 6 2 7 1 8
REMARK H PARENT
REMARK Flexibility Score: inf
ROOT
ATOM      1  C   UNL     1      24.761   1.038  18.752  1.00  0.00     0.006 C 
ENDROOT
BRANCH   1   2
ATOM      2  C   UNL     1      23.824  -0.094  18.322  1.00  0.00     0.053 C 
BRANCH   2   3
ATOM      3  C   UNL     1      24.593  -1.183  17.645  1.00  0.00     0.041 C 
ATOM      4  O   UNL     1      25.404  -1.889  18.302  1.00  0.00    -0.550 OA
ATOM      5  O   UNL     1      24.381  -1.453  16.299  1.00  0.00    -0.550 OA
ENDBRANCH   2   3
ENDBRANCH   1   2
BRANCH   1   6
ATOM      6  C   UNL     1      25.430   1.689  17.532  1.00  0.00     0.000 C 
BRANCH   6   7
ATOM      7  C   UNL     1      25.156   3.199  17.445  1.00  0.00    -0.003 C 
ATOM      8  C   UNL     1      24.144   3.677  18.486  1.00  0.00     0.004 C 
ENDBRANCH   6   7
ENDBRANCH   1   6
TORSDOF 4
ENDMDL
MODEL 3
REMARK VINA RESULT:    -3.318      1.702      2.193
REMARK INTER + INTRA:          -4.206
REMARK INTER:                  -3.976
REMARK INTRA:                  -0.230
REMARK UNBOUND:                -0.112
REMARK SMILES CCCCCC(=O)[O-]
REMARK SMILES IDX 4 1 5 2 6 3 7 4 8 5 3 6 2 7 1 8
REMARK H PARENT
REMARK Flexibility Score: inf
ROOT
ATOM      1  C   UNL     1      25.096   1.502  17.220  1.00  0.00     0.006 C 
ENDROOT
BRANCH   1   2
ATOM      2  C   UNL     1      25.001   0.637  18.480  1.00  0.00     0.053 C 
BRANCH   2   3
ATOM      3  C   UNL     1      23.593   0.178  18.695  1.00  0.00     0.041 C 
ATOM      4  O   UNL     1      22.915   0.639  19.651  1.00  0.00    -0.550 OA
ATOM      5  O   UNL     1      23.012  -0.723  17.810  1.00  0.00    -0.550 OA
ENDBRANCH   2   3
ENDBRANCH   1   2
BRANCH   1   6
ATOM      6  C   UNL     1      25.340   2.974  17.582  1.00  0.00     0.000 C 
BRANCH   6   7
ATOM      7  C   UNL     1      24.048   3.807  17.570  1.00  0.00    -0.003 C 
ATOM      8  C   UNL     1      23.505   4.074  18.974  1.00  0.00     0.004 C 
ENDBRANCH   6   7
ENDBRANCH   1   6
TORSDOF 4
ENDMDL
MODEL 4
REMARK VINA RESULT:    -3.291     10.055     11.277
REMARK INTER + INTRA:          -4.173
REMARK INTER:                  -4.063
REMARK INTRA:                  -0.110
REMARK UNBOUND:                -0.112
REMARK SMILES CCCCCC(=O)[O-]
REMARK SMILES IDX 4 1 5 2 6 3 7 4 8 5 3 6 2 7 1 8
REMARK H PARENT
REMARK Flexibility Score: inf
ROOT
ATOM      1  C   UNL     1      28.818   0.429   9.042  1.00  0.00     0.006 C 
ENDROOT
BRANCH   1   2
ATOM      2  C   UNL     1      28.833   0.606   7.521  1.00  0.00     0.053 C 
BRANCH   2   3
ATOM      3  C   UNL     1      28.536   2.026   7.156  1.00  0.00     0.041 C 
ATOM      4  O   UNL     1      28.635   2.937   8.020  1.00  0.00    -0.550 OA
ATOM      5  O   UNL     1      28.196   2.352   5.849  1.00  0.00    -0.550 OA
ENDBRANCH   2   3
ENDBRANCH   1   2
BRANCH   1   6
ATOM      6  C   UNL     1      28.361  -0.987   9.425  1.00  0.00     0.000 C 
BRANCH   6   7
ATOM      7  C   UNL     1      28.344  -1.946   8.224  1.00  0.00    -0.003 C 
ATOM      8  C   UNL     1      28.093  -3.398   8.633  1.00  0.00     0.004 C 
ENDBRANCH   6   7
ENDBRANCH   1   6
TORSDOF 4
ENDMDL
MODEL 5
REMARK VINA RESULT:    -3.223      9.299     10.539
REMARK INTER + INTRA:          -4.088
REMARK INTER:                  -3.918
REMARK INTRA:                  -0.170
REMARK UNBOUND:                -0.112
REMARK SMILES CCCCCC(=O)[O-]
REMARK SMILES IDX 4 1 5 2 6 3 7 4 8 5 3 6 2 7 1 8
REMARK H PARENT
REMARK Flexibility Score: inf
ROOT
ATOM      1  C   UNL     1      28.508   1.237   7.483  1.00  0.00     0.006 C 
ENDROOT
BRANCH   1   2
ATOM      2  C   UNL     1      27.605   1.819   8.574  1.00  0.00     0.053 C 
BRANCH   2   3
ATOM      3  C   UNL     1      28.276   2.974   9.248  1.00  0.00     0.041 C 
ATOM      4  O   UNL     1      29.037   2.779  10.231  1.00  0.00    -0.550 OA
ATOM      5  O   UNL     1      28.099   4.263   8.759  1.00  0.00    -0.550 OA
ENDBRANCH   2   3
ENDBRANCH   1   2
BRANCH   1   6
ATOM      6  C   UNL     1      29.106  -0.108   7.924  1.00  0.00     0.000 C 
BRANCH   6   7
ATOM      7  C   UNL     1      28.346  -0.731   9.106  1.00  0.00    -0.003 C 
ATOM      8  C   UNL     1      28.285  -2.257   9.029  1.00  0.00     0.004 C 
ENDBRANCH   6   7
ENDBRANCH   1   6
TORSDOF 4
ENDMDL
MODEL 6
REMARK VINA RESULT:    -3.156      9.105     10.127
REMARK INTER + INTRA:          -4.005
REMARK INTER:                  -3.837
REMARK INTRA:                  -0.169
REMARK UNBOUND:                -0.112
REMARK SMILES CCCCCC(=O)[O-]
REMARK SMILES IDX 4 1 5 2 6 3 7 4 8 5 3 6 2 7 1 8
REMARK H PARENT
REMARK Flexibility Score: inf
ROOT
ATOM      1  C   UNL     1      27.659   2.280   8.153  1.00  0.00     0.006 C 
ENDROOT
BRANCH   1   2
ATOM      2  C   UNL     1      28.593   3.329   8.763  1.00  0.00     0.053 C 
BRANCH   2   3
ATOM      3  C   UNL     1      28.379   3.426  10.240  1.00  0.00     0.041 C 
ATOM      4  O   UNL     1      29.125   2.791  11.031  1.00  0.00    -0.550 OA
ATOM      5  O   UNL     1      27.386   4.256  10.747  1.00  0.00    -0.550 OA
ENDBRANCH   2   3
ENDBRANCH   1   2
BRANCH   1   6
ATOM      6  C   UNL     1      28.401   1.419   7.120  1.00  0.00     0.000 C 
BRANCH   6   7
ATOM      7  C   UNL     1      29.105   0.209   7.755  1.00  0.00    -0.003 C 
ATOM      8  C   UNL     1      28.379  -0.311   8.997  1.00  0.00     0.004 C 
ENDBRANCH   6   7
ENDBRANCH   1   6
TORSDOF 4
ENDMDL
MODEL 7
REMARK VINA RESULT:    -3.083      3.246      4.630
REMARK INTER + INTRA:          -3.915
REMARK INTER:                  -3.783
REMARK INTRA:                  -0.133
REMARK UNBOUND:                -0.112
REMARK SMILES CCCCCC(=O)[O-]
REMARK SMILES IDX 4 1 5 2 6 3 7 4 8 5 3 6 2 7 1 8
REMARK H PARENT
REMARK Flexibility Score: inf
ROOT
ATOM      1  C   UNL     1      25.253   2.965  17.443  1.00  0.00     0.006 C 
ENDROOT
BRANCH   1   2
ATOM      2  C   UNL     1      24.360   3.411  18.604  1.00  0.00     0.053 C 
BRANCH   2   3
ATOM      3  C   UNL     1      23.466   4.531  18.177  1.00  0.00     0.041 C 
ATOM      4  O   UNL     1      22.737   5.117  19.021  1.00  0.00    -0.550 OA
ATOM      5  O   UNL     1      23.473   4.963  16.856  1.00  0.00    -0.550 OA
ENDBRANCH   2   3
ENDBRANCH   1   2
BRANCH   1   6
ATOM      6  C   UNL     1      25.433   1.440  17.444  1.00  0.00     0.000 C 
BRANCH   6   7
ATOM      7  C   UNL     1      24.808   0.772  18.679  1.00  0.00    -0.003 C 
ATOM      8  C   UNL     1      23.776  -0.295  18.314  1.00  0.00     0.004 C 
ENDBRANCH   6   7
ENDBRANCH   1   6
TORSDOF 4
ENDMDL
MODEL 8
REMARK VINA RESULT:    -2.998      8.813      9.434
REMARK INTER + INTRA:          -3.811
REMARK INTER:                  -3.689
REMARK INTRA:                  -0.122
REMARK UNBOUND:                -0.112
REMARK SMILES CCCCCC(=O)[O-]
REMARK SMILES IDX 4 1 5 2 6 3 7 4 8 5 3 6 2 7 1 8
REMARK H PARENT
REMARK Flexibility Score: inf
ROOT
ATOM      1  C   UNL     1      26.940   4.390   8.953  1.00  0.00     0.006 C 
ENDROOT
BRANCH   1   2
ATOM      2  C   UNL     1      28.418   4.005   8.843  1.00  0.00     0.053 C 
BRANCH   2   3
ATOM      3  C   UNL     1      28.776   3.001   9.892  1.00  0.00     0.041 C 
ATOM      4  O   UNL     1      29.040   3.376  11.065  1.00  0.00    -0.550 OA
ATOM      5  O   UNL     1      28.772   1.645   9.588  1.00  0.00    -0.550 OA
ENDBRANCH   2   3
ENDBRANCH   1   2
BRANCH   1   6
ATOM      6  C   UNL     1      26.781   5.785   9.576  1.00  0.00     0.000 C 
BRANCH   6   7
ATOM      7  C   UNL     1      25.988   6.746   8.677  1.00  0.00    -0.003 C 
ATOM      8  C   UNL     1      26.889   7.692   7.883  1.00  0.00     0.004 C 
ENDBRANCH   6   7
ENDBRANCH   1   6
TORSDOF 4
ENDMDL
MODEL 9
REMARK VINA RESULT:    -2.992     10.436     11.544
REMARK INTER + INTRA:          -3.804
REMARK INTER:                  -3.684
REMARK INTRA:                  -0.120
REMARK UNBOUND:                -0.112
REMARK SMILES CCCCCC(=O)[O-]
REMARK SMILES IDX 4 1 5 2 6 3 7 4 8 5 3 6 2 7 1 8
REMARK H PARENT
REMARK Flexibility Score: inf
ROOT
ATOM      1  C   UNL     1      28.439   1.557   8.079  1.00  0.00     0.006 C 
ENDROOT
BRANCH   1   2
ATOM      2  C   UNL     1      28.399   2.254   6.716  1.00  0.00     0.053 C 
BRANCH   2   3
ATOM      3  C   UNL     1      27.281   1.713   5.883  1.00  0.00     0.041 C 
ATOM      4  O   UNL     1      27.520   1.195   4.760  1.00  0.00    -0.550 OA
ATOM      5  O   UNL     1      25.979   1.735   6.367  1.00  0.00    -0.550 OA
ENDBRANCH   2   3
ENDBRANCH   1   2
BRANCH   1   6
ATOM      6  C   UNL     1      28.782   0.068   7.924  1.00  0.00     0.000 C 
BRANCH   6   7
ATOM      7  C   UNL     1      28.325  -0.772   9.127  1.00  0.00    -0.003 C 
ATOM      8  C   UNL     1      28.299  -2.270   8.826  1.00  0.00     0.004 C 
ENDBRANCH   6   7
ENDBRANCH   1   6
TORSDOF 4
ENDMDL
