MODEL 1
REMARK VINA RESULT:    -4.621      0.000      0.000
REMARK INTER + INTRA:          -5.379
REMARK INTER:                  -5.297
REMARK INTRA:                  -0.083
REMARK UNBOUND:                -0.083
REMARK SMILES COc1cc(C(=O)[O-])ccc1O
REMARK SMILES IDX 5 1 9 2 4 3 10 4 3 5 11 6 6 7 7 8 8 9 2 10 1 11 12 12
REMARK H PARENT 12 13
REMARK Flexibility Score: inf
ROOT
ATOM      1  C   UNL     1      -2.436  35.121  63.265  1.00  0.00     0.001 A 
ATOM      2  C   UNL     1      -3.339  35.474  62.249  1.00  0.00     0.014 A 
ATOM      3  C   UNL     1      -2.878  34.295  64.316  1.00  0.00     0.060 A 
ATOM      4  C   UNL     1      -4.656  35.010  62.281  1.00  0.00     0.051 A 
ATOM      5  C   UNL     1      -4.205  33.825  64.352  1.00  0.00     0.161 A 
ATOM      6  C   UNL     1      -5.091  34.187  63.328  1.00  0.00     0.157 A 
ENDROOT
BRANCH   1   7
ATOM      7  C   UNL     1      -1.042  35.616  63.226  1.00  0.00     0.072 C 
ATOM      8  O   UNL     1      -0.766  36.785  63.605  1.00  0.00    -0.545 OA
ATOM      9  O   UNL     1      -0.015  34.796  62.772  1.00  0.00    -0.545 OA
ENDBRANCH   1   7
BRANCH   5  10
ATOM     10  O   UNL     1      -4.680  33.000  65.384  1.00  0.00    -0.493 OA
ATOM     11  C   UNL     1      -3.979  31.876  65.905  1.00  0.00     0.278 C 
ENDBRANCH   5  10
BRANCH   6  12
ATOM     12  O   UNL     1      -6.406  33.726  63.358  1.00  0.00    -0.504 OA
ATOM     13  H   UNL     1      -6.857  33.465  64.227  1.00  0.00     0.293 HD
ENDBRANCH   6  12
TORSDOF 3
ENDMDL
MODEL 2
REMARK VINA RESULT:    -4.523      1.201      3.073
REMARK INTER + INTRA:          -5.266
REMARK INTER:                  -5.192
REMARK INTRA:                  -0.075
REMARK UNBOUND:                -0.083
REMARK SMILES COc1cc(C(=O)[O-])ccc1O
REMARK SMILES IDX 5 1 9 2 4 3 10 4 3 5 11 6 6 7 7 8 8 9 2 10 1 11 12 12
REMARK H PARENT 12 13
REMARK Flexibility Score: inf
ROOT
ATOM      1  C   UNL     1      -2.363  35.156  63.294  1.00  0.00     0.001 A 
ATOM      2  C   UNL     1      -2.961  34.547  64.410  1.00  0.00     0.014 A 
ATOM      3  C   UNL     1      -3.137  35.384  62.142  1.00  0.00     0.060 A 
ATOM      4  C   UNL     1      -4.307  34.176  64.375  1.00  0.00     0.051 A 
ATOM      5  C   UNL     1      -4.496  35.011  62.103  1.00  0.00     0.161 A 
ATOM      6  C   UNL     1      -5.075  34.406  63.227  1.00  0.00     0.157 A 
ENDROOT
BRANCH   1   7
ATOM      7  C   UNL     1      -0.935  35.546  63.337  1.00  0.00     0.072 C 
ATOM      8  O   UNL     1      -0.035  34.715  63.045  1.00  0.00    -0.545 OA
ATOM      9  O   UNL     1      -0.568  36.837  63.698  1.00  0.00    -0.545 OA
ENDBRANCH   1   7
BRANCH   5  10
ATOM     10  O   UNL     1      -5.298  35.224  60.972  1.00  0.00    -0.493 OA
ATOM     11  C   UNL     1      -4.880  35.926  59.806  1.00  0.00     0.278 C 
ENDBRANCH   5  10
BRANCH   6  12
ATOM     12  O   UNL     1      -6.418  34.035  63.195  1.00  0.00    -0.504 OA
ATOM     13  H   UNL     1      -6.702  33.064  63.265  1.00  0.00     0.293 HD
ENDBRANCH   6  12
TORSDOF 3
ENDMDL
MODEL 3
REMARK VINA RESULT:    -4.421      1.738      3.971
REMARK INTER + INTRA:          -5.150
REMARK INTER:                  -5.073
REMARK INTRA:                  -0.078
REMARK UNBOUND:                -0.083
REMARK SMILES COc1cc(C(=O)[O-])ccc1O
REMARK SMILES IDX 5 1 9 2 4 3 10 4 3 5 11 6 6 7 7 8 8 9 2 10 1 11 12 12
REMARK H PARENT 12 13
REMARK Flexibility Score: inf
ROOT
ATOM      1  C   UNL     1      -4.168  34.253  64.059  1.00  0.00     0.001 A 
ATOM      2  C   UNL     1      -5.286  34.576  63.272  1.00  0.00     0.014 A 
ATOM      3  C   UNL     1      -2.883  34.344  63.493  1.00  0.00     0.060 A 
ATOM      4  C   UNL     1      -5.122  34.983  61.945  1.00  0.00     0.051 A 
ATOM      5  C   UNL     1      -2.714  34.754  62.155  1.00  0.00     0.161 A 
ATOM      6  C   UNL     1      -3.841  35.073  61.386  1.00  0.00     0.157 A 
ENDROOT
BRANCH   1   7
ATOM      7  C   UNL     1      -4.348  33.822  65.464  1.00  0.00     0.072 C 
ATOM      8  O   UNL     1      -5.006  34.530  66.272  1.00  0.00    -0.545 OA
ATOM      9  O   UNL     1      -3.794  32.629  65.911  1.00  0.00    -0.545 OA
ENDBRANCH   1   7
BRANCH   5  10
ATOM     10  O   UNL     1      -1.448  34.856  61.558  1.00  0.00    -0.493 OA
ATOM     11  C   UNL     1      -0.215  34.826  62.270  1.00  0.00     0.278 C 
ENDBRANCH   5  10
BRANCH   6  12
ATOM     12  O   UNL     1      -3.681  35.480  60.062  1.00  0.00    -0.504 OA
ATOM     13  H   UNL     1      -2.820  35.907  59.739  1.00  0.00     0.293 HD
ENDBRANCH   6  12
TORSDOF 3
ENDMDL
MODEL 4
REMARK VINA RESULT:    -4.408      2.281      3.992
REMARK INTER + INTRA:          -5.135
REMARK INTER:                  -5.046
REMARK INTRA:                  -0.089
REMARK UNBOUND:                -0.083
REMARK SMILES COc1cc(C(=O)[O-])ccc1O
REMARK SMILES IDX 5 1 9 2 4 3 10 4 3 5 11 6 6 7 7 8 8 9 2 10 1 11 12 12
REMARK H PARENT 12 13
REMARK Flexibility Score: inf
ROOT
ATOM      1  C   UNL     1      -4.118  34.013  64.057  1.00  0.00     0.001 A 
ATOM      2  C   UNL     1      -3.014  34.807  63.704  1.00  0.00     0.014 A 
ATOM      3  C   UNL     1      -5.036  33.635  63.060  1.00  0.00     0.060 A 
ATOM      4  C   UNL     1      -2.831  35.214  62.380  1.00  0.00     0.051 A 
ATOM      5  C   UNL     1      -4.854  34.043  61.723  1.00  0.00     0.161 A 
ATOM      6  C   UNL     1      -3.746  34.835  61.391  1.00  0.00     0.157 A 
ENDROOT
BRANCH   1   7
ATOM      7  C   UNL     1      -4.307  33.585  65.461  1.00  0.00     0.072 C 
ATOM      8  O   UNL     1      -4.967  34.297  66.265  1.00  0.00    -0.545 OA
ATOM      9  O   UNL     1      -3.760  32.391  65.914  1.00  0.00    -0.545 OA
ENDBRANCH   1   7
BRANCH   5  10
ATOM     10  O   UNL     1      -5.749  33.685  60.703  1.00  0.00    -0.493 OA
ATOM     11  C   UNL     1      -6.096  32.346  60.368  1.00  0.00     0.278 C 
ENDBRANCH   5  10
BRANCH   6  12
ATOM     12  O   UNL     1      -3.561  35.242  60.070  1.00  0.00    -0.504 OA
ATOM     13  H   UNL     1      -2.669  35.597  59.745  1.00  0.00     0.293 HD
ENDBRANCH   6  12
TORSDOF 3
ENDMDL
MODEL 5
REMARK VINA RESULT:    -4.190      3.236      4.601
REMARK INTER + INTRA:          -4.885
REMARK INTER:                  -4.788
REMARK INTRA:                  -0.097
REMARK UNBOUND:                -0.083
REMARK SMILES COc1cc(C(=O)[O-])ccc1O
REMARK SMILES IDX 5 1 9 2 4 3 10 4 3 5 11 6 6 7 7 8 8 9 2 10 1 11 12 12
REMARK H PARENT 12 13
REMARK Flexibility Score: inf
ROOT
ATOM      1  C   UNL     1      -2.141  34.691  61.758  1.00  0.00     0.001 A 
ATOM      2  C   UNL     1      -0.926  34.294  61.175  1.00  0.00     0.014 A 
ATOM      3  C   UNL     1      -3.315  34.650  60.984  1.00  0.00     0.060 A 
ATOM      4  C   UNL     1      -0.886  33.864  59.847  1.00  0.00     0.051 A 
ATOM      5  C   UNL     1      -3.279  34.217  59.644  1.00  0.00     0.161 A 
ATOM      6  C   UNL     1      -2.057  33.824  59.081  1.00  0.00     0.157 A 
ENDROOT
BRANCH   1   7
ATOM      7  C   UNL     1      -2.177  35.146  63.166  1.00  0.00     0.072 C 
ATOM      8  O   UNL     1      -1.470  36.118  63.543  1.00  0.00    -0.545 OA
ATOM      9  O   UNL     1      -2.993  34.508  64.092  1.00  0.00    -0.545 OA
ENDBRANCH   1   7
BRANCH   5  10
ATOM     10  O   UNL     1      -4.431  34.163  58.843  1.00  0.00    -0.493 OA
ATOM     11  C   UNL     1      -5.491  33.229  59.016  1.00  0.00     0.278 C 
ENDBRANCH   5  10
BRANCH   6  12
ATOM     12  O   UNL     1      -2.015  33.395  57.755  1.00  0.00    -0.504 OA
ATOM     13  H   UNL     1      -2.733  32.793  57.369  1.00  0.00     0.293 HD
ENDBRANCH   6  12
TORSDOF 3
ENDMDL
MODEL 6
REMARK VINA RESULT:    -4.108     15.989     18.130
REMARK INTER + INTRA:          -4.791
REMARK INTER:                  -4.695
REMARK INTRA:                  -0.096
REMARK UNBOUND:                -0.083
REMARK SMILES COc1cc(C(=O)[O-])ccc1O
REMARK SMILES IDX 5 1 9 2 4 3 10 4 3 5 11 6 6 7 7 8 8 9 2 10 1 11 12 12
REMARK H PARENT 12 13
REMARK Flexibility Score: inf
ROOT
ATOM      1  C   UNL     1       8.991  48.772  66.112  1.00  0.00     0.001 A 
ATOM      2  C   UNL     1       8.254  48.409  67.250  1.00  0.00     0.014 A 
ATOM      3  C   UNL     1       8.969  47.931  64.984  1.00  0.00     0.060 A 
ATOM      4  C   UNL     1       7.508  47.227  67.262  1.00  0.00     0.051 A 
ATOM      5  C   UNL     1       8.218  46.738  64.991  1.00  0.00     0.161 A 
ATOM      6  C   UNL     1       7.488  46.393  66.137  1.00  0.00     0.157 A 
ENDROOT
BRANCH   1   7
ATOM      7  C   UNL     1       9.780  50.025  66.105  1.00  0.00     0.072 C 
ATOM      8  O   UNL     1       9.210  51.140  65.964  1.00  0.00    -0.545 OA
ATOM      9  O   UNL     1      11.160  49.990  66.257  1.00  0.00    -0.545 OA
ENDBRANCH   1   7
BRANCH   5  10
ATOM     10  O   UNL     1       8.172  45.875  63.886  1.00  0.00    -0.493 OA
ATOM     11  C   UNL     1       9.188  44.935  63.553  1.00  0.00     0.278 C 
ENDBRANCH   5  10
BRANCH   6  12
ATOM     12  O   UNL     1       6.743  45.215  66.151  1.00  0.00    -0.504 OA
ATOM     13  H   UNL     1       5.863  45.149  66.651  1.00  0.00     0.293 HD
ENDBRANCH   6  12
TORSDOF 3
ENDMDL
MODEL 7
REMARK VINA RESULT:    -4.039     10.301     12.085
REMARK INTER + INTRA:          -4.712
REMARK INTER:                  -4.626
REMARK INTRA:                  -0.086
REMARK UNBOUND:                -0.083
REMARK SMILES COc1cc(C(=O)[O-])ccc1O
REMARK SMILES IDX 5 1 9 2 4 3 10 4 3 5 11 6 6 7 7 8 8 9 2 10 1 11 12 12
REMARK H PARENT 12 13
REMARK Flexibility Score: inf
ROOT
ATOM      1  C   UNL     1      -1.567  33.854  53.507  1.00  0.00     0.001 A 
ATOM      2  C   UNL     1      -1.107  32.583  53.886  1.00  0.00     0.014 A 
ATOM      3  C   UNL     1      -0.878  34.560  52.503  1.00  0.00     0.060 A 
ATOM      4  C   UNL     1       0.018  32.026  53.272  1.00  0.00     0.051 A 
ATOM      5  C   UNL     1       0.256  34.002  51.881  1.00  0.00     0.161 A 
ATOM      6  C   UNL     1       0.699  32.731  52.272  1.00  0.00     0.157 A 
ENDROOT
BRANCH   1   7
ATOM      7  C   UNL     1      -2.758  34.439  54.162  1.00  0.00     0.072 C 
ATOM      8  O   UNL     1      -2.798  35.667  54.442  1.00  0.00    -0.545 OA
ATOM      9  O   UNL     1      -3.852  33.643  54.476  1.00  0.00    -0.545 OA
ENDBRANCH   1   7
BRANCH   5  10
ATOM     10  O   UNL     1       0.967  34.676  50.875  1.00  0.00    -0.493 OA
ATOM     11  C   UNL     1       1.311  36.057  50.919  1.00  0.00     0.278 C 
ENDBRANCH   5  10
BRANCH   6  12
ATOM     12  O   UNL     1       1.821  32.173  51.660  1.00  0.00    -0.504 OA
ATOM     13  H   UNL     1       1.934  31.170  51.574  1.00  0.00     0.293 HD
ENDBRANCH   6  12
TORSDOF 3
ENDMDL
MODEL 8
REMARK VINA RESULT:    -3.939      3.457      4.693
REMARK INTER + INTRA:          -4.598
REMARK INTER:                  -4.507
REMARK INTRA:                  -0.091
REMARK UNBOUND:                -0.083
REMARK SMILES COc1cc(C(=O)[O-])ccc1O
REMARK SMILES IDX 5 1 9 2 4 3 10 4 3 5 11 6 6 7 7 8 8 9 2 10 1 11 12 12
REMARK H PARENT 12 13
REMARK Flexibility Score: inf
ROOT
ATOM      1  C   UNL     1      -2.386  34.129  59.509  1.00  0.00     0.001 A 
ATOM      2  C   UNL     1      -1.117  34.025  60.102  1.00  0.00     0.014 A 
ATOM      3  C   UNL     1      -3.474  34.560  60.291  1.00  0.00     0.060 A 
ATOM      4  C   UNL     1      -0.939  34.346  61.450  1.00  0.00     0.051 A 
ATOM      5  C   UNL     1      -3.298  34.885  61.650  1.00  0.00     0.161 A 
ATOM      6  C   UNL     1      -2.023  34.775  62.224  1.00  0.00     0.157 A 
ENDROOT
BRANCH   1   7
ATOM      7  C   UNL     1      -2.569  33.787  58.080  1.00  0.00     0.072 C 
ATOM      8  O   UNL     1      -1.934  32.830  57.564  1.00  0.00    -0.545 OA
ATOM      9  O   UNL     1      -3.447  34.517  57.288  1.00  0.00    -0.545 OA
ENDBRANCH   1   7
BRANCH   5  10
ATOM     10  O   UNL     1      -4.359  35.318  62.460  1.00  0.00    -0.493 OA
ATOM     11  C   UNL     1      -5.609  34.647  62.579  1.00  0.00     0.278 C 
ENDBRANCH   5  10
BRANCH   6  12
ATOM     12  O   UNL     1      -1.842  35.095  63.569  1.00  0.00    -0.504 OA
ATOM     13  H   UNL     1      -2.327  35.874  63.999  1.00  0.00     0.293 HD
ENDBRANCH   6  12
TORSDOF 3
ENDMDL
MODEL 9
REMARK VINA RESULT:    -3.889      2.816      4.235
REMARK INTER + INTRA:          -4.540
REMARK INTER:                  -4.436
REMARK INTRA:                  -0.104
REMARK UNBOUND:                -0.083
REMARK SMILES COc1cc(C(=O)[O-])ccc1O
REMARK SMILES IDX 5 1 9 2 4 3 10 4 3 5 11 6 6 7 7 8 8 9 2 10 1 11 12 12
REMARK H PARENT 12 13
REMARK Flexibility Score: inf
ROOT
ATOM      1  C   UNL     1      -4.550  33.963  60.394  1.00  0.00     0.001 A 
ATOM      2  C   UNL     1      -5.656  33.474  61.107  1.00  0.00     0.014 A 
ATOM      3  C   UNL     1      -3.557  34.686  61.082  1.00  0.00     0.060 A 
ATOM      4  C   UNL     1      -5.768  33.702  62.481  1.00  0.00     0.051 A 
ATOM      5  C   UNL     1      -3.666  34.918  62.467  1.00  0.00     0.161 A 
ATOM      6  C   UNL     1      -4.778  34.421  63.162  1.00  0.00     0.157 A 
ENDROOT
BRANCH   1   7
ATOM      7  C   UNL     1      -4.437  33.720  58.938  1.00  0.00     0.072 C 
ATOM      8  O   UNL     1      -5.276  32.991  58.344  1.00  0.00    -0.545 OA
ATOM      9  O   UNL     1      -3.404  34.292  58.206  1.00  0.00    -0.545 OA
ENDBRANCH   1   7
BRANCH   5  10
ATOM     10  O   UNL     1      -2.696  35.634  63.185  1.00  0.00    -0.493 OA
ATOM     11  C   UNL     1      -1.428  35.113  63.568  1.00  0.00     0.278 C 
ENDBRANCH   5  10
BRANCH   6  12
ATOM     12  O   UNL     1      -4.891  34.646  64.533  1.00  0.00    -0.504 OA
ATOM     13  H   UNL     1      -4.388  35.397  64.991  1.00  0.00     0.293 HD
ENDBRANCH   6  12
TORSDOF 3
ENDMDL
