MODEL 1
REMARK VINA RESULT:    -3.215      0.000      0.000
REMARK INTER + INTRA:          -6.547
REMARK INTER:                  -4.907
REMARK INTRA:                  -1.640
REMARK UNBOUND:                -1.640
REMARK SMILES CCCCCCCCCC=CC(=O)[O-]
REMARK SMILES IDX 7 1 8 2 9 3 10 4 11 5 12 6 13 7 14 8 6 9 5 10 4 11 3 12 2 13
REMARK SMILES IDX 1 14
REMARK H PARENT
REMARK Flexibility Score: inf
ROOT
ATOM      1  C   UNL     1      39.028 186.300 172.718  1.00  0.00     0.000 C 
ENDROOT
BRANCH   1   2
ATOM      2  C   UNL     1      40.407 185.619 172.701  1.00  0.00     0.004 C 
BRANCH   2   3
ATOM      3  C   UNL     1      40.643 184.764 173.957  1.00  0.00     0.027 C 
BRANCH   3   4
ATOM      4  C   UNL     1      41.150 183.388 173.627  1.00  0.00    -0.025 C 
ATOM      5  C   UNL     1      41.450 183.034 172.373  1.00  0.00     0.020 C 
BRANCH   5   6
ATOM      6  C   UNL     1      41.955 181.695 172.031  1.00  0.00     0.064 C 
ATOM      7  O   UNL     1      41.170 180.724 171.872  1.00  0.00    -0.545 OA
ATOM      8  O   UNL     1      43.322 181.500 171.880  1.00  0.00    -0.545 OA
ENDBRANCH   5   6
ENDBRANCH   3   4
ENDBRANCH   2   3
ENDBRANCH   1   2
BRANCH   1   9
ATOM      9  C   UNL     1      38.074 185.678 173.751  1.00  0.00     0.000 C 
BRANCH   9  10
ATOM     10  C   UNL     1      36.895 184.940 173.099  1.00  0.00     0.000 C 
BRANCH  10  11
ATOM     11  C   UNL     1      37.019 183.422 173.303  1.00  0.00    -0.000 C 
BRANCH  11  12
ATOM     12  C   UNL     1      37.824 182.739 172.186  1.00  0.00    -0.000 C 
BRANCH  12  13
ATOM     13  C   UNL     1      37.605 183.391 170.813  1.00  0.00    -0.003 C 
ATOM     14  C   UNL     1      38.888 183.375 169.986  1.00  0.00     0.004 C 
ENDBRANCH  12  13
ENDBRANCH  11  12
ENDBRANCH  10  11
ENDBRANCH   9  10
ENDBRANCH   1   9
TORSDOF 9
ENDMDL
MODEL 2
REMARK VINA RESULT:    -3.211     20.080     22.381
REMARK INTER + INTRA:          -6.540
REMARK INTER:                  -5.711
REMARK INTRA:                  -0.829
REMARK UNBOUND:                -1.640
REMARK SMILES CCCCCCCCCC=CC(=O)[O-]
REMARK SMILES IDX 7 1 8 2 9 3 10 4 11 5 12 6 13 7 14 8 6 9 5 10 4 11 3 12 2 13
REMARK SMILES IDX 1 14
REMARK H PARENT
REMARK Flexibility Score: inf
ROOT
ATOM      1  C   UNL     1      32.453 167.861 158.342  1.00  0.00     0.000 C 
ENDROOT
BRANCH   1   2
ATOM      2  C   UNL     1      31.508 169.073 158.264  1.00  0.00     0.004 C 
BRANCH   2   3
ATOM      3  C   UNL     1      30.191 168.826 159.018  1.00  0.00     0.027 C 
BRANCH   3   4
ATOM      4  C   UNL     1      30.019 169.752 160.190  1.00  0.00    -0.025 C 
ATOM      5  C   UNL     1      29.312 170.883 160.091  1.00  0.00     0.020 C 
BRANCH   5   6
ATOM      6  C   UNL     1      29.126 171.798 161.228  1.00  0.00     0.064 C 
ATOM      7  O   UNL     1      29.586 171.523 162.367  1.00  0.00    -0.545 OA
ATOM      8  O   UNL     1      28.432 172.986 161.041  1.00  0.00    -0.545 OA
ENDBRANCH   5   6
ENDBRANCH   3   4
ENDBRANCH   2   3
ENDBRANCH   1   2
BRANCH   1   9
ATOM      9  C   UNL     1      33.006 167.454 156.967  1.00  0.00     0.000 C 
BRANCH   9  10
ATOM     10  C   UNL     1      34.264 168.246 156.576  1.00  0.00     0.000 C 
BRANCH  10  11
ATOM     11  C   UNL     1      34.038 169.022 155.270  1.00  0.00    -0.000 C 
BRANCH  11  12
ATOM     12  C   UNL     1      32.665 168.735 154.640  1.00  0.00    -0.000 C 
BRANCH  12  13
ATOM     13  C   UNL     1      31.789 169.992 154.530  1.00  0.00    -0.003 C 
ATOM     14  C   UNL     1      30.330 169.674 154.846  1.00  0.00     0.004 C 
ENDBRANCH  12  13
ENDBRANCH  11  12
ENDBRANCH  10  11
ENDBRANCH   9  10
ENDBRANCH   1   9
TORSDOF 9
ENDMDL
MODEL 3
REMARK VINA RESULT:    -3.174     20.022     22.323
REMARK INTER + INTRA:          -6.484
REMARK INTER:                  -5.863
REMARK INTRA:                  -0.621
REMARK UNBOUND:                -1.640
REMARK SMILES CCCCCCCCCC=CC(=O)[O-]
REMARK SMILES IDX 7 1 8 2 9 3 10 4 11 5 12 6 13 7 14 8 6 9 5 10 4 11 3 12 2 13
REMARK SMILES IDX 1 14
REMARK H PARENT
REMARK Flexibility Score: inf
ROOT
ATOM      1  C   UNL     1      32.088 167.960 158.890  1.00  0.00     0.000 C 
ENDROOT
BRANCH   1   2
ATOM      2  C   UNL     1      31.268 169.243 158.667  1.00  0.00     0.004 C 
BRANCH   2   3
ATOM      3  C   UNL     1      29.987 169.262 159.516  1.00  0.00     0.027 C 
BRANCH   3   4
ATOM      4  C   UNL     1      29.789 170.570 160.228  1.00  0.00    -0.025 C 
ATOM      5  C   UNL     1      28.571 171.088 160.418  1.00  0.00     0.020 C 
BRANCH   5   6
ATOM      6  C   UNL     1      28.356 172.363 161.119  1.00  0.00     0.064 C 
ATOM      7  O   UNL     1      28.927 172.609 162.214  1.00  0.00    -0.545 OA
ATOM      8  O   UNL     1      27.509 173.313 160.562  1.00  0.00    -0.545 OA
ENDBRANCH   5   6
ENDBRANCH   3   4
ENDBRANCH   2   3
ENDBRANCH   1   2
BRANCH   1   9
ATOM      9  C   UNL     1      32.136 167.065 157.640  1.00  0.00     0.000 C 
BRANCH   9  10
ATOM     10  C   UNL     1      33.555 166.919 157.069  1.00  0.00     0.000 C 
BRANCH  10  11
ATOM     11  C   UNL     1      34.205 168.295 156.858  1.00  0.00    -0.000 C 
BRANCH  11  12
ATOM     12  C   UNL     1      34.214 168.726 155.383  1.00  0.00    -0.000 C 
BRANCH  12  13
ATOM     13  C   UNL     1      32.924 169.448 154.968  1.00  0.00    -0.003 C 
ATOM     14  C   UNL     1      32.086 168.584 154.031  1.00  0.00     0.004 C 
ENDBRANCH  12  13
ENDBRANCH  11  12
ENDBRANCH  10  11
ENDBRANCH   9  10
ENDBRANCH   1   9
TORSDOF 9
ENDMDL
MODEL 4
REMARK VINA RESULT:    -3.124     20.716     22.973
REMARK INTER + INTRA:          -6.408
REMARK INTER:                  -5.277
REMARK INTRA:                  -1.131
REMARK UNBOUND:                -1.640
REMARK SMILES CCCCCCCCCC=CC(=O)[O-]
REMARK SMILES IDX 7 1 8 2 9 3 10 4 11 5 12 6 13 7 14 8 6 9 5 10 4 11 3 12 2 13
REMARK SMILES IDX 1 14
REMARK H PARENT
REMARK Flexibility Score: inf
ROOT
ATOM      1  C   UNL     1      33.445 167.788 157.188  1.00  0.00     0.000 C 
ENDROOT
BRANCH   1   2
ATOM      2  C   UNL     1      32.372 167.575 158.269  1.00  0.00     0.004 C 
BRANCH   2   3
ATOM      3  C   UNL     1      31.144 168.473 158.048  1.00  0.00     0.027 C 
BRANCH   3   4
ATOM      4  C   UNL     1      30.852 169.348 159.235  1.00  0.00    -0.025 C 
ATOM      5  C   UNL     1      29.631 169.848 159.452  1.00  0.00     0.020 C 
BRANCH   5   6
ATOM      6  C   UNL     1      29.323 170.701 160.612  1.00  0.00     0.064 C 
ATOM      7  O   UNL     1      29.607 171.928 160.611  1.00  0.00    -0.545 OA
ATOM      8  O   UNL     1      28.708 170.142 161.724  1.00  0.00    -0.545 OA
ENDBRANCH   5   6
ENDBRANCH   3   4
ENDBRANCH   2   3
ENDBRANCH   1   2
BRANCH   1   9
ATOM      9  C   UNL     1      33.315 169.150 156.486  1.00  0.00     0.000 C 
BRANCH   9  10
ATOM     10  C   UNL     1      33.848 169.128 155.046  1.00  0.00     0.000 C 
BRANCH  10  11
ATOM     11  C   UNL     1      32.693 169.143 154.033  1.00  0.00    -0.000 C 
BRANCH  11  12
ATOM     12  C   UNL     1      31.454 169.885 154.559  1.00  0.00    -0.000 C 
BRANCH  12  13
ATOM     13  C   UNL     1      30.175 169.039 154.475  1.00  0.00    -0.003 C 
ATOM     14  C   UNL     1      30.505 167.550 154.411  1.00  0.00     0.004 C 
ENDBRANCH  12  13
ENDBRANCH  11  12
ENDBRANCH  10  11
ENDBRANCH   9  10
ENDBRANCH   1   9
TORSDOF 9
ENDMDL
MODEL 5
REMARK VINA RESULT:    -3.121     19.451     21.752
REMARK INTER + INTRA:          -6.404
REMARK INTER:                  -5.857
REMARK INTRA:                  -0.546
REMARK UNBOUND:                -1.640
REMARK SMILES CCCCCCCCCC=CC(=O)[O-]
REMARK SMILES IDX 7 1 8 2 9 3 10 4 11 5 12 6 13 7 14 8 6 9 5 10 4 11 3 12 2 13
REMARK SMILES IDX 1 14
REMARK H PARENT
REMARK Flexibility Score: inf
ROOT
ATOM      1  C   UNL     1      29.927 168.680 158.350  1.00  0.00     0.000 C 
ENDROOT
BRANCH   1   2
ATOM      2  C   UNL     1      28.992 169.675 159.058  1.00  0.00     0.004 C 
BRANCH   2   3
ATOM      3  C   UNL     1      29.726 170.490 160.134  1.00  0.00     0.027 C 
BRANCH   3   4
ATOM      4  C   UNL     1      28.785 171.292 160.989  1.00  0.00    -0.025 C 
ATOM      5  C   UNL     1      28.889 172.622 161.088  1.00  0.00     0.020 C 
BRANCH   5   6
ATOM      6  C   UNL     1      27.973 173.425 161.913  1.00  0.00     0.064 C 
ATOM      7  O   UNL     1      28.160 173.560 163.151  1.00  0.00    -0.545 OA
ATOM      8  O   UNL     1      26.884 174.046 161.315  1.00  0.00    -0.545 OA
ENDBRANCH   5   6
ENDBRANCH   3   4
ENDBRANCH   2   3
ENDBRANCH   1   2
BRANCH   1   9
ATOM      9  C   UNL     1      31.412 169.035 158.528  1.00  0.00     0.000 C 
BRANCH   9  10
ATOM     10  C   UNL     1      32.323 167.797 158.520  1.00  0.00     0.000 C 
BRANCH  10  11
ATOM     11  C   UNL     1      32.840 167.508 157.102  1.00  0.00    -0.000 C 
BRANCH  11  12
ATOM     12  C   UNL     1      34.174 168.210 156.803  1.00  0.00    -0.000 C 
BRANCH  12  13
ATOM     13  C   UNL     1      34.174 168.930 155.447  1.00  0.00    -0.003 C 
ATOM     14  C   UNL     1      32.770 169.399 155.073  1.00  0.00     0.004 C 
ENDBRANCH  12  13
ENDBRANCH  11  12
ENDBRANCH  10  11
ENDBRANCH   9  10
ENDBRANCH   1   9
TORSDOF 9
ENDMDL
MODEL 6
REMARK VINA RESULT:    -3.072     20.571     22.868
REMARK INTER + INTRA:          -6.329
REMARK INTER:                  -5.334
REMARK INTRA:                  -0.995
REMARK UNBOUND:                -1.640
REMARK SMILES CCCCCCCCCC=CC(=O)[O-]
REMARK SMILES IDX 7 1 8 2 9 3 10 4 11 5 12 6 13 7 14 8 6 9 5 10 4 11 3 12 2 13
REMARK SMILES IDX 1 14
REMARK H PARENT
REMARK Flexibility Score: inf
ROOT
ATOM      1  C   UNL     1      30.287 168.606 155.709  1.00  0.00     0.000 C 
ENDROOT
BRANCH   1   2
ATOM      2  C   UNL     1      29.684 168.951 157.082  1.00  0.00     0.004 C 
BRANCH   2   3
ATOM      3  C   UNL     1      30.620 168.559 158.237  1.00  0.00     0.027 C 
BRANCH   3   4
ATOM      4  C   UNL     1      30.509 169.494 159.408  1.00  0.00    -0.025 C 
ATOM      5  C   UNL     1      29.388 170.181 159.652  1.00  0.00     0.020 C 
BRANCH   5   6
ATOM      6  C   UNL     1      29.256 171.096 160.797  1.00  0.00     0.064 C 
ATOM      7  O   UNL     1      28.915 172.297 160.635  1.00  0.00    -0.545 OA
ATOM      8  O   UNL     1      29.512 170.625 162.079  1.00  0.00    -0.545 OA
ENDBRANCH   5   6
ENDBRANCH   3   4
ENDBRANCH   2   3
ENDBRANCH   1   2
BRANCH   1   9
ATOM      9  C   UNL     1      30.571 169.855 154.858  1.00  0.00     0.000 C 
BRANCH   9  10
ATOM     10  C   UNL     1      31.949 169.810 154.181  1.00  0.00     0.000 C 
BRANCH  10  11
ATOM     11  C   UNL     1      32.758 168.596 154.663  1.00  0.00    -0.000 C 
BRANCH  11  12
ATOM     12  C   UNL     1      34.074 168.996 155.349  1.00  0.00    -0.000 C 
BRANCH  12  13
ATOM     13  C   UNL     1      34.300 168.255 156.675  1.00  0.00    -0.003 C 
ATOM     14  C   UNL     1      33.554 166.925 156.695  1.00  0.00     0.004 C 
ENDBRANCH  12  13
ENDBRANCH  11  12
ENDBRANCH  10  11
ENDBRANCH   9  10
ENDBRANCH   1   9
TORSDOF 9
ENDMDL
MODEL 7
REMARK VINA RESULT:    -3.025     20.376     22.489
REMARK INTER + INTRA:          -6.256
REMARK INTER:                  -5.298
REMARK INTRA:                  -0.958
REMARK UNBOUND:                -1.640
REMARK SMILES CCCCCCCCCC=CC(=O)[O-]
REMARK SMILES IDX 7 1 8 2 9 3 10 4 11 5 12 6 13 7 14 8 6 9 5 10 4 11 3 12 2 13
REMARK SMILES IDX 1 14
REMARK H PARENT
REMARK Flexibility Score: inf
ROOT
ATOM      1  C   UNL     1      30.169 168.807 157.659  1.00  0.00     0.000 C 
ENDROOT
BRANCH   1   2
ATOM      2  C   UNL     1      31.447 168.949 158.503  1.00  0.00     0.004 C 
BRANCH   2   3
ATOM      3  C   UNL     1      31.939 167.594 159.036  1.00  0.00     0.027 C 
BRANCH   3   4
ATOM      4  C   UNL     1      32.295 167.647 160.496  1.00  0.00    -0.025 C 
ATOM      5  C   UNL     1      31.354 167.695 161.445  1.00  0.00     0.020 C 
BRANCH   5   6
ATOM      6  C   UNL     1      31.682 167.740 162.879  1.00  0.00     0.064 C 
ATOM      7  O   UNL     1      32.719 168.323 163.292  1.00  0.00    -0.545 OA
ATOM      8  O   UNL     1      30.832 167.129 163.792  1.00  0.00    -0.545 OA
ENDBRANCH   5   6
ENDBRANCH   3   4
ENDBRANCH   2   3
ENDBRANCH   1   2
BRANCH   1   9
ATOM      9  C   UNL     1      30.458 168.340 156.223  1.00  0.00     0.000 C 
BRANCH   9  10
ATOM     10  C   UNL     1      30.396 169.487 155.202  1.00  0.00     0.000 C 
BRANCH  10  11
ATOM     11  C   UNL     1      31.808 169.906 154.763  1.00  0.00    -0.000 C 
BRANCH  11  12
ATOM     12  C   UNL     1      32.785 168.720 154.700  1.00  0.00    -0.000 C 
BRANCH  12  13
ATOM     13  C   UNL     1      34.074 168.972 155.496  1.00  0.00    -0.003 C 
ATOM     14  C   UNL     1      34.388 167.798 156.419  1.00  0.00     0.004 C 
ENDBRANCH  12  13
ENDBRANCH  11  12
ENDBRANCH  10  11
ENDBRANCH   9  10
ENDBRANCH   1   9
TORSDOF 9
ENDMDL
MODEL 8
REMARK VINA RESULT:    -2.837     22.079     23.723
REMARK INTER + INTRA:          -5.970
REMARK INTER:                  -4.837
REMARK INTRA:                  -1.133
REMARK UNBOUND:                -1.640
REMARK SMILES CCCCCCCCCC=CC(=O)[O-]
REMARK SMILES IDX 7 1 8 2 9 3 10 4 11 5 12 6 13 7 14 8 6 9 5 10 4 11 3 12 2 13
REMARK SMILES IDX 1 14
REMARK H PARENT
REMARK Flexibility Score: inf
ROOT
ATOM      1  C   UNL     1      29.395 170.289 154.620  1.00  0.00     0.000 C 
ENDROOT
BRANCH   1   2
ATOM      2  C   UNL     1      28.823 169.032 155.299  1.00  0.00     0.004 C 
BRANCH   2   3
ATOM      3  C   UNL     1      28.000 169.379 156.551  1.00  0.00     0.027 C 
BRANCH   3   4
ATOM      4  C   UNL     1      28.829 169.360 157.805  1.00  0.00    -0.025 C 
ATOM      5  C   UNL     1      29.928 168.605 157.906  1.00  0.00     0.020 C 
BRANCH   5   6
ATOM      6  C   UNL     1      30.757 168.579 159.122  1.00  0.00     0.064 C 
ATOM      7  O   UNL     1      31.995 168.356 159.062  1.00  0.00    -0.545 OA
ATOM      8  O   UNL     1      30.164 168.807 160.357  1.00  0.00    -0.545 OA
ENDBRANCH   5   6
ENDBRANCH   3   4
ENDBRANCH   2   3
ENDBRANCH   1   2
BRANCH   1   9
ATOM      9  C   UNL     1      30.851 170.101 154.161  1.00  0.00     0.000 C 
BRANCH   9  10
ATOM     10  C   UNL     1      31.203 168.630 153.893  1.00  0.00     0.000 C 
BRANCH  10  11
ATOM     11  C   UNL     1      32.255 168.127 154.894  1.00  0.00    -0.000 C 
BRANCH  11  12
ATOM     12  C   UNL     1      32.904 169.268 155.694  1.00  0.00    -0.000 C 
BRANCH  12  13
ATOM     13  C   UNL     1      34.245 168.863 156.322  1.00  0.00    -0.003 C 
ATOM     14  C   UNL     1      34.306 167.357 156.563  1.00  0.00     0.004 C 
ENDBRANCH  12  13
ENDBRANCH  11  12
ENDBRANCH  10  11
ENDBRANCH   9  10
ENDBRANCH   1   9
TORSDOF 9
ENDMDL
MODEL 9
REMARK VINA RESULT:    -2.820      2.944      4.103
REMARK INTER + INTRA:          -5.944
REMARK INTER:                  -4.914
REMARK INTRA:                  -1.030
REMARK UNBOUND:                -1.640
REMARK SMILES CCCCCCCCCC=CC(=O)[O-]
REMARK SMILES IDX 7 1 8 2 9 3 10 4 11 5 12 6 13 7 14 8 6 9 5 10 4 11 3 12 2 13
REMARK SMILES IDX 1 14
REMARK H PARENT
REMARK Flexibility Score: inf
ROOT
ATOM      1  C   UNL     1      35.172 183.791 171.958  1.00  0.00     0.000 C 
ENDROOT
BRANCH   1   2
ATOM      2  C   UNL     1      36.018 183.270 170.782  1.00  0.00     0.004 C 
BRANCH   2   3
ATOM      3  C   UNL     1      37.312 184.079 170.600  1.00  0.00     0.027 C 
BRANCH   3   4
ATOM      4  C   UNL     1      38.443 183.549 171.436  1.00  0.00    -0.025 C 
ATOM      5  C   UNL     1      39.512 182.969 170.881  1.00  0.00     0.020 C 
BRANCH   5   6
ATOM      6  C   UNL     1      40.633 182.450 171.681  1.00  0.00     0.064 C 
ATOM      7  O   UNL     1      40.946 181.231 171.649  1.00  0.00    -0.545 OA
ATOM      8  O   UNL     1      41.358 183.321 172.484  1.00  0.00    -0.545 OA
ENDBRANCH   5   6
ENDBRANCH   3   4
ENDBRANCH   2   3
ENDBRANCH   1   2
BRANCH   1   9
ATOM      9  C   UNL     1      34.903 182.709 173.017  1.00  0.00     0.000 C 
BRANCH   9  10
ATOM     10  C   UNL     1      35.718 181.429 172.777  1.00  0.00     0.000 C 
BRANCH  10  11
ATOM     11  C   UNL     1      34.796 180.202 172.692  1.00  0.00    -0.000 C 
BRANCH  11  12
ATOM     12  C   UNL     1      34.676 179.650 171.262  1.00  0.00    -0.000 C 
BRANCH  12  13
ATOM     13  C   UNL     1      33.329 179.989 170.608  1.00  0.00    -0.003 C 
ATOM     14  C   UNL     1      33.510 180.969 169.452  1.00  0.00     0.004 C 
ENDBRANCH  12  13
ENDBRANCH  11  12
ENDBRANCH  10  11
ENDBRANCH   9  10
ENDBRANCH   1   9
TORSDOF 9
ENDMDL
