MODEL 1
REMARK VINA RESULT:    -6.078      0.000      0.000
REMARK INTER + INTRA:         -10.988
REMARK INTER:                  -9.631
REMARK INTRA:                  -1.357
REMARK UNBOUND:                -1.357
REMARK SMILES C[C@H]1O[C@H](O[C@H]2CC[C@@]3(C)[C@H](CC[C@]4(C)[C@@H]3C=C[C@]35OC[C@@]6(CCC(C)(C)C[C@@H]63)[C@H](O)C[C@@]54C)[C@@]2(C)CO)[C@@H](O)[C@@H](O[C@@H]2O[C@@H](CO)[C@H](O)[C@H](O)[C@H]2O)[C@@H]1O
REMARK SMILES IDX 1 1 2 2 54 3 41 4 39 5 4 6 3 7 55 8 42 10 43 11 52 12 44 13
REMARK SMILES IDX 50 14 45 15 48 16 53 17 51 19 46 21 47 22 49 24 5 26 6 27
REMARK SMILES IDX 7 28 35 29 8 30 11 31 36 32 9 33 12 34 10 35 16 36 13 37
REMARK SMILES IDX 14 38 17 39 15 40 33 41 18 42 19 43 32 44 34 45 29 46 20 47
REMARK SMILES IDX 30 48 22 49 28 50 21 51 23 52 25 53 24 54 26 55 27 56 37 57
REMARK SMILES IDX 38 58 31 60 40 62
REMARK H PARENT 55 9 53 18 51 20 47 23 49 25 38 59 31 61 40 63
REMARK Flexibility Score: inf
ROOT
ATOM      1  C   UNL     1     143.620  10.247  80.000  1.00  0.00     0.041 C 
ATOM      2  C   UNL     1     143.086   9.865  81.386  1.00  0.00     0.150 C 
ATOM      3  C   UNL     1     141.626   9.362  81.301  1.00  0.00     0.175 C 
ATOM      4  C   UNL     1     141.202   8.925  82.714  1.00  0.00     0.186 C 
ATOM      5  C   UNL     1     141.348  10.142  83.638  1.00  0.00     0.202 C 
ATOM      6  C   UNL     1     142.759  10.751  83.559  1.00  0.00     0.282 C 
ATOM      7  O   UNL     1     143.196  11.002  82.228  1.00  0.00    -0.344 OA
ENDROOT
BRANCH   3   8
ATOM      8  O   UNL     1     141.568   8.279  80.406  1.00  0.00    -0.388 OA
ATOM      9  H   UNL     1     140.666   8.305  79.983  1.00  0.00     0.211 HD
ENDBRANCH   3   8
BRANCH   4  10
ATOM     10  O   UNL     1     139.844   8.509  82.789  1.00  0.00    -0.341 OA
BRANCH  10  11
ATOM     11  C   UNL     1     139.402   8.060  84.070  1.00  0.00     0.282 C 
ATOM     12  C   UNL     1     138.327   8.961  84.760  1.00  0.00     0.202 C 
ATOM     13  O   UNL     1     138.919   6.730  83.944  1.00  0.00    -0.341 OA
ATOM     14  C   UNL     1     136.951   8.855  84.071  1.00  0.00     0.179 C 
ATOM     15  C   UNL     1     137.773   6.678  83.097  1.00  0.00     0.178 C 
ATOM     16  C   UNL     1     136.581   7.383  83.777  1.00  0.00     0.177 C 
BRANCH  12  17
ATOM     17  O   UNL     1     138.238   8.629  86.128  1.00  0.00    -0.385 OA
ATOM     18  H   UNL     1     138.904   7.916  86.321  1.00  0.00     0.211 HD
ENDBRANCH  12  17
BRANCH  14  19
ATOM     19  O   UNL     1     136.983   9.605  82.878  1.00  0.00    -0.387 OA
ATOM     20  H   UNL     1     136.283  10.306  82.967  1.00  0.00     0.211 HD
ENDBRANCH  14  19
BRANCH  15  21
ATOM     21  C   UNL     1     137.456   5.213  82.774  1.00  0.00     0.191 C 
BRANCH  21  22
ATOM     22  O   UNL     1     136.384   4.758  83.557  1.00  0.00    -0.394 OA
ATOM     23  H   UNL     1     135.568   4.891  83.010  1.00  0.00     0.210 HD
ENDBRANCH  21  22
ENDBRANCH  15  21
BRANCH  16  24
ATOM     24  O   UNL     1     135.443   7.328  82.947  1.00  0.00    -0.387 OA
ATOM     25  H   UNL     1     134.663   7.166  83.546  1.00  0.00     0.211 HD
ENDBRANCH  16  24
ENDBRANCH  10  11
ENDBRANCH   4  10
BRANCH   6  26
ATOM     26  O   UNL     1     143.643   9.942  84.318  1.00  0.00    -0.346 OA
BRANCH  26  27
ATOM     27  C   UNL     1     143.838  10.276  85.690  1.00  0.00     0.130 C 
ATOM     28  C   UNL     1     142.898   9.496  86.661  1.00  0.00     0.033 C 
ATOM     29  C   UNL     1     145.370  10.048  85.995  1.00  0.00     0.020 C 
ATOM     30  C   UNL     1     143.548   8.401  87.511  1.00  0.00     0.010 C 
ATOM     31  C   UNL     1     145.628   8.487  85.905  1.00  0.00     0.006 C 
ATOM     32  C   UNL     1     145.787  10.637  87.376  1.00  0.00     0.017 C 
ATOM     33  C   UNL     1     144.700   7.572  86.835  1.00  0.00    -0.022 C 
ATOM     34  C   UNL     1     147.111   8.027  85.792  1.00  0.00     0.005 C 
ATOM     35  C   UNL     1     143.965   6.552  85.893  1.00  0.00     0.012 C 
ATOM     36  C   UNL     1     145.501   6.888  88.045  1.00  0.00     0.024 C 
ATOM     37  C   UNL     1     147.736   7.566  87.098  1.00  0.00     0.008 C 
ATOM     38  C   UNL     1     146.968   6.397  87.791  1.00  0.00    -0.017 C 
ATOM     39  C   UNL     1     144.718   5.787  88.735  1.00  0.00    -0.024 C 
ATOM     40  C   UNL     1     146.951   5.161  86.831  1.00  0.00     0.013 C 
ATOM     41  C   UNL     1     147.669   5.983  89.220  1.00  0.00     0.009 C 
ATOM     42  C   UNL     1     145.286   5.040  89.683  1.00  0.00     0.005 C 
ATOM     43  C   UNL     1     146.604   5.429  90.311  1.00  0.00     0.096 C 
ATOM     44  C   UNL     1     148.443   7.188  89.869  1.00  0.00     0.043 C 
ATOM     45  C   UNL     1     148.787   4.913  88.962  1.00  0.00     0.015 C 
ATOM     46  C   UNL     1     146.343   6.446  91.471  1.00  0.00     0.037 C 
ATOM     47  O   UNL     1     147.145   4.287  90.952  1.00  0.00    -0.369 OA
ATOM     48  C   UNL     1     148.813   6.992  91.370  1.00  0.00     0.124 C 
ATOM     49  C   UNL     1     147.669   6.282  92.202  1.00  0.00     0.026 C 
ATOM     50  C   UNL     1     145.103   6.088  92.348  1.00  0.00     0.014 C 
ATOM     51  C   UNL     1     147.829   4.748  92.103  1.00  0.00     0.171 C 
ATOM     52  C   UNL     1     147.669   6.750  93.690  1.00  0.00     0.013 C 
ATOM     53  C   UNL     1     145.103   6.776  93.734  1.00  0.00    -0.035 C 
ATOM     54  C   UNL     1     146.403   6.384  94.477  1.00  0.00     0.007 C 
ATOM     55  C   UNL     1     143.897   6.265  94.548  1.00  0.00     0.011 C 
ATOM     56  C   UNL     1     144.974   8.310  93.602  1.00  0.00     0.011 C 
BRANCH  29  57
ATOM     57  C   UNL     1     146.188  10.856  84.915  1.00  0.00     0.165 C 
BRANCH  57  58
ATOM     58  O   UNL     1     146.246  10.185  83.686  1.00  0.00    -0.396 OA
ATOM     59  H   UNL     1     146.216  10.877  82.978  1.00  0.00     0.210 HD
ENDBRANCH  57  58
ENDBRANCH  29  57
BRANCH  48  60
ATOM     60  O   UNL     1     149.124   8.255  91.908  1.00  0.00    -0.392 OA
ATOM     61  H   UNL     1     148.395   8.495  92.539  1.00  0.00     0.210 HD
ENDBRANCH  48  60
ENDBRANCH  26  27
ENDBRANCH   6  26
BRANCH   5  62
ATOM     62  O   UNL     1     140.394  11.125  83.306  1.00  0.00    -0.385 OA
ATOM     63  H   UNL     1     140.287  11.113  82.320  1.00  0.00     0.211 HD
ENDBRANCH   5  62
TORSDOF 14
ENDMDL
MODEL 2
REMARK VINA RESULT:    -5.606      7.945     15.321
REMARK INTER + INTRA:         -10.240
REMARK INTER:                  -8.860
REMARK INTRA:                  -1.380
REMARK UNBOUND:                -1.357
REMARK SMILES C[C@H]1O[C@H](O[C@H]2CC[C@@]3(C)[C@H](CC[C@]4(C)[C@@H]3C=C[C@]35OC[C@@]6(CCC(C)(C)C[C@@H]63)[C@H](O)C[C@@]54C)[C@@]2(C)CO)[C@@H](O)[C@@H](O[C@@H]2O[C@@H](CO)[C@H](O)[C@H](O)[C@H]2O)[C@@H]1O
REMARK SMILES IDX 1 1 2 2 54 3 41 4 39 5 4 6 3 7 55 8 42 10 43 11 52 12 44 13
REMARK SMILES IDX 50 14 45 15 48 16 53 17 51 19 46 21 47 22 49 24 5 26 6 27
REMARK SMILES IDX 7 28 35 29 8 30 11 31 36 32 9 33 12 34 10 35 16 36 13 37
REMARK SMILES IDX 14 38 17 39 15 40 33 41 18 42 19 43 32 44 34 45 29 46 20 47
REMARK SMILES IDX 30 48 22 49 28 50 21 51 23 52 25 53 24 54 26 55 27 56 37 57
REMARK SMILES IDX 38 58 31 60 40 62
REMARK H PARENT 55 9 53 18 51 20 47 23 49 25 38 59 31 61 40 63
REMARK Flexibility Score: inf
ROOT
ATOM      1  C   UNL     1     139.261   7.211  83.704  1.00  0.00     0.041 C 
ATOM      2  C   UNL     1     137.948   6.893  82.976  1.00  0.00     0.150 C 
ATOM      3  C   UNL     1     136.868   7.955  83.287  1.00  0.00     0.175 C 
ATOM      4  C   UNL     1     135.621   7.605  82.457  1.00  0.00     0.186 C 
ATOM      5  C   UNL     1     135.181   6.190  82.855  1.00  0.00     0.202 C 
ATOM      6  C   UNL     1     136.332   5.177  82.727  1.00  0.00     0.282 C 
ATOM      7  O   UNL     1     137.531   5.595  83.372  1.00  0.00    -0.344 OA
ENDROOT
BRANCH   3   8
ATOM      8  O   UNL     1     137.361   9.224  82.936  1.00  0.00    -0.388 OA
ATOM      9  H   UNL     1     137.797   9.597  83.751  1.00  0.00     0.211 HD
ENDBRANCH   3   8
BRANCH   4  10
ATOM     10  O   UNL     1     134.518   8.468  82.708  1.00  0.00    -0.341 OA
BRANCH  10  11
ATOM     11  C   UNL     1     134.480   9.066  84.003  1.00  0.00     0.282 C 
ATOM     12  C   UNL     1     134.290  10.617  84.017  1.00  0.00     0.202 C 
ATOM     13  O   UNL     1     133.456   8.440  84.763  1.00  0.00    -0.341 OA
ATOM     14  C   UNL     1     132.861  11.032  83.609  1.00  0.00     0.179 C 
ATOM     15  C   UNL     1     132.173   8.675  84.187  1.00  0.00     0.178 C 
ATOM     16  C   UNL     1     131.798  10.166  84.323  1.00  0.00     0.177 C 
BRANCH  12  17
ATOM     17  O   UNL     1     134.622  11.123  85.292  1.00  0.00    -0.385 OA
ATOM     18  H   UNL     1     134.043  10.677  85.966  1.00  0.00     0.211 HD
ENDBRANCH  12  17
BRANCH  14  19
ATOM     19  O   UNL     1     132.739  10.913  82.210  1.00  0.00    -0.387 OA
ATOM     20  H   UNL     1     133.574  11.288  81.821  1.00  0.00     0.211 HD
ENDBRANCH  14  19
BRANCH  15  21
ATOM     21  C   UNL     1     131.144   7.767  84.873  1.00  0.00     0.191 C 
BRANCH  21  22
ATOM     22  O   UNL     1     131.750   7.026  85.899  1.00  0.00    -0.394 OA
ATOM     23  H   UNL     1     131.021   6.522  86.342  1.00  0.00     0.210 HD
ENDBRANCH  21  22
ENDBRANCH  15  21
BRANCH  16  24
ATOM     24  O   UNL     1     130.528  10.403  83.763  1.00  0.00    -0.387 OA
ATOM     25  H   UNL     1     129.859  10.174  84.467  1.00  0.00     0.211 HD
ENDBRANCH  16  24
ENDBRANCH  10  11
ENDBRANCH   4  10
BRANCH   6  26
ATOM     26  O   UNL     1     136.495   4.850  81.356  1.00  0.00    -0.346 OA
BRANCH  26  27
ATOM     27  C   UNL     1     136.471   3.471  80.994  1.00  0.00     0.130 C 
ATOM     28  C   UNL     1     135.710   2.572  82.018  1.00  0.00     0.033 C 
ATOM     29  C   UNL     1     135.868   3.399  79.538  1.00  0.00     0.020 C 
ATOM     30  C   UNL     1     134.344   2.039  81.577  1.00  0.00     0.010 C 
ATOM     31  C   UNL     1     134.346   3.827  79.650  1.00  0.00     0.006 C 
ATOM     32  C   UNL     1     136.038   1.987  78.902  1.00  0.00     0.017 C 
ATOM     33  C   UNL     1     133.463   2.996  80.695  1.00  0.00    -0.022 C 
ATOM     34  C   UNL     1     133.624   4.202  78.323  1.00  0.00     0.005 C 
ATOM     35  C   UNL     1     132.851   4.030  81.706  1.00  0.00     0.012 C 
ATOM     36  C   UNL     1     132.378   2.048  79.989  1.00  0.00     0.024 C 
ATOM     37  C   UNL     1     132.767   3.096  77.729  1.00  0.00     0.008 C 
ATOM     38  C   UNL     1     131.661   2.564  78.694  1.00  0.00    -0.017 C 
ATOM     39  C   UNL     1     131.340   1.505  80.952  1.00  0.00    -0.024 C 
ATOM     40  C   UNL     1     130.697   3.742  79.060  1.00  0.00     0.013 C 
ATOM     41  C   UNL     1     130.806   1.338  78.008  1.00  0.00     0.009 C 
ATOM     42  C   UNL     1     130.302   0.797  80.505  1.00  0.00     0.005 C 
ATOM     43  C   UNL     1     130.259   0.263  79.093  1.00  0.00     0.096 C 
ATOM     44  C   UNL     1     131.651   0.557  76.936  1.00  0.00     0.043 C 
ATOM     45  C   UNL     1     129.609   1.932  77.184  1.00  0.00     0.015 C 
ATOM     46  C   UNL     1     131.028  -1.099  79.033  1.00  0.00     0.037 C 
ATOM     47  O   UNL     1     128.918  -0.071  78.783  1.00  0.00    -0.369 OA
ATOM     48  C   UNL     1     131.056  -0.821  76.516  1.00  0.00     0.124 C 
ATOM     49  C   UNL     1     130.435  -1.623  77.732  1.00  0.00     0.026 C 
ATOM     50  C   UNL     1     130.753  -2.026  80.257  1.00  0.00     0.014 C 
ATOM     51  C   UNL     1     128.961  -1.203  77.933  1.00  0.00     0.171 C 
ATOM     52  C   UNL     1     130.554  -3.164  77.521  1.00  0.00     0.013 C 
ATOM     53  C   UNL     1     131.103  -3.512  80.003  1.00  0.00    -0.035 C 
ATOM     54  C   UNL     1     130.295  -4.005  78.779  1.00  0.00     0.007 C 
ATOM     55  C   UNL     1     130.689  -4.342  81.235  1.00  0.00     0.011 C 
ATOM     56  C   UNL     1     132.621  -3.703  79.787  1.00  0.00     0.011 C 
BRANCH  29  57
ATOM     57  C   UNL     1     136.705   4.385  78.634  1.00  0.00     0.165 C 
BRANCH  57  58
ATOM     58  O   UNL     1     138.060   4.405  78.989  1.00  0.00    -0.396 OA
ATOM     59  H   UNL     1     138.333   3.465  79.140  1.00  0.00     0.210 HD
ENDBRANCH  57  58
ENDBRANCH  29  57
BRANCH  48  60
ATOM     60  O   UNL     1     132.077  -1.560  75.888  1.00  0.00    -0.392 OA
ATOM     61  H   UNL     1     131.691  -2.440  75.635  1.00  0.00     0.210 HD
ENDBRANCH  48  60
ENDBRANCH  26  27
ENDBRANCH   6  26
BRANCH   5  62
ATOM     62  O   UNL     1     134.697   6.183  84.179  1.00  0.00    -0.385 OA
ATOM     63  H   UNL     1     135.231   5.519  84.686  1.00  0.00     0.211 HD
ENDBRANCH   5  62
TORSDOF 14
ENDMDL
MODEL 3
REMARK VINA RESULT:    -5.179      8.547     15.675
REMARK INTER + INTRA:          -9.564
REMARK INTER:                  -8.244
REMARK INTRA:                  -1.319
REMARK UNBOUND:                -1.357
REMARK SMILES C[C@H]1O[C@H](O[C@H]2CC[C@@]3(C)[C@H](CC[C@]4(C)[C@@H]3C=C[C@]35OC[C@@]6(CCC(C)(C)C[C@@H]63)[C@H](O)C[C@@]54C)[C@@]2(C)CO)[C@@H](O)[C@@H](O[C@@H]2O[C@@H](CO)[C@H](O)[C@H](O)[C@H]2O)[C@@H]1O
REMARK SMILES IDX 1 1 2 2 54 3 41 4 39 5 4 6 3 7 55 8 42 10 43 11 52 12 44 13
REMARK SMILES IDX 50 14 45 15 48 16 53 17 51 19 46 21 47 22 49 24 5 26 6 27
REMARK SMILES IDX 7 28 35 29 8 30 11 31 36 32 9 33 12 34 10 35 16 36 13 37
REMARK SMILES IDX 14 38 17 39 15 40 33 41 18 42 19 43 32 44 34 45 29 46 20 47
REMARK SMILES IDX 30 48 22 49 28 50 21 51 23 52 25 53 24 54 26 55 27 56 37 57
REMARK SMILES IDX 38 58 31 60 40 62
REMARK H PARENT 55 9 53 18 51 20 47 23 49 25 38 59 31 61 40 63
REMARK Flexibility Score: inf
ROOT
ATOM      1  C   UNL     1     129.040  11.003  83.363  1.00  0.00     0.041 C 
ATOM      2  C   UNL     1     130.161  10.030  82.974  1.00  0.00     0.150 C 
ATOM      3  C   UNL     1     131.382  10.185  83.911  1.00  0.00     0.175 C 
ATOM      4  C   UNL     1     132.417   9.122  83.504  1.00  0.00     0.186 C 
ATOM      5  C   UNL     1     132.776   9.365  82.032  1.00  0.00     0.202 C 
ATOM      6  C   UNL     1     131.523   9.405  81.138  1.00  0.00     0.282 C 
ATOM      7  O   UNL     1     130.509  10.280  81.621  1.00  0.00    -0.344 OA
ENDROOT
BRANCH   3   8
ATOM      8  O   UNL     1     130.965   9.990  85.240  1.00  0.00    -0.388 OA
ATOM      9  H   UNL     1     131.590   9.327  85.642  1.00  0.00     0.211 HD
ENDBRANCH   3   8
BRANCH   4  10
ATOM     10  O   UNL     1     133.628   9.205  84.244  1.00  0.00    -0.341 OA
BRANCH  10  11
ATOM     11  C   UNL     1     134.240   7.959  84.576  1.00  0.00     0.282 C 
ATOM     12  C   UNL     1     135.177   7.361  83.476  1.00  0.00     0.202 C 
ATOM     13  O   UNL     1     134.952   8.112  85.795  1.00  0.00    -0.341 OA
ATOM     14  C   UNL     1     136.494   8.153  83.340  1.00  0.00     0.179 C 
ATOM     15  C   UNL     1     136.021   9.045  85.652  1.00  0.00     0.178 C 
ATOM     16  C   UNL     1     137.109   8.464  84.724  1.00  0.00     0.177 C 
BRANCH  12  17
ATOM     17  O   UNL     1     135.428   6.000  83.757  1.00  0.00    -0.385 OA
ATOM     18  H   UNL     1     135.006   5.778  84.629  1.00  0.00     0.211 HD
ENDBRANCH  12  17
BRANCH  14  19
ATOM     19  O   UNL     1     136.233   9.344  82.635  1.00  0.00    -0.387 OA
ATOM     20  H   UNL     1     135.397   9.722  83.019  1.00  0.00     0.211 HD
ENDBRANCH  14  19
BRANCH  15  21
ATOM     21  C   UNL     1     136.580   9.381  87.040  1.00  0.00     0.191 C 
BRANCH  21  22
ATOM     22  O   UNL     1     137.873   8.855  87.189  1.00  0.00    -0.394 OA
ATOM     23  H   UNL     1     137.783   7.873  87.095  1.00  0.00     0.210 HD
ENDBRANCH  21  22
ENDBRANCH  15  21
BRANCH  16  24
ATOM     24  O   UNL     1     138.171   9.378  84.585  1.00  0.00    -0.387 OA
ATOM     25  H   UNL     1     138.655   9.127  83.750  1.00  0.00     0.211 HD
ENDBRANCH  16  24
ENDBRANCH  10  11
ENDBRANCH   4  10
BRANCH   6  26
ATOM     26  O   UNL     1     131.084   8.074  80.917  1.00  0.00    -0.346 OA
BRANCH  26  27
ATOM     27  C   UNL     1     132.045   7.028  81.042  1.00  0.00     0.130 C 
ATOM     28  C   UNL     1     131.588   5.872  81.985  1.00  0.00     0.033 C 
ATOM     29  C   UNL     1     132.372   6.540  79.578  1.00  0.00     0.020 C 
ATOM     30  C   UNL     1     131.203   4.551  81.312  1.00  0.00     0.010 C 
ATOM     31  C   UNL     1     131.063   5.840  79.025  1.00  0.00     0.006 C 
ATOM     32  C   UNL     1     133.610   5.594  79.537  1.00  0.00     0.017 C 
ATOM     33  C   UNL     1     130.474   4.652  79.923  1.00  0.00    -0.022 C 
ATOM     34  C   UNL     1     130.989   5.606  77.487  1.00  0.00     0.005 C 
ATOM     35  C   UNL     1     128.990   5.030  80.271  1.00  0.00     0.012 C 
ATOM     36  C   UNL     1     130.643   3.207  79.246  1.00  0.00     0.024 C 
ATOM     37  C   UNL     1     131.348   4.199  77.039  1.00  0.00     0.008 C 
ATOM     38  C   UNL     1     130.474   3.083  77.693  1.00  0.00    -0.017 C 
ATOM     39  C   UNL     1     129.822   2.128  79.926  1.00  0.00    -0.024 C 
ATOM     40  C   UNL     1     128.976   3.318  77.305  1.00  0.00     0.013 C 
ATOM     41  C   UNL     1     130.948   1.586  77.203  1.00  0.00     0.009 C 
ATOM     42  C   UNL     1     129.759   0.898  79.415  1.00  0.00     0.005 C 
ATOM     43  C   UNL     1     130.707   0.444  78.329  1.00  0.00     0.096 C 
ATOM     44  C   UNL     1     132.467   1.551  76.797  1.00  0.00     0.043 C 
ATOM     45  C   UNL     1     130.196   1.208  75.878  1.00  0.00     0.015 C 
ATOM     46  C   UNL     1     132.040  -0.051  78.982  1.00  0.00     0.037 C 
ATOM     47  O   UNL     1     130.160  -0.709  77.714  1.00  0.00    -0.369 OA
ATOM     48  C   UNL     1     133.077   0.122  76.679  1.00  0.00     0.124 C 
ATOM     49  C   UNL     1     132.565  -0.865  77.806  1.00  0.00     0.026 C 
ATOM     50  C   UNL     1     131.825  -0.899  80.275  1.00  0.00     0.014 C 
ATOM     51  C   UNL     1     131.250  -1.537  77.351  1.00  0.00     0.171 C 
ATOM     52  C   UNL     1     133.644  -1.931  78.166  1.00  0.00     0.013 C 
ATOM     53  C   UNL     1     133.045  -1.770  80.656  1.00  0.00    -0.035 C 
ATOM     54  C   UNL     1     133.374  -2.703  79.466  1.00  0.00     0.007 C 
ATOM     55  C   UNL     1     132.679  -2.639  81.876  1.00  0.00     0.011 C 
ATOM     56  C   UNL     1     134.263  -0.899  81.038  1.00  0.00     0.011 C 
BRANCH  29  57
ATOM     57  C   UNL     1     132.773   7.814  78.738  1.00  0.00     0.165 C 
BRANCH  57  58
ATOM     58  O   UNL     1     133.771   7.533  77.796  1.00  0.00    -0.396 OA
ATOM     59  H   UNL     1     134.486   7.040  78.270  1.00  0.00     0.210 HD
ENDBRANCH  57  58
ENDBRANCH  29  57
BRANCH  48  60
ATOM     60  O   UNL     1     134.479   0.246  76.710  1.00  0.00    -0.392 OA
ATOM     61  H   UNL     1     134.841  -0.597  77.091  1.00  0.00     0.210 HD
ENDBRANCH  48  60
ENDBRANCH  26  27
ENDBRANCH   6  26
BRANCH   5  62
ATOM     62  O   UNL     1     133.486  10.574  81.895  1.00  0.00    -0.385 OA
ATOM     63  H   UNL     1     134.132  10.457  81.151  1.00  0.00     0.211 HD
ENDBRANCH   5  62
TORSDOF 14
ENDMDL
MODEL 4
REMARK VINA RESULT:    -4.836      5.168     13.278
REMARK INTER + INTRA:          -9.020
REMARK INTER:                  -8.274
REMARK INTRA:                  -0.746
REMARK UNBOUND:                -1.357
REMARK SMILES C[C@H]1O[C@H](O[C@H]2CC[C@@]3(C)[C@H](CC[C@]4(C)[C@@H]3C=C[C@]35OC[C@@]6(CCC(C)(C)C[C@@H]63)[C@H](O)C[C@@]54C)[C@@]2(C)CO)[C@@H](O)[C@@H](O[C@@H]2O[C@@H](CO)[C@H](O)[C@H](O)[C@H]2O)[C@@H]1O
REMARK SMILES IDX 1 1 2 2 54 3 41 4 39 5 4 6 3 7 55 8 42 10 43 11 52 12 44 13
REMARK SMILES IDX 50 14 45 15 48 16 53 17 51 19 46 21 47 22 49 24 5 26 6 27
REMARK SMILES IDX 7 28 35 29 8 30 11 31 36 32 9 33 12 34 10 35 16 36 13 37
REMARK SMILES IDX 14 38 17 39 15 40 33 41 18 42 19 43 32 44 34 45 29 46 20 47
REMARK SMILES IDX 30 48 22 49 28 50 21 51 23 52 25 53 24 54 26 55 27 56 37 57
REMARK SMILES IDX 38 58 31 60 40 62
REMARK H PARENT 55 9 53 18 51 20 47 23 49 25 38 59 31 61 40 63
REMARK Flexibility Score: inf
ROOT
ATOM      1  C   UNL     1     135.455   8.480  86.251  1.00  0.00     0.041 C 
ATOM      2  C   UNL     1     136.148   8.390  84.885  1.00  0.00     0.150 C 
ATOM      3  C   UNL     1     137.596   8.930  84.959  1.00  0.00     0.175 C 
ATOM      4  C   UNL     1     138.238   8.726  83.576  1.00  0.00     0.186 C 
ATOM      5  C   UNL     1     137.384   9.484  82.552  1.00  0.00     0.202 C 
ATOM      6  C   UNL     1     135.902   9.074  82.629  1.00  0.00     0.282 C 
ATOM      7  O   UNL     1     135.369   9.118  83.948  1.00  0.00    -0.344 OA
ENDROOT
BRANCH   3   8
ATOM      8  O   UNL     1     138.299   8.215  85.946  1.00  0.00    -0.388 OA
ATOM      9  H   UNL     1     137.919   8.493  86.825  1.00  0.00     0.211 HD
ENDBRANCH   3   8
BRANCH   4  10
ATOM     10  O   UNL     1     139.556   9.252  83.486  1.00  0.00    -0.341 OA
BRANCH  10  11
ATOM     11  C   UNL     1     140.408   8.632  82.523  1.00  0.00     0.282 C 
ATOM     12  C   UNL     1     141.366   9.601  81.757  1.00  0.00     0.202 C 
ATOM     13  O   UNL     1     141.155   7.611  83.166  1.00  0.00    -0.341 OA
ATOM     14  C   UNL     1     142.503  10.127  82.658  1.00  0.00     0.179 C 
ATOM     15  C   UNL     1     142.022   8.157  84.159  1.00  0.00     0.178 C 
ATOM     16  C   UNL     1     143.137   8.986  83.487  1.00  0.00     0.177 C 
BRANCH  12  17
ATOM     17  O   UNL     1     141.882   8.952  80.615  1.00  0.00    -0.385 OA
ATOM     18  H   UNL     1     141.129   8.770  79.992  1.00  0.00     0.211 HD
ENDBRANCH  12  17
BRANCH  14  19
ATOM     19  O   UNL     1     141.982  11.125  83.506  1.00  0.00    -0.387 OA
ATOM     20  H   UNL     1     141.687  10.663  84.336  1.00  0.00     0.211 HD
ENDBRANCH  14  19
BRANCH  15  21
ATOM     21  C   UNL     1     142.598   7.013  85.004  1.00  0.00     0.191 C 
BRANCH  21  22
ATOM     22  O   UNL     1     143.092   7.503  86.222  1.00  0.00    -0.394 OA
ATOM     23  H   UNL     1     143.381   8.435  86.047  1.00  0.00     0.210 HD
ENDBRANCH  21  22
ENDBRANCH  15  21
BRANCH  16  24
ATOM     24  O   UNL     1     144.001   9.522  84.463  1.00  0.00    -0.387 OA
ATOM     25  H   UNL     1     144.882   9.070  84.341  1.00  0.00     0.211 HD
ENDBRANCH  16  24
ENDBRANCH  10  11
ENDBRANCH   4  10
BRANCH   6  26
ATOM     26  O   UNL     1     135.747   7.821  81.983  1.00  0.00    -0.346 OA
BRANCH  26  27
ATOM     27  C   UNL     1     135.234   6.734  82.751  1.00  0.00     0.130 C 
ATOM     28  C   UNL     1     133.711   6.477  82.527  1.00  0.00     0.033 C 
ATOM     29  C   UNL     1     136.131   5.481  82.413  1.00  0.00     0.020 C 
ATOM     30  C   UNL     1     133.340   5.228  81.722  1.00  0.00     0.010 C 
ATOM     31  C   UNL     1     135.835   5.100  80.904  1.00  0.00     0.006 C 
ATOM     32  C   UNL     1     135.867   4.292  83.385  1.00  0.00     0.017 C 
ATOM     33  C   UNL     1     134.298   4.840  80.538  1.00  0.00    -0.022 C 
ATOM     34  C   UNL     1     136.851   4.146  80.210  1.00  0.00     0.005 C 
ATOM     35  C   UNL     1     133.927   5.829  79.376  1.00  0.00     0.012 C 
ATOM     36  C   UNL     1     133.978   3.301  80.217  1.00  0.00     0.024 C 
ATOM     37  C   UNL     1     136.423   2.689  80.156  1.00  0.00     0.008 C 
ATOM     38  C   UNL     1     135.051   2.457  79.447  1.00  0.00    -0.017 C 
ATOM     39  C   UNL     1     132.622   3.093  79.572  1.00  0.00    -0.024 C 
ATOM     40  C   UNL     1     135.153   2.958  77.968  1.00  0.00     0.013 C 
ATOM     41  C   UNL     1     134.627   0.868  79.469  1.00  0.00     0.009 C 
ATOM     42  C   UNL     1     132.254   1.887  79.136  1.00  0.00     0.005 C 
ATOM     43  C   UNL     1     133.021   0.642  79.514  1.00  0.00     0.096 C 
ATOM     44  C   UNL     1     135.257   0.105  80.691  1.00  0.00     0.043 C 
ATOM     45  C   UNL     1     135.240   0.146  78.217  1.00  0.00     0.015 C 
ATOM     46  C   UNL     1     132.522   0.132  80.906  1.00  0.00     0.037 C 
ATOM     47  O   UNL     1     132.670  -0.389  78.609  1.00  0.00    -0.369 OA
ATOM     48  C   UNL     1     134.619  -1.285  80.990  1.00  0.00     0.124 C 
ATOM     49  C   UNL     1     133.046  -1.295  80.812  1.00  0.00     0.026 C 
ATOM     50  C   UNL     1     130.974   0.213  81.084  1.00  0.00     0.014 C 
ATOM     51  C   UNL     1     132.691  -1.602  79.339  1.00  0.00     0.171 C 
ATOM     52  C   UNL     1     132.368  -2.317  81.775  1.00  0.00     0.013 C 
ATOM     53  C   UNL     1     130.429  -0.694  82.213  1.00  0.00    -0.035 C 
ATOM     54  C   UNL     1     130.848  -2.154  81.916  1.00  0.00     0.007 C 
ATOM     55  C   UNL     1     128.889  -0.614  82.221  1.00  0.00     0.011 C 
ATOM     56  C   UNL     1     130.938  -0.235  83.598  1.00  0.00     0.011 C 
BRANCH  29  57
ATOM     57  C   UNL     1     137.633   5.904  82.643  1.00  0.00     0.165 C 
BRANCH  57  58
ATOM     58  O   UNL     1     138.082   5.578  83.929  1.00  0.00    -0.396 OA
ATOM     59  H   UNL     1     137.620   4.744  84.194  1.00  0.00     0.210 HD
ENDBRANCH  57  58
ENDBRANCH  29  57
BRANCH  48  60
ATOM     60  O   UNL     1     134.985  -1.657  82.297  1.00  0.00    -0.392 OA
ATOM     61  H   UNL     1     134.195  -2.095  82.712  1.00  0.00     0.210 HD
ENDBRANCH  48  60
ENDBRANCH  26  27
ENDBRANCH   6  26
BRANCH   5  62
ATOM     62  O   UNL     1     137.495  10.874  82.756  1.00  0.00    -0.385 OA
ATOM     63  H   UNL     1     138.295  11.184  82.259  1.00  0.00     0.211 HD
ENDBRANCH   5  62
TORSDOF 14
ENDMDL
MODEL 5
REMARK VINA RESULT:    -4.738      8.974     15.671
REMARK INTER + INTRA:          -8.865
REMARK INTER:                  -9.142
REMARK INTRA:                   0.277
REMARK UNBOUND:                -1.357
REMARK SMILES C[C@H]1O[C@H](O[C@H]2CC[C@@]3(C)[C@H](CC[C@]4(C)[C@@H]3C=C[C@]35OC[C@@]6(CCC(C)(C)C[C@@H]63)[C@H](O)C[C@@]54C)[C@@]2(C)CO)[C@@H](O)[C@@H](O[C@@H]2O[C@@H](CO)[C@H](O)[C@H](O)[C@H]2O)[C@@H]1O
REMARK SMILES IDX 1 1 2 2 54 3 41 4 39 5 4 6 3 7 55 8 42 10 43 11 52 12 44 13
REMARK SMILES IDX 50 14 45 15 48 16 53 17 51 19 46 21 47 22 49 24 5 26 6 27
REMARK SMILES IDX 7 28 35 29 8 30 11 31 36 32 9 33 12 34 10 35 16 36 13 37
REMARK SMILES IDX 14 38 17 39 15 40 33 41 18 42 19 43 32 44 34 45 29 46 20 47
REMARK SMILES IDX 30 48 22 49 28 50 21 51 23 52 25 53 24 54 26 55 27 56 37 57
REMARK SMILES IDX 38 58 31 60 40 62
REMARK H PARENT 55 9 53 18 51 20 47 23 49 25 38 59 31 61 40 63
REMARK Flexibility Score: inf
ROOT
ATOM      1  C   UNL     1     130.981   6.211  85.809  1.00  0.00     0.041 C 
ATOM      2  C   UNL     1     131.482   6.883  84.524  1.00  0.00     0.150 C 
ATOM      3  C   UNL     1     132.496   8.006  84.843  1.00  0.00     0.175 C 
ATOM      4  C   UNL     1     133.006   8.566  83.503  1.00  0.00     0.186 C 
ATOM      5  C   UNL     1     131.789   9.081  82.724  1.00  0.00     0.202 C 
ATOM      6  C   UNL     1     130.700   8.002  82.587  1.00  0.00     0.282 C 
ATOM      7  O   UNL     1     130.355   7.384  83.822  1.00  0.00    -0.344 OA
ENDROOT
BRANCH   3   8
ATOM      8  O   UNL     1     133.556   7.465  85.593  1.00  0.00    -0.388 OA
ATOM      9  H   UNL     1     133.197   7.280  86.504  1.00  0.00     0.211 HD
ENDBRANCH   3   8
BRANCH   4  10
ATOM     10  O   UNL     1     133.896   9.664  83.655  1.00  0.00    -0.341 OA
BRANCH  10  11
ATOM     11  C   UNL     1     134.927   9.769  82.674  1.00  0.00     0.282 C 
ATOM     12  C   UNL     1     136.166  10.623  83.096  1.00  0.00     0.202 C 
ATOM     13  O   UNL     1     135.337   8.461  82.303  1.00  0.00    -0.341 OA
ATOM     14  C   UNL     1     137.030   9.911  84.157  1.00  0.00     0.179 C 
ATOM     15  C   UNL     1     135.919   7.773  83.408  1.00  0.00     0.178 C 
ATOM     16  C   UNL     1     137.264   8.428  83.788  1.00  0.00     0.177 C 
BRANCH  12  17
ATOM     17  O   UNL     1     136.929  10.947  81.953  1.00  0.00    -0.385 OA
ATOM     18  H   UNL     1     137.769  10.416  81.977  1.00  0.00     0.211 HD
ENDBRANCH  12  17
BRANCH  14  19
ATOM     19  O   UNL     1     136.387  10.014  85.406  1.00  0.00    -0.387 OA
ATOM     20  H   UNL     1     136.544  10.942  85.727  1.00  0.00     0.211 HD
ENDBRANCH  14  19
BRANCH  15  21
ATOM     21  C   UNL     1     136.093   6.294  83.040  1.00  0.00     0.191 C 
BRANCH  21  22
ATOM     22  O   UNL     1     135.312   5.484  83.880  1.00  0.00    -0.394 OA
ATOM     23  H   UNL     1     135.380   4.565  83.516  1.00  0.00     0.210 HD
ENDBRANCH  21  22
ENDBRANCH  15  21
BRANCH  16  24
ATOM     24  O   UNL     1     137.849   7.747  84.874  1.00  0.00    -0.387 OA
ATOM     25  H   UNL     1     138.430   8.407  85.344  1.00  0.00     0.211 HD
ENDBRANCH  16  24
ENDBRANCH  10  11
ENDBRANCH   4  10
BRANCH   6  26
ATOM     26  O   UNL     1     131.092   7.092  81.572  1.00  0.00    -0.346 OA
BRANCH  26  27
ATOM     27  C   UNL     1     131.729   5.881  81.975  1.00  0.00     0.130 C 
ATOM     28  C   UNL     1     130.733   4.796  82.490  1.00  0.00     0.033 C 
ATOM     29  C   UNL     1     132.591   5.396  80.746  1.00  0.00     0.020 C 
ATOM     30  C   UNL     1     130.490   3.596  81.569  1.00  0.00     0.010 C 
ATOM     31  C   UNL     1     131.572   4.973  79.609  1.00  0.00     0.006 C 
ATOM     32  C   UNL     1     133.560   4.238  81.130  1.00  0.00     0.017 C 
ATOM     33  C   UNL     1     130.475   3.884  80.024  1.00  0.00    -0.022 C 
ATOM     34  C   UNL     1     132.151   4.815  78.172  1.00  0.00     0.005 C 
ATOM     35  C   UNL     1     129.066   4.518  79.744  1.00  0.00     0.012 C 
ATOM     36  C   UNL     1     130.705   2.459  79.323  1.00  0.00     0.024 C 
ATOM     37  C   UNL     1     132.454   3.384  77.761  1.00  0.00     0.008 C 
ATOM     38  C   UNL     1     131.224   2.426  77.844  1.00  0.00    -0.017 C 
ATOM     39  C   UNL     1     129.516   1.527  79.456  1.00  0.00    -0.024 C 
ATOM     40  C   UNL     1     130.106   2.951  76.882  1.00  0.00     0.013 C 
ATOM     41  C   UNL     1     131.633   0.887  77.435  1.00  0.00     0.009 C 
ATOM     42  C   UNL     1     129.500   0.351  78.828  1.00  0.00     0.005 C 
ATOM     43  C   UNL     1     130.749  -0.231  78.209  1.00  0.00     0.096 C 
ATOM     44  C   UNL     1     133.150   0.585  77.717  1.00  0.00     0.043 C 
ATOM     45  C   UNL     1     131.496   0.706  75.881  1.00  0.00     0.015 C 
ATOM     46  C   UNL     1     131.565  -0.990  79.307  1.00  0.00     0.037 C 
ATOM     47  O   UNL     1     130.363  -1.238  77.290  1.00  0.00    -0.369 OA
ATOM     48  C   UNL     1     133.526  -0.927  77.708  1.00  0.00     0.124 C 
ATOM     49  C   UNL     1     132.426  -1.843  78.384  1.00  0.00     0.026 C 
ATOM     50  C   UNL     1     130.676  -1.831  80.276  1.00  0.00     0.014 C 
ATOM     51  C   UNL     1     131.363  -2.241  77.335  1.00  0.00     0.171 C 
ATOM     52  C   UNL     1     133.060  -3.105  79.045  1.00  0.00     0.013 C 
ATOM     53  C   UNL     1     131.454  -2.929  81.040  1.00  0.00    -0.035 C 
ATOM     54  C   UNL     1     132.130  -3.861  80.006  1.00  0.00     0.007 C 
ATOM     55  C   UNL     1     130.460  -3.759  81.876  1.00  0.00     0.011 C 
ATOM     56  C   UNL     1     132.494  -2.314  82.005  1.00  0.00     0.011 C 
BRANCH  29  57
ATOM     57  C   UNL     1     133.509   6.603  80.312  1.00  0.00     0.165 C 
BRANCH  57  58
ATOM     58  O   UNL     1     132.818   7.540  79.533  1.00  0.00    -0.396 OA
ATOM     59  H   UNL     1     132.835   8.397  80.028  1.00  0.00     0.210 HD
ENDBRANCH  57  58
ENDBRANCH  29  57
BRANCH  48  60
ATOM     60  O   UNL     1     134.771  -1.069  78.350  1.00  0.00    -0.392 OA
ATOM     61  H   UNL     1     134.592  -1.163  79.323  1.00  0.00     0.210 HD
ENDBRANCH  48  60
ENDBRANCH  26  27
ENDBRANCH   6  26
BRANCH   5  62
ATOM     62  O   UNL     1     131.246  10.216  83.360  1.00  0.00    -0.385 OA
ATOM     63  H   UNL     1     131.694  10.305  84.240  1.00  0.00     0.211 HD
ENDBRANCH   5  62
TORSDOF 14
ENDMDL
MODEL 6
REMARK VINA RESULT:    -4.473     12.044     16.402
REMARK INTER + INTRA:          -8.445
REMARK INTER:                  -7.382
REMARK INTRA:                  -1.062
REMARK UNBOUND:                -1.357
REMARK SMILES C[C@H]1O[C@H](O[C@H]2CC[C@@]3(C)[C@H](CC[C@]4(C)[C@@H]3C=C[C@]35OC[C@@]6(CCC(C)(C)C[C@@H]63)[C@H](O)C[C@@]54C)[C@@]2(C)CO)[C@@H](O)[C@@H](O[C@@H]2O[C@@H](CO)[C@H](O)[C@H](O)[C@H]2O)[C@@H]1O
REMARK SMILES IDX 1 1 2 2 54 3 41 4 39 5 4 6 3 7 55 8 42 10 43 11 52 12 44 13
REMARK SMILES IDX 50 14 45 15 48 16 53 17 51 19 46 21 47 22 49 24 5 26 6 27
REMARK SMILES IDX 7 28 35 29 8 30 11 31 36 32 9 33 12 34 10 35 16 36 13 37
REMARK SMILES IDX 14 38 17 39 15 40 33 41 18 42 19 43 32 44 34 45 29 46 20 47
REMARK SMILES IDX 30 48 22 49 28 50 21 51 23 52 25 53 24 54 26 55 27 56 37 57
REMARK SMILES IDX 38 58 31 60 40 62
REMARK H PARENT 55 9 53 18 51 20 47 23 49 25 38 59 31 61 40 63
REMARK Flexibility Score: inf
ROOT
ATOM      1  C   UNL     1     136.487  -0.032  80.517  1.00  0.00     0.041 C 
ATOM      2  C   UNL     1     135.176  -0.050  79.720  1.00  0.00     0.150 C 
ATOM      3  C   UNL     1     134.478  -1.426  79.828  1.00  0.00     0.175 C 
ATOM      4  C   UNL     1     133.140  -1.328  79.074  1.00  0.00     0.186 C 
ATOM      5  C   UNL     1     133.454  -0.945  77.622  1.00  0.00     0.202 C 
ATOM      6  C   UNL     1     134.321   0.324  77.542  1.00  0.00     0.282 C 
ATOM      7  O   UNL     1     135.477   0.276  78.372  1.00  0.00    -0.344 OA
ENDROOT
BRANCH   3   8
ATOM      8  O   UNL     1     134.264  -1.723  81.186  1.00  0.00    -0.388 OA
ATOM      9  H   UNL     1     133.511  -1.145  81.490  1.00  0.00     0.211 HD
ENDBRANCH   3   8
BRANCH   4  10
ATOM     10  O   UNL     1     132.427  -2.557  79.033  1.00  0.00    -0.341 OA
BRANCH  10  11
ATOM     11  C   UNL     1     131.005  -2.453  79.083  1.00  0.00     0.282 C 
ATOM     12  C   UNL     1     130.234  -3.812  79.061  1.00  0.00     0.202 C 
ATOM     13  O   UNL     1     130.644  -1.704  80.234  1.00  0.00    -0.341 OA
ATOM     14  C   UNL     1     130.382  -4.587  80.386  1.00  0.00     0.179 C 
ATOM     15  C   UNL     1     131.026  -2.382  81.429  1.00  0.00     0.178 C 
ATOM     16  C   UNL     1     130.178  -3.659  81.606  1.00  0.00     0.177 C 
BRANCH  12  17
ATOM     17  O   UNL     1     128.875  -3.581  78.756  1.00  0.00    -0.385 OA
ATOM     18  H   UNL     1     128.784  -3.508  77.768  1.00  0.00     0.211 HD
ENDBRANCH  12  17
BRANCH  14  19
ATOM     19  O   UNL     1     131.660  -5.179  80.423  1.00  0.00    -0.387 OA
ATOM     20  H   UNL     1     132.316  -4.438  80.328  1.00  0.00     0.211 HD
ENDBRANCH  14  19
BRANCH  15  21
ATOM     21  C   UNL     1     130.868  -1.427  82.619  1.00  0.00     0.191 C 
BRANCH  21  22
ATOM     22  O   UNL     1     131.815  -0.394  82.548  1.00  0.00    -0.394 OA
ATOM     23  H   UNL     1     132.034  -0.157  83.485  1.00  0.00     0.210 HD
ENDBRANCH  21  22
ENDBRANCH  15  21
BRANCH  16  24
ATOM     24  O   UNL     1     130.547  -4.330  82.789  1.00  0.00    -0.387 OA
ATOM     25  H   UNL     1     130.135  -5.237  82.741  1.00  0.00     0.211 HD
ENDBRANCH  16  24
ENDBRANCH  10  11
ENDBRANCH   4  10
BRANCH   6  26
ATOM     26  O   UNL     1     133.492   1.453  77.767  1.00  0.00    -0.346 OA
BRANCH  26  27
ATOM     27  C   UNL     1     133.632   2.144  79.006  1.00  0.00     0.130 C 
ATOM     28  C   UNL     1     134.690   3.289  78.964  1.00  0.00     0.033 C 
ATOM     29  C   UNL     1     132.190   2.647  79.406  1.00  0.00     0.020 C 
ATOM     30  C   UNL     1     134.149   4.722  78.975  1.00  0.00     0.010 C 
ATOM     31  C   UNL     1     131.784   3.758  78.353  1.00  0.00     0.006 C 
ATOM     32  C   UNL     1     132.139   3.175  80.871  1.00  0.00     0.017 C 
ATOM     33  C   UNL     1     132.809   4.977  78.193  1.00  0.00    -0.022 C 
ATOM     34  C   UNL     1     130.278   4.147  78.290  1.00  0.00     0.005 C 
ATOM     35  C   UNL     1     133.228   5.034  76.681  1.00  0.00     0.012 C 
ATOM     36  C   UNL     1     132.237   6.361  78.768  1.00  0.00     0.024 C 
ATOM     37  C   UNL     1     129.916   5.416  79.043  1.00  0.00     0.008 C 
ATOM     38  C   UNL     1     130.713   6.677  78.582  1.00  0.00    -0.017 C 
ATOM     39  C   UNL     1     133.052   7.568  78.346  1.00  0.00    -0.024 C 
ATOM     40  C   UNL     1     130.411   6.942  77.069  1.00  0.00     0.013 C 
ATOM     41  C   UNL     1     130.308   8.000  79.471  1.00  0.00     0.009 C 
ATOM     42  C   UNL     1     132.643   8.803  78.642  1.00  0.00     0.005 C 
ATOM     43  C   UNL     1     131.534   9.050  79.637  1.00  0.00     0.096 C 
ATOM     44  C   UNL     1     129.804   7.614  80.909  1.00  0.00     0.043 C 
ATOM     45  C   UNL     1     129.071   8.712  78.816  1.00  0.00     0.015 C 
ATOM     46  C   UNL     1     132.130   9.057  81.084  1.00  0.00     0.037 C 
ATOM     47  O   UNL     1     131.049  10.367  79.445  1.00  0.00    -0.369 OA
ATOM     48  C   UNL     1     129.756   8.797  81.922  1.00  0.00     0.124 C 
ATOM     49  C   UNL     1     130.988   9.782  81.784  1.00  0.00     0.026 C 
ATOM     50  C   UNL     1     133.496   9.803  81.193  1.00  0.00     0.014 C 
ATOM     51  C   UNL     1     130.677  10.859  80.720  1.00  0.00     0.171 C 
ATOM     52  C   UNL     1     131.355  10.434  83.151  1.00  0.00     0.013 C 
ATOM     53  C   UNL     1     133.860  10.227  82.636  1.00  0.00    -0.035 C 
ATOM     54  C   UNL     1     132.726  11.125  83.185  1.00  0.00     0.007 C 
ATOM     55  C   UNL     1     135.166  11.046  82.604  1.00  0.00     0.011 C 
ATOM     56  C   UNL     1     134.090   8.997  83.543  1.00  0.00     0.011 C 
BRANCH  29  57
ATOM     57  C   UNL     1     131.229   1.396  79.363  1.00  0.00     0.165 C 
BRANCH  57  58
ATOM     58  O   UNL     1     130.496   1.253  80.547  1.00  0.00    -0.396 OA
ATOM     59  H   UNL     1     130.993   1.733  81.255  1.00  0.00     0.210 HD
ENDBRANCH  57  58
ENDBRANCH  29  57
BRANCH  48  60
ATOM     60  O   UNL     1     129.681   8.254  83.219  1.00  0.00    -0.392 OA
ATOM     61  H   UNL     1     128.741   8.350  83.525  1.00  0.00     0.210 HD
ENDBRANCH  48  60
ENDBRANCH  26  27
ENDBRANCH   6  26
BRANCH   5  62
ATOM     62  O   UNL     1     134.114  -2.005  76.969  1.00  0.00    -0.385 OA
ATOM     63  H   UNL     1     133.889  -1.945  76.005  1.00  0.00     0.211 HD
ENDBRANCH   5  62
TORSDOF 14
ENDMDL
MODEL 7
REMARK VINA RESULT:    -4.462      9.660     15.404
REMARK INTER + INTRA:          -8.428
REMARK INTER:                  -8.371
REMARK INTRA:                  -0.057
REMARK UNBOUND:                -1.357
REMARK SMILES C[C@H]1O[C@H](O[C@H]2CC[C@@]3(C)[C@H](CC[C@]4(C)[C@@H]3C=C[C@]35OC[C@@]6(CCC(C)(C)C[C@@H]63)[C@H](O)C[C@@]54C)[C@@]2(C)CO)[C@@H](O)[C@@H](O[C@@H]2O[C@@H](CO)[C@H](O)[C@H](O)[C@H]2O)[C@@H]1O
REMARK SMILES IDX 1 1 2 2 54 3 41 4 39 5 4 6 3 7 55 8 42 10 43 11 52 12 44 13
REMARK SMILES IDX 50 14 45 15 48 16 53 17 51 19 46 21 47 22 49 24 5 26 6 27
REMARK SMILES IDX 7 28 35 29 8 30 11 31 36 32 9 33 12 34 10 35 16 36 13 37
REMARK SMILES IDX 14 38 17 39 15 40 33 41 18 42 19 43 32 44 34 45 29 46 20 47
REMARK SMILES IDX 30 48 22 49 28 50 21 51 23 52 25 53 24 54 26 55 27 56 37 57
REMARK SMILES IDX 38 58 31 60 40 62
REMARK H PARENT 55 9 53 18 51 20 47 23 49 25 38 59 31 61 40 63
REMARK Flexibility Score: inf
ROOT
ATOM      1  C   UNL     1     135.317   1.257  76.004  1.00  0.00     0.041 C 
ATOM      2  C   UNL     1     133.982   1.171  76.756  1.00  0.00     0.150 C 
ATOM      3  C   UNL     1     133.727  -0.264  77.275  1.00  0.00     0.175 C 
ATOM      4  C   UNL     1     132.417  -0.239  78.082  1.00  0.00     0.186 C 
ATOM      5  C   UNL     1     131.305   0.251  77.146  1.00  0.00     0.202 C 
ATOM      6  C   UNL     1     131.666   1.592  76.483  1.00  0.00     0.282 C 
ATOM      7  O   UNL     1     132.953   1.596  75.875  1.00  0.00    -0.344 OA
ENDROOT
BRANCH   3   8
ATOM      8  O   UNL     1     134.806  -0.654  78.087  1.00  0.00    -0.388 OA
ATOM      9  H   UNL     1     134.562  -1.536  78.483  1.00  0.00     0.211 HD
ENDBRANCH   3   8
BRANCH   4  10
ATOM     10  O   UNL     1     132.025  -1.521  78.556  1.00  0.00    -0.341 OA
BRANCH  10  11
ATOM     11  C   UNL     1     131.180  -1.527  79.706  1.00  0.00     0.282 C 
ATOM     12  C   UNL     1     129.646  -1.546  79.407  1.00  0.00     0.202 C 
ATOM     13  O   UNL     1     131.533  -2.631  80.525  1.00  0.00    -0.341 OA
ATOM     14  C   UNL     1     129.177  -2.911  78.859  1.00  0.00     0.179 C 
ATOM     15  C   UNL     1     131.289  -3.866  79.856  1.00  0.00     0.178 C 
ATOM     16  C   UNL     1     129.770  -4.079  79.679  1.00  0.00     0.177 C 
BRANCH  12  17
ATOM     17  O   UNL     1     128.932  -1.194  80.572  1.00  0.00    -0.385 OA
ATOM     18  H   UNL     1     129.039  -0.217  80.722  1.00  0.00     0.211 HD
ENDBRANCH  12  17
BRANCH  14  19
ATOM     19  O   UNL     1     129.560  -3.010  77.507  1.00  0.00    -0.387 OA
ATOM     20  H   UNL     1     129.454  -3.966  77.254  1.00  0.00     0.211 HD
ENDBRANCH  14  19
BRANCH  15  21
ATOM     21  C   UNL     1     131.931  -5.005  80.657  1.00  0.00     0.191 C 
BRANCH  21  22
ATOM     22  O   UNL     1     131.141  -5.328  81.772  1.00  0.00    -0.394 OA
ATOM     23  H   UNL     1     131.209  -4.557  82.390  1.00  0.00     0.210 HD
ENDBRANCH  21  22
ENDBRANCH  15  21
BRANCH  16  24
ATOM     24  O   UNL     1     129.522  -5.302  79.025  1.00  0.00    -0.387 OA
ATOM     25  H   UNL     1     130.185  -5.956  79.382  1.00  0.00     0.211 HD
ENDBRANCH  16  24
ENDBRANCH  10  11
ENDBRANCH   4  10
BRANCH   6  26
ATOM     26  O   UNL     1     131.467   2.630  77.428  1.00  0.00    -0.346 OA
BRANCH  26  27
ATOM     27  C   UNL     1     132.444   2.793  78.454  1.00  0.00     0.130 C 
ATOM     28  C   UNL     1     133.544   3.843  78.105  1.00  0.00     0.033 C 
ATOM     29  C   UNL     1     131.655   3.137  79.776  1.00  0.00     0.020 C 
ATOM     30  C   UNL     1     133.481   5.175  78.859  1.00  0.00     0.010 C 
ATOM     31  C   UNL     1     131.023   4.575  79.572  1.00  0.00     0.006 C 
ATOM     32  C   UNL     1     132.567   3.067  81.038  1.00  0.00     0.017 C 
ATOM     33  C   UNL     1     132.050   5.739  79.179  1.00  0.00    -0.022 C 
ATOM     34  C   UNL     1     129.896   4.993  80.561  1.00  0.00     0.005 C 
ATOM     35  C   UNL     1     131.548   6.360  77.826  1.00  0.00     0.012 C 
ATOM     36  C   UNL     1     132.266   6.812  80.352  1.00  0.00     0.024 C 
ATOM     37  C   UNL     1     130.350   5.886  81.704  1.00  0.00     0.008 C 
ATOM     38  C   UNL     1     131.037   7.209  81.241  1.00  0.00    -0.017 C 
ATOM     39  C   UNL     1     132.976   8.070  79.891  1.00  0.00    -0.024 C 
ATOM     40  C   UNL     1     130.018   8.039  80.389  1.00  0.00     0.013 C 
ATOM     41  C   UNL     1     131.547   8.101  82.524  1.00  0.00     0.009 C 
ATOM     42  C   UNL     1     133.128   9.106  80.716  1.00  0.00     0.005 C 
ATOM     43  C   UNL     1     132.871   8.980  82.199  1.00  0.00     0.096 C 
ATOM     44  C   UNL     1     131.857   7.207  83.780  1.00  0.00     0.043 C 
ATOM     45  C   UNL     1     130.382   9.036  83.006  1.00  0.00     0.015 C 
ATOM     46  C   UNL     1     134.153   8.420  82.900  1.00  0.00     0.037 C 
ATOM     47  O   UNL     1     132.711  10.281  82.736  1.00  0.00    -0.369 OA
ATOM     48  C   UNL     1     132.682   7.914  84.896  1.00  0.00     0.124 C 
ATOM     49  C   UNL     1     133.825   8.848  84.324  1.00  0.00     0.026 C 
ATOM     50  C   UNL     1     135.481   9.037  82.358  1.00  0.00     0.014 C 
ATOM     51  C   UNL     1     133.254  10.257  84.044  1.00  0.00     0.171 C 
ATOM     52  C   UNL     1     135.043   8.921  85.294  1.00  0.00     0.013 C 
ATOM     53  C   UNL     1     136.682   8.869  83.319  1.00  0.00    -0.035 C 
ATOM     54  C   UNL     1     136.318   9.515  84.678  1.00  0.00     0.007 C 
ATOM     55  C   UNL     1     137.901   9.608  82.732  1.00  0.00     0.011 C 
ATOM     56  C   UNL     1     137.063   7.381  83.490  1.00  0.00     0.011 C 
BRANCH  29  57
ATOM     57  C   UNL     1     130.558   2.020  79.972  1.00  0.00     0.165 C 
BRANCH  57  58
ATOM     58  O   UNL     1     130.476   1.588  81.302  1.00  0.00    -0.396 OA
ATOM     59  H   UNL     1     131.009   0.757  81.369  1.00  0.00     0.210 HD
ENDBRANCH  57  58
ENDBRANCH  29  57
BRANCH  48  60
ATOM     60  O   UNL     1     133.213   6.919  85.739  1.00  0.00    -0.392 OA
ATOM     61  H   UNL     1     133.699   6.272  85.162  1.00  0.00     0.210 HD
ENDBRANCH  48  60
ENDBRANCH  26  27
ENDBRANCH   6  26
BRANCH   5  62
ATOM     62  O   UNL     1     131.048  -0.711  76.147  1.00  0.00    -0.385 OA
ATOM     63  H   UNL     1     131.723  -0.583  75.433  1.00  0.00     0.211 HD
ENDBRANCH   5  62
TORSDOF 14
ENDMDL
MODEL 8
REMARK VINA RESULT:    -4.393      7.826     15.911
REMARK INTER + INTRA:          -8.319
REMARK INTER:                  -8.964
REMARK INTRA:                   0.645
REMARK UNBOUND:                -1.357
REMARK SMILES C[C@H]1O[C@H](O[C@H]2CC[C@@]3(C)[C@H](CC[C@]4(C)[C@@H]3C=C[C@]35OC[C@@]6(CCC(C)(C)C[C@@H]63)[C@H](O)C[C@@]54C)[C@@]2(C)CO)[C@@H](O)[C@@H](O[C@@H]2O[C@@H](CO)[C@H](O)[C@H](O)[C@H]2O)[C@@H]1O
REMARK SMILES IDX 1 1 2 2 54 3 41 4 39 5 4 6 3 7 55 8 42 10 43 11 52 12 44 13
REMARK SMILES IDX 50 14 45 15 48 16 53 17 51 19 46 21 47 22 49 24 5 26 6 27
REMARK SMILES IDX 7 28 35 29 8 30 11 31 36 32 9 33 12 34 10 35 16 36 13 37
REMARK SMILES IDX 14 38 17 39 15 40 33 41 18 42 19 43 32 44 34 45 29 46 20 47
REMARK SMILES IDX 30 48 22 49 28 50 21 51 23 52 25 53 24 54 26 55 27 56 37 57
REMARK SMILES IDX 38 58 31 60 40 62
REMARK H PARENT 55 9 53 18 51 20 47 23 49 25 38 59 31 61 40 63
REMARK Flexibility Score: inf
ROOT
ATOM      1  C   UNL     1     131.315   7.232  84.811  1.00  0.00     0.041 C 
ATOM      2  C   UNL     1     132.162   7.166  83.533  1.00  0.00     0.150 C 
ATOM      3  C   UNL     1     133.651   7.455  83.837  1.00  0.00     0.175 C 
ATOM      4  C   UNL     1     134.434   7.286  82.523  1.00  0.00     0.186 C 
ATOM      5  C   UNL     1     133.844   8.269  81.502  1.00  0.00     0.202 C 
ATOM      6  C   UNL     1     132.321   8.097  81.360  1.00  0.00     0.282 C 
ATOM      7  O   UNL     1     131.630   8.098  82.605  1.00  0.00    -0.344 OA
ENDROOT
BRANCH   3   8
ATOM      8  O   UNL     1     134.104   6.544  84.807  1.00  0.00    -0.388 OA
ATOM      9  H   UNL     1     133.894   6.944  85.696  1.00  0.00     0.211 HD
ENDBRANCH   3   8
BRANCH   4  10
ATOM     10  O   UNL     1     135.815   7.599  82.647  1.00  0.00    -0.341 OA
BRANCH  10  11
ATOM     11  C   UNL     1     136.173   8.391  83.779  1.00  0.00     0.282 C 
ATOM     12  C   UNL     1     137.247   7.760  84.723  1.00  0.00     0.202 C 
ATOM     13  O   UNL     1     136.607   9.664  83.325  1.00  0.00    -0.341 OA
ATOM     14  C   UNL     1     138.652   7.754  84.084  1.00  0.00     0.179 C 
ATOM     15  C   UNL     1     137.791   9.552  82.538  1.00  0.00     0.178 C 
ATOM     16  C   UNL     1     138.975   9.115  83.425  1.00  0.00     0.177 C 
BRANCH  12  17
ATOM     17  O   UNL     1     137.253   8.445  85.958  1.00  0.00    -0.385 OA
ATOM     18  H   UNL     1     138.198   8.610  86.219  1.00  0.00     0.211 HD
ENDBRANCH  12  17
BRANCH  14  19
ATOM     19  O   UNL     1     138.710   6.717  83.132  1.00  0.00    -0.387 OA
ATOM     20  H   UNL     1     139.612   6.768  82.715  1.00  0.00     0.211 HD
ENDBRANCH  14  19
BRANCH  15  21
ATOM     21  C   UNL     1     138.064  10.896  81.851  1.00  0.00     0.191 C 
BRANCH  21  22
ATOM     22  O   UNL     1     138.926  10.722  80.757  1.00  0.00    -0.394 OA
ATOM     23  H   UNL     1     139.804  10.463  81.137  1.00  0.00     0.210 HD
ENDBRANCH  21  22
ENDBRANCH  15  21
BRANCH  16  24
ATOM     24  O   UNL     1     140.150   9.009  82.654  1.00  0.00    -0.387 OA
ATOM     25  H   UNL     1     140.177   9.815  82.067  1.00  0.00     0.211 HD
ENDBRANCH  16  24
ENDBRANCH  10  11
ENDBRANCH   4  10
BRANCH   6  26
ATOM     26  O   UNL     1     132.069   6.955  80.557  1.00  0.00    -0.346 OA
BRANCH  26  27
ATOM     27  C   UNL     1     132.564   5.698  81.015  1.00  0.00     0.130 C 
ATOM     28  C   UNL     1     131.524   4.886  81.849  1.00  0.00     0.033 C 
ATOM     29  C   UNL     1     133.075   4.924  79.739  1.00  0.00     0.020 C 
ATOM     30  C   UNL     1     130.911   3.658  81.169  1.00  0.00     0.010 C 
ATOM     31  C   UNL     1     131.797   4.577  78.870  1.00  0.00     0.006 C 
ATOM     32  C   UNL     1     133.897   3.654  80.113  1.00  0.00     0.017 C 
ATOM     33  C   UNL     1     130.639   3.768  79.625  1.00  0.00    -0.022 C 
ATOM     34  C   UNL     1     132.046   4.152  77.393  1.00  0.00     0.005 C 
ATOM     35  C   UNL     1     129.326   4.622  79.505  1.00  0.00     0.012 C 
ATOM     36  C   UNL     1     130.488   2.256  79.109  1.00  0.00     0.024 C 
ATOM     37  C   UNL     1     132.023   2.653  77.149  1.00  0.00     0.008 C 
ATOM     38  C   UNL     1     130.693   1.960  77.583  1.00  0.00    -0.017 C 
ATOM     39  C   UNL     1     129.212   1.587  79.581  1.00  0.00    -0.024 C 
ATOM     40  C   UNL     1     129.509   2.576  76.764  1.00  0.00     0.013 C 
ATOM     41  C   UNL     1     130.755   0.336  77.338  1.00  0.00     0.009 C 
ATOM     42  C   UNL     1     128.880   0.371  79.144  1.00  0.00     0.005 C 
ATOM     43  C   UNL     1     129.869  -0.501  78.408  1.00  0.00     0.096 C 
ATOM     44  C   UNL     1     132.227  -0.215  77.393  1.00  0.00     0.043 C 
ATOM     45  C   UNL     1     130.286   0.010  75.875  1.00  0.00     0.015 C 
ATOM     46  C   UNL     1     130.749  -1.273  79.447  1.00  0.00     0.037 C 
ATOM     47  O   UNL     1     129.149  -1.514  77.728  1.00  0.00    -0.369 OA
ATOM     48  C   UNL     1     132.339  -1.762  77.539  1.00  0.00     0.124 C 
ATOM     49  C   UNL     1     131.258  -2.371  78.523  1.00  0.00     0.026 C 
ATOM     50  C   UNL     1     129.942  -1.817  80.668  1.00  0.00     0.014 C 
ATOM     51  C   UNL     1     129.959  -2.676  77.744  1.00  0.00     0.171 C 
ATOM     52  C   UNL     1     131.794  -3.648  79.240  1.00  0.00     0.013 C 
ATOM     53  C   UNL     1     130.665  -2.949  81.436  1.00  0.00    -0.035 C 
ATOM     54  C   UNL     1     130.961  -4.102  80.447  1.00  0.00     0.007 C 
ATOM     55  C   UNL     1     129.732  -3.477  82.544  1.00  0.00     0.011 C 
ATOM     56  C   UNL     1     131.960  -2.438  82.105  1.00  0.00     0.011 C 
BRANCH  29  57
ATOM     57  C   UNL     1     134.076   5.880  78.981  1.00  0.00     0.165 C 
BRANCH  57  58
ATOM     58  O   UNL     1     135.141   5.178  78.402  1.00  0.00    -0.396 OA
ATOM     59  H   UNL     1     135.933   5.329  78.977  1.00  0.00     0.210 HD
ENDBRANCH  57  58
ENDBRANCH  29  57
BRANCH  48  60
ATOM     60  O   UNL     1     133.645  -2.063  77.968  1.00  0.00    -0.392 OA
ATOM     61  H   UNL     1     133.567  -2.568  78.820  1.00  0.00     0.210 HD
ENDBRANCH  48  60
ENDBRANCH  26  27
ENDBRANCH   6  26
BRANCH   5  62
ATOM     62  O   UNL     1     134.131   9.596  81.879  1.00  0.00    -0.385 OA
ATOM     63  H   UNL     1     135.026   9.821  81.515  1.00  0.00     0.211 HD
ENDBRANCH   5  62
TORSDOF 14
ENDMDL
MODEL 9
REMARK VINA RESULT:    -4.171      1.257      2.078
REMARK INTER + INTRA:          -7.966
REMARK INTER:                  -8.111
REMARK INTRA:                   0.145
REMARK UNBOUND:                -1.357
REMARK SMILES C[C@H]1O[C@H](O[C@H]2CC[C@@]3(C)[C@H](CC[C@]4(C)[C@@H]3C=C[C@]35OC[C@@]6(CCC(C)(C)C[C@@H]63)[C@H](O)C[C@@]54C)[C@@]2(C)CO)[C@@H](O)[C@@H](O[C@@H]2O[C@@H](CO)[C@H](O)[C@H](O)[C@H]2O)[C@@H]1O
REMARK SMILES IDX 1 1 2 2 54 3 41 4 39 5 4 6 3 7 55 8 42 10 43 11 52 12 44 13
REMARK SMILES IDX 50 14 45 15 48 16 53 17 51 19 46 21 47 22 49 24 5 26 6 27
REMARK SMILES IDX 7 28 35 29 8 30 11 31 36 32 9 33 12 34 10 35 16 36 13 37
REMARK SMILES IDX 14 38 17 39 15 40 33 41 18 42 19 43 32 44 34 45 29 46 20 47
REMARK SMILES IDX 30 48 22 49 28 50 21 51 23 52 25 53 24 54 26 55 27 56 37 57
REMARK SMILES IDX 38 58 31 60 40 62
REMARK H PARENT 55 9 53 18 51 20 47 23 49 25 38 59 31 61 40 63
REMARK Flexibility Score: inf
ROOT
ATOM      1  C   UNL     1     141.333   8.254  80.178  1.00  0.00     0.041 C 
ATOM      2  C   UNL     1     141.386   8.576  81.678  1.00  0.00     0.150 C 
ATOM      3  C   UNL     1     139.981   8.481  82.317  1.00  0.00     0.175 C 
ATOM      4  C   UNL     1     140.140   8.736  83.826  1.00  0.00     0.186 C 
ATOM      5  C   UNL     1     140.767  10.126  83.997  1.00  0.00     0.202 C 
ATOM      6  C   UNL     1     142.069  10.268  83.190  1.00  0.00     0.282 C 
ATOM      7  O   UNL     1     141.939   9.875  81.828  1.00  0.00    -0.344 OA
ENDROOT
BRANCH   3   8
ATOM      8  O   UNL     1     139.459   7.196  82.081  1.00  0.00    -0.388 OA
ATOM      9  H   UNL     1     140.073   6.753  81.432  1.00  0.00     0.211 HD
ENDBRANCH   3   8
BRANCH   4  10
ATOM     10  O   UNL     1     138.903   8.750  84.527  1.00  0.00    -0.341 OA
BRANCH  10  11
ATOM     11  C   UNL     1     137.935   9.689  84.060  1.00  0.00     0.282 C 
ATOM     12  C   UNL     1     136.830   9.101  83.124  1.00  0.00     0.202 C 
ATOM     13  O   UNL     1     137.340  10.325  85.182  1.00  0.00    -0.341 OA
ATOM     14  C   UNL     1     135.830   8.212  83.891  1.00  0.00     0.179 C 
ATOM     15  C   UNL     1     136.619   9.387  85.980  1.00  0.00     0.178 C 
ATOM     16  C   UNL     1     135.381   8.881  85.210  1.00  0.00     0.177 C 
BRANCH  12  17
ATOM     17  O   UNL     1     136.167  10.153  82.455  1.00  0.00    -0.385 OA
ATOM     18  H   UNL     1     136.263  10.010  81.476  1.00  0.00     0.211 HD
ENDBRANCH  12  17
BRANCH  14  19
ATOM     19  O   UNL     1     136.438   6.968  84.150  1.00  0.00    -0.387 OA
ATOM     20  H   UNL     1     135.985   6.305  83.563  1.00  0.00     0.211 HD
ENDBRANCH  14  19
BRANCH  15  21
ATOM     21  C   UNL     1     136.230  10.054  87.305  1.00  0.00     0.191 C 
BRANCH  21  22
ATOM     22  O   UNL     1     135.027  10.764  87.163  1.00  0.00    -0.394 OA
ATOM     23  H   UNL     1     135.066  11.506  87.818  1.00  0.00     0.210 HD
ENDBRANCH  21  22
ENDBRANCH  15  21
BRANCH  16  24
ATOM     24  O   UNL     1     134.660   7.960  85.997  1.00  0.00    -0.387 OA
ATOM     25  H   UNL     1     133.757   8.357  86.144  1.00  0.00     0.211 HD
ENDBRANCH  16  24
ENDBRANCH  10  11
ENDBRANCH   4  10
BRANCH   6  26
ATOM     26  O   UNL     1     143.108   9.602  83.889  1.00  0.00    -0.346 OA
BRANCH  26  27
ATOM     27  C   UNL     1     143.357   9.992  85.238  1.00  0.00     0.130 C 
ATOM     28  C   UNL     1     142.533   9.177  86.283  1.00  0.00     0.033 C 
ATOM     29  C   UNL     1     144.916   9.883  85.457  1.00  0.00     0.020 C 
ATOM     30  C   UNL     1     143.310   8.157  87.122  1.00  0.00     0.010 C 
ATOM     31  C   UNL     1     145.282   8.343  85.393  1.00  0.00     0.006 C 
ATOM     32  C   UNL     1     145.368  10.542  86.795  1.00  0.00     0.017 C 
ATOM     33  C   UNL     1     144.479   7.393  86.401  1.00  0.00    -0.022 C 
ATOM     34  C   UNL     1     146.786   7.987  85.204  1.00  0.00     0.005 C 
ATOM     35  C   UNL     1     143.768   6.295  85.531  1.00  0.00     0.012 C 
ATOM     36  C   UNL     1     145.395   6.805  87.579  1.00  0.00     0.024 C 
ATOM     37  C   UNL     1     147.517   7.612  86.482  1.00  0.00     0.008 C 
ATOM     38  C   UNL     1     146.877   6.413  87.251  1.00  0.00    -0.017 C 
ATOM     39  C   UNL     1     144.736   5.672  88.342  1.00  0.00    -0.024 C 
ATOM     40  C   UNL     1     146.896   5.150  86.327  1.00  0.00     0.013 C 
ATOM     41  C   UNL     1     147.688   6.094  88.646  1.00  0.00     0.009 C 
ATOM     42  C   UNL     1     145.411   4.997  89.274  1.00  0.00     0.005 C 
ATOM     43  C   UNL     1     146.730   5.498  89.813  1.00  0.00     0.096 C 
ATOM     44  C   UNL     1     148.407   7.370  89.216  1.00  0.00     0.043 C 
ATOM     45  C   UNL     1     148.865   5.098  88.351  1.00  0.00     0.015 C 
ATOM     46  C   UNL     1     146.463   6.529  90.958  1.00  0.00     0.037 C 
ATOM     47  O   UNL     1     147.390   4.418  90.450  1.00  0.00    -0.369 OA
ATOM     48  C   UNL     1     148.876   7.247  90.697  1.00  0.00     0.124 C 
ATOM     49  C   UNL     1     147.837   6.483  91.614  1.00  0.00     0.026 C 
ATOM     50  C   UNL     1     145.305   6.111  91.917  1.00  0.00     0.014 C 
ATOM     51  C   UNL     1     148.103   4.962  91.547  1.00  0.00     0.171 C 
ATOM     52  C   UNL     1     147.888   6.995  93.086  1.00  0.00     0.013 C 
ATOM     53  C   UNL     1     145.334   6.839  93.282  1.00  0.00    -0.035 C 
ATOM     54  C   UNL     1     146.699   6.563  93.957  1.00  0.00     0.007 C 
ATOM     55  C   UNL     1     144.216   6.268  94.179  1.00  0.00     0.011 C 
ATOM     56  C   UNL     1     145.086   8.355  93.117  1.00  0.00     0.011 C 
BRANCH  29  57
ATOM     57  C   UNL     1     145.610  10.714  84.309  1.00  0.00     0.165 C 
BRANCH  57  58
ATOM     58  O   UNL     1     145.904   9.925  83.190  1.00  0.00    -0.396 OA
ATOM     59  H   UNL     1     146.200  10.540  82.473  1.00  0.00     0.210 HD
ENDBRANCH  57  58
ENDBRANCH  29  57
BRANCH  48  60
ATOM     60  O   UNL     1     149.125   8.545  91.182  1.00  0.00    -0.392 OA
ATOM     61  H   UNL     1     149.220   9.142  90.393  1.00  0.00     0.210 HD
ENDBRANCH  48  60
ENDBRANCH  26  27
ENDBRANCH   6  26
BRANCH   5  62
ATOM     62  O   UNL     1     139.857  11.125  83.596  1.00  0.00    -0.385 OA
ATOM     63  H   UNL     1     140.179  11.986  83.967  1.00  0.00     0.211 HD
ENDBRANCH   5  62
TORSDOF 14
ENDMDL
