MODEL 1
REMARK VINA RESULT:    -2.293      0.000      0.000
REMARK INTER + INTRA:          -2.593
REMARK INTER:                  -2.427
REMARK INTRA:                  -0.166
REMARK UNBOUND:                -0.166
REMARK SMILES CC1=C[C@@H]2C(=C(C)CC[C@@H]2C(C)C)CC1
REMARK SMILES IDX 1 1 2 2 3 3 4 4 10 5 9 6 8 7 6 8 5 9 14 10 15 11 7 12 11 13
REMARK SMILES IDX 12 14 13 15
REMARK H PARENT
REMARK Flexibility Score: inf
ROOT
ATOM      1  C   UNL     1       4.123  11.123  12.509  1.00  0.00     0.039 C 
ATOM      2  C   UNL     1       4.742   9.832  12.050  1.00  0.00    -0.076 C 
ATOM      3  C   UNL     1       5.807   9.322  12.701  1.00  0.00    -0.020 C 
ATOM      4  C   UNL     1       6.392   8.004  12.232  1.00  0.00     0.041 C 
ATOM      5  C   UNL     1       7.558   7.422  13.089  1.00  0.00     0.003 C 
ATOM      6  C   UNL     1       7.020   6.501  14.193  1.00  0.00     0.009 C 
ATOM      7  C   UNL     1       6.254   5.341  13.559  1.00  0.00     0.031 C 
ATOM      8  C   UNL     1       5.156   5.821  12.634  1.00  0.00    -0.073 C 
ATOM      9  C   UNL     1       5.222   7.037  12.019  1.00  0.00    -0.064 C 
ATOM     10  C   UNL     1       4.033   7.566  11.215  1.00  0.00     0.036 C 
ATOM     11  C   UNL     1       4.169   9.064  10.875  1.00  0.00     0.035 C 
ATOM     12  C   UNL     1       4.006   4.876  12.377  1.00  0.00     0.039 C 
ENDROOT
BRANCH   5  13
ATOM     13  C   UNL     1       8.611   8.481  13.580  1.00  0.00    -0.013 C 
ATOM     14  C   UNL     1      10.039   7.917  13.494  1.00  0.00     0.007 C 
ATOM     15  C   UNL     1       8.369   9.011  15.009  1.00  0.00     0.007 C 
ENDBRANCH   5  13
TORSDOF 1
ENDMDL
MODEL 2
REMARK VINA RESULT:    -0.342      3.259      6.217
REMARK INTER + INTRA:          -0.528
REMARK INTER:                  -0.265
REMARK INTRA:                  -0.263
REMARK UNBOUND:                -0.166
REMARK SMILES CC1=C[C@@H]2C(=C(C)CC[C@@H]2C(C)C)CC1
REMARK SMILES IDX 1 1 2 2 3 3 4 4 10 5 9 6 8 7 6 8 5 9 14 10 15 11 7 12 11 13
REMARK SMILES IDX 12 14 13 15
REMARK H PARENT
REMARK Flexibility Score: inf
ROOT
ATOM      1  C   UNL     1       4.563  13.813  15.014  1.00  0.00     0.039 C 
ATOM      2  C   UNL     1       4.105  13.513  13.614  1.00  0.00    -0.076 C 
ATOM      3  C   UNL     1       3.929  12.238  13.217  1.00  0.00    -0.020 C 
ATOM      4  C   UNL     1       3.439  11.967  11.808  1.00  0.00     0.041 C 
ATOM      5  C   UNL     1       3.162  10.475  11.447  1.00  0.00     0.003 C 
ATOM      6  C   UNL     1       1.705  10.099  11.755  1.00  0.00     0.009 C 
ATOM      7  C   UNL     1       0.767  10.983  10.934  1.00  0.00     0.031 C 
ATOM      8  C   UNL     1       1.033  12.456  11.156  1.00  0.00    -0.073 C 
ATOM      9  C   UNL     1       2.258  12.910  11.548  1.00  0.00    -0.064 C 
ATOM     10  C   UNL     1       2.460  14.380  11.918  1.00  0.00     0.036 C 
ATOM     11  C   UNL     1       3.802  14.631  12.634  1.00  0.00     0.035 C 
ATOM     12  C   UNL     1      -0.102  13.414  10.875  1.00  0.00     0.039 C 
ENDROOT
BRANCH   5  13
ATOM     13  C   UNL     1       4.227   9.454  11.989  1.00  0.00    -0.013 C 
ATOM     14  C   UNL     1       5.198   9.031  10.875  1.00  0.00     0.007 C 
ATOM     15  C   UNL     1       3.629   8.188  12.637  1.00  0.00     0.007 C 
ENDBRANCH   5  13
TORSDOF 1
ENDMDL
MODEL 3
REMARK VINA RESULT:     0.393      2.915      6.129
REMARK INTER + INTRA:           0.250
REMARK INTER:                   0.450
REMARK INTRA:                  -0.201
REMARK UNBOUND:                -0.166
REMARK SMILES CC1=C[C@@H]2C(=C(C)CC[C@@H]2C(C)C)CC1
REMARK SMILES IDX 1 1 2 2 3 3 4 4 10 5 9 6 8 7 6 8 5 9 14 10 15 11 7 12 11 13
REMARK SMILES IDX 12 14 13 15
REMARK H PARENT
REMARK Flexibility Score: inf
ROOT
ATOM      1  C   UNL     1       6.003   8.989  11.579  1.00  0.00     0.039 C 
ATOM      2  C   UNL     1       4.724   9.574  12.111  1.00  0.00    -0.076 C 
ATOM      3  C   UNL     1       4.471  10.890  11.970  1.00  0.00    -0.020 C 
ATOM      4  C   UNL     1       3.160  11.446  12.491  1.00  0.00     0.041 C 
ATOM      5  C   UNL     1       2.888  12.955  12.206  1.00  0.00     0.003 C 
ATOM      6  C   UNL     1       2.144  13.136  10.875  1.00  0.00     0.009 C 
ATOM      7  C   UNL     1       0.806  12.402  10.936  1.00  0.00     0.031 C 
ATOM      8  C   UNL     1       0.974  10.942  11.299  1.00  0.00    -0.073 C 
ATOM      9  C   UNL     1       2.047  10.503  12.019  1.00  0.00    -0.064 C 
ATOM     10  C   UNL     1       2.276   9.007  12.238  1.00  0.00     0.036 C 
ATOM     11  C   UNL     1       3.685   8.698  12.783  1.00  0.00     0.035 C 
ATOM     12  C   UNL     1      -0.125   9.994  10.877  1.00  0.00     0.039 C 
ENDROOT
BRANCH   5  13
ATOM     13  C   UNL     1       4.131  13.898  12.392  1.00  0.00    -0.013 C 
ATOM     14  C   UNL     1       4.618  13.886  13.850  1.00  0.00     0.007 C 
ATOM     15  C   UNL     1       3.897  15.361  11.957  1.00  0.00     0.007 C 
ENDBRANCH   5  13
TORSDOF 1
ENDMDL
MODEL 4
REMARK VINA RESULT:     0.659      3.616      7.047
REMARK INTER + INTRA:           0.531
REMARK INTER:                   0.785
REMARK INTRA:                  -0.254
REMARK UNBOUND:                -0.166
REMARK SMILES CC1=C[C@@H]2C(=C(C)CC[C@@H]2C(C)C)CC1
REMARK SMILES IDX 1 1 2 2 3 3 4 4 10 5 9 6 8 7 6 8 5 9 14 10 15 11 7 12 11 13
REMARK SMILES IDX 12 14 13 15
REMARK H PARENT
REMARK Flexibility Score: inf
ROOT
ATOM      1  C   UNL     1       0.801  12.000  15.949  1.00  0.00     0.039 C 
ATOM      2  C   UNL     1       2.082  12.374  15.257  1.00  0.00    -0.076 C 
ATOM      3  C   UNL     1       2.404  11.810  14.077  1.00  0.00    -0.020 C 
ATOM      4  C   UNL     1       3.690  12.227  13.389  1.00  0.00     0.041 C 
ATOM      5  C   UNL     1       3.952  11.611  11.981  1.00  0.00     0.003 C 
ATOM      6  C   UNL     1       3.368  12.503  10.875  1.00  0.00     0.009 C 
ATOM      7  C   UNL     1       4.024  13.882  10.935  1.00  0.00     0.031 C 
ATOM      8  C   UNL     1       3.895  14.515  12.304  1.00  0.00    -0.073 C 
ATOM      9  C   UNL     1       3.750  13.759  13.430  1.00  0.00    -0.064 C 
ATOM     10  C   UNL     1       3.465  14.421  14.779  1.00  0.00     0.036 C 
ATOM     11  C   UNL     1       3.018  13.408  15.852  1.00  0.00     0.035 C 
ATOM     12  C   UNL     1       3.985  16.022  12.380  1.00  0.00     0.039 C 
ENDROOT
BRANCH   5  13
ATOM     13  C   UNL     1       3.591  10.087  11.847  1.00  0.00    -0.013 C 
ATOM     14  C   UNL     1       4.773   9.290  11.273  1.00  0.00     0.007 C 
ATOM     15  C   UNL     1       2.335   9.798  10.998  1.00  0.00     0.007 C 
ENDBRANCH   5  13
TORSDOF 1
ENDMDL
