MODEL 1
REMARK VINA RESULT:    -4.113      0.000      0.000
REMARK INTER + INTRA:          -6.616
REMARK INTER:                  -6.277
REMARK INTRA:                  -0.339
REMARK UNBOUND:                -0.339
REMARK SMILES CC1=CCC[C@@H](C)C(=O)C[C@@H](C(C)C)C(=O)C1
REMARK SMILES IDX 8 1 9 2 6 3 7 4 5 5 4 6 3 7 2 8 1 9 10 11 11 12 15 13 16 14
REMARK SMILES IDX 17 15 12 17 13 18 14 19
REMARK H PARENT
REMARK Flexibility Score: 70.00
ROOT
ATOM      1  C   UNL     1      21.221  29.719  38.003  1.00  0.00     0.136 C 
ATOM      2  O   UNL     1      21.816  29.581  39.061  1.00  0.00    -0.299 OA
ENDROOT
BRANCH   1   3
ATOM      3  C   UNL     1      21.450  28.705  36.894  1.00  0.00     0.053 C 
ATOM      4  C   UNL     1      21.259  27.262  37.384  1.00  0.00     0.016 C 
BRANCH   3   5
ATOM      5  C   UNL     1      22.760  28.993  36.097  1.00  0.00     0.015 C 
BRANCH   5   6
ATOM      6  C   UNL     1      23.504  30.331  36.309  1.00  0.00     0.028 C 
BRANCH   6   7
ATOM      7  C   UNL     1      23.482  31.330  35.176  1.00  0.00    -0.028 C 
ATOM      8  C   UNL     1      22.569  32.307  34.972  1.00  0.00    -0.070 CG0
ATOM      9  C   UNL     1      22.638  33.071  33.672  1.00  0.00     0.039 C 
ATOM     10  G   UNL     1      21.527  32.720  35.990  1.00  0.00     0.000 G0
ENDBRANCH   6   7
ENDBRANCH   5   6
ENDBRANCH   3   5
ENDBRANCH   1   3
BRANCH   1  11
ATOM     11  C   UNL     1      20.264  30.878  37.865  1.00  0.00     0.087 C 
BRANCH  11  12
ATOM     12  C   UNL     1      19.655  30.957  36.432  1.00  0.00     0.066 C 
BRANCH  12  13
ATOM     13  C   UNL     1      20.195  32.163  35.673  1.00  0.00     0.140 C 
ATOM     14  O   UNL     1      19.501  32.742  34.853  1.00  0.00    -0.299 OA
BRANCH  13  15
ATOM     15  C   UNL     1      21.554  32.739  36.006  1.00  0.00     0.106 CG0
ATOM     16  G   UNL     1      22.568  32.310  34.966  1.00  0.00     0.000 G0
ENDBRANCH  13  15
ENDBRANCH  12  13
BRANCH  12  17
ATOM     17  C   UNL     1      18.097  30.821  36.436  1.00  0.00    -0.006 C 
ATOM     18  C   UNL     1      17.461  31.706  37.518  1.00  0.00     0.008 C 
ATOM     19  C   UNL     1      17.568  29.376  36.559  1.00  0.00     0.008 C 
ENDBRANCH  12  17
ENDBRANCH  11  12
ENDBRANCH   1  11
TORSDOF 1
ENDMDL
MODEL 2
REMARK VINA RESULT:    -3.947      2.094      4.217
REMARK INTER + INTRA:          -6.363
REMARK INTER:                  -6.103
REMARK INTRA:                  -0.260
REMARK UNBOUND:                -0.339
REMARK SMILES CC1=CCC[C@@H](C)C(=O)C[C@@H](C(C)C)C(=O)C1
REMARK SMILES IDX 8 1 9 2 6 3 7 4 5 5 4 6 3 7 2 8 1 9 10 11 11 12 15 13 16 14
REMARK SMILES IDX 17 15 12 17 13 18 14 19
REMARK H PARENT
REMARK Flexibility Score: 70.00
ROOT
ATOM      1  C   UNL     1      19.368  30.550  37.168  1.00  0.00     0.136 C 
ATOM      2  O   UNL     1      18.755  30.429  38.217  1.00  0.00    -0.299 OA
ENDROOT
BRANCH   1   3
ATOM      3  C   UNL     1      19.241  29.462  36.114  1.00  0.00     0.053 C 
ATOM      4  C   UNL     1      17.831  29.410  35.506  1.00  0.00     0.016 C 
BRANCH   3   5
ATOM      5  C   UNL     1      19.830  28.102  36.601  1.00  0.00     0.015 C 
BRANCH   5   6
ATOM      6  C   UNL     1      21.362  27.926  36.700  1.00  0.00     0.028 C 
BRANCH   6   7
ATOM      7  C   UNL     1      22.016  28.225  38.028  1.00  0.00    -0.028 C 
ATOM      8  C   UNL     1      23.029  29.092  38.258  1.00  0.00    -0.070 CG0
ATOM      9  C   UNL     1      23.652  29.094  39.633  1.00  0.00     0.039 C 
ATOM     10  G   UNL     1      23.531  30.098  37.244  1.00  0.00     0.000 G0
ENDBRANCH   6   7
ENDBRANCH   5   6
ENDBRANCH   3   5
ENDBRANCH   1   3
BRANCH   1  11
ATOM     11  C   UNL     1      20.198  31.794  36.961  1.00  0.00     0.087 C 
BRANCH  11  12
ATOM     12  C   UNL     1      21.543  31.478  36.241  1.00  0.00     0.066 C 
BRANCH  12  13
ATOM     13  C   UNL     1      22.684  31.351  37.242  1.00  0.00     0.140 C 
ATOM     14  O   UNL     1      22.852  32.200  38.103  1.00  0.00    -0.299 OA
BRANCH  13  15
ATOM     15  C   UNL     1      23.555  30.115  37.267  1.00  0.00     0.106 CG0
ATOM     16  G   UNL     1      22.998  29.106  38.249  1.00  0.00     0.000 G0
ENDBRANCH  13  15
ENDBRANCH  12  13
BRANCH  12  17
ATOM     17  C   UNL     1      21.820  32.442  35.041  1.00  0.00    -0.006 C 
ATOM     18  C   UNL     1      23.250  32.274  34.507  1.00  0.00     0.008 C 
ATOM     19  C   UNL     1      21.534  33.933  35.322  1.00  0.00     0.008 C 
ENDBRANCH  12  17
ENDBRANCH  11  12
ENDBRANCH   1  11
TORSDOF 1
ENDMDL
MODEL 3
REMARK VINA RESULT:    -3.795      1.599      1.999
REMARK INTER + INTRA:          -6.131
REMARK INTER:                  -5.948
REMARK INTRA:                  -0.183
REMARK UNBOUND:                -0.339
REMARK SMILES CC1=CCC[C@@H](C)C(=O)C[C@@H](C(C)C)C(=O)C1
REMARK SMILES IDX 8 1 9 2 6 3 7 4 5 5 4 6 3 7 2 8 1 9 10 11 11 12 15 13 16 14
REMARK SMILES IDX 17 15 12 17 13 18 14 19
REMARK H PARENT
REMARK Flexibility Score: 70.00
ROOT
ATOM      1  C   UNL     1      21.775  30.282  38.403  1.00  0.00     0.136 C 
ATOM      2  O   UNL     1      21.484  29.200  38.890  1.00  0.00    -0.299 OA
ENDROOT
BRANCH   1   3
ATOM      3  C   UNL     1      23.235  30.704  38.372  1.00  0.00     0.053 C 
ATOM      4  C   UNL     1      24.163  29.610  38.923  1.00  0.00     0.016 C 
BRANCH   3   5
ATOM      5  C   UNL     1      23.443  32.137  38.952  1.00  0.00     0.015 C 
BRANCH   5   6
ATOM      6  C   UNL     1      23.810  33.299  38.002  1.00  0.00     0.028 C 
BRANCH   6   7
ATOM      7  C   UNL     1      23.937  32.985  36.530  1.00  0.00    -0.028 C 
ATOM      8  C   UNL     1      22.929  32.872  35.634  1.00  0.00    -0.070 CG0
ATOM      9  C   UNL     1      23.272  32.368  34.253  1.00  0.00     0.039 C 
ATOM     10  G   UNL     1      21.498  33.280  35.912  1.00  0.00     0.000 G0
ENDBRANCH   6   7
ENDBRANCH   5   6
ENDBRANCH   3   5
ENDBRANCH   1   3
BRANCH   1  11
ATOM     11  C   UNL     1      20.668  31.132  37.828  1.00  0.00     0.087 C 
BRANCH  11  12
ATOM     12  C   UNL     1      20.474  30.872  36.304  1.00  0.00     0.066 C 
BRANCH  12  13
ATOM     13  C   UNL     1      20.530  32.175  35.515  1.00  0.00     0.140 C 
ATOM     14  O   UNL     1      19.741  32.387  34.608  1.00  0.00    -0.299 OA
BRANCH  13  15
ATOM     15  C   UNL     1      21.483  33.279  35.916  1.00  0.00     0.106 CG0
ATOM     16  G   UNL     1      22.910  32.864  35.628  1.00  0.00     0.000 G0
ENDBRANCH  13  15
ENDBRANCH  12  13
BRANCH  12  17
ATOM     17  C   UNL     1      19.232  29.971  36.004  1.00  0.00    -0.006 C 
ATOM     18  C   UNL     1      18.007  30.418  36.817  1.00  0.00     0.008 C 
ATOM     19  C   UNL     1      19.463  28.456  36.191  1.00  0.00     0.008 C 
ENDBRANCH  12  17
ENDBRANCH  11  12
ENDBRANCH   1  11
TORSDOF 1
ENDMDL
MODEL 4
REMARK VINA RESULT:    -3.784      2.416      4.378
REMARK INTER + INTRA:          -6.114
REMARK INTER:                  -5.892
REMARK INTRA:                  -0.223
REMARK UNBOUND:                -0.339
REMARK SMILES CC1=CCC[C@@H](C)C(=O)C[C@@H](C(C)C)C(=O)C1
REMARK SMILES IDX 8 1 9 2 6 3 7 4 5 5 4 6 3 7 2 8 1 9 10 11 11 12 15 13 16 14
REMARK SMILES IDX 17 15 12 17 13 18 14 19
REMARK H PARENT
REMARK Flexibility Score: 70.00
ROOT
ATOM      1  C   UNL     1      22.170  29.290  36.585  1.00  0.00     0.136 C 
ATOM      2  O   UNL     1      22.985  28.628  35.961  1.00  0.00    -0.299 OA
ENDROOT
BRANCH   1   3
ATOM      3  C   UNL     1      20.907  28.614  37.093  1.00  0.00     0.053 C 
ATOM      4  C   UNL     1      20.998  27.082  37.003  1.00  0.00     0.016 C 
BRANCH   3   5
ATOM      5  C   UNL     1      19.617  29.262  36.503  1.00  0.00     0.015 C 
BRANCH   5   6
ATOM      6  C   UNL     1      18.788  30.237  37.369  1.00  0.00     0.028 C 
BRANCH   6   7
ATOM      7  C   UNL     1      18.905  31.713  37.067  1.00  0.00    -0.028 C 
ATOM      8  C   UNL     1      19.482  32.658  37.845  1.00  0.00    -0.070 CG0
ATOM      9  C   UNL     1      19.320  34.101  37.431  1.00  0.00     0.039 C 
ATOM     10  G   UNL     1      20.327  32.353  39.063  1.00  0.00     0.000 G0
ENDBRANCH   6   7
ENDBRANCH   5   6
ENDBRANCH   3   5
ENDBRANCH   1   3
BRANCH   1  11
ATOM     11  C   UNL     1      22.477  30.745  36.846  1.00  0.00     0.087 C 
BRANCH  11  12
ATOM     12  C   UNL     1      22.551  31.055  38.371  1.00  0.00     0.066 C 
BRANCH  12  13
ATOM     13  C   UNL     1      21.821  32.351  38.702  1.00  0.00     0.140 C 
ATOM     14  O   UNL     1      22.385  33.428  38.589  1.00  0.00    -0.299 OA
BRANCH  13  15
ATOM     15  C   UNL     1      20.352  32.339  39.060  1.00  0.00     0.106 CG0
ATOM     16  G   UNL     1      19.517  32.663  37.840  1.00  0.00     0.000 G0
ENDBRANCH  13  15
ENDBRANCH  12  13
BRANCH  12  17
ATOM     17  C   UNL     1      24.007  30.955  38.932  1.00  0.00    -0.006 C 
ATOM     18  C   UNL     1      25.035  31.481  37.919  1.00  0.00     0.008 C 
ATOM     19  C   UNL     1      24.423  29.551  39.422  1.00  0.00     0.008 C 
ENDBRANCH  12  17
ENDBRANCH  11  12
ENDBRANCH   1  11
TORSDOF 1
ENDMDL
MODEL 5
REMARK VINA RESULT:    -3.656      2.090      3.773
REMARK INTER + INTRA:          -5.919
REMARK INTER:                  -5.869
REMARK INTRA:                  -0.050
REMARK UNBOUND:                -0.339
REMARK SMILES CC1=CCC[C@@H](C)C(=O)C[C@@H](C(C)C)C(=O)C1
REMARK SMILES IDX 8 1 9 2 6 3 7 4 5 5 4 6 3 7 2 8 1 9 10 11 11 12 15 13 16 14
REMARK SMILES IDX 17 15 12 17 13 18 14 19
REMARK H PARENT
REMARK Flexibility Score: 70.00
ROOT
ATOM      1  C   UNL     1      20.390  31.652  37.906  1.00  0.00     0.136 C 
ATOM      2  O   UNL     1      20.018  31.004  38.872  1.00  0.00    -0.299 OA
ENDROOT
BRANCH   1   3
ATOM      3  C   UNL     1      20.592  33.151  38.060  1.00  0.00     0.053 C 
ATOM      4  C   UNL     1      20.181  33.921  36.796  1.00  0.00     0.016 C 
BRANCH   3   5
ATOM      5  C   UNL     1      21.995  33.495  38.648  1.00  0.00     0.015 C 
BRANCH   5   6
ATOM      6  C   UNL     1      23.051  32.378  38.809  1.00  0.00     0.028 C 
BRANCH   6   7
ATOM      7  C   UNL     1      24.307  32.478  37.975  1.00  0.00    -0.028 C 
ATOM      8  C   UNL     1      24.497  31.981  36.731  1.00  0.00    -0.070 CG0
ATOM      9  C   UNL     1      25.893  32.036  36.160  1.00  0.00     0.039 C 
ATOM     10  G   UNL     1      23.388  31.435  35.857  1.00  0.00     0.000 G0
ENDBRANCH   6   7
ENDBRANCH   5   6
ENDBRANCH   3   5
ENDBRANCH   1   3
BRANCH   1  11
ATOM     11  C   UNL     1      20.660  30.921  36.613  1.00  0.00     0.087 C 
BRANCH  11  12
ATOM     12  C   UNL     1      21.636  29.724  36.820  1.00  0.00     0.066 C 
BRANCH  12  13
ATOM     13  C   UNL     1      23.011  30.032  36.242  1.00  0.00     0.140 C 
ATOM     14  O   UNL     1      23.798  29.132  35.996  1.00  0.00    -0.299 OA
BRANCH  13  15
ATOM     15  C   UNL     1      23.385  31.445  35.850  1.00  0.00     0.106 CG0
ATOM     16  G   UNL     1      24.489  31.959  36.749  1.00  0.00     0.000 G0
ENDBRANCH  13  15
ENDBRANCH  12  13
BRANCH  12  17
ATOM     17  C   UNL     1      21.017  28.362  36.364  1.00  0.00    -0.006 C 
ATOM     18  C   UNL     1      19.511  28.497  36.089  1.00  0.00     0.008 C 
ATOM     19  C   UNL     1      21.274  27.175  37.317  1.00  0.00     0.008 C 
ENDBRANCH  12  17
ENDBRANCH  11  12
ENDBRANCH   1  11
TORSDOF 1
ENDMDL
MODEL 6
REMARK VINA RESULT:    -3.611      1.762      2.930
REMARK INTER + INTRA:          -5.851
REMARK INTER:                  -5.874
REMARK INTRA:                   0.023
REMARK UNBOUND:                -0.339
REMARK SMILES CC1=CCC[C@@H](C)C(=O)C[C@@H](C(C)C)C(=O)C1
REMARK SMILES IDX 8 1 9 2 6 3 7 4 5 5 4 6 3 7 2 8 1 9 10 11 11 12 15 13 16 14
REMARK SMILES IDX 17 15 12 17 13 18 14 19
REMARK H PARENT
REMARK Flexibility Score: 70.00
ROOT
ATOM      1  C   UNL     1      23.525  30.175  38.436  1.00  0.00     0.136 C 
ATOM      2  O   UNL     1      23.852  31.004  39.270  1.00  0.00    -0.299 OA
ENDROOT
BRANCH   1   3
ATOM      3  C   UNL     1      24.452  29.910  37.261  1.00  0.00     0.053 C 
ATOM      4  C   UNL     1      25.883  30.397  37.535  1.00  0.00     0.016 C 
BRANCH   3   5
ATOM      5  C   UNL     1      23.822  30.355  35.905  1.00  0.00     0.015 C 
BRANCH   5   6
ATOM      6  C   UNL     1      23.543  31.853  35.648  1.00  0.00     0.028 C 
BRANCH   6   7
ATOM      7  C   UNL     1      22.177  32.230  35.125  1.00  0.00    -0.028 C 
ATOM      8  C   UNL     1      21.044  32.382  35.848  1.00  0.00    -0.070 CG0
ATOM      9  C   UNL     1      19.752  32.580  35.093  1.00  0.00     0.039 C 
ATOM     10  G   UNL     1      21.003  32.428  37.360  1.00  0.00     0.000 G0
ENDBRANCH   6   7
ENDBRANCH   5   6
ENDBRANCH   3   5
ENDBRANCH   1   3
BRANCH   1  11
ATOM     11  C   UNL     1      22.226  29.432  38.634  1.00  0.00     0.087 C 
BRANCH  11  12
ATOM     12  C   UNL     1      21.163  29.831  37.566  1.00  0.00     0.066 C 
BRANCH  12  13
ATOM     13  C   UNL     1      20.489  31.148  37.931  1.00  0.00     0.140 C 
ATOM     14  O   UNL     1      19.597  31.179  38.764  1.00  0.00    -0.299 OA
BRANCH  13  15
ATOM     15  C   UNL     1      20.991  32.456  37.361  1.00  0.00     0.106 CG0
ATOM     16  G   UNL     1      21.041  32.379  35.850  1.00  0.00     0.000 G0
ENDBRANCH  13  15
ENDBRANCH  12  13
BRANCH  12  17
ATOM     17  C   UNL     1      20.186  28.659  37.228  1.00  0.00    -0.006 C 
ATOM     18  C   UNL     1      20.943  27.336  37.040  1.00  0.00     0.008 C 
ATOM     19  C   UNL     1      19.257  28.910  36.020  1.00  0.00     0.008 C 
ENDBRANCH  12  17
ENDBRANCH  11  12
ENDBRANCH   1  11
TORSDOF 1
ENDMDL
MODEL 7
REMARK VINA RESULT:    -3.585      2.406      3.222
REMARK INTER + INTRA:          -5.811
REMARK INTER:                  -6.369
REMARK INTRA:                   0.558
REMARK UNBOUND:                -0.339
REMARK SMILES CC1=CCC[C@@H](C)C(=O)C[C@@H](C(C)C)C(=O)C1
REMARK SMILES IDX 8 1 9 2 6 3 7 4 5 5 4 6 3 7 2 8 1 9 10 11 11 12 15 13 16 14
REMARK SMILES IDX 17 15 12 17 13 18 14 19
REMARK H PARENT
REMARK Flexibility Score: 70.00
ROOT
ATOM      1  C   UNL     1      22.836  28.934  37.835  1.00  0.00     0.136 C 
ATOM      2  O   UNL     1      23.171  28.701  36.683  1.00  0.00    -0.299 OA
ENDROOT
BRANCH   1   3
ATOM      3  C   UNL     1      23.915  29.127  38.888  1.00  0.00     0.053 C 
ATOM      4  C   UNL     1      23.649  28.289  40.147  1.00  0.00     0.016 C 
BRANCH   3   5
ATOM      5  C   UNL     1      24.241  30.635  39.122  1.00  0.00     0.015 C 
BRANCH   5   6
ATOM      6  C   UNL     1      23.516  31.712  38.284  1.00  0.00     0.028 C 
BRANCH   6   7
ATOM      7  C   UNL     1      22.680  32.729  39.025  1.00  0.00    -0.028 C 
ATOM      8  C   UNL     1      21.475  33.217  38.651  1.00  0.00    -0.070 CG0
ATOM      9  C   UNL     1      20.906  34.365  39.450  1.00  0.00     0.039 C 
ATOM     10  G   UNL     1      20.640  32.645  37.526  1.00  0.00     0.000 G0
ENDBRANCH   6   7
ENDBRANCH   5   6
ENDBRANCH   3   5
ENDBRANCH   1   3
BRANCH   1  11
ATOM     11  C   UNL     1      21.364  29.047  38.144  1.00  0.00     0.087 C 
BRANCH  11  12
ATOM     12  C   UNL     1      20.641  30.020  37.164  1.00  0.00     0.066 C 
BRANCH  12  13
ATOM     13  C   UNL     1      20.126  31.252  37.897  1.00  0.00     0.140 C 
ATOM     14  O   UNL     1      19.380  31.138  38.858  1.00  0.00    -0.299 OA
BRANCH  13  15
ATOM     15  C   UNL     1      20.620  32.633  37.527  1.00  0.00     0.106 CG0
ATOM     16  G   UNL     1      21.472  33.197  38.644  1.00  0.00     0.000 G0
ENDBRANCH  13  15
ENDBRANCH  12  13
BRANCH  12  17
ATOM     17  C   UNL     1      19.585  29.293  36.270  1.00  0.00    -0.006 C 
ATOM     18  C   UNL     1      18.156  29.734  36.621  1.00  0.00     0.008 C 
ATOM     19  C   UNL     1      19.675  27.751  36.274  1.00  0.00     0.008 C 
ENDBRANCH  12  17
ENDBRANCH  11  12
ENDBRANCH   1  11
TORSDOF 1
ENDMDL
MODEL 8
REMARK VINA RESULT:    -3.475      1.818      3.678
REMARK INTER + INTRA:          -5.643
REMARK INTER:                  -5.388
REMARK INTRA:                  -0.254
REMARK UNBOUND:                -0.339
REMARK SMILES CC1=CCC[C@@H](C)C(=O)C[C@@H](C(C)C)C(=O)C1
REMARK SMILES IDX 8 1 9 2 6 3 7 4 5 5 4 6 3 7 2 8 1 9 10 11 11 12 15 13 16 14
REMARK SMILES IDX 17 15 12 17 13 18 14 19
REMARK H PARENT
REMARK Flexibility Score: 70.00
ROOT
ATOM      1  C   UNL     1      23.959  31.484  37.318  1.00  0.00     0.136 C 
ATOM      2  O   UNL     1      24.542  32.432  37.823  1.00  0.00    -0.299 OA
ENDROOT
BRANCH   1   3
ATOM      3  C   UNL     1      24.323  31.068  35.903  1.00  0.00     0.053 C 
ATOM      4  C   UNL     1      25.746  30.493  35.819  1.00  0.00     0.016 C 
BRANCH   3   5
ATOM      5  C   UNL     1      23.964  32.169  34.857  1.00  0.00     0.015 C 
BRANCH   5   6
ATOM      6  C   UNL     1      22.494  32.360  34.425  1.00  0.00     0.028 C 
BRANCH   6   7
ATOM      7  C   UNL     1      21.591  33.146  35.346  1.00  0.00    -0.028 C 
ATOM      8  C   UNL     1      20.470  32.700  35.960  1.00  0.00    -0.070 CG0
ATOM      9  C   UNL     1      19.620  33.713  36.689  1.00  0.00     0.039 C 
ATOM     10  G   UNL     1      20.054  31.246  36.012  1.00  0.00     0.000 G0
ENDBRANCH   6   7
ENDBRANCH   5   6
ENDBRANCH   3   5
ENDBRANCH   1   3
BRANCH   1  11
ATOM     11  C   UNL     1      22.926  30.756  38.143  1.00  0.00     0.087 C 
BRANCH  11  12
ATOM     12  C   UNL     1      21.944  29.940  37.249  1.00  0.00     0.066 C 
BRANCH  12  13
ATOM     13  C   UNL     1      20.557  30.572  37.243  1.00  0.00     0.140 C 
ATOM     14  O   UNL     1      19.894  30.625  38.266  1.00  0.00    -0.299 OA
BRANCH  13  15
ATOM     15  C   UNL     1      20.024  31.251  36.001  1.00  0.00     0.106 CG0
ATOM     16  G   UNL     1      20.461  32.700  35.972  1.00  0.00     0.000 G0
ENDBRANCH  13  15
ENDBRANCH  12  13
BRANCH  12  17
ATOM     17  C   UNL     1      21.972  28.410  37.571  1.00  0.00    -0.006 C 
ATOM     18  C   UNL     1      20.724  27.701  37.024  1.00  0.00     0.008 C 
ATOM     19  C   UNL     1      22.167  28.059  39.061  1.00  0.00     0.008 C 
ENDBRANCH  12  17
ENDBRANCH  11  12
ENDBRANCH   1  11
TORSDOF 1
ENDMDL
MODEL 9
REMARK VINA RESULT:    -3.456      2.107      4.111
REMARK INTER + INTRA:          -5.613
REMARK INTER:                  -5.723
REMARK INTRA:                   0.111
REMARK UNBOUND:                -0.339
REMARK SMILES CC1=CCC[C@@H](C)C(=O)C[C@@H](C(C)C)C(=O)C1
REMARK SMILES IDX 8 1 9 2 6 3 7 4 5 5 4 6 3 7 2 8 1 9 10 11 11 12 15 13 16 14
REMARK SMILES IDX 17 15 12 17 13 18 14 19
REMARK H PARENT
REMARK Flexibility Score: 70.00
ROOT
ATOM      1  C   UNL     1      23.118  29.715  37.087  1.00  0.00     0.136 C 
ATOM      2  O   UNL     1      24.255  29.469  36.715  1.00  0.00    -0.299 OA
ENDROOT
BRANCH   1   3
ATOM      3  C   UNL     1      22.526  28.900  38.225  1.00  0.00     0.053 C 
ATOM      4  C   UNL     1      23.570  28.569  39.302  1.00  0.00     0.016 C 
BRANCH   3   5
ATOM      5  C   UNL     1      21.672  27.702  37.705  1.00  0.00     0.015 C 
BRANCH   5   6
ATOM      6  C   UNL     1      20.832  27.865  36.418  1.00  0.00     0.028 C 
BRANCH   6   7
ATOM      7  C   UNL     1      19.358  28.153  36.577  1.00  0.00    -0.028 C 
ATOM      8  C   UNL     1      18.764  29.369  36.580  1.00  0.00    -0.070 CG0
ATOM      9  C   UNL     1      17.300  29.433  36.941  1.00  0.00     0.039 C 
ATOM     10  G   UNL     1      19.461  30.654  36.185  1.00  0.00     0.000 G0
ENDBRANCH   6   7
ENDBRANCH   5   6
ENDBRANCH   3   5
ENDBRANCH   1   3
BRANCH   1  11
ATOM     11  C   UNL     1      22.371  30.840  36.414  1.00  0.00     0.087 C 
BRANCH  11  12
ATOM     12  C   UNL     1      21.557  31.687  37.438  1.00  0.00     0.066 C 
BRANCH  12  13
ATOM     13  C   UNL     1      20.079  31.316  37.403  1.00  0.00     0.140 C 
ATOM     14  O   UNL     1      19.337  31.635  38.319  1.00  0.00    -0.299 OA
BRANCH  13  15
ATOM     15  C   UNL     1      19.478  30.655  36.183  1.00  0.00     0.106 CG0
ATOM     16  G   UNL     1      18.756  29.386  36.583  1.00  0.00     0.000 G0
ENDBRANCH  13  15
ENDBRANCH  12  13
BRANCH  12  17
ATOM     17  C   UNL     1      21.858  33.217  37.323  1.00  0.00    -0.006 C 
ATOM     18  C   UNL     1      21.283  33.804  36.025  1.00  0.00     0.008 C 
ATOM     19  C   UNL     1      23.347  33.602  37.461  1.00  0.00     0.008 C 
ENDBRANCH  12  17
ENDBRANCH  11  12
ENDBRANCH   1  11
TORSDOF 1
ENDMDL
