MODEL 1
REMARK VINA RESULT:    -3.491      0.000      0.000
REMARK INTER + INTRA:          -4.580
REMARK INTER:                  -4.307
REMARK INTRA:                  -0.272
REMARK UNBOUND:                -0.272
REMARK SMILES CCCCC=CC(C)=O
REMARK SMILES IDX 4 1 3 2 2 3 1 4 5 5 6 6 7 7 9 8 8 9
REMARK H PARENT
REMARK Flexibility Score: inf
ROOT
ATOM      1  C   UNL     1      73.725  34.791  52.370  1.00  0.00     0.027 C 
ENDROOT
BRANCH   1   2
ATOM      2  C   UNL     1      74.614  35.991  52.729  1.00  0.00     0.004 C 
BRANCH   2   3
ATOM      3  C   UNL     1      76.077  35.787  52.308  1.00  0.00    -0.003 C 
ATOM      4  C   UNL     1      76.476  34.314  52.246  1.00  0.00     0.004 C 
ENDBRANCH   2   3
ENDBRANCH   1   2
BRANCH   1   5
ATOM      5  C   UNL     1      73.042  34.239  53.588  1.00  0.00    -0.023 C 
ATOM      6  C   UNL     1      73.448  34.561  54.822  1.00  0.00     0.042 C 
BRANCH   6   7
ATOM      7  C   UNL     1      72.816  34.033  56.048  1.00  0.00     0.152 C 
ATOM      8  O   UNL     1      73.349  33.050  56.628  1.00  0.00    -0.295 OA
ATOM      9  C   UNL     1      71.564  34.624  56.627  1.00  0.00     0.093 C 
ENDBRANCH   6   7
ENDBRANCH   1   5
TORSDOF 4
ENDMDL
MODEL 2
REMARK VINA RESULT:    -3.455     16.627     17.527
REMARK INTER + INTRA:          -4.536
REMARK INTER:                  -4.256
REMARK INTRA:                  -0.280
REMARK UNBOUND:                -0.272
REMARK SMILES CCCCC=CC(C)=O
REMARK SMILES IDX 4 1 3 2 2 3 1 4 5 5 6 6 7 7 9 8 8 9
REMARK H PARENT
REMARK Flexibility Score: inf
ROOT
ATOM      1  C   UNL     1      83.864  31.982  66.705  1.00  0.00     0.027 C 
ENDROOT
BRANCH   1   2
ATOM      2  C   UNL     1      83.818  31.766  65.184  1.00  0.00     0.004 C 
BRANCH   2   3
ATOM      3  C   UNL     1      83.103  30.463  64.796  1.00  0.00    -0.003 C 
ATOM      4  C   UNL     1      84.074  29.332  64.459  1.00  0.00     0.004 C 
ENDBRANCH   2   3
ENDBRANCH   1   2
BRANCH   1   5
ATOM      5  C   UNL     1      85.280  32.064  67.198  1.00  0.00    -0.023 C 
ATOM      6  C   UNL     1      86.315  31.773  66.400  1.00  0.00     0.042 C 
BRANCH   6   7
ATOM      7  C   UNL     1      87.723  31.826  66.844  1.00  0.00     0.152 C 
ATOM      8  O   UNL     1      88.325  30.744  67.074  1.00  0.00    -0.295 OA
ATOM      9  C   UNL     1      88.459  33.120  67.030  1.00  0.00     0.093 C 
ENDBRANCH   6   7
ENDBRANCH   1   5
TORSDOF 4
ENDMDL
MODEL 3
REMARK VINA RESULT:    -3.419      2.548      5.239
REMARK INTER + INTRA:          -4.491
REMARK INTER:                  -4.371
REMARK INTRA:                  -0.120
REMARK UNBOUND:                -0.272
REMARK SMILES CCCCC=CC(C)=O
REMARK SMILES IDX 4 1 3 2 2 3 1 4 5 5 6 6 7 7 9 8 8 9
REMARK H PARENT
REMARK Flexibility Score: inf
ROOT
ATOM      1  C   UNL     1      73.885  34.397  53.130  1.00  0.00     0.027 C 
ENDROOT
BRANCH   1   2
ATOM      2  C   UNL     1      73.681  34.890  54.571  1.00  0.00     0.004 C 
BRANCH   2   3
ATOM      3  C   UNL     1      72.950  33.863  55.448  1.00  0.00    -0.003 C 
ATOM      4  C   UNL     1      72.032  34.514  56.481  1.00  0.00     0.004 C 
ENDBRANCH   2   3
ENDBRANCH   1   2
BRANCH   1   5
ATOM      5  C   UNL     1      75.123  34.992  52.523  1.00  0.00    -0.023 C 
ATOM      6  C   UNL     1      76.243  34.273  52.376  1.00  0.00     0.042 C 
BRANCH   6   7
ATOM      7  C   UNL     1      77.487  34.818  51.797  1.00  0.00     0.152 C 
ATOM      8  O   UNL     1      78.565  34.194  51.984  1.00  0.00    -0.295 OA
ATOM      9  C   UNL     1      77.514  36.086  50.996  1.00  0.00     0.093 C 
ENDBRANCH   6   7
ENDBRANCH   1   5
TORSDOF 4
ENDMDL
MODEL 4
REMARK VINA RESULT:    -3.405     18.239     19.198
REMARK INTER + INTRA:          -4.474
REMARK INTER:                  -4.354
REMARK INTRA:                  -0.120
REMARK UNBOUND:                -0.272
REMARK SMILES CCCCC=CC(C)=O
REMARK SMILES IDX 4 1 3 2 2 3 1 4 5 5 6 6 7 7 9 8 8 9
REMARK H PARENT
REMARK Flexibility Score: inf
ROOT
ATOM      1  C   UNL     1      89.071  26.821  63.440  1.00  0.00     0.027 C 
ENDROOT
BRANCH   1   2
ATOM      2  C   UNL     1      88.626  25.363  63.629  1.00  0.00     0.004 C 
BRANCH   2   3
ATOM      3  C   UNL     1      87.966  24.780  62.371  1.00  0.00    -0.003 C 
ATOM      4  C   UNL     1      88.936  24.654  61.197  1.00  0.00     0.004 C 
ENDBRANCH   2   3
ENDBRANCH   1   2
BRANCH   1   5
ATOM      5  C   UNL     1      88.433  27.719  64.461  1.00  0.00    -0.023 C 
ATOM      6  C   UNL     1      88.768  29.012  64.559  1.00  0.00     0.042 C 
BRANCH   6   7
ATOM      7  C   UNL     1      88.178  29.929  65.555  1.00  0.00     0.152 C 
ATOM      8  O   UNL     1      88.899  30.333  66.506  1.00  0.00    -0.295 OA
ATOM      9  C   UNL     1      86.755  30.398  65.474  1.00  0.00     0.093 C 
ENDBRANCH   6   7
ENDBRANCH   1   5
TORSDOF 4
ENDMDL
MODEL 5
REMARK VINA RESULT:    -3.329     16.389     17.447
REMARK INTER + INTRA:          -4.380
REMARK INTER:                  -4.200
REMARK INTRA:                  -0.179
REMARK UNBOUND:                -0.272
REMARK SMILES CCCCC=CC(C)=O
REMARK SMILES IDX 4 1 3 2 2 3 1 4 5 5 6 6 7 7 9 8 8 9
REMARK H PARENT
REMARK Flexibility Score: inf
ROOT
ATOM      1  C   UNL     1      85.272  32.075  67.106  1.00  0.00     0.027 C 
ENDROOT
BRANCH   1   2
ATOM      2  C   UNL     1      83.803  31.958  66.673  1.00  0.00     0.004 C 
BRANCH   2   3
ATOM      3  C   UNL     1      83.649  31.761  65.157  1.00  0.00    -0.003 C 
ATOM      4  C   UNL     1      83.053  30.401  64.795  1.00  0.00     0.004 C 
ENDBRANCH   2   3
ENDBRANCH   1   2
BRANCH   1   5
ATOM      5  C   UNL     1      86.199  31.840  65.948  1.00  0.00    -0.023 C 
ATOM      6  C   UNL     1      87.004  30.771  65.904  1.00  0.00     0.042 C 
BRANCH   6   7
ATOM      7  C   UNL     1      87.940  30.506  64.792  1.00  0.00     0.152 C 
ATOM      8  O   UNL     1      88.032  31.353  63.865  1.00  0.00    -0.295 OA
ATOM      9  C   UNL     1      88.785  29.267  64.729  1.00  0.00     0.093 C 
ENDBRANCH   6   7
ENDBRANCH   1   5
TORSDOF 4
ENDMDL
MODEL 6
REMARK VINA RESULT:    -3.264     16.844     17.598
REMARK INTER + INTRA:          -4.299
REMARK INTER:                  -4.034
REMARK INTRA:                  -0.265
REMARK UNBOUND:                -0.272
REMARK SMILES CCCCC=CC(C)=O
REMARK SMILES IDX 4 1 3 2 2 3 1 4 5 5 6 6 7 7 9 8 8 9
REMARK H PARENT
REMARK Flexibility Score: inf
ROOT
ATOM      1  C   UNL     1      86.838  32.188  67.653  1.00  0.00     0.027 C 
ENDROOT
BRANCH   1   2
ATOM      2  C   UNL     1      87.878  31.276  66.985  1.00  0.00     0.004 C 
BRANCH   2   3
ATOM      3  C   UNL     1      89.087  32.056  66.446  1.00  0.00    -0.003 C 
ATOM      4  C   UNL     1      89.024  33.547  66.776  1.00  0.00     0.004 C 
ENDBRANCH   2   3
ENDBRANCH   1   2
BRANCH   1   5
ATOM      5  C   UNL     1      85.480  31.999  67.042  1.00  0.00    -0.023 C 
ATOM      6  C   UNL     1      85.335  31.626  65.764  1.00  0.00     0.042 C 
BRANCH   6   7
ATOM      7  C   UNL     1      84.020  31.440  65.117  1.00  0.00     0.152 C 
ATOM      8  O   UNL     1      83.327  32.459  64.857  1.00  0.00    -0.295 OA
ATOM      9  C   UNL     1      83.483  30.086  64.759  1.00  0.00     0.093 C 
ENDBRANCH   6   7
ENDBRANCH   1   5
TORSDOF 4
ENDMDL
MODEL 7
REMARK VINA RESULT:    -3.257      3.185      5.615
REMARK INTER + INTRA:          -4.291
REMARK INTER:                  -4.149
REMARK INTRA:                  -0.143
REMARK UNBOUND:                -0.272
REMARK SMILES CCCCC=CC(C)=O
REMARK SMILES IDX 4 1 3 2 2 3 1 4 5 5 6 6 7 7 9 8 8 9
REMARK H PARENT
REMARK Flexibility Score: inf
ROOT
ATOM      1  C   UNL     1      74.837  34.675  53.007  1.00  0.00     0.027 C 
ENDROOT
BRANCH   1   2
ATOM      2  C   UNL     1      74.353  35.554  54.170  1.00  0.00     0.004 C 
BRANCH   2   3
ATOM      3  C   UNL     1      73.456  34.788  55.154  1.00  0.00    -0.003 C 
ATOM      4  C   UNL     1      72.970  33.452  54.595  1.00  0.00     0.004 C 
ENDBRANCH   2   3
ENDBRANCH   1   2
BRANCH   1   5
ATOM      5  C   UNL     1      76.053  35.264  52.351  1.00  0.00    -0.023 C 
ATOM      6  C   UNL     1      77.101  34.503  52.013  1.00  0.00     0.042 C 
BRANCH   6   7
ATOM      7  C   UNL     1      78.322  35.039  51.379  1.00  0.00     0.152 C 
ATOM      8  O   UNL     1      78.201  35.901  50.469  1.00  0.00    -0.295 OA
ATOM      9  C   UNL     1      79.699  34.596  51.780  1.00  0.00     0.093 C 
ENDBRANCH   6   7
ENDBRANCH   1   5
TORSDOF 4
ENDMDL
MODEL 8
REMARK VINA RESULT:    -3.255     17.677     18.524
REMARK INTER + INTRA:          -4.289
REMARK INTER:                  -4.150
REMARK INTRA:                  -0.138
REMARK UNBOUND:                -0.272
REMARK SMILES CCCCC=CC(C)=O
REMARK SMILES IDX 4 1 3 2 2 3 1 4 5 5 6 6 7 7 9 8 8 9
REMARK H PARENT
REMARK Flexibility Score: inf
ROOT
ATOM      1  C   UNL     1      89.030  28.495  64.693  1.00  0.00     0.027 C 
ENDROOT
BRANCH   1   2
ATOM      2  C   UNL     1      88.057  27.345  64.392  1.00  0.00     0.004 C 
BRANCH   2   3
ATOM      3  C   UNL     1      88.741  25.970  64.422  1.00  0.00    -0.003 C 
ATOM      4  C   UNL     1      88.298  25.063  63.275  1.00  0.00     0.004 C 
ENDBRANCH   2   3
ENDBRANCH   1   2
BRANCH   1   5
ATOM      5  C   UNL     1      88.301  29.699  65.215  1.00  0.00    -0.023 C 
ATOM      6  C   UNL     1      86.966  29.787  65.155  1.00  0.00     0.042 C 
BRANCH   6   7
ATOM      7  C   UNL     1      86.208  30.957  65.643  1.00  0.00     0.152 C 
ATOM      8  O   UNL     1      86.496  31.434  66.772  1.00  0.00    -0.295 OA
ATOM      9  C   UNL     1      85.110  31.595  64.845  1.00  0.00     0.093 C 
ENDBRANCH   6   7
ENDBRANCH   1   5
TORSDOF 4
ENDMDL
MODEL 9
REMARK VINA RESULT:    -3.147     18.591     19.336
REMARK INTER + INTRA:          -4.156
REMARK INTER:                  -4.064
REMARK INTRA:                  -0.091
REMARK UNBOUND:                -0.272
REMARK SMILES CCCCC=CC(C)=O
REMARK SMILES IDX 4 1 3 2 2 3 1 4 5 5 6 6 7 7 9 8 8 9
REMARK H PARENT
REMARK Flexibility Score: inf
ROOT
ATOM      1  C   UNL     1      89.125  28.136  64.902  1.00  0.00     0.027 C 
ENDROOT
BRANCH   1   2
ATOM      2  C   UNL     1      88.306  29.429  64.769  1.00  0.00     0.004 C 
BRANCH   2   3
ATOM      3  C   UNL     1      88.521  30.387  65.951  1.00  0.00    -0.003 C 
ATOM      4  C   UNL     1      87.240  31.105  66.371  1.00  0.00     0.004 C 
ENDBRANCH   2   3
ENDBRANCH   1   2
BRANCH   1   5
ATOM      5  C   UNL     1      88.447  26.991  64.207  1.00  0.00    -0.023 C 
ATOM      6  C   UNL     1      88.972  26.431  63.110  1.00  0.00     0.042 C 
BRANCH   6   7
ATOM      7  C   UNL     1      88.334  25.312  62.386  1.00  0.00     0.152 C 
ATOM      8  O   UNL     1      87.225  24.881  62.797  1.00  0.00    -0.295 OA
ATOM      9  C   UNL     1      88.959  24.673  61.181  1.00  0.00     0.093 C 
ENDBRANCH   6   7
ENDBRANCH   1   5
TORSDOF 4
ENDMDL
