MODEL 1
REMARK VINA RESULT:    -4.656      0.000      0.000
REMARK INTER + INTRA:          -8.202
REMARK INTER:                  -7.378
REMARK INTRA:                  -0.824
REMARK UNBOUND:                -0.824
REMARK SMILES CCCCCCCCCCCC(=O)[O-]
REMARK SMILES IDX 7 1 8 2 9 3 10 4 11 5 12 6 13 7 14 8 6 9 5 10 4 11 3 12 2 13
REMARK SMILES IDX 1 14
REMARK H PARENT
REMARK Flexibility Score: inf
ROOT
ATOM      1  C   UNL     1      84.915 124.985 130.397  1.00  0.00     0.000 C 
ENDROOT
BRANCH   1   2
ATOM      2  C   UNL     1      85.906 125.031 131.570  1.00  0.00     0.000 C 
BRANCH   2   3
ATOM      3  C   UNL     1      86.698 123.719 131.674  1.00  0.00     0.000 C 
BRANCH   3   4
ATOM      4  C   UNL     1      88.078 123.806 131.004  1.00  0.00     0.006 C 
BRANCH   4   5
ATOM      5  C   UNL     1      88.189 122.913 129.762  1.00  0.00     0.053 C 
BRANCH   5   6
ATOM      6  C   UNL     1      88.539 121.513 130.155  1.00  0.00     0.041 C 
ATOM      7  O   UNL     1      88.008 120.537 129.564  1.00  0.00    -0.550 OA
ATOM      8  O   UNL     1      89.414 121.285 131.210  1.00  0.00    -0.550 OA
ENDBRANCH   5   6
ENDBRANCH   4   5
ENDBRANCH   3   4
ENDBRANCH   2   3
ENDBRANCH   1   2
BRANCH   1   9
ATOM      9  C   UNL     1      85.466 125.681 129.133  1.00  0.00     0.000 C 
BRANCH   9  10
ATOM     10  C   UNL     1      85.144 124.939 127.823  1.00  0.00    -0.000 C 
BRANCH  10  11
ATOM     11  C   UNL     1      83.955 123.967 127.903  1.00  0.00    -0.000 C 
BRANCH  11  12
ATOM     12  C   UNL     1      83.146 123.907 126.598  1.00  0.00    -0.000 C 
BRANCH  12  13
ATOM     13  C   UNL     1      84.043 124.183 125.386  1.00  0.00    -0.003 C 
ATOM     14  C   UNL     1      84.590 122.886 124.796  1.00  0.00     0.004 C 
ENDBRANCH  12  13
ENDBRANCH  11  12
ENDBRANCH  10  11
ENDBRANCH   9  10
ENDBRANCH   1   9
TORSDOF 10
ENDMDL
MODEL 2
REMARK VINA RESULT:    -4.617      1.150      2.326
REMARK INTER + INTRA:          -8.140
REMARK INTER:                  -7.602
REMARK INTRA:                  -0.537
REMARK UNBOUND:                -0.824
REMARK SMILES CCCCCCCCCCCC(=O)[O-]
REMARK SMILES IDX 7 1 8 2 9 3 10 4 11 5 12 6 13 7 14 8 6 9 5 10 4 11 3 12 2 13
REMARK SMILES IDX 1 14
REMARK H PARENT
REMARK Flexibility Score: inf
ROOT
ATOM      1  C   UNL     1      85.298 125.289 127.899  1.00  0.00     0.000 C 
ENDROOT
BRANCH   1   2
ATOM      2  C   UNL     1      86.598 124.928 128.633  1.00  0.00     0.000 C 
BRANCH   2   3
ATOM      3  C   UNL     1      86.340 124.696 130.129  1.00  0.00     0.000 C 
BRANCH   3   4
ATOM      4  C   UNL     1      87.370 123.751 130.768  1.00  0.00     0.006 C 
BRANCH   4   5
ATOM      5  C   UNL     1      88.214 123.006 129.726  1.00  0.00     0.053 C 
BRANCH   5   6
ATOM      6  C   UNL     1      88.499 121.612 130.186  1.00  0.00     0.041 C 
ATOM      7  O   UNL     1      89.256 121.412 131.172  1.00  0.00    -0.550 OA
ATOM      8  O   UNL     1      87.969 120.529 129.495  1.00  0.00    -0.550 OA
ENDBRANCH   5   6
ENDBRANCH   4   5
ENDBRANCH   3   4
ENDBRANCH   2   3
ENDBRANCH   1   2
BRANCH   1   9
ATOM      9  C   UNL     1      84.510 124.040 127.448  1.00  0.00     0.000 C 
BRANCH   9  10
ATOM     10  C   UNL     1      83.800 124.208 126.091  1.00  0.00    -0.000 C 
BRANCH  10  11
ATOM     11  C   UNL     1      84.503 123.532 124.903  1.00  0.00    -0.000 C 
BRANCH  11  12
ATOM     12  C   UNL     1      84.519 122.000 125.014  1.00  0.00    -0.000 C 
BRANCH  12  13
ATOM     13  C   UNL     1      83.234 121.396 124.436  1.00  0.00    -0.003 C 
ATOM     14  C   UNL     1      83.053 121.781 122.970  1.00  0.00     0.004 C 
ENDBRANCH  12  13
ENDBRANCH  11  12
ENDBRANCH  10  11
ENDBRANCH   9  10
ENDBRANCH   1   9
TORSDOF 10
ENDMDL
MODEL 3
REMARK VINA RESULT:    -4.511     10.755     13.308
REMARK INTER + INTRA:          -7.972
REMARK INTER:                  -7.354
REMARK INTRA:                  -0.618
REMARK UNBOUND:                -0.824
REMARK SMILES CCCCCCCCCCCC(=O)[O-]
REMARK SMILES IDX 7 1 8 2 9 3 10 4 11 5 12 6 13 7 14 8 6 9 5 10 4 11 3 12 2 13
REMARK SMILES IDX 1 14
REMARK H PARENT
REMARK Flexibility Score: inf
ROOT
ATOM      1  C   UNL     1      97.824 124.097 126.179  1.00  0.00     0.000 C 
ENDROOT
BRANCH   1   2
ATOM      2  C   UNL     1      97.512 125.296 125.269  1.00  0.00     0.000 C 
BRANCH   2   3
ATOM      3  C   UNL     1      96.542 124.898 124.146  1.00  0.00     0.000 C 
BRANCH   3   4
ATOM      4  C   UNL     1      96.081 123.436 124.254  1.00  0.00     0.006 C 
BRANCH   4   5
ATOM      5  C   UNL     1      95.337 122.956 123.002  1.00  0.00     0.053 C 
BRANCH   5   6
ATOM      6  C   UNL     1      93.967 122.477 123.359  1.00  0.00     0.041 C 
ATOM      7  O   UNL     1      93.529 122.626 124.530  1.00  0.00    -0.550 OA
ATOM      8  O   UNL     1      93.190 121.821 122.412  1.00  0.00    -0.550 OA
ENDBRANCH   5   6
ENDBRANCH   4   5
ENDBRANCH   3   4
ENDBRANCH   2   3
ENDBRANCH   1   2
BRANCH   1   9
ATOM      9  C   UNL     1      99.334 123.952 126.464  1.00  0.00     0.000 C 
BRANCH   9  10
ATOM     10  C   UNL     1      99.830 122.494 126.463  1.00  0.00    -0.000 C 
BRANCH  10  11
ATOM     11  C   UNL     1      98.780 121.451 126.046  1.00  0.00    -0.000 C 
BRANCH  11  12
ATOM     12  C   UNL     1      99.250 120.007 126.277  1.00  0.00    -0.000 C 
BRANCH  12  13
ATOM     13  C   UNL     1     100.707 119.975 126.752  1.00  0.00    -0.003 C 
ATOM     14  C   UNL     1     101.663 119.743 125.585  1.00  0.00     0.004 C 
ENDBRANCH  12  13
ENDBRANCH  11  12
ENDBRANCH  10  11
ENDBRANCH   9  10
ENDBRANCH   1   9
TORSDOF 10
ENDMDL
MODEL 4
REMARK VINA RESULT:    -4.491      1.552      2.349
REMARK INTER + INTRA:          -7.940
REMARK INTER:                  -6.573
REMARK INTRA:                  -1.367
REMARK UNBOUND:                -0.824
REMARK SMILES CCCCCCCCCCCC(=O)[O-]
REMARK SMILES IDX 7 1 8 2 9 3 10 4 11 5 12 6 13 7 14 8 6 9 5 10 4 11 3 12 2 13
REMARK SMILES IDX 1 14
REMARK H PARENT
REMARK Flexibility Score: inf
ROOT
ATOM      1  C   UNL     1      84.824 125.531 129.420  1.00  0.00     0.000 C 
ENDROOT
BRANCH   1   2
ATOM      2  C   UNL     1      85.749 124.893 130.467  1.00  0.00     0.000 C 
BRANCH   2   3
ATOM      3  C   UNL     1      87.084 124.468 129.836  1.00  0.00     0.000 C 
BRANCH   3   4
ATOM      4  C   UNL     1      88.066 123.887 130.867  1.00  0.00     0.006 C 
BRANCH   4   5
ATOM      5  C   UNL     1      87.680 122.474 131.320  1.00  0.00     0.053 C 
BRANCH   5   6
ATOM      6  C   UNL     1      88.676 121.476 130.821  1.00  0.00     0.041 C 
ATOM      7  O   UNL     1      89.767 121.311 131.427  1.00  0.00    -0.550 OA
ATOM      8  O   UNL     1      88.420 120.762 129.656  1.00  0.00    -0.550 OA
ENDBRANCH   5   6
ENDBRANCH   4   5
ENDBRANCH   3   4
ENDBRANCH   2   3
ENDBRANCH   1   2
BRANCH   1   9
ATOM      9  C   UNL     1      85.338 125.328 127.978  1.00  0.00     0.000 C 
BRANCH   9  10
ATOM     10  C   UNL     1      84.421 124.448 127.108  1.00  0.00    -0.000 C 
BRANCH  10  11
ATOM     11  C   UNL     1      85.078 123.173 126.555  1.00  0.00    -0.000 C 
BRANCH  11  12
ATOM     12  C   UNL     1      84.513 121.891 127.185  1.00  0.00    -0.000 C 
BRANCH  12  13
ATOM     13  C   UNL     1      85.284 121.521 128.458  1.00  0.00    -0.003 C 
ATOM     14  C   UNL     1      84.394 121.626 129.693  1.00  0.00     0.004 C 
ENDBRANCH  12  13
ENDBRANCH  11  12
ENDBRANCH  10  11
ENDBRANCH   9  10
ENDBRANCH   1   9
TORSDOF 10
ENDMDL
MODEL 5
REMARK VINA RESULT:    -4.451     10.598     11.818
REMARK INTER + INTRA:          -7.878
REMARK INTER:                  -7.404
REMARK INTRA:                  -0.474
REMARK UNBOUND:                -0.824
REMARK SMILES CCCCCCCCCCCC(=O)[O-]
REMARK SMILES IDX 7 1 8 2 9 3 10 4 11 5 12 6 13 7 14 8 6 9 5 10 4 11 3 12 2 13
REMARK SMILES IDX 1 14
REMARK H PARENT
REMARK Flexibility Score: inf
ROOT
ATOM      1  C   UNL     1      96.750 124.561 124.513  1.00  0.00     0.000 C 
ENDROOT
BRANCH   1   2
ATOM      2  C   UNL     1      97.255 124.140 125.902  1.00  0.00     0.000 C 
BRANCH   2   3
ATOM      3  C   UNL     1      98.750 124.458 126.063  1.00  0.00     0.000 C 
BRANCH   3   4
ATOM      4  C   UNL     1      99.589 123.209 126.379  1.00  0.00     0.006 C 
BRANCH   4   5
ATOM      5  C   UNL     1      98.796 121.907 126.210  1.00  0.00     0.053 C 
BRANCH   5   6
ATOM      6  C   UNL     1      99.709 120.725 126.296  1.00  0.00     0.041 C 
ATOM      7  O   UNL     1     100.263 120.431 127.387  1.00  0.00    -0.550 OA
ATOM      8  O   UNL     1      99.987 119.977 125.159  1.00  0.00    -0.550 OA
ENDBRANCH   5   6
ENDBRANCH   4   5
ENDBRANCH   3   4
ENDBRANCH   2   3
ENDBRANCH   1   2
BRANCH   1   9
ATOM      9  C   UNL     1      96.137 123.380 123.728  1.00  0.00     0.000 C 
BRANCH   9  10
ATOM     10  C   UNL     1      94.597 123.368 123.725  1.00  0.00    -0.000 C 
BRANCH  10  11
ATOM     11  C   UNL     1      93.960 122.058 123.232  1.00  0.00    -0.000 C 
BRANCH  11  12
ATOM     12  C   UNL     1      92.964 122.275 122.083  1.00  0.00    -0.000 C 
BRANCH  12  13
ATOM     13  C   UNL     1      93.591 121.894 120.737  1.00  0.00    -0.003 C 
ATOM     14  C   UNL     1      92.847 122.549 119.576  1.00  0.00     0.004 C 
ENDBRANCH  12  13
ENDBRANCH  11  12
ENDBRANCH  10  11
ENDBRANCH   9  10
ENDBRANCH   1   9
TORSDOF 10
ENDMDL
MODEL 6
REMARK VINA RESULT:    -4.329      1.962      2.767
REMARK INTER + INTRA:          -7.683
REMARK INTER:                  -6.052
REMARK INTRA:                  -1.632
REMARK UNBOUND:                -0.824
REMARK SMILES CCCCCCCCCCCC(=O)[O-]
REMARK SMILES IDX 7 1 8 2 9 3 10 4 11 5 12 6 13 7 14 8 6 9 5 10 4 11 3 12 2 13
REMARK SMILES IDX 1 14
REMARK H PARENT
REMARK Flexibility Score: inf
ROOT
ATOM      1  C   UNL     1      86.019 124.891 131.951  1.00  0.00     0.000 C 
ENDROOT
BRANCH   1   2
ATOM      2  C   UNL     1      86.953 123.693 132.184  1.00  0.00     0.000 C 
BRANCH   2   3
ATOM      3  C   UNL     1      88.169 123.753 131.247  1.00  0.00     0.000 C 
BRANCH   3   4
ATOM      4  C   UNL     1      88.588 122.366 130.732  1.00  0.00     0.006 C 
BRANCH   4   5
ATOM      5  C   UNL     1      87.772 121.231 131.364  1.00  0.00     0.053 C 
BRANCH   5   6
ATOM      6  C   UNL     1      87.122 120.403 130.302  1.00  0.00     0.041 C 
ATOM      7  O   UNL     1      87.762 120.082 129.267  1.00  0.00    -0.550 OA
ATOM      8  O   UNL     1      85.791 120.026 130.432  1.00  0.00    -0.550 OA
ENDBRANCH   5   6
ENDBRANCH   4   5
ENDBRANCH   3   4
ENDBRANCH   2   3
ENDBRANCH   1   2
BRANCH   1   9
ATOM      9  C   UNL     1      84.565 124.456 131.667  1.00  0.00     0.000 C 
BRANCH   9  10
ATOM     10  C   UNL     1      84.445 123.326 130.627  1.00  0.00    -0.000 C 
BRANCH  10  11
ATOM     11  C   UNL     1      84.440 123.790 129.161  1.00  0.00    -0.000 C 
BRANCH  11  12
ATOM     12  C   UNL     1      85.772 123.520 128.445  1.00  0.00    -0.000 C 
BRANCH  12  13
ATOM     13  C   UNL     1      86.568 124.817 128.263  1.00  0.00    -0.003 C 
ATOM     14  C   UNL     1      85.664 126.041 128.385  1.00  0.00     0.004 C 
ENDBRANCH  12  13
ENDBRANCH  11  12
ENDBRANCH  10  11
ENDBRANCH   9  10
ENDBRANCH   1   9
TORSDOF 10
ENDMDL
MODEL 7
REMARK VINA RESULT:    -4.316      2.917      4.942
REMARK INTER + INTRA:          -7.662
REMARK INTER:                  -6.348
REMARK INTRA:                  -1.315
REMARK UNBOUND:                -0.824
REMARK SMILES CCCCCCCCCCCC(=O)[O-]
REMARK SMILES IDX 7 1 8 2 9 3 10 4 11 5 12 6 13 7 14 8 6 9 5 10 4 11 3 12 2 13
REMARK SMILES IDX 1 14
REMARK H PARENT
REMARK Flexibility Score: inf
ROOT
ATOM      1  C   UNL     1      88.306 123.430 130.766  1.00  0.00     0.000 C 
ENDROOT
BRANCH   1   2
ATOM      2  C   UNL     1      87.141 123.978 131.605  1.00  0.00     0.000 C 
BRANCH   2   3
ATOM      3  C   UNL     1      86.142 124.746 130.725  1.00  0.00     0.000 C 
BRANCH   3   4
ATOM      4  C   UNL     1      86.584 124.818 129.254  1.00  0.00     0.006 C 
BRANCH   4   5
ATOM      5  C   UNL     1      85.672 125.714 128.407  1.00  0.00     0.053 C 
BRANCH   5   6
ATOM      6  C   UNL     1      84.680 124.885 127.654  1.00  0.00     0.041 C 
ATOM      7  O   UNL     1      84.838 124.671 126.423  1.00  0.00    -0.550 OA
ATOM      8  O   UNL     1      83.554 124.390 128.300  1.00  0.00    -0.550 OA
ENDBRANCH   5   6
ENDBRANCH   4   5
ENDBRANCH   3   4
ENDBRANCH   2   3
ENDBRANCH   1   2
BRANCH   1   9
ATOM      9  C   UNL     1      88.668 121.977 131.140  1.00  0.00     0.000 C 
BRANCH   9  10
ATOM     10  C   UNL     1      87.505 121.189 131.774  1.00  0.00    -0.000 C 
BRANCH  10  11
ATOM     11  C   UNL     1      86.800 120.202 130.831  1.00  0.00    -0.000 C 
BRANCH  11  12
ATOM     12  C   UNL     1      87.168 120.420 129.356  1.00  0.00    -0.000 C 
BRANCH  12  13
ATOM     13  C   UNL     1      85.977 120.984 128.572  1.00  0.00    -0.003 C 
ATOM     14  C   UNL     1      84.833 121.368 129.507  1.00  0.00     0.004 C 
ENDBRANCH  12  13
ENDBRANCH  11  12
ENDBRANCH  10  11
ENDBRANCH   9  10
ENDBRANCH   1   9
TORSDOF 10
ENDMDL
MODEL 8
REMARK VINA RESULT:    -4.290      1.234      1.601
REMARK INTER + INTRA:          -7.621
REMARK INTER:                  -6.838
REMARK INTRA:                  -0.783
REMARK UNBOUND:                -0.824
REMARK SMILES CCCCCCCCCCCC(=O)[O-]
REMARK SMILES IDX 7 1 8 2 9 3 10 4 11 5 12 6 13 7 14 8 6 9 5 10 4 11 3 12 2 13
REMARK SMILES IDX 1 14
REMARK H PARENT
REMARK Flexibility Score: inf
ROOT
ATOM      1  C   UNL     1      86.166 124.923 130.608  1.00  0.00     0.000 C 
ENDROOT
BRANCH   1   2
ATOM      2  C   UNL     1      86.505 123.653 131.403  1.00  0.00     0.000 C 
BRANCH   2   3
ATOM      3  C   UNL     1      88.023 123.419 131.446  1.00  0.00     0.000 C 
BRANCH   3   4
ATOM      4  C   UNL     1      88.397 121.937 131.285  1.00  0.00     0.006 C 
BRANCH   4   5
ATOM      5  C   UNL     1      88.234 121.440 129.843  1.00  0.00     0.053 C 
BRANCH   5   6
ATOM      6  C   UNL     1      87.368 120.221 129.806  1.00  0.00     0.041 C 
ATOM      7  O   UNL     1      86.515 120.022 130.710  1.00  0.00    -0.550 OA
ATOM      8  O   UNL     1      87.537 119.278 128.799  1.00  0.00    -0.550 OA
ENDBRANCH   5   6
ENDBRANCH   4   5
ENDBRANCH   3   4
ENDBRANCH   2   3
ENDBRANCH   1   2
BRANCH   1   9
ATOM      9  C   UNL     1      86.752 124.896 129.179  1.00  0.00     0.000 C 
BRANCH   9  10
ATOM     10  C   UNL     1      85.694 125.044 128.070  1.00  0.00    -0.000 C 
BRANCH  10  11
ATOM     11  C   UNL     1      84.777 123.824 127.881  1.00  0.00    -0.000 C 
BRANCH  11  12
ATOM     12  C   UNL     1      83.597 124.106 126.938  1.00  0.00    -0.000 C 
BRANCH  12  13
ATOM     13  C   UNL     1      84.053 124.095 125.474  1.00  0.00    -0.003 C 
ATOM     14  C   UNL     1      84.807 122.810 125.140  1.00  0.00     0.004 C 
ENDBRANCH  12  13
ENDBRANCH  11  12
ENDBRANCH  10  11
ENDBRANCH   9  10
ENDBRANCH   1   9
TORSDOF 10
ENDMDL
MODEL 9
REMARK VINA RESULT:    -4.256      2.653      5.519
REMARK INTER + INTRA:          -7.569
REMARK INTER:                  -6.396
REMARK INTRA:                  -1.172
REMARK UNBOUND:                -0.824
REMARK SMILES CCCCCCCCCCCC(=O)[O-]
REMARK SMILES IDX 7 1 8 2 9 3 10 4 11 5 12 6 13 7 14 8 6 9 5 10 4 11 3 12 2 13
REMARK SMILES IDX 1 14
REMARK H PARENT
REMARK Flexibility Score: inf
ROOT
ATOM      1  C   UNL     1      86.029 125.461 129.037  1.00  0.00     0.000 C 
ENDROOT
BRANCH   1   2
ATOM      2  C   UNL     1      85.386 124.862 127.776  1.00  0.00     0.000 C 
BRANCH   2   3
ATOM      3  C   UNL     1      84.029 124.221 128.102  1.00  0.00     0.000 C 
BRANCH   3   4
ATOM      4  C   UNL     1      83.369 123.577 126.871  1.00  0.00     0.006 C 
BRANCH   4   5
ATOM      5  C   UNL     1      83.924 124.124 125.550  1.00  0.00     0.053 C 
BRANCH   5   6
ATOM      6  C   UNL     1      84.349 123.001 124.658  1.00  0.00     0.041 C 
ATOM      7  O   UNL     1      83.557 122.543 123.794  1.00  0.00    -0.550 OA
ATOM      8  O   UNL     1      85.604 122.426 124.814  1.00  0.00    -0.550 OA
ENDBRANCH   5   6
ENDBRANCH   4   5
ENDBRANCH   3   4
ENDBRANCH   2   3
ENDBRANCH   1   2
BRANCH   1   9
ATOM      9  C   UNL     1      85.293 125.041 130.328  1.00  0.00     0.000 C 
BRANCH   9  10
ATOM     10  C   UNL     1      86.234 124.641 131.480  1.00  0.00    -0.000 C 
BRANCH  10  11
ATOM     11  C   UNL     1      87.609 124.112 131.040  1.00  0.00    -0.000 C 
BRANCH  11  12
ATOM     12  C   UNL     1      87.735 122.588 131.183  1.00  0.00    -0.000 C 
BRANCH  12  13
ATOM     13  C   UNL     1      87.776 121.911 129.807  1.00  0.00    -0.003 C 
ATOM     14  C   UNL     1      86.373 121.549 129.328  1.00  0.00     0.004 C 
ENDBRANCH  12  13
ENDBRANCH  11  12
ENDBRANCH  10  11
ENDBRANCH   9  10
ENDBRANCH   1   9
TORSDOF 10
ENDMDL
