MODEL 1
REMARK VINA RESULT:    -3.166      0.000      0.000
REMARK INTER + INTRA:          -3.367
REMARK INTER:                  -3.351
REMARK INTRA:                  -0.016
REMARK UNBOUND:                -0.016
REMARK SMILES O=Cc1ccco1
REMARK SMILES IDX 5 1 6 2 7 3 3 4 4 5 2 6 1 7
REMARK H PARENT
REMARK Flexibility Score: inf
ROOT
ATOM      1  C   UNL     1     173.565 173.634 149.802  1.00  0.00     0.043 A 
ATOM      2  C   UNL     1     172.636 174.075 150.723  1.00  0.00     0.196 A 
ATOM      3  O   UNL     1     173.233 174.335 151.864  1.00  0.00    -0.462 OA
ATOM      4  C   UNL     1     174.514 174.082 151.731  1.00  0.00     0.166 A 
ATOM      5  C   UNL     1     174.780 173.638 150.452  1.00  0.00     0.054 A 
ENDROOT
BRANCH   4   6
ATOM      6  C   UNL     1     175.494 174.259 152.808  1.00  0.00     0.298 C 
ATOM      7  O   UNL     1     175.127 174.621 153.956  1.00  0.00    -0.294 OA
ENDBRANCH   4   6
TORSDOF 1
ENDMDL
MODEL 2
REMARK VINA RESULT:    -3.046      1.614      1.902
REMARK INTER + INTRA:          -3.240
REMARK INTER:                  -3.229
REMARK INTRA:                  -0.011
REMARK UNBOUND:                -0.016
REMARK SMILES O=Cc1ccco1
REMARK SMILES IDX 5 1 6 2 7 3 3 4 4 5 2 6 1 7
REMARK H PARENT
REMARK Flexibility Score: inf
ROOT
ATOM      1  C   UNL     1     174.395 172.885 150.178  1.00  0.00     0.043 A 
ATOM      2  C   UNL     1     174.728 171.643 150.681  1.00  0.00     0.196 A 
ATOM      3  O   UNL     1     175.117 171.762 151.930  1.00  0.00    -0.462 OA
ATOM      4  C   UNL     1     175.053 173.029 152.268  1.00  0.00     0.166 A 
ATOM      5  C   UNL     1     174.605 173.782 151.202  1.00  0.00     0.054 A 
ENDROOT
BRANCH   4   6
ATOM      6  C   UNL     1     175.414 173.535 153.596  1.00  0.00     0.298 C 
ATOM      7  O   UNL     1     174.977 174.644 154.000  1.00  0.00    -0.294 OA
ENDBRANCH   4   6
TORSDOF 1
ENDMDL
MODEL 3
REMARK VINA RESULT:    -3.044     24.245     24.768
REMARK INTER + INTRA:          -3.238
REMARK INTER:                  -3.224
REMARK INTRA:                  -0.014
REMARK UNBOUND:                -0.016
REMARK SMILES O=Cc1ccco1
REMARK SMILES IDX 5 1 6 2 7 3 3 4 4 5 2 6 1 7
REMARK H PARENT
REMARK Flexibility Score: inf
ROOT
ATOM      1  C   UNL     1     161.572 156.059 161.536  1.00  0.00     0.043 A 
ATOM      2  C   UNL     1     160.988 156.920 160.630  1.00  0.00     0.196 A 
ATOM      3  O   UNL     1     159.925 157.475 161.168  1.00  0.00    -0.462 OA
ATOM      4  C   UNL     1     159.787 157.012 162.389  1.00  0.00     0.166 A 
ATOM      5  C   UNL     1     160.797 156.117 162.675  1.00  0.00     0.054 A 
ENDROOT
BRANCH   4   6
ATOM      6  C   UNL     1     158.703 157.413 163.292  1.00  0.00     0.298 C 
ATOM      7  O   UNL     1     157.538 157.601 162.853  1.00  0.00    -0.294 OA
ENDBRANCH   4   6
TORSDOF 1
ENDMDL
MODEL 4
REMARK VINA RESULT:    -3.039      3.449      3.772
REMARK INTER + INTRA:          -3.233
REMARK INTER:                  -3.218
REMARK INTRA:                  -0.015
REMARK UNBOUND:                -0.016
REMARK SMILES O=Cc1ccco1
REMARK SMILES IDX 5 1 6 2 7 3 3 4 4 5 2 6 1 7
REMARK H PARENT
REMARK Flexibility Score: inf
ROOT
ATOM      1  C   UNL     1     174.511 172.805 150.593  1.00  0.00     0.043 A 
ATOM      2  C   UNL     1     174.786 172.821 151.945  1.00  0.00     0.196 A 
ATOM      3  O   UNL     1     175.059 171.604 152.356  1.00  0.00    -0.462 OA
ATOM      4  C   UNL     1     174.975 170.789 151.330  1.00  0.00     0.166 A 
ATOM      5  C   UNL     1     174.633 171.492 150.192  1.00  0.00     0.054 A 
ENDROOT
BRANCH   4   6
ATOM      6  C   UNL     1     175.217 169.346 151.417  1.00  0.00     0.298 C 
ATOM      7  O   UNL     1     176.011 168.878 152.274  1.00  0.00    -0.294 OA
ENDBRANCH   4   6
TORSDOF 1
ENDMDL
MODEL 5
REMARK VINA RESULT:    -3.034      1.305      2.866
REMARK INTER + INTRA:          -3.228
REMARK INTER:                  -3.217
REMARK INTRA:                  -0.011
REMARK UNBOUND:                -0.016
REMARK SMILES O=Cc1ccco1
REMARK SMILES IDX 5 1 6 2 7 3 3 4 4 5 2 6 1 7
REMARK H PARENT
REMARK Flexibility Score: inf
ROOT
ATOM      1  C   UNL     1     174.584 173.576 150.087  1.00  0.00     0.043 A 
ATOM      2  C   UNL     1     175.005 173.961 151.344  1.00  0.00     0.196 A 
ATOM      3  O   UNL     1     173.970 174.335 152.062  1.00  0.00    -0.462 OA
ATOM      4  C   UNL     1     172.889 174.213 151.329  1.00  0.00     0.166 A 
ATOM      5  C   UNL     1     173.216 173.738 150.075  1.00  0.00     0.054 A 
ENDROOT
BRANCH   4   6
ATOM      6  C   UNL     1     171.542 174.541 151.806  1.00  0.00     0.298 C 
ATOM      7  O   UNL     1     170.757 175.222 151.095  1.00  0.00    -0.294 OA
ENDBRANCH   4   6
TORSDOF 1
ENDMDL
MODEL 6
REMARK VINA RESULT:    -3.007     15.311     15.683
REMARK INTER + INTRA:          -3.199
REMARK INTER:                  -3.184
REMARK INTRA:                  -0.015
REMARK UNBOUND:                -0.016
REMARK SMILES O=Cc1ccco1
REMARK SMILES IDX 5 1 6 2 7 3 3 4 4 5 2 6 1 7
REMARK H PARENT
REMARK Flexibility Score: inf
ROOT
ATOM      1  C   UNL     1     174.528 159.636 150.433  1.00  0.00     0.043 A 
ATOM      2  C   UNL     1     174.807 159.544 151.781  1.00  0.00     0.196 A 
ATOM      3  O   UNL     1     173.839 158.898 152.391  1.00  0.00    -0.462 OA
ATOM      4  C   UNL     1     172.936 158.563 151.499  1.00  0.00     0.166 A 
ATOM      5  C   UNL     1     173.318 159.002 150.247  1.00  0.00     0.054 A 
ENDROOT
BRANCH   4   6
ATOM      6  C   UNL     1     171.710 157.826 151.821  1.00  0.00     0.298 C 
ATOM      7  O   UNL     1     171.683 157.011 152.780  1.00  0.00    -0.294 OA
ENDBRANCH   4   6
TORSDOF 1
ENDMDL
MODEL 7
REMARK VINA RESULT:    -2.947     14.477     14.662
REMARK INTER + INTRA:          -3.136
REMARK INTER:                  -3.120
REMARK INTRA:                  -0.016
REMARK UNBOUND:                -0.016
REMARK SMILES O=Cc1ccco1
REMARK SMILES IDX 5 1 6 2 7 3 3 4 4 5 2 6 1 7
REMARK H PARENT
REMARK Flexibility Score: inf
ROOT
ATOM      1  C   UNL     1     175.405 160.278 150.013  1.00  0.00     0.043 A 
ATOM      2  C   UNL     1     174.253 159.562 150.269  1.00  0.00     0.196 A 
ATOM      3  O   UNL     1     174.257 159.149 151.517  1.00  0.00    -0.462 OA
ATOM      4  C   UNL     1     175.363 159.563 152.089  1.00  0.00     0.166 A 
ATOM      5  C   UNL     1     176.124 160.280 151.188  1.00  0.00     0.054 A 
ENDROOT
BRANCH   4   6
ATOM      6  C   UNL     1     175.707 159.287 153.487  1.00  0.00     0.298 C 
ATOM      7  O   UNL     1     175.024 158.479 154.169  1.00  0.00    -0.294 OA
ENDBRANCH   4   6
TORSDOF 1
ENDMDL
MODEL 8
REMARK VINA RESULT:    -2.927     21.572     21.798
REMARK INTER + INTRA:          -3.114
REMARK INTER:                  -3.103
REMARK INTRA:                  -0.011
REMARK UNBOUND:                -0.016
REMARK SMILES O=Cc1ccco1
REMARK SMILES IDX 5 1 6 2 7 3 3 4 4 5 2 6 1 7
REMARK H PARENT
REMARK Flexibility Score: inf
ROOT
ATOM      1  C   UNL     1     161.832 156.237 150.228  1.00  0.00     0.043 A 
ATOM      2  C   UNL     1     162.353 155.876 151.454  1.00  0.00     0.196 A 
ATOM      3  O   UNL     1     161.711 156.506 152.411  1.00  0.00    -0.462 OA
ATOM      4  C   UNL     1     160.792 157.267 151.865  1.00  0.00     0.166 A 
ATOM      5  C   UNL     1     160.822 157.137 150.491  1.00  0.00     0.054 A 
ENDROOT
BRANCH   4   6
ATOM      6  C   UNL     1     159.879 158.119 152.634  1.00  0.00     0.298 C 
ATOM      7  O   UNL     1     158.822 157.645 153.129  1.00  0.00    -0.294 OA
ENDBRANCH   4   6
TORSDOF 1
ENDMDL
MODEL 9
REMARK VINA RESULT:    -2.899     12.517     13.511
REMARK INTER + INTRA:          -3.085
REMARK INTER:                  -3.073
REMARK INTRA:                  -0.011
REMARK UNBOUND:                -0.016
REMARK SMILES O=Cc1ccco1
REMARK SMILES IDX 5 1 6 2 7 3 3 4 4 5 2 6 1 7
REMARK H PARENT
REMARK Flexibility Score: inf
ROOT
ATOM      1  C   UNL     1     175.810 173.929 163.597  1.00  0.00     0.043 A 
ATOM      2  C   UNL     1     176.123 175.246 163.867  1.00  0.00     0.196 A 
ATOM      3  O   UNL     1     175.323 175.708 164.802  1.00  0.00    -0.462 OA
ATOM      4  C   UNL     1     174.500 174.750 165.156  1.00  0.00     0.166 A 
ATOM      5  C   UNL     1     174.761 173.606 164.429  1.00  0.00     0.054 A 
ENDROOT
BRANCH   4   6
ATOM      6  C   UNL     1     173.464 174.906 166.182  1.00  0.00     0.298 C 
ATOM      7  O   UNL     1     172.693 173.952 166.467  1.00  0.00    -0.294 OA
ENDBRANCH   4   6
TORSDOF 1
ENDMDL
