MODEL 1
REMARK VINA RESULT:    -7.188      0.000      0.000
REMARK INTER + INTRA:          -8.162
REMARK INTER:                  -7.819
REMARK INTRA:                  -0.343
REMARK UNBOUND:                -0.343
REMARK SMILES C[C@@H]1[C@H](C)CC[C@@]2(C(=O)[O-])CC[C@]3(C)C(=CC[C@H]4[C@]5(C)CC[C@@H](O)C(C)(C)[C@@H]5CC[C@]43C)[C@@H]12
REMARK SMILES IDX 7 1 6 2 11 3 33 4 5 5 12 6 15 7 2 8 3 9 13 10 16 11 1 12
REMARK SMILES IDX 4 13 14 14 31 15 17 16 18 17 30 18 32 19 19 20 29 21 28 22
REMARK SMILES IDX 21 23 20 24 25 25 22 26 23 27 26 28 27 29 8 30 9 31 10 32
REMARK SMILES IDX 24 33
REMARK H PARENT 24 34
REMARK Flexibility Score: inf
ROOT
ATOM      1  C   UNL     1      15.338  44.036  39.689  1.00  0.00     0.017 C 
ATOM      2  C   UNL     1      15.786  42.673  39.095  1.00  0.00     0.014 C 
ATOM      3  C   UNL     1      15.405  43.937  41.242  1.00  0.00     0.014 C 
ATOM      4  C   UNL     1      16.306  45.181  39.158  1.00  0.00     0.030 C 
ATOM      5  C   UNL     1      15.715  42.674  37.555  1.00  0.00     0.004 C 
ATOM      6  C   UNL     1      15.257  45.315  41.942  1.00  0.00     0.013 C 
ATOM      7  C   UNL     1      17.101  45.794  40.331  1.00  0.00    -0.063 C 
ATOM      8  C   UNL     1      17.182  44.769  37.921  1.00  0.00    -0.003 C 
ATOM      9  C   UNL     1      16.390  43.917  36.891  1.00  0.00    -0.011 C 
ATOM     10  C   UNL     1      16.257  46.453  41.450  1.00  0.00    -0.006 C 
ATOM     11  C   UNL     1      18.295  45.269  40.658  1.00  0.00    -0.027 C 
ATOM     12  C   UNL     1      17.885  45.991  37.284  1.00  0.00     0.008 C 
ATOM     13  C   UNL     1      15.374  44.741  36.069  1.00  0.00     0.008 C 
ATOM     14  C   UNL     1      15.418  47.598  40.801  1.00  0.00     0.017 C 
ATOM     15  C   UNL     1      17.130  47.080  42.685  1.00  0.00    -0.020 C 
ATOM     16  C   UNL     1      19.137  45.834  41.726  1.00  0.00     0.032 C 
ATOM     17  C   UNL     1      18.342  46.126  43.045  1.00  0.00     0.006 C 
ATOM     18  C   UNL     1      17.742  48.478  42.340  1.00  0.00     0.008 C 
ATOM     19  C   UNL     1      16.146  47.284  43.891  1.00  0.00     0.012 C 
ATOM     20  C   UNL     1      19.368  46.641  44.169  1.00  0.00    -0.025 C 
ATOM     21  C   UNL     1      18.733  49.023  43.396  1.00  0.00     0.005 C 
ATOM     22  C   UNL     1      19.916  48.077  43.779  1.00  0.00     0.003 C 
ATOM     23  C   UNL     1      18.751  46.711  45.609  1.00  0.00     0.010 C 
ATOM     24  C   UNL     1      20.491  45.546  44.252  1.00  0.00     0.012 C 
ATOM     25  C   UNL     1      20.879  48.722  44.864  1.00  0.00    -0.006 C 
ATOM     26  C   UNL     1      19.693  47.293  46.682  1.00  0.00     0.033 C 
ATOM     27  C   UNL     1      20.229  48.684  46.290  1.00  0.00     0.120 C 
ATOM     28  C   UNL     1      21.192  50.210  44.505  1.00  0.00     0.014 C 
ATOM     29  C   UNL     1      22.250  47.987  44.831  1.00  0.00     0.014 C 
ENDROOT
BRANCH   1  30
ATOM     30  C   UNL     1      13.870  44.258  39.324  1.00  0.00     0.048 C 
ATOM     31  O   UNL     1      13.456  45.333  38.811  1.00  0.00    -0.550 OA
ATOM     32  O   UNL     1      12.936  43.272  39.625  1.00  0.00    -0.550 OA
ENDBRANCH   1  30
BRANCH  27  33
ATOM     33  O   UNL     1      21.105  49.175  47.277  1.00  0.00    -0.393 OA
ATOM     34  H   UNL     1      20.854  50.108  47.489  1.00  0.00     0.210 HD
ENDBRANCH  27  33
TORSDOF 2
ENDMDL
MODEL 2
REMARK VINA RESULT:    -7.186      4.332      7.068
REMARK INTER + INTRA:          -8.160
REMARK INTER:                  -7.813
REMARK INTRA:                  -0.346
REMARK UNBOUND:                -0.343
REMARK SMILES C[C@@H]1[C@H](C)CC[C@@]2(C(=O)[O-])CC[C@]3(C)C(=CC[C@H]4[C@]5(C)CC[C@@H](O)C(C)(C)[C@@H]5CC[C@]43C)[C@@H]12
REMARK SMILES IDX 7 1 6 2 11 3 33 4 5 5 12 6 15 7 2 8 3 9 13 10 16 11 1 12
REMARK SMILES IDX 4 13 14 14 31 15 17 16 18 17 30 18 32 19 19 20 29 21 28 22
REMARK SMILES IDX 21 23 20 24 25 25 22 26 23 27 26 28 27 29 8 30 9 31 10 32
REMARK SMILES IDX 24 33
REMARK H PARENT 24 34
REMARK Flexibility Score: inf
ROOT
ATOM      1  C   UNL     1      10.952  46.562  45.345  1.00  0.00     0.017 C 
ATOM      2  C   UNL     1       9.787  47.515  45.727  1.00  0.00     0.014 C 
ATOM      3  C   UNL     1      11.713  47.182  44.135  1.00  0.00     0.014 C 
ATOM      4  C   UNL     1      11.924  46.398  46.593  1.00  0.00     0.030 C 
ATOM      5  C   UNL     1       8.957  46.956  46.899  1.00  0.00     0.004 C 
ATOM      6  C   UNL     1      13.062  46.472  43.842  1.00  0.00     0.013 C 
ATOM      7  C   UNL     1      13.312  46.991  46.270  1.00  0.00    -0.063 C 
ATOM      8  C   UNL     1      11.312  46.876  47.960  1.00  0.00    -0.003 C 
ATOM      9  C   UNL     1       9.818  46.477  48.112  1.00  0.00    -0.011 C 
ATOM     10  C   UNL     1      14.062  46.348  45.077  1.00  0.00    -0.006 C 
ATOM     11  C   UNL     1      13.555  48.283  46.556  1.00  0.00    -0.027 C 
ATOM     12  C   UNL     1      12.183  46.438  49.161  1.00  0.00     0.008 C 
ATOM     13  C   UNL     1       9.613  44.971  48.391  1.00  0.00     0.008 C 
ATOM     14  C   UNL     1      14.260  44.834  45.399  1.00  0.00     0.017 C 
ATOM     15  C   UNL     1      15.523  47.009  44.752  1.00  0.00    -0.020 C 
ATOM     16  C   UNL     1      14.871  48.903  46.330  1.00  0.00     0.032 C 
ATOM     17  C   UNL     1      15.466  48.584  44.916  1.00  0.00     0.006 C 
ATOM     18  C   UNL     1      16.643  46.496  45.716  1.00  0.00     0.008 C 
ATOM     19  C   UNL     1      15.919  46.569  43.298  1.00  0.00     0.012 C 
ATOM     20  C   UNL     1      16.846  49.388  44.736  1.00  0.00    -0.025 C 
ATOM     21  C   UNL     1      17.997  47.233  45.580  1.00  0.00     0.005 C 
ATOM     22  C   UNL     1      17.947  48.789  45.710  1.00  0.00     0.003 C 
ATOM     23  C   UNL     1      17.407  49.370  43.272  1.00  0.00     0.010 C 
ATOM     24  C   UNL     1      16.503  50.891  45.032  1.00  0.00     0.012 C 
ATOM     25  C   UNL     1      19.379  49.455  45.559  1.00  0.00    -0.006 C 
ATOM     26  C   UNL     1      18.778  50.056  43.103  1.00  0.00     0.033 C 
ATOM     27  C   UNL     1      19.837  49.476  44.060  1.00  0.00     0.120 C 
ATOM     28  C   UNL     1      20.442  48.666  46.388  1.00  0.00     0.014 C 
ATOM     29  C   UNL     1      19.346  50.884  46.175  1.00  0.00     0.014 C 
ENDROOT
BRANCH   1  30
ATOM     30  C   UNL     1      10.351  45.242  44.860  1.00  0.00     0.048 C 
ATOM     31  O   UNL     1      10.760  44.122  45.271  1.00  0.00    -0.550 OA
ATOM     32  O   UNL     1       9.365  45.262  43.879  1.00  0.00    -0.550 OA
ENDBRANCH   1  30
BRANCH  27  33
ATOM     33  O   UNL     1      21.069  50.140  43.899  1.00  0.00    -0.393 OA
ATOM     34  H   UNL     1      21.127  50.869  44.565  1.00  0.00     0.210 HD
ENDBRANCH  27  33
TORSDOF 2
ENDMDL
MODEL 3
REMARK VINA RESULT:    -6.973      4.188      6.470
REMARK INTER + INTRA:          -7.928
REMARK INTER:                  -7.582
REMARK INTRA:                  -0.345
REMARK UNBOUND:                -0.343
REMARK SMILES C[C@@H]1[C@H](C)CC[C@@]2(C(=O)[O-])CC[C@]3(C)C(=CC[C@H]4[C@]5(C)CC[C@@H](O)C(C)(C)[C@@H]5CC[C@]43C)[C@@H]12
REMARK SMILES IDX 7 1 6 2 11 3 33 4 5 5 12 6 15 7 2 8 3 9 13 10 16 11 1 12
REMARK SMILES IDX 4 13 14 14 31 15 17 16 18 17 30 18 32 19 19 20 29 21 28 22
REMARK SMILES IDX 21 23 20 24 25 25 22 26 23 27 26 28 27 29 8 30 9 31 10 32
REMARK SMILES IDX 24 33
REMARK H PARENT 24 34
REMARK Flexibility Score: inf
ROOT
ATOM      1  C   UNL     1      10.912  46.839  45.582  1.00  0.00     0.017 C 
ATOM      2  C   UNL     1      10.242  46.826  46.983  1.00  0.00     0.014 C 
ATOM      3  C   UNL     1      11.556  48.241  45.363  1.00  0.00     0.014 C 
ATOM      4  C   UNL     1      12.020  45.699  45.523  1.00  0.00     0.030 C 
ATOM      5  C   UNL     1       9.547  45.479  47.267  1.00  0.00     0.004 C 
ATOM      6  C   UNL     1      12.496  48.287  44.128  1.00  0.00     0.013 C 
ATOM      7  C   UNL     1      13.422  46.324  45.361  1.00  0.00    -0.063 C 
ATOM      8  C   UNL     1      11.912  44.627  46.667  1.00  0.00    -0.003 C 
ATOM      9  C   UNL     1      10.440  44.232  46.971  1.00  0.00    -0.011 C 
ATOM     10  C   UNL     1      13.639  47.177  44.086  1.00  0.00    -0.006 C 
ATOM     11  C   UNL     1      14.136  46.625  46.460  1.00  0.00    -0.027 C 
ATOM     12  C   UNL     1      12.825  43.408  46.398  1.00  0.00     0.008 C 
ATOM     13  C   UNL     1       9.812  43.332  45.884  1.00  0.00     0.008 C 
ATOM     14  C   UNL     1      13.388  46.259  42.849  1.00  0.00     0.017 C 
ATOM     15  C   UNL     1      15.131  47.837  43.953  1.00  0.00    -0.020 C 
ATOM     16  C   UNL     1      15.501  47.170  46.386  1.00  0.00     0.032 C 
ATOM     17  C   UNL     1      15.637  48.350  45.363  1.00  0.00     0.006 C 
ATOM     18  C   UNL     1      16.197  46.816  43.435  1.00  0.00     0.008 C 
ATOM     19  C   UNL     1      15.035  48.991  42.892  1.00  0.00     0.012 C 
ATOM     20  C   UNL     1      17.132  48.934  45.436  1.00  0.00    -0.025 C 
ATOM     21  C   UNL     1      17.655  47.331  43.477  1.00  0.00     0.005 C 
ATOM     22  C   UNL     1      18.154  47.867  44.857  1.00  0.00     0.003 C 
ATOM     23  C   UNL     1      17.326  50.285  44.664  1.00  0.00     0.010 C 
ATOM     24  C   UNL     1      17.380  49.280  46.947  1.00  0.00     0.012 C 
ATOM     25  C   UNL     1      19.658  48.370  44.803  1.00  0.00    -0.006 C 
ATOM     26  C   UNL     1      18.776  50.810  44.643  1.00  0.00     0.033 C 
ATOM     27  C   UNL     1      19.762  49.763  44.090  1.00  0.00     0.120 C 
ATOM     28  C   UNL     1      20.551  47.350  44.025  1.00  0.00     0.014 C 
ATOM     29  C   UNL     1      20.235  48.413  46.248  1.00  0.00     0.014 C 
ENDROOT
BRANCH   1  30
ATOM     30  C   UNL     1       9.818  46.685  44.526  1.00  0.00     0.048 C 
ATOM     31  O   UNL     1       9.910  45.866  43.572  1.00  0.00    -0.550 OA
ATOM     32  O   UNL     1       8.707  47.521  44.569  1.00  0.00    -0.550 OA
ENDBRANCH   1  30
BRANCH  27  33
ATOM     33  O   UNL     1      21.079  50.262  44.109  1.00  0.00    -0.393 OA
ATOM     34  H   UNL     1      21.190  50.836  44.907  1.00  0.00     0.210 HD
ENDBRANCH  27  33
TORSDOF 2
ENDMDL
MODEL 4
REMARK VINA RESULT:    -6.946      4.954      8.731
REMARK INTER + INTRA:          -7.899
REMARK INTER:                  -7.619
REMARK INTRA:                  -0.280
REMARK UNBOUND:                -0.343
REMARK SMILES C[C@@H]1[C@H](C)CC[C@@]2(C(=O)[O-])CC[C@]3(C)C(=CC[C@H]4[C@]5(C)CC[C@@H](O)C(C)(C)[C@@H]5CC[C@]43C)[C@@H]12
REMARK SMILES IDX 7 1 6 2 11 3 33 4 5 5 12 6 15 7 2 8 3 9 13 10 16 11 1 12
REMARK SMILES IDX 4 13 14 14 31 15 17 16 18 17 30 18 32 19 19 20 29 21 28 22
REMARK SMILES IDX 21 23 20 24 25 25 22 26 23 27 26 28 27 29 8 30 9 31 10 32
REMARK SMILES IDX 24 33
REMARK H PARENT 24 34
REMARK Flexibility Score: inf
ROOT
ATOM      1  C   UNL     1      18.512  47.477  45.708  1.00  0.00     0.017 C 
ATOM      2  C   UNL     1      19.666  47.935  46.640  1.00  0.00     0.014 C 
ATOM      3  C   UNL     1      17.648  46.435  46.478  1.00  0.00     0.014 C 
ATOM      4  C   UNL     1      17.635  48.740  45.302  1.00  0.00     0.030 C 
ATOM      5  C   UNL     1      20.594  48.947  45.940  1.00  0.00     0.004 C 
ATOM      6  C   UNL     1      16.307  46.115  45.763  1.00  0.00     0.013 C 
ATOM      7  C   UNL     1      16.207  48.606  45.875  1.00  0.00    -0.063 C 
ATOM      8  C   UNL     1      18.323  50.126  45.582  1.00  0.00    -0.003 C 
ATOM      9  C   UNL     1      19.837  50.116  45.233  1.00  0.00    -0.011 C 
ATOM     10  C   UNL     1      15.401  47.373  45.397  1.00  0.00    -0.006 C 
ATOM     11  C   UNL     1      15.939  49.113  47.091  1.00  0.00    -0.027 C 
ATOM     12  C   UNL     1      17.554  51.292  44.918  1.00  0.00     0.008 C 
ATOM     13  C   UNL     1      20.114  50.133  43.713  1.00  0.00     0.008 C 
ATOM     14  C   UNL     1      15.278  47.457  43.843  1.00  0.00     0.017 C 
ATOM     15  C   UNL     1      13.897  47.253  46.034  1.00  0.00    -0.020 C 
ATOM     16  C   UNL     1      14.590  49.075  47.678  1.00  0.00     0.032 C 
ATOM     17  C   UNL     1      13.910  47.667  47.563  1.00  0.00     0.006 C 
ATOM     18  C   UNL     1      12.866  48.189  45.321  1.00  0.00     0.008 C 
ATOM     19  C   UNL     1      13.417  45.775  45.814  1.00  0.00     0.012 C 
ATOM     20  C   UNL     1      12.493  47.708  48.320  1.00  0.00    -0.025 C 
ATOM     21  C   UNL     1      11.481  48.260  46.008  1.00  0.00     0.005 C 
ATOM     22  C   UNL     1      11.485  48.638  47.523  1.00  0.00     0.003 C 
ATOM     23  C   UNL     1      11.834  46.299  48.512  1.00  0.00     0.010 C 
ATOM     24  C   UNL     1      12.803  48.223  49.771  1.00  0.00     0.012 C 
ATOM     25  C   UNL     1      10.023  48.688  48.138  1.00  0.00    -0.006 C 
ATOM     26  C   UNL     1      10.431  46.330  49.152  1.00  0.00     0.033 C 
ATOM     27  C   UNL     1       9.461  47.244  48.378  1.00  0.00     0.120 C 
ATOM     28  C   UNL     1       9.048  49.443  47.178  1.00  0.00     0.014 C 
ATOM     29  C   UNL     1      10.048  49.525  49.449  1.00  0.00     0.014 C 
ENDROOT
BRANCH   1  30
ATOM     30  C   UNL     1      19.124  46.747  44.513  1.00  0.00     0.048 C 
ATOM     31  O   UNL     1      20.076  45.930  44.635  1.00  0.00    -0.550 OA
ATOM     32  O   UNL     1      18.667  47.036  43.231  1.00  0.00    -0.550 OA
ENDBRANCH   1  30
BRANCH  27  33
ATOM     33  O   UNL     1       8.198  47.271  49.002  1.00  0.00    -0.393 OA
ATOM     34  H   UNL     1       8.265  47.805  49.831  1.00  0.00     0.210 HD
ENDBRANCH  27  33
TORSDOF 2
ENDMDL
MODEL 5
REMARK VINA RESULT:    -6.926      4.301      6.027
REMARK INTER + INTRA:          -7.877
REMARK INTER:                  -7.531
REMARK INTRA:                  -0.346
REMARK UNBOUND:                -0.343
REMARK SMILES C[C@@H]1[C@H](C)CC[C@@]2(C(=O)[O-])CC[C@]3(C)C(=CC[C@H]4[C@]5(C)CC[C@@H](O)C(C)(C)[C@@H]5CC[C@]43C)[C@@H]12
REMARK SMILES IDX 7 1 6 2 11 3 33 4 5 5 12 6 15 7 2 8 3 9 13 10 16 11 1 12
REMARK SMILES IDX 4 13 14 14 31 15 17 16 18 17 30 18 32 19 19 20 29 21 28 22
REMARK SMILES IDX 21 23 20 24 25 25 22 26 23 27 26 28 27 29 8 30 9 31 10 32
REMARK SMILES IDX 24 33
REMARK H PARENT 24 34
REMARK Flexibility Score: inf
ROOT
ATOM      1  C   UNL     1      12.410  47.060  46.647  1.00  0.00     0.017 C 
ATOM      2  C   UNL     1      11.986  46.007  47.706  1.00  0.00     0.014 C 
ATOM      3  C   UNL     1      13.405  48.053  47.318  1.00  0.00     0.014 C 
ATOM      4  C   UNL     1      13.100  46.319  45.421  1.00  0.00     0.030 C 
ATOM      5  C   UNL     1      10.970  45.001  47.132  1.00  0.00     0.004 C 
ATOM      6  C   UNL     1      14.117  48.978  46.294  1.00  0.00     0.013 C 
ATOM      7  C   UNL     1      14.584  46.731  45.314  1.00  0.00    -0.063 C 
ATOM      8  C   UNL     1      12.848  44.769  45.373  1.00  0.00    -0.003 C 
ATOM      9  C   UNL     1      11.389  44.394  45.755  1.00  0.00    -0.011 C 
ATOM     10  C   UNL     1      14.853  48.240  45.089  1.00  0.00    -0.006 C 
ATOM     11  C   UNL     1      15.513  46.007  45.963  1.00  0.00    -0.027 C 
ATOM     12  C   UNL     1      13.299  44.156  44.026  1.00  0.00     0.008 C 
ATOM     13  C   UNL     1      10.362  44.731  44.651  1.00  0.00     0.008 C 
ATOM     14  C   UNL     1      14.153  48.655  43.757  1.00  0.00     0.017 C 
ATOM     15  C   UNL     1      16.436  48.644  44.995  1.00  0.00    -0.020 C 
ATOM     16  C   UNL     1      16.951  46.303  45.863  1.00  0.00     0.032 C 
ATOM     17  C   UNL     1      17.280  47.823  46.055  1.00  0.00     0.006 C 
ATOM     18  C   UNL     1      17.053  48.338  43.591  1.00  0.00     0.008 C 
ATOM     19  C   UNL     1      16.533  50.195  45.220  1.00  0.00     0.012 C 
ATOM     20  C   UNL     1      18.875  48.020  46.029  1.00  0.00    -0.025 C 
ATOM     21  C   UNL     1      18.588  48.518  43.510  1.00  0.00     0.005 C 
ATOM     22  C   UNL     1      19.428  47.735  44.569  1.00  0.00     0.003 C 
ATOM     23  C   UNL     1      19.347  49.446  46.477  1.00  0.00     0.010 C 
ATOM     24  C   UNL     1      19.441  47.035  47.114  1.00  0.00     0.012 C 
ATOM     25  C   UNL     1      20.987  47.980  44.406  1.00  0.00    -0.006 C 
ATOM     26  C   UNL     1      20.868  49.681  46.367  1.00  0.00     0.033 C 
ATOM     27  C   UNL     1      21.397  49.392  44.949  1.00  0.00     0.120 C 
ATOM     28  C   UNL     1      21.403  47.890  42.902  1.00  0.00     0.014 C 
ATOM     29  C   UNL     1      21.762  46.836  45.122  1.00  0.00     0.014 C 
ENDROOT
BRANCH   1  30
ATOM     30  C   UNL     1      11.174  47.870  46.256  1.00  0.00     0.048 C 
ATOM     31  O   UNL     1      10.865  48.095  45.054  1.00  0.00    -0.550 OA
ATOM     32  O   UNL     1      10.390  48.442  47.253  1.00  0.00    -0.550 OA
ENDBRANCH   1  30
BRANCH  27  33
ATOM     33  O   UNL     1      22.791  49.591  44.889  1.00  0.00    -0.393 OA
ATOM     34  H   UNL     1      22.985  50.539  45.093  1.00  0.00     0.210 HD
ENDBRANCH  27  33
TORSDOF 2
ENDMDL
MODEL 6
REMARK VINA RESULT:    -6.876      4.835      7.121
REMARK INTER + INTRA:          -7.822
REMARK INTER:                  -7.476
REMARK INTRA:                  -0.346
REMARK UNBOUND:                -0.343
REMARK SMILES C[C@@H]1[C@H](C)CC[C@@]2(C(=O)[O-])CC[C@]3(C)C(=CC[C@H]4[C@]5(C)CC[C@@H](O)C(C)(C)[C@@H]5CC[C@]43C)[C@@H]12
REMARK SMILES IDX 7 1 6 2 11 3 33 4 5 5 12 6 15 7 2 8 3 9 13 10 16 11 1 12
REMARK SMILES IDX 4 13 14 14 31 15 17 16 18 17 30 18 32 19 19 20 29 21 28 22
REMARK SMILES IDX 21 23 20 24 25 25 22 26 23 27 26 28 27 29 8 30 9 31 10 32
REMARK SMILES IDX 24 33
REMARK H PARENT 24 34
REMARK Flexibility Score: inf
ROOT
ATOM      1  C   UNL     1      10.801  45.816  45.593  1.00  0.00     0.017 C 
ATOM      2  C   UNL     1       9.745  45.646  44.467  1.00  0.00     0.014 C 
ATOM      3  C   UNL     1      12.154  45.237  45.084  1.00  0.00     0.014 C 
ATOM      4  C   UNL     1      10.948  47.360  45.943  1.00  0.00     0.030 C 
ATOM      5  C   UNL     1       8.361  46.165  44.904  1.00  0.00     0.004 C 
ATOM      6  C   UNL     1      13.351  45.603  46.003  1.00  0.00     0.013 C 
ATOM      7  C   UNL     1      12.366  47.856  45.583  1.00  0.00    -0.063 C 
ATOM      8  C   UNL     1       9.784  48.264  45.398  1.00  0.00    -0.003 C 
ATOM      9  C   UNL     1       8.392  47.588  45.545  1.00  0.00    -0.011 C 
ATOM     10  C   UNL     1      13.535  47.154  46.317  1.00  0.00    -0.006 C 
ATOM     11  C   UNL     1      12.592  48.359  44.357  1.00  0.00    -0.027 C 
ATOM     12  C   UNL     1       9.834  49.688  46.000  1.00  0.00     0.008 C 
ATOM     13  C   UNL     1       7.875  47.565  47.001  1.00  0.00     0.008 C 
ATOM     14  C   UNL     1      13.335  47.372  47.850  1.00  0.00     0.017 C 
ATOM     15  C   UNL     1      15.023  47.693  45.903  1.00  0.00    -0.020 C 
ATOM     16  C   UNL     1      13.901  48.904  43.960  1.00  0.00     0.032 C 
ATOM     17  C   UNL     1      15.098  47.968  44.345  1.00  0.00     0.006 C 
ATOM     18  C   UNL     1      15.398  49.034  46.616  1.00  0.00     0.008 C 
ATOM     19  C   UNL     1      16.057  46.609  46.373  1.00  0.00     0.012 C 
ATOM     20  C   UNL     1      16.461  48.604  43.779  1.00  0.00    -0.025 C 
ATOM     21  C   UNL     1      16.707  49.686  46.112  1.00  0.00     0.005 C 
ATOM     22  C   UNL     1      16.803  49.934  44.573  1.00  0.00     0.003 C 
ATOM     23  C   UNL     1      17.694  47.639  43.859  1.00  0.00     0.010 C 
ATOM     24  C   UNL     1      16.215  48.838  42.245  1.00  0.00     0.012 C 
ATOM     25  C   UNL     1      18.177  50.607  44.152  1.00  0.00    -0.006 C 
ATOM     26  C   UNL     1      19.029  48.267  43.408  1.00  0.00     0.033 C 
ATOM     27  C   UNL     1      19.347  49.564  44.177  1.00  0.00     0.120 C 
ATOM     28  C   UNL     1      18.537  51.775  45.125  1.00  0.00     0.014 C 
ATOM     29  C   UNL     1      18.016  51.265  42.751  1.00  0.00     0.014 C 
ENDROOT
BRANCH   1  30
ATOM     30  C   UNL     1      10.373  44.957  46.784  1.00  0.00     0.048 C 
ATOM     31  O   UNL     1      10.350  45.401  47.964  1.00  0.00    -0.550 OA
ATOM     32  O   UNL     1      10.061  43.617  46.580  1.00  0.00    -0.550 OA
ENDBRANCH   1  30
BRANCH  27  33
ATOM     33  O   UNL     1      20.558  50.125  43.725  1.00  0.00    -0.393 OA
ATOM     34  H   UNL     1      21.060  49.436  43.224  1.00  0.00     0.210 HD
ENDBRANCH  27  33
TORSDOF 2
ENDMDL
MODEL 7
REMARK VINA RESULT:    -6.652      4.241      6.459
REMARK INTER + INTRA:          -7.578
REMARK INTER:                  -7.235
REMARK INTRA:                  -0.343
REMARK UNBOUND:                -0.343
REMARK SMILES C[C@@H]1[C@H](C)CC[C@@]2(C(=O)[O-])CC[C@]3(C)C(=CC[C@H]4[C@]5(C)CC[C@@H](O)C(C)(C)[C@@H]5CC[C@]43C)[C@@H]12
REMARK SMILES IDX 7 1 6 2 11 3 33 4 5 5 12 6 15 7 2 8 3 9 13 10 16 11 1 12
REMARK SMILES IDX 4 13 14 14 31 15 17 16 18 17 30 18 32 19 19 20 29 21 28 22
REMARK SMILES IDX 21 23 20 24 25 25 22 26 23 27 26 28 27 29 8 30 9 31 10 32
REMARK SMILES IDX 24 33
REMARK H PARENT 24 34
REMARK Flexibility Score: inf
ROOT
ATOM      1  C   UNL     1      13.689  47.184  44.535  1.00  0.00     0.017 C 
ATOM      2  C   UNL     1      12.591  48.143  44.000  1.00  0.00     0.014 C 
ATOM      3  C   UNL     1      14.999  47.449  43.735  1.00  0.00     0.014 C 
ATOM      4  C   UNL     1      13.914  47.460  46.085  1.00  0.00     0.030 C 
ATOM      5  C   UNL     1      11.245  47.921  44.718  1.00  0.00     0.004 C 
ATOM      6  C   UNL     1      16.240  46.759  44.363  1.00  0.00     0.013 C 
ATOM      7  C   UNL     1      15.338  48.003  46.330  1.00  0.00    -0.063 C 
ATOM      8  C   UNL     1      12.771  48.295  46.769  1.00  0.00    -0.003 C 
ATOM      9  C   UNL     1      11.358  47.880  46.275  1.00  0.00    -0.011 C 
ATOM     10  C   UNL     1      16.500  47.071  45.904  1.00  0.00    -0.006 C 
ATOM     11  C   UNL     1      15.546  49.332  46.309  1.00  0.00    -0.027 C 
ATOM     12  C   UNL     1      12.902  48.290  48.310  1.00  0.00     0.008 C 
ATOM     13  C   UNL     1      10.888  46.520  46.840  1.00  0.00     0.008 C 
ATOM     14  C   UNL     1      16.360  45.739  46.706  1.00  0.00     0.017 C 
ATOM     15  C   UNL     1      17.996  47.682  46.164  1.00  0.00    -0.020 C 
ATOM     16  C   UNL     1      16.863  49.926  46.590  1.00  0.00     0.032 C 
ATOM     17  C   UNL     1      18.031  49.226  45.814  1.00  0.00     0.006 C 
ATOM     18  C   UNL     1      18.450  47.547  47.655  1.00  0.00     0.008 C 
ATOM     19  C   UNL     1      18.997  46.844  45.292  1.00  0.00     0.012 C 
ATOM     20  C   UNL     1      19.400  50.012  46.111  1.00  0.00    -0.025 C 
ATOM     21  C   UNL     1      19.769  48.281  47.994  1.00  0.00     0.005 C 
ATOM     22  C   UNL     1      19.825  49.798  47.625  1.00  0.00     0.003 C 
ATOM     23  C   UNL     1      20.593  49.583  45.189  1.00  0.00     0.010 C 
ATOM     24  C   UNL     1      19.115  51.514  45.750  1.00  0.00     0.012 C 
ATOM     25  C   UNL     1      21.212  50.465  48.012  1.00  0.00    -0.006 C 
ATOM     26  C   UNL     1      21.938  50.260  45.525  1.00  0.00     0.033 C 
ATOM     27  C   UNL     1      22.337  50.056  46.999  1.00  0.00     0.120 C 
ATOM     28  C   UNL     1      21.653  50.023  49.444  1.00  0.00     0.014 C 
ATOM     29  C   UNL     1      21.033  52.009  48.087  1.00  0.00     0.014 C 
ENDROOT
BRANCH   1  30
ATOM     30  C   UNL     1      13.265  45.749  44.224  1.00  0.00     0.048 C 
ATOM     31  O   UNL     1      13.331  44.824  45.079  1.00  0.00    -0.550 OA
ATOM     32  O   UNL     1      12.853  45.424  42.936  1.00  0.00    -0.550 OA
ENDBRANCH   1  30
BRANCH  27  33
ATOM     33  O   UNL     1      23.554  50.706  47.280  1.00  0.00    -0.393 OA
ATOM     34  H   UNL     1      23.502  51.101  48.185  1.00  0.00     0.210 HD
ENDBRANCH  27  33
TORSDOF 2
ENDMDL
MODEL 8
REMARK VINA RESULT:    -6.542      3.600      9.352
REMARK INTER + INTRA:          -7.459
REMARK INTER:                  -7.116
REMARK INTRA:                  -0.343
REMARK UNBOUND:                -0.343
REMARK SMILES C[C@@H]1[C@H](C)CC[C@@]2(C(=O)[O-])CC[C@]3(C)C(=CC[C@H]4[C@]5(C)CC[C@@H](O)C(C)(C)[C@@H]5CC[C@]43C)[C@@H]12
REMARK SMILES IDX 7 1 6 2 11 3 33 4 5 5 12 6 15 7 2 8 3 9 13 10 16 11 1 12
REMARK SMILES IDX 4 13 14 14 31 15 17 16 18 17 30 18 32 19 19 20 29 21 28 22
REMARK SMILES IDX 21 23 20 24 25 25 22 26 23 27 26 28 27 29 8 30 9 31 10 32
REMARK SMILES IDX 24 33
REMARK H PARENT 24 34
REMARK Flexibility Score: inf
ROOT
ATOM      1  C   UNL     1      19.459  48.921  46.985  1.00  0.00     0.017 C 
ATOM      2  C   UNL     1      20.243  48.131  48.067  1.00  0.00     0.014 C 
ATOM      3  C   UNL     1      19.252  47.988  45.754  1.00  0.00     0.014 C 
ATOM      4  C   UNL     1      18.057  49.376  47.583  1.00  0.00     0.030 C 
ATOM      5  C   UNL     1      20.522  48.996  49.311  1.00  0.00     0.004 C 
ATOM      6  C   UNL     1      18.241  48.562  44.725  1.00  0.00     0.013 C 
ATOM      7  C   UNL     1      16.903  48.683  46.828  1.00  0.00    -0.063 C 
ATOM      8  C   UNL     1      17.959  49.285  49.149  1.00  0.00    -0.003 C 
ATOM      9  C   UNL     1      19.265  49.750  49.852  1.00  0.00    -0.011 C 
ATOM     10  C   UNL     1      16.817  48.975  45.309  1.00  0.00    -0.006 C 
ATOM     11  C   UNL     1      16.440  47.503  47.279  1.00  0.00    -0.027 C 
ATOM     12  C   UNL     1      16.695  49.996  49.686  1.00  0.00     0.008 C 
ATOM     13  C   UNL     1      19.466  51.281  49.818  1.00  0.00     0.008 C 
ATOM     14  C   UNL     1      16.639  50.515  45.129  1.00  0.00     0.017 C 
ATOM     15  C   UNL     1      15.592  48.213  44.536  1.00  0.00    -0.020 C 
ATOM     16  C   UNL     1      15.305  46.811  46.646  1.00  0.00     0.032 C 
ATOM     17  C   UNL     1      15.424  46.737  45.085  1.00  0.00     0.006 C 
ATOM     18  C   UNL     1      14.215  48.929  44.739  1.00  0.00     0.008 C 
ATOM     19  C   UNL     1      15.917  48.251  43.001  1.00  0.00     0.012 C 
ATOM     20  C   UNL     1      14.195  45.878  44.508  1.00  0.00    -0.025 C 
ATOM     21  C   UNL     1      12.997  48.146  44.194  1.00  0.00     0.005 C 
ATOM     22  C   UNL     1      12.839  46.678  44.707  1.00  0.00     0.003 C 
ATOM     23  C   UNL     1      14.338  45.500  42.994  1.00  0.00     0.010 C 
ATOM     24  C   UNL     1      14.231  44.511  45.283  1.00  0.00     0.012 C 
ATOM     25  C   UNL     1      11.564  45.958  44.098  1.00  0.00    -0.006 C 
ATOM     26  C   UNL     1      13.123  44.757  42.401  1.00  0.00     0.033 C 
ATOM     27  C   UNL     1      11.810  45.537  42.608  1.00  0.00     0.120 C 
ATOM     28  C   UNL     1      10.323  46.907  44.143  1.00  0.00     0.014 C 
ATOM     29  C   UNL     1      11.190  44.739  44.990  1.00  0.00     0.014 C 
ENDROOT
BRANCH   1  30
ATOM     30  C   UNL     1      20.331  50.085  46.515  1.00  0.00     0.048 C 
ATOM     31  O   UNL     1      19.879  51.254  46.374  1.00  0.00    -0.550 OA
ATOM     32  O   UNL     1      21.655  49.845  46.163  1.00  0.00    -0.550 OA
ENDBRANCH   1  30
BRANCH  27  33
ATOM     33  O   UNL     1      10.718  44.822  42.079  1.00  0.00    -0.393 OA
ATOM     34  H   UNL     1      11.009  44.364  41.252  1.00  0.00     0.210 HD
ENDBRANCH  27  33
TORSDOF 2
ENDMDL
MODEL 9
REMARK VINA RESULT:    -6.432      5.345      8.476
REMARK INTER + INTRA:          -7.340
REMARK INTER:                  -6.995
REMARK INTRA:                  -0.344
REMARK UNBOUND:                -0.343
REMARK SMILES C[C@@H]1[C@H](C)CC[C@@]2(C(=O)[O-])CC[C@]3(C)C(=CC[C@H]4[C@]5(C)CC[C@@H](O)C(C)(C)[C@@H]5CC[C@]43C)[C@@H]12
REMARK SMILES IDX 7 1 6 2 11 3 33 4 5 5 12 6 15 7 2 8 3 9 13 10 16 11 1 12
REMARK SMILES IDX 4 13 14 14 31 15 17 16 18 17 30 18 32 19 19 20 29 21 28 22
REMARK SMILES IDX 21 23 20 24 25 25 22 26 23 27 26 28 27 29 8 30 9 31 10 32
REMARK SMILES IDX 24 33
REMARK H PARENT 24 34
REMARK Flexibility Score: inf
ROOT
ATOM      1  C   UNL     1      16.254  48.967  43.360  1.00  0.00     0.017 C 
ATOM      2  C   UNL     1      16.068  49.643  41.975  1.00  0.00     0.014 C 
ATOM      3  C   UNL     1      15.537  49.843  44.431  1.00  0.00     0.014 C 
ATOM      4  C   UNL     1      15.624  47.507  43.318  1.00  0.00     0.030 C 
ATOM      5  C   UNL     1      16.780  48.855  40.858  1.00  0.00     0.004 C 
ATOM      6  C   UNL     1      15.407  49.131  45.804  1.00  0.00     0.013 C 
ATOM      7  C   UNL     1      14.422  47.415  44.283  1.00  0.00    -0.063 C 
ATOM      8  C   UNL     1      15.341  46.963  41.871  1.00  0.00    -0.003 C 
ATOM      9  C   UNL     1      16.474  47.323  40.870  1.00  0.00    -0.011 C 
ATOM     10  C   UNL     1      14.732  47.688  45.776  1.00  0.00    -0.006 C 
ATOM     11  C   UNL     1      13.191  47.699  43.824  1.00  0.00    -0.027 C 
ATOM     12  C   UNL     1      14.998  45.455  41.883  1.00  0.00     0.008 C 
ATOM     13  C   UNL     1      17.760  46.492  41.078  1.00  0.00     0.008 C 
ATOM     14  C   UNL     1      15.791  46.640  46.242  1.00  0.00     0.017 C 
ATOM     15  C   UNL     1      13.435  47.597  46.770  1.00  0.00    -0.020 C 
ATOM     16  C   UNL     1      11.991  47.579  44.669  1.00  0.00     0.032 C 
ATOM     17  C   UNL     1      12.163  48.241  46.079  1.00  0.00     0.006 C 
ATOM     18  C   UNL     1      13.055  46.123  47.131  1.00  0.00     0.008 C 
ATOM     19  C   UNL     1      13.824  48.321  48.108  1.00  0.00     0.012 C 
ATOM     20  C   UNL     1      10.770  48.143  46.875  1.00  0.00    -0.025 C 
ATOM     21  C   UNL     1      11.724  45.973  47.905  1.00  0.00     0.005 C 
ATOM     22  C   UNL     1      10.469  46.630  47.246  1.00  0.00     0.003 C 
ATOM     23  C   UNL     1      10.726  49.001  48.186  1.00  0.00     0.010 C 
ATOM     24  C   UNL     1       9.693  48.779  45.926  1.00  0.00     0.012 C 
ATOM     25  C   UNL     1       9.154  46.423  48.109  1.00  0.00    -0.006 C 
ATOM     26  C   UNL     1       9.433  48.844  49.012  1.00  0.00     0.033 C 
ATOM     27  C   UNL     1       9.142  47.371  49.358  1.00  0.00     0.120 C 
ATOM     28  C   UNL     1       9.053  44.946  48.611  1.00  0.00     0.014 C 
ATOM     29  C   UNL     1       7.908  46.642  47.203  1.00  0.00     0.014 C 
ENDROOT
BRANCH   1  30
ATOM     30  C   UNL     1      17.743  48.981  43.703  1.00  0.00     0.048 C 
ATOM     31  O   UNL     1      18.345  47.964  44.145  1.00  0.00    -0.550 OA
ATOM     32  O   UNL     1      18.457  50.170  43.593  1.00  0.00    -0.550 OA
ENDBRANCH   1  30
BRANCH  27  33
ATOM     33  O   UNL     1       7.943  47.259  50.088  1.00  0.00    -0.393 OA
ATOM     34  H   UNL     1       7.637  48.166  50.338  1.00  0.00     0.210 HD
ENDBRANCH  27  33
TORSDOF 2
ENDMDL
