MODEL 1
REMARK VINA RESULT:    -5.454      0.000      0.000
REMARK INTER + INTRA:          -6.829
REMARK INTER:                  -6.570
REMARK INTRA:                  -0.259
REMARK UNBOUND:                -0.259
REMARK SMILES NC(=O)C[C@H]([NH3+])C(=O)[O-]
REMARK SMILES IDX 4 1 5 2 6 3 7 7 8 8 9 9 2 10 3 11 1 12
REMARK H PARENT 6 4 6 5 6 6 1 13 1 14
REMARK Flexibility Score: inf
ROOT
ATOM      1  C   UNL     1     -15.672   2.571 -23.202  1.00  0.00     0.171 C 
ENDROOT
BRANCH   1   2
ATOM      2  C   UNL     1     -15.794   1.074 -23.561  1.00  0.00     0.237 C 
BRANCH   2   3
ATOM      3  N   UNL     1     -16.385   0.294 -22.464  1.00  0.00    -0.350 N 
ATOM      4  H   UNL     1     -17.404   0.502 -22.357  1.00  0.00     0.345 HD
ATOM      5  H   UNL     1     -16.261  -0.728 -22.651  1.00  0.00     0.345 HD
ATOM      6  H   UNL     1     -15.896   0.524 -21.568  1.00  0.00     0.345 HD
ENDBRANCH   2   3
BRANCH   2   7
ATOM      7  C   UNL     1     -14.467   0.500 -23.990  1.00  0.00     0.100 C 
ATOM      8  O   UNL     1     -14.414  -0.490 -24.769  1.00  0.00    -0.544 OA
ATOM      9  O   UNL     1     -13.289   1.034 -23.483  1.00  0.00    -0.544 OA
ENDBRANCH   2   7
ENDBRANCH   1   2
BRANCH   1  10
ATOM     10  C   UNL     1     -16.972   3.184 -22.760  1.00  0.00     0.223 C 
ATOM     11  O   UNL     1     -17.275   3.200 -21.537  1.00  0.00    -0.275 OA
ATOM     12  N   UNL     1     -17.877   3.733 -23.719  1.00  0.00    -0.369 N 
ATOM     13  H   UNL     1     -18.784   4.148 -23.410  1.00  0.00     0.159 HD
ATOM     14  H   UNL     1     -17.647   3.721 -24.737  1.00  0.00     0.159 HD
ENDBRANCH   1  10
TORSDOF 4
ENDMDL
MODEL 2
REMARK VINA RESULT:    -5.372      1.128      1.560
REMARK INTER + INTRA:          -6.730
REMARK INTER:                  -6.719
REMARK INTRA:                  -0.011
REMARK UNBOUND:                -0.259
REMARK SMILES NC(=O)C[C@H]([NH3+])C(=O)[O-]
REMARK SMILES IDX 4 1 5 2 6 3 7 7 8 8 9 9 2 10 3 11 1 12
REMARK H PARENT 6 4 6 5 6 6 1 13 1 14
REMARK Flexibility Score: inf
ROOT
ATOM      1  C   UNL     1     -15.494   2.403 -23.131  1.00  0.00     0.171 C 
ENDROOT
BRANCH   1   2
ATOM      2  C   UNL     1     -15.614   0.965 -23.680  1.00  0.00     0.237 C 
BRANCH   2   3
ATOM      3  N   UNL     1     -16.278   0.068 -22.723  1.00  0.00    -0.350 N 
ATOM      4  H   UNL     1     -16.039  -0.932 -22.913  1.00  0.00     0.345 HD
ATOM      5  H   UNL     1     -15.985   0.311 -21.748  1.00  0.00     0.345 HD
ATOM      6  H   UNL     1     -17.315   0.188 -22.792  1.00  0.00     0.345 HD
ENDBRANCH   2   3
BRANCH   2   7
ATOM      7  C   UNL     1     -14.272   0.421 -24.102  1.00  0.00     0.100 C 
ATOM      8  O   UNL     1     -13.205   0.905 -23.638  1.00  0.00    -0.544 OA
ATOM      9  O   UNL     1     -14.206  -0.590 -25.053  1.00  0.00    -0.544 OA
ENDBRANCH   2   7
ENDBRANCH   1   2
BRANCH   1  10
ATOM     10  C   UNL     1     -16.817   3.008 -22.754  1.00  0.00     0.223 C 
ATOM     11  O   UNL     1     -17.508   3.599 -23.626  1.00  0.00    -0.275 OA
ATOM     12  N   UNL     1     -17.289   2.937 -21.408  1.00  0.00    -0.369 N 
ATOM     13  H   UNL     1     -18.204   3.368 -21.147  1.00  0.00     0.159 HD
ATOM     14  H   UNL     1     -16.726   2.459 -20.670  1.00  0.00     0.159 HD
ENDBRANCH   1  10
TORSDOF 4
ENDMDL
MODEL 3
REMARK VINA RESULT:    -4.483      1.886      3.819
REMARK INTER + INTRA:          -5.659
REMARK INTER:                  -5.434
REMARK INTRA:                  -0.225
REMARK UNBOUND:                -0.259
REMARK SMILES NC(=O)C[C@H]([NH3+])C(=O)[O-]
REMARK SMILES IDX 4 1 5 2 6 3 7 7 8 8 9 9 2 10 3 11 1 12
REMARK H PARENT 6 4 6 5 6 6 1 13 1 14
REMARK Flexibility Score: inf
ROOT
ATOM      1  C   UNL     1     -15.189   1.889 -23.427  1.00  0.00     0.171 C 
ENDROOT
BRANCH   1   2
ATOM      2  C   UNL     1     -16.105   3.082 -23.079  1.00  0.00     0.237 C 
BRANCH   2   3
ATOM      3  N   UNL     1     -17.441   2.938 -23.677  1.00  0.00    -0.350 N 
ATOM      4  H   UNL     1     -17.490   3.405 -24.611  1.00  0.00     0.345 HD
ATOM      5  H   UNL     1     -17.671   1.924 -23.787  1.00  0.00     0.345 HD
ATOM      6  H   UNL     1     -18.155   3.369 -23.045  1.00  0.00     0.345 HD
ENDBRANCH   2   3
BRANCH   2   7
ATOM      7  C   UNL     1     -15.470   4.395 -23.462  1.00  0.00     0.100 C 
ATOM      8  O   UNL     1     -16.161   5.446 -23.543  1.00  0.00    -0.544 OA
ATOM      9  O   UNL     1     -14.118   4.441 -23.779  1.00  0.00    -0.544 OA
ENDBRANCH   2   7
ENDBRANCH   1   2
BRANCH   1  10
ATOM     10  C   UNL     1     -15.934   0.594 -23.592  1.00  0.00     0.223 C 
ATOM     11  O   UNL     1     -16.153   0.138 -24.746  1.00  0.00    -0.275 OA
ATOM     12  N   UNL     1     -16.415  -0.115 -22.450  1.00  0.00    -0.369 N 
ATOM     13  H   UNL     1     -16.942  -1.009 -22.568  1.00  0.00     0.159 HD
ATOM     14  H   UNL     1     -16.251   0.251 -21.486  1.00  0.00     0.159 HD
ENDBRANCH   1  10
TORSDOF 4
ENDMDL
MODEL 4
REMARK VINA RESULT:    -3.936      9.684     10.775
REMARK INTER + INTRA:          -5.000
REMARK INTER:                  -4.787
REMARK INTRA:                  -0.213
REMARK UNBOUND:                -0.259
REMARK SMILES NC(=O)C[C@H]([NH3+])C(=O)[O-]
REMARK SMILES IDX 4 1 5 2 6 3 7 7 8 8 9 9 2 10 3 11 1 12
REMARK H PARENT 6 4 6 5 6 6 1 13 1 14
REMARK Flexibility Score: inf
ROOT
ATOM      1  C   UNL     1     -11.183   0.735 -32.198  1.00  0.00     0.171 C 
ENDROOT
BRANCH   1   2
ATOM      2  C   UNL     1     -12.162   1.742 -32.840  1.00  0.00     0.237 C 
BRANCH   2   3
ATOM      3  N   UNL     1     -13.503   1.659 -32.241  1.00  0.00    -0.350 N 
ATOM      4  H   UNL     1     -13.491   1.093 -31.362  1.00  0.00     0.345 HD
ATOM      5  H   UNL     1     -13.853   2.621 -32.025  1.00  0.00     0.345 HD
ATOM      6  H   UNL     1     -14.163   1.216 -32.921  1.00  0.00     0.345 HD
ENDBRANCH   2   3
BRANCH   2   7
ATOM      7  C   UNL     1     -12.220   1.578 -34.338  1.00  0.00     0.100 C 
ATOM      8  O   UNL     1     -13.236   1.942 -34.989  1.00  0.00    -0.544 OA
ATOM      9  O   UNL     1     -11.163   0.972 -35.006  1.00  0.00    -0.544 OA
ENDBRANCH   2   7
ENDBRANCH   1   2
BRANCH   1  10
ATOM     10  C   UNL     1     -10.378   1.323 -31.074  1.00  0.00     0.223 C 
ATOM     11  O   UNL     1     -10.817   2.323 -30.444  1.00  0.00    -0.275 OA
ATOM     12  N   UNL     1      -9.109   0.770 -30.724  1.00  0.00    -0.369 N 
ATOM     13  H   UNL     1      -8.547   1.188 -29.949  1.00  0.00     0.159 HD
ATOM     14  H   UNL     1      -8.725  -0.053 -31.240  1.00  0.00     0.159 HD
ENDBRANCH   1  10
TORSDOF 4
ENDMDL
MODEL 5
REMARK VINA RESULT:    -3.907      7.311      8.073
REMARK INTER + INTRA:          -4.966
REMARK INTER:                  -4.867
REMARK INTRA:                  -0.099
REMARK UNBOUND:                -0.259
REMARK SMILES NC(=O)C[C@H]([NH3+])C(=O)[O-]
REMARK SMILES IDX 4 1 5 2 6 3 7 7 8 8 9 9 2 10 3 11 1 12
REMARK H PARENT 6 4 6 5 6 6 1 13 1 14
REMARK Flexibility Score: inf
ROOT
ATOM      1  C   UNL     1     -11.873   3.684 -29.275  1.00  0.00     0.171 C 
ENDROOT
BRANCH   1   2
ATOM      2  C   UNL     1     -11.783   2.247 -29.834  1.00  0.00     0.237 C 
BRANCH   2   3
ATOM      3  N   UNL     1     -10.422   1.921 -30.286  1.00  0.00    -0.350 N 
ATOM      4  H   UNL     1      -9.737   2.651 -29.984  1.00  0.00     0.345 HD
ATOM      5  H   UNL     1     -10.132   0.995 -29.894  1.00  0.00     0.345 HD
ATOM      6  H   UNL     1     -10.407   1.853 -31.330  1.00  0.00     0.345 HD
ENDBRANCH   2   3
BRANCH   2   7
ATOM      7  C   UNL     1     -12.795   2.015 -30.927  1.00  0.00     0.100 C 
ATOM      8  O   UNL     1     -13.773   2.795 -31.077  1.00  0.00    -0.544 OA
ATOM      9  O   UNL     1     -12.679   0.900 -31.748  1.00  0.00    -0.544 OA
ENDBRANCH   2   7
ENDBRANCH   1   2
BRANCH   1  10
ATOM     10  C   UNL     1     -11.150   3.861 -27.969  1.00  0.00     0.223 C 
ATOM     11  O   UNL     1     -10.294   4.778 -27.847  1.00  0.00    -0.275 OA
ATOM     12  N   UNL     1     -11.410   2.986 -26.871  1.00  0.00    -0.369 N 
ATOM     13  H   UNL     1     -10.897   3.106 -25.969  1.00  0.00     0.159 HD
ATOM     14  H   UNL     1     -12.109   2.216 -26.958  1.00  0.00     0.159 HD
ENDBRANCH   1  10
TORSDOF 4
ENDMDL
MODEL 6
REMARK VINA RESULT:    -3.903      2.174      2.421
REMARK INTER + INTRA:          -4.960
REMARK INTER:                  -4.729
REMARK INTRA:                  -0.231
REMARK UNBOUND:                -0.259
REMARK SMILES NC(=O)C[C@H]([NH3+])C(=O)[O-]
REMARK SMILES IDX 4 1 5 2 6 3 7 7 8 8 9 9 2 10 3 11 1 12
REMARK H PARENT 6 4 6 5 6 6 1 13 1 14
REMARK Flexibility Score: inf
ROOT
ATOM      1  C   UNL     1     -14.348   3.389 -23.678  1.00  0.00     0.171 C 
ENDROOT
BRANCH   1   2
ATOM      2  C   UNL     1     -15.307   2.188 -23.540  1.00  0.00     0.237 C 
BRANCH   2   3
ATOM      3  N   UNL     1     -16.263   2.375 -22.438  1.00  0.00    -0.350 N 
ATOM      4  H   UNL     1     -16.259   3.363 -22.097  1.00  0.00     0.345 HD
ATOM      5  H   UNL     1     -17.227   2.127 -22.761  1.00  0.00     0.345 HD
ATOM      6  H   UNL     1     -16.011   1.741 -21.645  1.00  0.00     0.345 HD
ENDBRANCH   2   3
BRANCH   2   7
ATOM      7  C   UNL     1     -14.550   0.891 -23.396  1.00  0.00     0.100 C 
ATOM      8  O   UNL     1     -13.291   0.872 -23.429  1.00  0.00    -0.544 OA
ATOM      9  O   UNL     1     -15.249  -0.304 -23.276  1.00  0.00    -0.544 OA
ENDBRANCH   2   7
ENDBRANCH   1   2
BRANCH   1  10
ATOM     10  C   UNL     1     -15.026   4.718 -23.489  1.00  0.00     0.223 C 
ATOM     11  O   UNL     1     -16.250   4.841 -23.763  1.00  0.00    -0.275 OA
ATOM     12  N   UNL     1     -14.290   5.847 -23.020  1.00  0.00    -0.369 N 
ATOM     13  H   UNL     1     -14.763   6.771 -22.900  1.00  0.00     0.159 HD
ATOM     14  H   UNL     1     -13.274   5.766 -22.796  1.00  0.00     0.159 HD
ENDBRANCH   1  10
TORSDOF 4
ENDMDL
MODEL 7
REMARK VINA RESULT:    -3.789     13.147     14.079
REMARK INTER + INTRA:          -4.823
REMARK INTER:                  -4.324
REMARK INTRA:                  -0.500
REMARK UNBOUND:                -0.259
REMARK SMILES NC(=O)C[C@H]([NH3+])C(=O)[O-]
REMARK SMILES IDX 4 1 5 2 6 3 7 7 8 8 9 9 2 10 3 11 1 12
REMARK H PARENT 6 4 6 5 6 6 1 13 1 14
REMARK Flexibility Score: inf
ROOT
ATOM      1  C   UNL     1      -5.619   1.060 -33.591  1.00  0.00     0.171 C 
ENDROOT
BRANCH   1   2
ATOM      2  C   UNL     1      -5.009  -0.346 -33.406  1.00  0.00     0.237 C 
BRANCH   2   3
ATOM      3  N   UNL     1      -5.922  -1.404 -33.864  1.00  0.00    -0.350 N 
ATOM      4  H   UNL     1      -6.587  -1.684 -33.107  1.00  0.00     0.345 HD
ATOM      5  H   UNL     1      -6.467  -1.067 -34.691  1.00  0.00     0.345 HD
ATOM      6  H   UNL     1      -5.369  -2.242 -34.156  1.00  0.00     0.345 HD
ENDBRANCH   2   3
BRANCH   2   7
ATOM      7  C   UNL     1      -4.574  -0.576 -31.980  1.00  0.00     0.100 C 
ATOM      8  O   UNL     1      -5.422  -0.662 -31.053  1.00  0.00    -0.544 OA
ATOM      9  O   UNL     1      -3.220  -0.642 -31.675  1.00  0.00    -0.544 OA
ENDBRANCH   2   7
ENDBRANCH   1   2
BRANCH   1  10
ATOM     10  C   UNL     1      -7.118   1.077 -33.483  1.00  0.00     0.223 C 
ATOM     11  O   UNL     1      -7.822   1.078 -34.528  1.00  0.00    -0.275 OA
ATOM     12  N   UNL     1      -7.752   1.112 -32.204  1.00  0.00    -0.369 N 
ATOM     13  H   UNL     1      -8.794   1.135 -32.133  1.00  0.00     0.159 HD
ATOM     14  H   UNL     1      -7.185   1.121 -31.328  1.00  0.00     0.159 HD
ENDBRANCH   1  10
TORSDOF 4
ENDMDL
MODEL 8
REMARK VINA RESULT:    -3.785      8.661      9.513
REMARK INTER + INTRA:          -4.818
REMARK INTER:                  -4.529
REMARK INTRA:                  -0.289
REMARK UNBOUND:                -0.259
REMARK SMILES NC(=O)C[C@H]([NH3+])C(=O)[O-]
REMARK SMILES IDX 4 1 5 2 6 3 7 7 8 8 9 9 2 10 3 11 1 12
REMARK H PARENT 6 4 6 5 6 6 1 13 1 14
REMARK Flexibility Score: inf
ROOT
ATOM      1  C   UNL     1     -12.666   3.234 -30.876  1.00  0.00     0.171 C 
ENDROOT
BRANCH   1   2
ATOM      2  C   UNL     1     -13.355   2.211 -31.806  1.00  0.00     0.237 C 
BRANCH   2   3
ATOM      3  N   UNL     1     -12.934   0.834 -31.511  1.00  0.00    -0.350 N 
ATOM      4  H   UNL     1     -11.918   0.791 -31.271  1.00  0.00     0.345 HD
ATOM      5  H   UNL     1     -13.492   0.457 -30.710  1.00  0.00     0.345 HD
ATOM      6  H   UNL     1     -13.112   0.228 -32.346  1.00  0.00     0.345 HD
ENDBRANCH   2   3
BRANCH   2   7
ATOM      7  C   UNL     1     -13.139   2.553 -33.259  1.00  0.00     0.100 C 
ATOM      8  O   UNL     1     -12.833   1.659 -34.093  1.00  0.00    -0.544 OA
ATOM      9  O   UNL     1     -13.227   3.875 -33.676  1.00  0.00    -0.544 OA
ENDBRANCH   2   7
ENDBRANCH   1   2
BRANCH   1  10
ATOM     10  C   UNL     1     -11.530   2.647 -30.085  1.00  0.00     0.223 C 
ATOM     11  O   UNL     1     -10.569   2.096 -30.684  1.00  0.00    -0.275 OA
ATOM     12  N   UNL     1     -11.542   2.693 -28.658  1.00  0.00    -0.369 N 
ATOM     13  H   UNL     1     -10.756   2.275 -28.111  1.00  0.00     0.159 HD
ATOM     14  H   UNL     1     -12.334   3.138 -28.145  1.00  0.00     0.159 HD
ENDBRANCH   1  10
TORSDOF 4
ENDMDL
MODEL 9
REMARK VINA RESULT:    -3.711      4.883      5.839
REMARK INTER + INTRA:          -4.730
REMARK INTER:                  -4.231
REMARK INTRA:                  -0.499
REMARK UNBOUND:                -0.259
REMARK SMILES NC(=O)C[C@H]([NH3+])C(=O)[O-]
REMARK SMILES IDX 4 1 5 2 6 3 7 7 8 8 9 9 2 10 3 11 1 12
REMARK H PARENT 6 4 6 5 6 6 1 13 1 14
REMARK Flexibility Score: inf
ROOT
ATOM      1  C   UNL     1     -13.507   5.847 -25.782  1.00  0.00     0.171 C 
ENDROOT
BRANCH   1   2
ATOM      2  C   UNL     1     -14.120   5.840 -24.365  1.00  0.00     0.237 C 
BRANCH   2   3
ATOM      3  N   UNL     1     -13.319   6.628 -23.418  1.00  0.00    -0.350 N 
ATOM      4  H   UNL     1     -12.921   7.481 -23.875  1.00  0.00     0.345 HD
ATOM      5  H   UNL     1     -13.914   6.920 -22.608  1.00  0.00     0.345 HD
ATOM      6  H   UNL     1     -12.533   6.042 -23.052  1.00  0.00     0.345 HD
ENDBRANCH   2   3
BRANCH   2   7
ATOM      7  C   UNL     1     -14.336   4.434 -23.864  1.00  0.00     0.100 C 
ATOM      8  O   UNL     1     -13.407   3.584 -23.908  1.00  0.00    -0.544 OA
ATOM      9  O   UNL     1     -15.588   4.054 -23.396  1.00  0.00    -0.544 OA
ENDBRANCH   2   7
ENDBRANCH   1   2
BRANCH   1  10
ATOM     10  C   UNL     1     -12.015   6.031 -25.783  1.00  0.00     0.223 C 
ATOM     11  O   UNL     1     -11.526   7.193 -25.802  1.00  0.00    -0.275 OA
ATOM     12  N   UNL     1     -11.145   4.899 -25.782  1.00  0.00    -0.369 N 
ATOM     13  H   UNL     1     -10.108   5.030 -25.794  1.00  0.00     0.159 HD
ATOM     14  H   UNL     1     -11.531   3.929 -25.775  1.00  0.00     0.159 HD
ENDBRANCH   1  10
TORSDOF 4
ENDMDL
