MODEL 1
REMARK VINA RESULT:    -4.120      0.000      0.000
REMARK INTER + INTRA:          -4.239
REMARK INTER:                  -5.084
REMARK INTRA:                   0.845
REMARK UNBOUND:                 0.845
REMARK SMILES CC1=CC=CC(C)(C)CC1=O
REMARK SMILES IDX 1 1 2 2 3 3 10 4 11 5 9 6 4 8 5 9 6 10 7 11 8 12
REMARK H PARENT
REMARK Flexibility Score: 80.00
ROOT
ATOM      1  C   UNL     1     -10.763  73.087  33.965  1.00  0.00     0.048 C 
ATOM      2  C   UNL     1     -10.989  73.247  32.478  1.00  0.00    -0.008 C 
ATOM      3  C   UNL     1     -11.339  72.150  31.772  1.00  0.00     0.007 C 
ENDROOT
BRANCH   2   4
ATOM      4  C   UNL     1     -10.858  74.623  31.927  1.00  0.00     0.159 C 
ATOM      5  O   UNL     1     -10.484  75.549  32.699  1.00  0.00    -0.295 OA
BRANCH   4   6
ATOM      6  C   UNL     1     -11.182  74.995  30.511  1.00  0.00     0.091 CG0
ATOM      7  G   UNL     1     -10.490  74.103  29.455  1.00  0.00     0.000 G0
ENDBRANCH   4   6
ENDBRANCH   2   4
BRANCH   3   8
ATOM      8  C   UNL     1     -11.611  72.004  30.324  1.00  0.00    -0.003 C 
ATOM      9  C   UNL     1     -11.237  72.806  29.319  1.00  0.00    -0.020 C 
BRANCH   9  10
ATOM     10  C   UNL     1     -10.490  74.112  29.453  1.00  0.00    -0.010 CG0
ATOM     11  C   UNL     1     -10.569  74.854  28.099  1.00  0.00     0.016 C 
ATOM     12  C   UNL     1      -8.999  73.848  29.765  1.00  0.00     0.016 C 
ATOM     13  G   UNL     1     -11.177  74.990  30.523  1.00  0.00     0.000 G0
ENDBRANCH   9  10
ENDBRANCH   3   8
TORSDOF 0
ENDMDL
MODEL 2
REMARK VINA RESULT:    -3.948      1.987      3.875
REMARK INTER + INTRA:          -4.026
REMARK INTER:                  -4.904
REMARK INTRA:                   0.877
REMARK UNBOUND:                 0.845
REMARK SMILES CC1=CC=CC(C)(C)CC1=O
REMARK SMILES IDX 1 1 2 2 3 3 10 4 11 5 9 6 4 8 5 9 6 10 7 11 8 12
REMARK H PARENT
REMARK Flexibility Score: 80.00
ROOT
ATOM      1  C   UNL     1     -10.071  74.828  27.842  1.00  0.00     0.048 C 
ATOM      2  C   UNL     1     -10.266  74.525  29.310  1.00  0.00    -0.008 C 
ATOM      3  C   UNL     1      -9.600  75.286  30.204  1.00  0.00     0.007 C 
ENDROOT
BRANCH   2   4
ATOM      4  C   UNL     1     -11.226  73.439  29.646  1.00  0.00     0.159 C 
ATOM      5  O   UNL     1     -11.737  72.773  28.703  1.00  0.00    -0.295 OA
BRANCH   4   6
ATOM      6  C   UNL     1     -11.663  73.105  31.041  1.00  0.00     0.091 CG0
ATOM      7  G   UNL     1     -10.494  72.864  32.022  1.00  0.00     0.000 G0
ENDBRANCH   4   6
ENDBRANCH   2   4
BRANCH   3   8
ATOM      8  C   UNL     1      -9.587  75.215  31.684  1.00  0.00    -0.003 C 
ATOM      9  C   UNL     1      -9.932  74.191  32.473  1.00  0.00    -0.020 C 
BRANCH   9  10
ATOM     10  C   UNL     1     -10.491  72.864  32.017  1.00  0.00    -0.010 CG0
ATOM     11  C   UNL     1     -11.029  72.115  33.258  1.00  0.00     0.016 C 
ATOM     12  C   UNL     1      -9.375  71.999  31.387  1.00  0.00     0.016 C 
ATOM     13  G   UNL     1     -11.673  73.108  31.053  1.00  0.00     0.000 G0
ENDBRANCH   9  10
ENDBRANCH   3   8
TORSDOF 0
ENDMDL
MODEL 3
REMARK VINA RESULT:    -3.888      1.473      3.236
REMARK INTER + INTRA:          -3.952
REMARK INTER:                  -5.062
REMARK INTRA:                   1.110
REMARK UNBOUND:                 0.845
REMARK SMILES CC1=CC=CC(C)(C)CC1=O
REMARK SMILES IDX 1 1 2 2 3 3 10 4 11 5 9 6 4 8 5 9 6 10 7 11 8 12
REMARK H PARENT
REMARK Flexibility Score: 80.00
ROOT
ATOM      1  C   UNL     1      -9.592  75.118  28.093  1.00  0.00     0.048 C 
ATOM      2  C   UNL     1     -10.281  74.348  29.196  1.00  0.00    -0.008 C 
ATOM      3  C   UNL     1     -11.162  73.388  28.839  1.00  0.00     0.007 C 
ENDROOT
BRANCH   2   4
ATOM      4  C   UNL     1      -9.886  74.681  30.591  1.00  0.00     0.159 C 
ATOM      5  O   UNL     1      -8.888  75.433  30.772  1.00  0.00    -0.295 OA
BRANCH   4   6
ATOM      6  C   UNL     1     -10.576  74.147  31.811  1.00  0.00     0.091 CG0
ATOM      7  G   UNL     1     -10.661  72.604  31.856  1.00  0.00     0.000 G0
ENDBRANCH   4   6
ENDBRANCH   2   4
BRANCH   3   8
ATOM      8  C   UNL     1     -11.982  72.494  29.688  1.00  0.00    -0.003 C 
ATOM      9  C   UNL     1     -11.811  72.178  30.977  1.00  0.00    -0.020 C 
BRANCH   9  10
ATOM     10  C   UNL     1     -10.669  72.624  31.859  1.00  0.00    -0.010 CG0
ATOM     11  C   UNL     1      -9.359  72.030  31.291  1.00  0.00     0.016 C 
ATOM     12  C   UNL     1     -10.855  72.080  33.295  1.00  0.00     0.016 C 
ATOM     13  G   UNL     1     -10.556  74.165  31.814  1.00  0.00     0.000 G0
ENDBRANCH   9  10
ENDBRANCH   3   8
TORSDOF 0
ENDMDL
MODEL 4
REMARK VINA RESULT:    -3.626      1.740      2.622
REMARK INTER + INTRA:          -3.630
REMARK INTER:                  -4.494
REMARK INTRA:                   0.865
REMARK UNBOUND:                 0.845
REMARK SMILES CC1=CC=CC(C)(C)CC1=O
REMARK SMILES IDX 1 1 2 2 3 3 10 4 11 5 9 6 4 8 5 9 6 10 7 11 8 12
REMARK H PARENT
REMARK Flexibility Score: 80.00
ROOT
ATOM      1  C   UNL     1     -11.850  73.007  33.121  1.00  0.00     0.048 C 
ATOM      2  C   UNL     1     -10.916  73.446  32.015  1.00  0.00    -0.008 C 
ATOM      3  C   UNL     1     -10.240  74.603  32.183  1.00  0.00     0.007 C 
ENDROOT
BRANCH   2   4
ATOM      4  C   UNL     1     -10.781  72.529  30.851  1.00  0.00     0.159 C 
ATOM      5  O   UNL     1     -11.505  71.496  30.810  1.00  0.00    -0.295 OA
BRANCH   4   6
ATOM      6  C   UNL     1      -9.805  72.730  29.732  1.00  0.00     0.091 CG0
ATOM      7  G   UNL     1      -9.865  74.136  29.092  1.00  0.00     0.000 G0
ENDBRANCH   4   6
ENDBRANCH   2   4
BRANCH   3   8
ATOM      8  C   UNL     1      -9.280  75.278  31.280  1.00  0.00    -0.003 C 
ATOM      9  C   UNL     1      -9.120  75.116  29.961  1.00  0.00    -0.020 C 
BRANCH   9  10
ATOM     10  C   UNL     1      -9.859  74.129  29.089  1.00  0.00    -0.010 CG0
ATOM     11  C   UNL     1      -9.140  74.061  27.722  1.00  0.00     0.016 C 
ATOM     12  C   UNL     1     -11.307  74.612  28.841  1.00  0.00     0.016 C 
ATOM     13  G   UNL     1      -9.799  72.726  29.734  1.00  0.00     0.000 G0
ENDBRANCH   9  10
ENDBRANCH   3   8
TORSDOF 0
ENDMDL
MODEL 5
REMARK VINA RESULT:    -3.332      1.756      2.790
REMARK INTER + INTRA:          -3.267
REMARK INTER:                  -4.331
REMARK INTRA:                   1.065
REMARK UNBOUND:                 0.845
REMARK SMILES CC1=CC=CC(C)(C)CC1=O
REMARK SMILES IDX 1 1 2 2 3 3 10 4 11 5 9 6 4 8 5 9 6 10 7 11 8 12
REMARK H PARENT
REMARK Flexibility Score: 80.00
ROOT
ATOM      1  C   UNL     1     -10.414  73.914  35.370  1.00  0.00     0.048 C 
ATOM      2  C   UNL     1     -10.792  73.986  33.908  1.00  0.00    -0.008 C 
ATOM      3  C   UNL     1     -10.789  75.200  33.316  1.00  0.00     0.007 C 
ENDROOT
BRANCH   2   4
ATOM      4  C   UNL     1     -11.086  72.695  33.230  1.00  0.00     0.159 C 
ATOM      5  O   UNL     1     -10.818  71.621  33.835  1.00  0.00    -0.295 OA
BRANCH   4   6
ATOM      6  C   UNL     1     -11.646  72.583  31.843  1.00  0.00     0.091 CG0
ATOM      7  G   UNL     1     -10.830  73.344  30.774  1.00  0.00     0.000 G0
ENDBRANCH   4   6
ENDBRANCH   2   4
BRANCH   3   8
ATOM      8  C   UNL     1     -11.121  75.573  31.922  1.00  0.00    -0.003 C 
ATOM      9  C   UNL     1     -11.174  74.790  30.838  1.00  0.00    -0.020 C 
BRANCH   9  10
ATOM     10  C   UNL     1     -10.831  73.320  30.784  1.00  0.00    -0.010 CG0
ATOM     11  C   UNL     1      -9.324  73.165  31.091  1.00  0.00     0.016 C 
ATOM     12  C   UNL     1     -11.088  72.761  29.366  1.00  0.00     0.016 C 
ATOM     13  G   UNL     1     -11.624  72.567  31.876  1.00  0.00     0.000 G0
ENDBRANCH   9  10
ENDBRANCH   3   8
TORSDOF 0
ENDMDL
MODEL 6
REMARK VINA RESULT:    -2.852      7.829      9.149
REMARK INTER + INTRA:          -2.674
REMARK INTER:                  -3.515
REMARK INTRA:                   0.841
REMARK UNBOUND:                 0.845
REMARK SMILES CC1=CC=CC(C)(C)CC1=O
REMARK SMILES IDX 1 1 2 2 3 3 10 4 11 5 9 6 4 8 5 9 6 10 7 11 8 12
REMARK H PARENT
REMARK Flexibility Score: 80.00
ROOT
ATOM      1  C   UNL     1      -3.783  70.220  35.841  1.00  0.00     0.048 C 
ATOM      2  C   UNL     1      -5.067  69.470  36.113  1.00  0.00    -0.008 C 
ATOM      3  C   UNL     1      -5.537  68.654  35.145  1.00  0.00     0.007 C 
ENDROOT
BRANCH   2   4
ATOM      4  C   UNL     1      -5.679  69.658  37.456  1.00  0.00     0.159 C 
ATOM      5  O   UNL     1      -5.165  70.502  38.241  1.00  0.00    -0.295 OA
BRANCH   4   6
ATOM      6  C   UNL     1      -6.854  68.875  37.961  1.00  0.00     0.091 CG0
ATOM      7  G   UNL     1      -8.069  68.882  37.005  1.00  0.00     0.000 G0
ENDBRANCH   4   6
ENDBRANCH   2   4
BRANCH   3   8
ATOM      8  C   UNL     1      -6.757  67.814  35.124  1.00  0.00    -0.003 C 
ATOM      9  C   UNL     1      -7.852  67.915  35.887  1.00  0.00    -0.020 C 
BRANCH   9  10
ATOM     10  C   UNL     1      -8.064  68.895  37.016  1.00  0.00    -0.010 CG0
ATOM     11  C   UNL     1      -9.293  68.433  37.832  1.00  0.00     0.016 C 
ATOM     12  C   UNL     1      -8.368  70.304  36.455  1.00  0.00     0.016 C 
ATOM     13  G   UNL     1      -6.833  68.878  37.950  1.00  0.00     0.000 G0
ENDBRANCH   9  10
ENDBRANCH   3   8
TORSDOF 0
ENDMDL
MODEL 7
REMARK VINA RESULT:    -2.824      7.816      9.072
REMARK INTER + INTRA:          -2.640
REMARK INTER:                  -3.495
REMARK INTRA:                   0.855
REMARK UNBOUND:                 0.845
REMARK SMILES CC1=CC=CC(C)(C)CC1=O
REMARK SMILES IDX 1 1 2 2 3 3 10 4 11 5 9 6 4 8 5 9 6 10 7 11 8 12
REMARK H PARENT
REMARK Flexibility Score: 80.00
ROOT
ATOM      1  C   UNL     1      -8.057  75.099  22.995  1.00  0.00     0.048 C 
ATOM      2  C   UNL     1      -7.500  73.744  23.369  1.00  0.00    -0.008 C 
ATOM      3  C   UNL     1      -8.161  73.028  24.304  1.00  0.00     0.007 C 
ENDROOT
BRANCH   2   4
ATOM      4  C   UNL     1      -6.292  73.291  22.628  1.00  0.00     0.159 C 
ATOM      5  O   UNL     1      -5.743  74.092  21.822  1.00  0.00    -0.295 OA
BRANCH   4   6
ATOM      6  C   UNL     1      -5.700  71.918  22.746  1.00  0.00     0.091 CG0
ATOM      7  G   UNL     1      -5.398  71.489  24.199  1.00  0.00     0.000 G0
ENDBRANCH   4   6
ENDBRANCH   2   4
BRANCH   3   8
ATOM      8  C   UNL     1      -7.849  71.695  24.870  1.00  0.00    -0.003 C 
ATOM      9  C   UNL     1      -6.684  71.037  24.863  1.00  0.00    -0.020 C 
BRANCH   9  10
ATOM     10  C   UNL     1      -5.408  71.493  24.196  1.00  0.00    -0.010 CG0
ATOM     11  C   UNL     1      -4.432  70.295  24.150  1.00  0.00     0.016 C 
ATOM     12  C   UNL     1      -4.741  72.617  25.024  1.00  0.00     0.016 C 
ATOM     13  G   UNL     1      -5.711  71.922  22.743  1.00  0.00     0.000 G0
ENDBRANCH   9  10
ENDBRANCH   3   8
TORSDOF 0
ENDMDL
MODEL 8
REMARK VINA RESULT:    -2.733      8.277      9.039
REMARK INTER + INTRA:          -2.527
REMARK INTER:                  -3.377
REMARK INTRA:                   0.850
REMARK UNBOUND:                 0.845
REMARK SMILES CC1=CC=CC(C)(C)CC1=O
REMARK SMILES IDX 1 1 2 2 3 3 10 4 11 5 9 6 4 8 5 9 6 10 7 11 8 12
REMARK H PARENT
REMARK Flexibility Score: 80.00
ROOT
ATOM      1  C   UNL     1      -7.493  68.628  24.778  1.00  0.00     0.048 C 
ATOM      2  C   UNL     1      -6.567  69.793  25.046  1.00  0.00    -0.008 C 
ATOM      3  C   UNL     1      -6.922  71.004  24.565  1.00  0.00     0.007 C 
ENDROOT
BRANCH   2   4
ATOM      4  C   UNL     1      -5.361  69.512  25.871  1.00  0.00     0.159 C 
ATOM      5  O   UNL     1      -5.131  68.320  26.216  1.00  0.00    -0.295 OA
BRANCH   4   6
ATOM      6  C   UNL     1      -4.413  70.566  26.360  1.00  0.00     0.091 CG0
ATOM      7  G   UNL     1      -3.880  71.495  25.246  1.00  0.00     0.000 G0
ENDBRANCH   4   6
ENDBRANCH   2   4
BRANCH   3   8
ATOM      8  C   UNL     1      -6.219  72.304  24.661  1.00  0.00    -0.003 C 
ATOM      9  C   UNL     1      -4.926  72.537  24.917  1.00  0.00    -0.020 C 
BRANCH   9  10
ATOM     10  C   UNL     1      -3.881  71.496  25.240  1.00  0.00    -0.010 CG0
ATOM     11  C   UNL     1      -2.629  72.221  25.785  1.00  0.00     0.016 C 
ATOM     12  C   UNL     1      -3.469  70.732  23.960  1.00  0.00     0.016 C 
ATOM     13  G   UNL     1      -4.413  70.559  26.348  1.00  0.00     0.000 G0
ENDBRANCH   9  10
ENDBRANCH   3   8
TORSDOF 0
ENDMDL
MODEL 9
REMARK VINA RESULT:    -2.670      8.164      9.539
REMARK INTER + INTRA:          -2.449
REMARK INTER:                  -3.299
REMARK INTRA:                   0.850
REMARK UNBOUND:                 0.845
REMARK SMILES CC1=CC=CC(C)(C)CC1=O
REMARK SMILES IDX 1 1 2 2 3 3 10 4 11 5 9 6 4 8 5 9 6 10 7 11 8 12
REMARK H PARENT
REMARK Flexibility Score: 80.00
ROOT
ATOM      1  C   UNL     1      -7.233  71.456  24.658  1.00  0.00     0.048 C 
ATOM      2  C   UNL     1      -6.417  70.410  25.384  1.00  0.00    -0.008 C 
ATOM      3  C   UNL     1      -5.561  70.831  26.340  1.00  0.00     0.007 C 
ENDROOT
BRANCH   2   4
ATOM      4  C   UNL     1      -6.671  68.991  25.016  1.00  0.00     0.159 C 
ATOM      5  O   UNL     1      -7.471  68.746  24.071  1.00  0.00    -0.295 OA
BRANCH   4   6
ATOM      6  C   UNL     1      -6.065  67.818  25.727  1.00  0.00     0.091 CG0
ATOM      7  G   UNL     1      -4.526  67.885  25.849  1.00  0.00     0.000 G0
ENDBRANCH   4   6
ENDBRANCH   2   4
BRANCH   3   8
ATOM      8  C   UNL     1      -4.639  70.048  27.195  1.00  0.00    -0.003 C 
ATOM      9  C   UNL     1      -4.161  68.814  26.997  1.00  0.00    -0.020 C 
BRANCH   9  10
ATOM     10  C   UNL     1      -4.521  67.893  25.856  1.00  0.00    -0.010 CG0
ATOM     11  C   UNL     1      -4.005  66.476  26.198  1.00  0.00     0.016 C 
ATOM     12  C   UNL     1      -3.822  68.352  24.555  1.00  0.00     0.016 C 
ATOM     13  G   UNL     1      -6.059  67.824  25.715  1.00  0.00     0.000 G0
ENDBRANCH   9  10
ENDBRANCH   3   8
TORSDOF 0
ENDMDL
