MODEL 1
REMARK VINA RESULT:    -5.417      0.000      0.000
REMARK INTER + INTRA:          -5.417
REMARK INTER:                  -5.417
REMARK INTRA:                   0.000
REMARK UNBOUND:                 0.000
REMARK SMILES O=c1ccc2ccccc2o1
REMARK SMILES IDX 7 1 8 2 9 3 10 4 5 5 6 6 4 7 3 8 2 9 1 10 11 11
REMARK H PARENT
REMARK Flexibility Score: inf
ROOT
ATOM      1  C   UNL     1     -40.487  -8.869 -14.110  1.00  0.00     0.001 A 
ATOM      2  C   UNL     1     -40.918  -7.590 -13.740  1.00  0.00     0.004 A 
ATOM      3  C   UNL     1     -39.990  -6.560 -13.559  1.00  0.00     0.048 A 
ATOM      4  C   UNL     1     -38.625  -6.804 -13.748  1.00  0.00     0.138 A 
ATOM      5  C   UNL     1     -38.190  -8.096 -14.123  1.00  0.00     0.018 A 
ATOM      6  C   UNL     1     -39.126  -9.125 -14.302  1.00  0.00     0.012 A 
ATOM      7  C   UNL     1     -36.821  -8.310 -14.305  1.00  0.00     0.019 A 
ATOM      8  C   UNL     1     -35.931  -7.253 -14.114  1.00  0.00     0.094 A 
ATOM      9  C   UNL     1     -36.434  -6.002 -13.744  1.00  0.00     0.336 A 
ATOM     10  O   UNL     1     -35.646  -5.036 -13.567  1.00  0.00    -0.246 OA
ATOM     11  O   UNL     1     -37.742  -5.824 -13.577  1.00  0.00    -0.423 OA
ENDROOT
TORSDOF 0
ENDMDL
MODEL 2
REMARK VINA RESULT:    -5.369      1.373      3.234
REMARK INTER + INTRA:          -5.369
REMARK INTER:                  -5.369
REMARK INTRA:                   0.000
REMARK UNBOUND:                 0.000
REMARK SMILES O=c1ccc2ccccc2o1
REMARK SMILES IDX 7 1 8 2 9 3 10 4 5 5 6 6 4 7 3 8 2 9 1 10 11 11
REMARK H PARENT
REMARK Flexibility Score: inf
ROOT
ATOM      1  C   UNL     1     -36.989  -8.757 -15.590  1.00  0.00     0.001 A 
ATOM      2  C   UNL     1     -36.201  -7.601 -15.572  1.00  0.00     0.004 A 
ATOM      3  C   UNL     1     -36.611  -6.480 -14.843  1.00  0.00     0.048 A 
ATOM      4  C   UNL     1     -37.814  -6.511 -14.128  1.00  0.00     0.138 A 
ATOM      5  C   UNL     1     -38.609  -7.679 -14.145  1.00  0.00     0.018 A 
ATOM      6  C   UNL     1     -38.192  -8.799 -14.878  1.00  0.00     0.012 A 
ATOM      7  C   UNL     1     -39.805  -7.681 -13.421  1.00  0.00     0.019 A 
ATOM      8  C   UNL     1     -40.174  -6.541 -12.708  1.00  0.00     0.094 A 
ATOM      9  C   UNL     1     -39.337  -5.421 -12.736  1.00  0.00     0.336 A 
ATOM     10  O   UNL     1     -39.654  -4.383 -12.099  1.00  0.00    -0.246 OA
ATOM     11  O   UNL     1     -38.204  -5.445 -13.434  1.00  0.00    -0.423 OA
ENDROOT
TORSDOF 0
ENDMDL
MODEL 3
REMARK VINA RESULT:    -5.247      1.837      3.170
REMARK INTER + INTRA:          -5.247
REMARK INTER:                  -5.247
REMARK INTRA:                   0.000
REMARK UNBOUND:                 0.000
REMARK SMILES O=c1ccc2ccccc2o1
REMARK SMILES IDX 7 1 8 2 9 3 10 4 5 5 6 6 4 7 3 8 2 9 1 10 11 11
REMARK H PARENT
REMARK Flexibility Score: inf
ROOT
ATOM      1  C   UNL     1     -39.766  -5.019 -12.228  1.00  0.00     0.001 A 
ATOM      2  C   UNL     1     -38.553  -4.470 -12.657  1.00  0.00     0.004 A 
ATOM      3  C   UNL     1     -37.686  -5.217 -13.459  1.00  0.00     0.048 A 
ATOM      4  C   UNL     1     -38.029  -6.521 -13.836  1.00  0.00     0.138 A 
ATOM      5  C   UNL     1     -39.254  -7.076 -13.404  1.00  0.00     0.018 A 
ATOM      6  C   UNL     1     -40.119  -6.321 -12.599  1.00  0.00     0.012 A 
ATOM      7  C   UNL     1     -39.569  -8.380 -13.796  1.00  0.00     0.019 A 
ATOM      8  C   UNL     1     -38.674  -9.089 -14.597  1.00  0.00     0.094 A 
ATOM      9  C   UNL     1     -37.480  -8.475 -14.987  1.00  0.00     0.336 A 
ATOM     10  O   UNL     1     -36.659  -9.099 -15.710  1.00  0.00    -0.246 OA
ATOM     11  O   UNL     1     -37.203  -7.232 -14.600  1.00  0.00    -0.423 OA
ENDROOT
TORSDOF 0
ENDMDL
MODEL 4
REMARK VINA RESULT:    -5.212      0.957      1.306
REMARK INTER + INTRA:          -5.212
REMARK INTER:                  -5.212
REMARK INTRA:                   0.000
REMARK UNBOUND:                 0.000
REMARK SMILES O=c1ccc2ccccc2o1
REMARK SMILES IDX 7 1 8 2 9 3 10 4 5 5 6 6 4 7 3 8 2 9 1 10 11 11
REMARK H PARENT
REMARK Flexibility Score: inf
ROOT
ATOM      1  C   UNL     1     -39.158  -9.125 -14.315  1.00  0.00     0.001 A 
ATOM      2  C   UNL     1     -40.141  -8.309 -13.745  1.00  0.00     0.004 A 
ATOM      3  C   UNL     1     -39.829  -7.005 -13.346  1.00  0.00     0.048 A 
ATOM      4  C   UNL     1     -38.531  -6.512 -13.516  1.00  0.00     0.138 A 
ATOM      5  C   UNL     1     -37.538  -7.335 -14.093  1.00  0.00     0.018 A 
ATOM      6  C   UNL     1     -37.856  -8.642 -14.491  1.00  0.00     0.012 A 
ATOM      7  C   UNL     1     -36.250  -6.815 -14.250  1.00  0.00     0.019 A 
ATOM      8  C   UNL     1     -35.984  -5.510 -13.839  1.00  0.00     0.094 A 
ATOM      9  C   UNL     1     -37.017  -4.752 -13.276  1.00  0.00     0.336 A 
ATOM     10  O   UNL     1     -36.796  -3.571 -12.898  1.00  0.00    -0.246 OA
ATOM     11  O   UNL     1     -38.234  -5.271 -13.137  1.00  0.00    -0.423 OA
ENDROOT
TORSDOF 0
ENDMDL
MODEL 5
REMARK VINA RESULT:    -5.124      7.310      9.290
REMARK INTER + INTRA:          -5.124
REMARK INTER:                  -5.124
REMARK INTRA:                   0.000
REMARK UNBOUND:                 0.000
REMARK SMILES O=c1ccc2ccccc2o1
REMARK SMILES IDX 7 1 8 2 9 3 10 4 5 5 6 6 4 7 3 8 2 9 1 10 11 11
REMARK H PARENT
REMARK Flexibility Score: inf
ROOT
ATOM      1  C   UNL     1     -30.449  -2.750 -19.180  1.00  0.00     0.001 A 
ATOM      2  C   UNL     1     -30.836  -2.511 -20.503  1.00  0.00     0.004 A 
ATOM      3  C   UNL     1     -32.173  -2.663 -20.884  1.00  0.00     0.048 A 
ATOM      4  C   UNL     1     -33.130  -3.057 -19.942  1.00  0.00     0.138 A 
ATOM      5  C   UNL     1     -32.739  -3.297 -18.605  1.00  0.00     0.018 A 
ATOM      6  C   UNL     1     -31.397  -3.143 -18.230  1.00  0.00     0.012 A 
ATOM      7  C   UNL     1     -33.717  -3.689 -17.686  1.00  0.00     0.019 A 
ATOM      8  C   UNL     1     -35.038  -3.828 -18.110  1.00  0.00     0.094 A 
ATOM      9  C   UNL     1     -35.351  -3.572 -19.449  1.00  0.00     0.336 A 
ATOM     10  O   UNL     1     -36.539  -3.693 -19.850  1.00  0.00    -0.246 OA
ATOM     11  O   UNL     1     -34.402  -3.201 -20.304  1.00  0.00    -0.423 OA
ENDROOT
TORSDOF 0
ENDMDL
MODEL 6
REMARK VINA RESULT:    -5.075      2.037      3.664
REMARK INTER + INTRA:          -5.075
REMARK INTER:                  -5.075
REMARK INTRA:                   0.000
REMARK UNBOUND:                 0.000
REMARK SMILES O=c1ccc2ccccc2o1
REMARK SMILES IDX 7 1 8 2 9 3 10 4 5 5 6 6 4 7 3 8 2 9 1 10 11 11
REMARK H PARENT
REMARK Flexibility Score: inf
ROOT
ATOM      1  C   UNL     1     -36.226  -7.615 -15.998  1.00  0.00     0.001 A 
ATOM      2  C   UNL     1     -36.936  -8.770 -15.654  1.00  0.00     0.004 A 
ATOM      3  C   UNL     1     -37.983  -8.705 -14.731  1.00  0.00     0.048 A 
ATOM      4  C   UNL     1     -38.326  -7.480 -14.145  1.00  0.00     0.138 A 
ATOM      5  C   UNL     1     -37.610  -6.312 -14.493  1.00  0.00     0.018 A 
ATOM      6  C   UNL     1     -36.560  -6.385 -15.420  1.00  0.00     0.012 A 
ATOM      7  C   UNL     1     -37.975  -5.104 -13.892  1.00  0.00     0.019 A 
ATOM      8  C   UNL     1     -39.026  -5.085 -12.977  1.00  0.00     0.094 A 
ATOM      9  C   UNL     1     -39.690  -6.280 -12.682  1.00  0.00     0.336 A 
ATOM     10  O   UNL     1     -40.642  -6.283 -11.857  1.00  0.00    -0.246 OA
ATOM     11  O   UNL     1     -39.323  -7.417 -13.267  1.00  0.00    -0.423 OA
ENDROOT
TORSDOF 0
ENDMDL
MODEL 7
REMARK VINA RESULT:    -5.073      1.119      2.303
REMARK INTER + INTRA:          -5.073
REMARK INTER:                  -5.073
REMARK INTRA:                   0.000
REMARK UNBOUND:                 0.000
REMARK SMILES O=c1ccc2ccccc2o1
REMARK SMILES IDX 7 1 8 2 9 3 10 4 5 5 6 6 4 7 3 8 2 9 1 10 11 11
REMARK H PARENT
REMARK Flexibility Score: inf
ROOT
ATOM      1  C   UNL     1     -40.129  -8.519 -13.757  1.00  0.00     0.001 A 
ATOM      2  C   UNL     1     -38.926  -9.124 -14.135  1.00  0.00     0.004 A 
ATOM      3  C   UNL     1     -37.739  -8.385 -14.142  1.00  0.00     0.048 A 
ATOM      4  C   UNL     1     -37.750  -7.036 -13.770  1.00  0.00     0.138 A 
ATOM      5  C   UNL     1     -38.966  -6.425 -13.387  1.00  0.00     0.018 A 
ATOM      6  C   UNL     1     -40.153  -7.172 -13.383  1.00  0.00     0.012 A 
ATOM      7  C   UNL     1     -38.947  -5.077 -13.021  1.00  0.00     0.019 A 
ATOM      8  C   UNL     1     -37.740  -4.379 -13.042  1.00  0.00     0.094 A 
ATOM      9  C   UNL     1     -36.575  -5.049 -13.431  1.00  0.00     0.336 A 
ATOM     10  O   UNL     1     -35.476  -4.435 -13.456  1.00  0.00    -0.246 OA
ATOM     11  O   UNL     1     -36.621  -6.333 -13.775  1.00  0.00    -0.423 OA
ENDROOT
TORSDOF 0
ENDMDL
MODEL 8
REMARK VINA RESULT:    -5.009      2.951      3.469
REMARK INTER + INTRA:          -5.009
REMARK INTER:                  -5.009
REMARK INTRA:                   0.000
REMARK UNBOUND:                 0.000
REMARK SMILES O=c1ccc2ccccc2o1
REMARK SMILES IDX 7 1 8 2 9 3 10 4 5 5 6 6 4 7 3 8 2 9 1 10 11 11
REMARK H PARENT
REMARK Flexibility Score: inf
ROOT
ATOM      1  C   UNL     1     -36.112  -8.813 -14.722  1.00  0.00     0.001 A 
ATOM      2  C   UNL     1     -36.524  -8.380 -15.987  1.00  0.00     0.004 A 
ATOM      3  C   UNL     1     -36.646  -7.014 -16.259  1.00  0.00     0.048 A 
ATOM      4  C   UNL     1     -36.356  -6.073 -15.264  1.00  0.00     0.138 A 
ATOM      5  C   UNL     1     -35.939  -6.510 -13.987  1.00  0.00     0.018 A 
ATOM      6  C   UNL     1     -35.819  -7.881 -13.720  1.00  0.00     0.012 A 
ATOM      7  C   UNL     1     -35.656  -5.547 -13.014  1.00  0.00     0.019 A 
ATOM      8  C   UNL     1     -35.791  -4.195 -13.329  1.00  0.00     0.094 A 
ATOM      9  C   UNL     1     -36.208  -3.837 -14.615  1.00  0.00     0.336 A 
ATOM     10  O   UNL     1     -36.335  -2.621 -14.918  1.00  0.00    -0.246 OA
ATOM     11  O   UNL     1     -36.471  -4.773 -15.523  1.00  0.00    -0.423 OA
ENDROOT
TORSDOF 0
ENDMDL
MODEL 9
REMARK VINA RESULT:    -4.994      1.845      3.769
REMARK INTER + INTRA:          -4.994
REMARK INTER:                  -4.994
REMARK INTRA:                   0.000
REMARK UNBOUND:                 0.000
REMARK SMILES O=c1ccc2ccccc2o1
REMARK SMILES IDX 7 1 8 2 9 3 10 4 5 5 6 6 4 7 3 8 2 9 1 10 11 11
REMARK H PARENT
REMARK Flexibility Score: inf
ROOT
ATOM      1  C   UNL     1     -36.295  -3.913 -12.866  1.00  0.00     0.001 A 
ATOM      2  C   UNL     1     -37.683  -3.808 -12.730  1.00  0.00     0.004 A 
ATOM      3  C   UNL     1     -38.509  -4.872 -13.105  1.00  0.00     0.048 A 
ATOM      4  C   UNL     1     -37.949  -6.048 -13.617  1.00  0.00     0.138 A 
ATOM      5  C   UNL     1     -36.547  -6.155 -13.752  1.00  0.00     0.018 A 
ATOM      6  C   UNL     1     -35.723  -5.084 -13.376  1.00  0.00     0.012 A 
ATOM      7  C   UNL     1     -36.016  -7.342 -14.266  1.00  0.00     0.019 A 
ATOM      8  C   UNL     1     -36.877  -8.377 -14.626  1.00  0.00     0.094 A 
ATOM      9  C   UNL     1     -38.256  -8.201 -14.464  1.00  0.00     0.336 A 
ATOM     10  O   UNL     1     -39.049  -9.125 -14.783  1.00  0.00    -0.246 OA
ATOM     11  O   UNL     1     -38.735  -7.061 -13.972  1.00  0.00    -0.423 OA
ENDROOT
TORSDOF 0
ENDMDL
