MODEL 1
REMARK VINA RESULT:    -4.200      0.000      0.000
REMARK INTER + INTRA:          -9.743
REMARK INTER:                  -7.637
REMARK INTRA:                  -2.106
REMARK UNBOUND:                -2.106
REMARK SMILES CCCCCCCCCCCCCCCC(=O)[O-]
REMARK SMILES IDX 9 1 10 2 11 3 12 4 13 5 14 6 15 7 16 8 17 9 18 10 8 11 7 12
REMARK SMILES IDX 6 13 5 14 4 15 3 16 2 17 1 18
REMARK H PARENT
REMARK Flexibility Score: inf
ROOT
ATOM      1  C   UNL     1      -5.703  14.067  -3.387  1.00  0.00     0.000 C 
ENDROOT
BRANCH   1   2
ATOM      2  C   UNL     1      -4.723  12.941  -3.012  1.00  0.00     0.000 C 
BRANCH   2   3
ATOM      3  C   UNL     1      -3.708  12.648  -4.128  1.00  0.00     0.000 C 
BRANCH   3   4
ATOM      4  C   UNL     1      -3.847  13.613  -5.319  1.00  0.00     0.000 C 
BRANCH   4   5
ATOM      5  C   UNL     1      -4.208  12.891  -6.627  1.00  0.00     0.000 C 
BRANCH   5   6
ATOM      6  C   UNL     1      -3.242  11.738  -6.951  1.00  0.00     0.006 C 
BRANCH   6   7
ATOM      7  C   UNL     1      -2.655  11.856  -8.364  1.00  0.00     0.053 C 
BRANCH   7   8
ATOM      8  C   UNL     1      -1.254  12.389  -8.343  1.00  0.00     0.041 C 
ATOM      9  O   UNL     1      -0.307  11.698  -8.800  1.00  0.00    -0.550 OA
ATOM     10  O   UNL     1      -1.002  13.660  -7.845  1.00  0.00    -0.550 OA
ENDBRANCH   7   8
ENDBRANCH   6   7
ENDBRANCH   5   6
ENDBRANCH   4   5
ENDBRANCH   3   4
ENDBRANCH   2   3
ENDBRANCH   1   2
BRANCH   1  11
ATOM     11  C   UNL     1      -7.088  13.882  -2.749  1.00  0.00     0.000 C 
BRANCH  11  12
ATOM     12  C   UNL     1      -8.211  13.777  -3.792  1.00  0.00    -0.000 C 
BRANCH  12  13
ATOM     13  C   UNL     1      -7.636  13.717  -5.212  1.00  0.00    -0.000 C 
BRANCH  13  14
ATOM     14  C   UNL     1      -8.104  12.448  -5.940  1.00  0.00    -0.000 C 
BRANCH  14  15
ATOM     15  C   UNL     1      -7.109  11.285  -5.799  1.00  0.00    -0.000 C 
BRANCH  15  16
ATOM     16  C   UNL     1      -7.353  10.451  -4.529  1.00  0.00    -0.000 C 
BRANCH  16  17
ATOM     17  C   UNL     1      -8.802   9.950  -4.423  1.00  0.00    -0.003 C 
ATOM     18  C   UNL     1      -9.399  10.160  -3.032  1.00  0.00     0.004 C 
ENDBRANCH  16  17
ENDBRANCH  15  16
ENDBRANCH  14  15
ENDBRANCH  13  14
ENDBRANCH  12  13
ENDBRANCH  11  12
ENDBRANCH   1  11
TORSDOF 14
ENDMDL
MODEL 2
REMARK VINA RESULT:    -4.126      1.108      2.092
REMARK INTER + INTRA:          -9.609
REMARK INTER:                  -7.808
REMARK INTRA:                  -1.800
REMARK UNBOUND:                -2.106
REMARK SMILES CCCCCCCCCCCCCCCC(=O)[O-]
REMARK SMILES IDX 9 1 10 2 11 3 12 4 13 5 14 6 15 7 16 8 17 9 18 10 8 11 7 12
REMARK SMILES IDX 6 13 5 14 4 15 3 16 2 17 1 18
REMARK H PARENT
REMARK Flexibility Score: inf
ROOT
ATOM      1  C   UNL     1      -5.497  13.799  -2.641  1.00  0.00     0.000 C 
ENDROOT
BRANCH   1   2
ATOM      2  C   UNL     1      -5.013  12.520  -3.347  1.00  0.00     0.000 C 
BRANCH   2   3
ATOM      3  C   UNL     1      -3.640  12.700  -4.014  1.00  0.00     0.000 C 
BRANCH   3   4
ATOM      4  C   UNL     1      -3.689  13.666  -5.212  1.00  0.00     0.000 C 
BRANCH   4   5
ATOM      5  C   UNL     1      -2.793  13.212  -6.376  1.00  0.00     0.000 C 
BRANCH   5   6
ATOM      6  C   UNL     1      -3.225  11.855  -6.959  1.00  0.00     0.006 C 
BRANCH   6   7
ATOM      7  C   UNL     1      -2.819  11.703  -8.430  1.00  0.00     0.053 C 
BRANCH   7   8
ATOM      8  C   UNL     1      -1.490  11.025  -8.575  1.00  0.00     0.041 C 
ATOM      9  O   UNL     1      -1.407   9.771  -8.506  1.00  0.00    -0.550 OA
ATOM     10  O   UNL     1      -0.348  11.779  -8.814  1.00  0.00    -0.550 OA
ENDBRANCH   7   8
ENDBRANCH   6   7
ENDBRANCH   5   6
ENDBRANCH   4   5
ENDBRANCH   3   4
ENDBRANCH   2   3
ENDBRANCH   1   2
BRANCH   1  11
ATOM     11  C   UNL     1      -7.021  13.823  -2.443  1.00  0.00     0.000 C 
BRANCH  11  12
ATOM     12  C   UNL     1      -7.791  13.555  -3.744  1.00  0.00    -0.000 C 
BRANCH  12  13
ATOM     13  C   UNL     1      -8.928  12.552  -3.514  1.00  0.00    -0.000 C 
BRANCH  13  14
ATOM     14  C   UNL     1      -8.416  11.108  -3.620  1.00  0.00    -0.000 C 
BRANCH  14  15
ATOM     15  C   UNL     1      -8.470  10.566  -5.057  1.00  0.00    -0.000 C 
BRANCH  15  16
ATOM     16  C   UNL     1      -7.190  10.874  -5.853  1.00  0.00    -0.000 C 
BRANCH  16  17
ATOM     17  C   UNL     1      -7.474  11.658  -7.144  1.00  0.00    -0.003 C 
ATOM     18  C   UNL     1      -6.648  12.939  -7.251  1.00  0.00     0.004 C 
ENDBRANCH  16  17
ENDBRANCH  15  16
ENDBRANCH  14  15
ENDBRANCH  13  14
ENDBRANCH  12  13
ENDBRANCH  11  12
ENDBRANCH   1  11
TORSDOF 14
ENDMDL
MODEL 3
REMARK VINA RESULT:    -4.072     14.713     16.974
REMARK INTER + INTRA:          -9.510
REMARK INTER:                  -7.230
REMARK INTRA:                  -2.280
REMARK UNBOUND:                -2.106
REMARK SMILES CCCCCCCCCCCCCCCC(=O)[O-]
REMARK SMILES IDX 9 1 10 2 11 3 12 4 13 5 14 6 15 7 16 8 17 9 18 10 8 11 7 12
REMARK SMILES IDX 6 13 5 14 4 15 3 16 2 17 1 18
REMARK H PARENT
REMARK Flexibility Score: inf
ROOT
ATOM      1  C   UNL     1       5.824   1.820  -9.291  1.00  0.00     0.000 C 
ENDROOT
BRANCH   1   2
ATOM      2  C   UNL     1       6.345   1.451 -10.692  1.00  0.00     0.000 C 
BRANCH   2   3
ATOM      3  C   UNL     1       7.873   1.569 -10.802  1.00  0.00     0.000 C 
BRANCH   3   4
ATOM      4  C   UNL     1       8.605   0.802  -9.685  1.00  0.00     0.000 C 
BRANCH   4   5
ATOM      5  C   UNL     1       9.335   1.735  -8.707  1.00  0.00     0.000 C 
BRANCH   5   6
ATOM      6  C   UNL     1       8.859   1.556  -7.254  1.00  0.00     0.006 C 
BRANCH   6   7
ATOM      7  C   UNL     1       9.896   0.823  -6.393  1.00  0.00     0.053 C 
BRANCH   7   8
ATOM      8  C   UNL     1       9.321   0.385  -5.080  1.00  0.00     0.041 C 
ATOM      9  O   UNL     1       8.789   1.226  -4.309  1.00  0.00    -0.550 OA
ATOM     10  O   UNL     1       9.348  -0.956  -4.723  1.00  0.00    -0.550 OA
ENDBRANCH   7   8
ENDBRANCH   6   7
ENDBRANCH   5   6
ENDBRANCH   4   5
ENDBRANCH   3   4
ENDBRANCH   2   3
ENDBRANCH   1   2
BRANCH   1  11
ATOM     11  C   UNL     1       4.791   2.957  -9.326  1.00  0.00     0.000 C 
BRANCH  11  12
ATOM     12  C   UNL     1       5.220   4.117 -10.237  1.00  0.00    -0.000 C 
BRANCH  12  13
ATOM     13  C   UNL     1       5.852   5.251  -9.420  1.00  0.00    -0.000 C 
BRANCH  13  14
ATOM     14  C   UNL     1       7.375   5.072  -9.319  1.00  0.00    -0.000 C 
BRANCH  14  15
ATOM     15  C   UNL     1       7.874   5.067  -7.865  1.00  0.00    -0.000 C 
BRANCH  15  16
ATOM     16  C   UNL     1       6.740   5.286  -6.850  1.00  0.00    -0.000 C 
BRANCH  16  17
ATOM     17  C   UNL     1       6.856   4.359  -5.629  1.00  0.00    -0.003 C 
ATOM     18  C   UNL     1       5.862   3.199  -5.673  1.00  0.00     0.004 C 
ENDBRANCH  16  17
ENDBRANCH  15  16
ENDBRANCH  14  15
ENDBRANCH  13  14
ENDBRANCH  12  13
ENDBRANCH  11  12
ENDBRANCH   1  11
TORSDOF 14
ENDMDL
MODEL 4
REMARK VINA RESULT:    -3.987      3.288      6.089
REMARK INTER + INTRA:          -9.355
REMARK INTER:                  -8.016
REMARK INTRA:                  -1.339
REMARK UNBOUND:                -2.106
REMARK SMILES CCCCCCCCCCCCCCCC(=O)[O-]
REMARK SMILES IDX 9 1 10 2 11 3 12 4 13 5 14 6 15 7 16 8 17 9 18 10 8 11 7 12
REMARK SMILES IDX 6 13 5 14 4 15 3 16 2 17 1 18
REMARK H PARENT
REMARK Flexibility Score: inf
ROOT
ATOM      1  C   UNL     1      -5.012  12.728  -3.497  1.00  0.00     0.000 C 
ENDROOT
BRANCH   1   2
ATOM      2  C   UNL     1      -5.809  13.714  -2.623  1.00  0.00     0.000 C 
BRANCH   2   3
ATOM      3  C   UNL     1      -7.299  13.756  -2.992  1.00  0.00     0.000 C 
BRANCH   3   4
ATOM      4  C   UNL     1      -7.658  12.759  -4.109  1.00  0.00     0.000 C 
BRANCH   4   5
ATOM      5  C   UNL     1      -8.471  11.560  -3.594  1.00  0.00     0.000 C 
BRANCH   5   6
ATOM      6  C   UNL     1      -8.105  10.248  -4.309  1.00  0.00     0.006 C 
BRANCH   6   7
ATOM      7  C   UNL     1      -7.816  10.464  -5.800  1.00  0.00     0.053 C 
BRANCH   7   8
ATOM      8  C   UNL     1      -8.499   9.440  -6.655  1.00  0.00     0.041 C 
ATOM      9  O   UNL     1      -8.538   8.236  -6.292  1.00  0.00    -0.550 OA
ATOM     10  O   UNL     1      -9.118   9.824  -7.837  1.00  0.00    -0.550 OA
ENDBRANCH   7   8
ENDBRANCH   6   7
ENDBRANCH   5   6
ENDBRANCH   4   5
ENDBRANCH   3   4
ENDBRANCH   2   3
ENDBRANCH   1   2
BRANCH   1  11
ATOM     11  C   UNL     1      -3.586  13.219  -3.790  1.00  0.00     0.000 C 
BRANCH  11  12
ATOM     12  C   UNL     1      -3.383  13.597  -5.265  1.00  0.00    -0.000 C 
BRANCH  12  13
ATOM     13  C   UNL     1      -4.655  13.332  -6.080  1.00  0.00    -0.000 C 
BRANCH  13  14
ATOM     14  C   UNL     1      -4.424  12.220  -7.114  1.00  0.00    -0.000 C 
BRANCH  14  15
ATOM     15  C   UNL     1      -2.933  11.921  -7.338  1.00  0.00    -0.000 C 
BRANCH  15  16
ATOM     16  C   UNL     1      -2.601  11.649  -8.815  1.00  0.00    -0.000 C 
BRANCH  16  17
ATOM     17  C   UNL     1      -1.923  10.286  -9.025  1.00  0.00    -0.003 C 
ATOM     18  C   UNL     1      -2.124   9.738 -10.437  1.00  0.00     0.004 C 
ENDBRANCH  16  17
ENDBRANCH  15  16
ENDBRANCH  14  15
ENDBRANCH  13  14
ENDBRANCH  12  13
ENDBRANCH  11  12
ENDBRANCH   1  11
TORSDOF 14
ENDMDL
MODEL 5
REMARK VINA RESULT:    -3.972      1.255      1.792
REMARK INTER + INTRA:          -9.328
REMARK INTER:                  -8.031
REMARK INTRA:                  -1.298
REMARK UNBOUND:                -2.106
REMARK SMILES CCCCCCCCCCCCCCCC(=O)[O-]
REMARK SMILES IDX 9 1 10 2 11 3 12 4 13 5 14 6 15 7 16 8 17 9 18 10 8 11 7 12
REMARK SMILES IDX 6 13 5 14 4 15 3 16 2 17 1 18
REMARK H PARENT
REMARK Flexibility Score: inf
ROOT
ATOM      1  C   UNL     1      -4.352  13.065  -3.244  1.00  0.00     0.000 C 
ENDROOT
BRANCH   1   2
ATOM      2  C   UNL     1      -3.331  14.078  -3.793  1.00  0.00     0.000 C 
BRANCH   2   3
ATOM      3  C   UNL     1      -3.073  13.898  -5.297  1.00  0.00     0.000 C 
BRANCH   3   4
ATOM      4  C   UNL     1      -4.366  13.622  -6.087  1.00  0.00     0.000 C 
BRANCH   4   5
ATOM      5  C   UNL     1      -4.321  12.286  -6.846  1.00  0.00     0.000 C 
BRANCH   5   6
ATOM      6  C   UNL     1      -2.899  11.915  -7.304  1.00  0.00     0.006 C 
BRANCH   6   7
ATOM      7  C   UNL     1      -2.847  11.555  -8.794  1.00  0.00     0.053 C 
BRANCH   7   8
ATOM      8  C   UNL     1      -1.458  11.210  -9.236  1.00  0.00     0.041 C 
ATOM      9  O   UNL     1      -1.274  10.356 -10.143  1.00  0.00    -0.550 OA
ATOM     10  O   UNL     1      -0.367  11.853  -8.666  1.00  0.00    -0.550 OA
ENDBRANCH   7   8
ENDBRANCH   6   7
ENDBRANCH   5   6
ENDBRANCH   4   5
ENDBRANCH   3   4
ENDBRANCH   2   3
ENDBRANCH   1   2
BRANCH   1  11
ATOM     11  C   UNL     1      -5.539  13.744  -2.543  1.00  0.00     0.000 C 
BRANCH  11  12
ATOM     12  C   UNL     1      -6.765  13.880  -3.457  1.00  0.00    -0.000 C 
BRANCH  12  13
ATOM     13  C   UNL     1      -7.960  13.102  -2.893  1.00  0.00    -0.000 C 
BRANCH  13  14
ATOM     14  C   UNL     1      -8.388  11.981  -3.852  1.00  0.00    -0.000 C 
BRANCH  14  15
ATOM     15  C   UNL     1      -7.260  11.554  -4.804  1.00  0.00    -0.000 C 
BRANCH  15  16
ATOM     16  C   UNL     1      -7.786  10.838  -6.060  1.00  0.00    -0.000 C 
BRANCH  16  17
ATOM     17  C   UNL     1      -8.421   9.476  -5.739  1.00  0.00    -0.003 C 
ATOM     18  C   UNL     1      -9.648   9.179  -6.599  1.00  0.00     0.004 C 
ENDBRANCH  16  17
ENDBRANCH  15  16
ENDBRANCH  14  15
ENDBRANCH  13  14
ENDBRANCH  12  13
ENDBRANCH  11  12
ENDBRANCH   1  11
TORSDOF 14
ENDMDL
MODEL 6
REMARK VINA RESULT:    -3.957     14.406     16.820
REMARK INTER + INTRA:          -9.302
REMARK INTER:                  -6.931
REMARK INTRA:                  -2.371
REMARK UNBOUND:                -2.106
REMARK SMILES CCCCCCCCCCCCCCCC(=O)[O-]
REMARK SMILES IDX 9 1 10 2 11 3 12 4 13 5 14 6 15 7 16 8 17 9 18 10 8 11 7 12
REMARK SMILES IDX 6 13 5 14 4 15 3 16 2 17 1 18
REMARK H PARENT
REMARK Flexibility Score: inf
ROOT
ATOM      1  C   UNL     1       5.750   1.513  -9.551  1.00  0.00     0.000 C 
ENDROOT
BRANCH   1   2
ATOM      2  C   UNL     1       6.795   1.432 -10.678  1.00  0.00     0.000 C 
BRANCH   2   3
ATOM      3  C   UNL     1       8.104   0.770 -10.222  1.00  0.00     0.000 C 
BRANCH   3   4
ATOM      4  C   UNL     1       9.301   1.737 -10.269  1.00  0.00     0.000 C 
BRANCH   4   5
ATOM      5  C   UNL     1       9.913   1.991  -8.882  1.00  0.00     0.000 C 
BRANCH   5   6
ATOM      6  C   UNL     1       9.272   1.120  -7.787  1.00  0.00     0.006 C 
BRANCH   6   7
ATOM      7  C   UNL     1       8.867   1.944  -6.558  1.00  0.00     0.053 C 
BRANCH   7   8
ATOM      8  C   UNL     1       8.285   1.083  -5.478  1.00  0.00     0.041 C 
ATOM      9  O   UNL     1       8.912   0.906  -4.400  1.00  0.00    -0.550 OA
ATOM     10  O   UNL     1       7.036   0.501  -5.651  1.00  0.00    -0.550 OA
ENDBRANCH   7   8
ENDBRANCH   6   7
ENDBRANCH   5   6
ENDBRANCH   4   5
ENDBRANCH   3   4
ENDBRANCH   2   3
ENDBRANCH   1   2
BRANCH   1  11
ATOM     11  C   UNL     1       5.513   2.952  -9.067  1.00  0.00     0.000 C 
BRANCH  11  12
ATOM     12  C   UNL     1       5.574   3.977 -10.210  1.00  0.00    -0.000 C 
BRANCH  12  13
ATOM     13  C   UNL     1       6.563   5.103  -9.885  1.00  0.00    -0.000 C 
BRANCH  13  14
ATOM     14  C   UNL     1       7.475   4.712  -8.712  1.00  0.00    -0.000 C 
BRANCH  14  15
ATOM     15  C   UNL     1       7.647   5.849  -7.692  1.00  0.00    -0.000 C 
BRANCH  15  16
ATOM     16  C   UNL     1       6.543   5.854  -6.621  1.00  0.00    -0.000 C 
BRANCH  16  17
ATOM     17  C   UNL     1       6.775   4.795  -5.531  1.00  0.00    -0.003 C 
ATOM     18  C   UNL     1       5.672   3.739  -5.491  1.00  0.00     0.004 C 
ENDBRANCH  16  17
ENDBRANCH  15  16
ENDBRANCH  14  15
ENDBRANCH  13  14
ENDBRANCH  12  13
ENDBRANCH  11  12
ENDBRANCH   1  11
TORSDOF 14
ENDMDL
MODEL 7
REMARK VINA RESULT:    -3.941     14.166     16.518
REMARK INTER + INTRA:          -9.273
REMARK INTER:                  -7.199
REMARK INTRA:                  -2.074
REMARK UNBOUND:                -2.106
REMARK SMILES CCCCCCCCCCCCCCCC(=O)[O-]
REMARK SMILES IDX 9 1 10 2 11 3 12 4 13 5 14 6 15 7 16 8 17 9 18 10 8 11 7 12
REMARK SMILES IDX 6 13 5 14 4 15 3 16 2 17 1 18
REMARK H PARENT
REMARK Flexibility Score: inf
ROOT
ATOM      1  C   UNL     1       4.531   3.444  -9.208  1.00  0.00     0.000 C 
ENDROOT
BRANCH   1   2
ATOM      2  C   UNL     1       5.297   2.215  -9.731  1.00  0.00     0.000 C 
BRANCH   2   3
ATOM      3  C   UNL     1       6.436   1.788  -8.793  1.00  0.00     0.000 C 
BRANCH   3   4
ATOM      4  C   UNL     1       7.547   1.017  -9.529  1.00  0.00     0.000 C 
BRANCH   4   5
ATOM      5  C   UNL     1       8.897   1.079  -8.796  1.00  0.00     0.000 C 
BRANCH   5   6
ATOM      6  C   UNL     1       8.741   1.407  -7.300  1.00  0.00     0.006 C 
BRANCH   6   7
ATOM      7  C   UNL     1       9.787   0.686  -6.439  1.00  0.00     0.053 C 
BRANCH   7   8
ATOM      8  C   UNL     1       9.228   0.278  -5.110  1.00  0.00     0.041 C 
ATOM      9  O   UNL     1       9.296  -0.922  -4.735  1.00  0.00    -0.550 OA
ATOM     10  O   UNL     1       8.659   1.229  -4.274  1.00  0.00    -0.550 OA
ENDBRANCH   7   8
ENDBRANCH   6   7
ENDBRANCH   5   6
ENDBRANCH   4   5
ENDBRANCH   3   4
ENDBRANCH   2   3
ENDBRANCH   1   2
BRANCH   1  11
ATOM     11  C   UNL     1       4.442   4.571 -10.249  1.00  0.00     0.000 C 
BRANCH  11  12
ATOM     12  C   UNL     1       5.204   5.834  -9.821  1.00  0.00    -0.000 C 
BRANCH  12  13
ATOM     13  C   UNL     1       6.641   5.816 -10.356  1.00  0.00    -0.000 C 
BRANCH  13  14
ATOM     14  C   UNL     1       7.613   5.264  -9.303  1.00  0.00    -0.000 C 
BRANCH  14  15
ATOM     15  C   UNL     1       7.306   5.778  -7.887  1.00  0.00    -0.000 C 
BRANCH  15  16
ATOM     16  C   UNL     1       7.512   4.700  -6.810  1.00  0.00    -0.000 C 
BRANCH  16  17
ATOM     17  C   UNL     1       6.400   4.708  -5.749  1.00  0.00    -0.003 C 
ATOM     18  C   UNL     1       5.841   3.313  -5.469  1.00  0.00     0.004 C 
ENDBRANCH  16  17
ENDBRANCH  15  16
ENDBRANCH  14  15
ENDBRANCH  13  14
ENDBRANCH  12  13
ENDBRANCH  11  12
ENDBRANCH   1  11
TORSDOF 14
ENDMDL
MODEL 8
REMARK VINA RESULT:    -3.900     14.256     16.885
REMARK INTER + INTRA:          -9.198
REMARK INTER:                  -7.037
REMARK INTRA:                  -2.161
REMARK UNBOUND:                -2.106
REMARK SMILES CCCCCCCCCCCCCCCC(=O)[O-]
REMARK SMILES IDX 9 1 10 2 11 3 12 4 13 5 14 6 15 7 16 8 17 9 18 10 8 11 7 12
REMARK SMILES IDX 6 13 5 14 4 15 3 16 2 17 1 18
REMARK H PARENT
REMARK Flexibility Score: inf
ROOT
ATOM      1  C   UNL     1       5.989   3.246  -7.576  1.00  0.00     0.000 C 
ENDROOT
BRANCH   1   2
ATOM      2  C   UNL     1       5.859   3.353  -6.046  1.00  0.00     0.000 C 
BRANCH   2   3
ATOM      3  C   UNL     1       6.719   4.482  -5.459  1.00  0.00     0.000 C 
BRANCH   3   4
ATOM      4  C   UNL     1       7.680   3.983  -4.365  1.00  0.00     0.000 C 
BRANCH   4   5
ATOM      5  C   UNL     1       8.001   2.486  -4.497  1.00  0.00     0.000 C 
BRANCH   5   6
ATOM      6  C   UNL     1       9.514   2.203  -4.483  1.00  0.00     0.006 C 
BRANCH   6   7
ATOM      7  C   UNL     1       9.986   1.525  -5.775  1.00  0.00     0.053 C 
BRANCH   7   8
ATOM      8  C   UNL     1       9.968   0.031  -5.660  1.00  0.00     0.041 C 
ATOM      9  O   UNL     1      10.122  -0.687  -6.683  1.00  0.00    -0.550 OA
ATOM     10  O   UNL     1       9.810  -0.568  -4.417  1.00  0.00    -0.550 OA
ENDBRANCH   7   8
ENDBRANCH   6   7
ENDBRANCH   5   6
ENDBRANCH   4   5
ENDBRANCH   3   4
ENDBRANCH   2   3
ENDBRANCH   1   2
BRANCH   1  11
ATOM     11  C   UNL     1       6.826   2.035  -8.015  1.00  0.00     0.000 C 
BRANCH  11  12
ATOM     12  C   UNL     1       7.973   2.421  -8.962  1.00  0.00    -0.000 C 
BRANCH  12  13
ATOM     13  C   UNL     1       8.682   3.691  -8.477  1.00  0.00    -0.000 C 
BRANCH  13  14
ATOM     14  C   UNL     1       8.948   4.652  -9.645  1.00  0.00    -0.000 C 
BRANCH  14  15
ATOM     15  C   UNL     1       7.659   5.281 -10.199  1.00  0.00    -0.000 C 
BRANCH  15  16
ATOM     16  C   UNL     1       7.229   6.534  -9.417  1.00  0.00    -0.000 C 
BRANCH  16  17
ATOM     17  C   UNL     1       5.726   6.541  -9.098  1.00  0.00    -0.003 C 
ATOM     18  C   UNL     1       4.887   5.888 -10.196  1.00  0.00     0.004 C 
ENDBRANCH  16  17
ENDBRANCH  15  16
ENDBRANCH  14  15
ENDBRANCH  13  14
ENDBRANCH  12  13
ENDBRANCH  11  12
ENDBRANCH   1  11
TORSDOF 14
ENDMDL
MODEL 9
REMARK VINA RESULT:    -3.820     14.025     15.734
REMARK INTER + INTRA:          -9.052
REMARK INTER:                  -6.775
REMARK INTRA:                  -2.277
REMARK UNBOUND:                -2.106
REMARK SMILES CCCCCCCCCCCCCCCC(=O)[O-]
REMARK SMILES IDX 9 1 10 2 11 3 12 4 13 5 14 6 15 7 16 8 17 9 18 10 8 11 7 12
REMARK SMILES IDX 6 13 5 14 4 15 3 16 2 17 1 18
REMARK H PARENT
REMARK Flexibility Score: inf
ROOT
ATOM      1  C   UNL     1       6.125   6.592  -8.708  1.00  0.00     0.000 C 
ENDROOT
BRANCH   1   2
ATOM      2  C   UNL     1       6.515   7.270  -7.382  1.00  0.00     0.000 C 
BRANCH   2   3
ATOM      3  C   UNL     1       6.381   6.326  -6.177  1.00  0.00     0.000 C 
BRANCH   3   4
ATOM      4  C   UNL     1       6.791   4.880  -6.512  1.00  0.00     0.000 C 
BRANCH   4   5
ATOM      5  C   UNL     1       5.906   3.837  -5.812  1.00  0.00     0.000 C 
BRANCH   5   6
ATOM      6  C   UNL     1       6.723   2.683  -5.204  1.00  0.00     0.006 C 
BRANCH   6   7
ATOM      7  C   UNL     1       8.011   2.409  -5.992  1.00  0.00     0.053 C 
BRANCH   7   8
ATOM      8  C   UNL     1       8.725   1.192  -5.487  1.00  0.00     0.041 C 
ATOM      9  O   UNL     1       8.896   1.025  -4.251  1.00  0.00    -0.550 OA
ATOM     10  O   UNL     1       9.174   0.229  -6.381  1.00  0.00    -0.550 OA
ENDBRANCH   7   8
ENDBRANCH   6   7
ENDBRANCH   5   6
ENDBRANCH   4   5
ENDBRANCH   3   4
ENDBRANCH   2   3
ENDBRANCH   1   2
BRANCH   1  11
ATOM     11  C   UNL     1       7.175   6.803  -9.810  1.00  0.00     0.000 C 
BRANCH  11  12
ATOM     12  C   UNL     1       7.499   5.510 -10.573  1.00  0.00    -0.000 C 
BRANCH  12  13
ATOM     13  C   UNL     1       8.404   4.594  -9.741  1.00  0.00    -0.000 C 
BRANCH  13  14
ATOM     14  C   UNL     1       7.834   3.169  -9.677  1.00  0.00    -0.000 C 
BRANCH  14  15
ATOM     15  C   UNL     1       6.421   3.070 -10.273  1.00  0.00    -0.000 C 
BRANCH  15  16
ATOM     16  C   UNL     1       5.355   2.740  -9.214  1.00  0.00    -0.000 C 
BRANCH  16  17
ATOM     17  C   UNL     1       3.958   3.243  -9.610  1.00  0.00    -0.003 C 
ATOM     18  C   UNL     1       3.999   4.278 -10.734  1.00  0.00     0.004 C 
ENDBRANCH  16  17
ENDBRANCH  15  16
ENDBRANCH  14  15
ENDBRANCH  13  14
ENDBRANCH  12  13
ENDBRANCH  11  12
ENDBRANCH   1  11
TORSDOF 14
ENDMDL
