MODEL 1
REMARK VINA RESULT:    -4.867      0.000      0.000
REMARK INTER + INTRA:          -8.335
REMARK INTER:                  -7.002
REMARK INTRA:                  -1.333
REMARK UNBOUND:                -1.333
REMARK SMILES O=C(CO)[C@@H](O)[C@H](O)[C@@H](O)CO
REMARK SMILES IDX 7 1 9 2 11 3 12 4 10 6 5 8 2 9 1 10 3 11 4 12 6 14 8 16
REMARK H PARENT 12 5 10 7 4 13 6 15 8 17
REMARK Flexibility Score: inf
ROOT
ATOM      1  C   UNL     1      14.319  16.439  26.559  1.00  0.00     0.181 C 
ENDROOT
BRANCH   1   2
ATOM      2  C   UNL     1      14.695  16.466  28.066  1.00  0.00     0.171 C 
BRANCH   2   3
ATOM      3  C   UNL     1      14.207  15.245  28.869  1.00  0.00     0.190 C 
BRANCH   3   4
ATOM      4  O   UNL     1      12.806  15.165  28.858  1.00  0.00    -0.394 OA
ATOM      5  H   UNL     1      12.501  15.494  27.974  1.00  0.00     0.210 HD
ENDBRANCH   3   4
ENDBRANCH   2   3
BRANCH   2   6
ATOM      6  O   UNL     1      14.191  17.642  28.646  1.00  0.00    -0.388 OA
ATOM      7  H   UNL     1      13.496  17.997  28.031  1.00  0.00     0.211 HD
ENDBRANCH   2   6
ENDBRANCH   1   2
BRANCH   1   8
ATOM      8  C   UNL     1      13.185  17.422  26.179  1.00  0.00     0.214 C 
BRANCH   8   9
ATOM      9  C   UNL     1      13.051  17.513  24.675  1.00  0.00     0.189 C 
ATOM     10  O   UNL     1      13.921  18.074  24.024  1.00  0.00    -0.294 OA
BRANCH   9  11
ATOM     11  C   UNL     1      11.864  16.928  23.958  1.00  0.00     0.234 C 
BRANCH  11  12
ATOM     12  O   UNL     1      11.814  15.541  24.159  1.00  0.00    -0.388 OA
ATOM     13  H   UNL     1      11.980  15.119  23.276  1.00  0.00     0.211 HD
ENDBRANCH  11  12
ENDBRANCH   9  11
ENDBRANCH   8   9
BRANCH   8  14
ATOM     14  O   UNL     1      11.965  16.993  26.724  1.00  0.00    -0.382 OA
ATOM     15  H   UNL     1      11.663  17.704  27.350  1.00  0.00     0.211 HD
ENDBRANCH   8  14
ENDBRANCH   1   8
BRANCH   1  16
ATOM     16  O   UNL     1      13.978  15.136  26.156  1.00  0.00    -0.387 OA
ATOM     17  H   UNL     1      14.531  14.511  26.694  1.00  0.00     0.211 HD
ENDBRANCH   1  16
TORSDOF 10
ENDMDL
MODEL 2
REMARK VINA RESULT:    -4.828      1.311      1.686
REMARK INTER + INTRA:          -8.279
REMARK INTER:                  -7.004
REMARK INTRA:                  -1.275
REMARK UNBOUND:                -1.333
REMARK SMILES O=C(CO)[C@@H](O)[C@H](O)[C@@H](O)CO
REMARK SMILES IDX 7 1 9 2 11 3 12 4 10 6 5 8 2 9 1 10 3 11 4 12 6 14 8 16
REMARK H PARENT 12 5 10 7 4 13 6 15 8 17
REMARK Flexibility Score: inf
ROOT
ATOM      1  C   UNL     1      14.299  16.716  27.857  1.00  0.00     0.181 C 
ENDROOT
BRANCH   1   2
ATOM      2  C   UNL     1      13.556  15.834  28.897  1.00  0.00     0.171 C 
BRANCH   2   3
ATOM      3  C   UNL     1      14.463  14.867  29.681  1.00  0.00     0.190 C 
BRANCH   3   4
ATOM      4  O   UNL     1      15.783  15.342  29.725  1.00  0.00    -0.394 OA
ATOM      5  H   UNL     1      16.357  14.586  30.011  1.00  0.00     0.210 HD
ENDBRANCH   3   4
ENDBRANCH   2   3
BRANCH   2   6
ATOM      6  O   UNL     1      12.545  15.107  28.247  1.00  0.00    -0.388 OA
ATOM      7  H   UNL     1      12.628  14.162  28.542  1.00  0.00     0.211 HD
ENDBRANCH   2   6
ENDBRANCH   1   2
BRANCH   1   8
ATOM      8  C   UNL     1      13.398  17.778  27.179  1.00  0.00     0.214 C 
BRANCH   8   9
ATOM      9  C   UNL     1      13.242  17.470  25.706  1.00  0.00     0.189 C 
ATOM     10  O   UNL     1      14.067  17.895  24.910  1.00  0.00    -0.294 OA
BRANCH   9  11
ATOM     11  C   UNL     1      12.087  16.652  25.194  1.00  0.00     0.234 C 
BRANCH  11  12
ATOM     12  O   UNL     1      12.406  15.287  25.239  1.00  0.00    -0.388 OA
ATOM     13  H   UNL     1      11.768  14.825  24.636  1.00  0.00     0.211 HD
ENDBRANCH  11  12
ENDBRANCH   9  11
ENDBRANCH   8   9
BRANCH   8  14
ATOM     14  O   UNL     1      12.130  17.797  27.781  1.00  0.00    -0.382 OA
ATOM     15  H   UNL     1      11.965  18.732  28.075  1.00  0.00     0.211 HD
ENDBRANCH   8  14
ENDBRANCH   1   8
BRANCH   1  16
ATOM     16  O   UNL     1      14.917  15.918  26.879  1.00  0.00    -0.387 OA
ATOM     17  H   UNL     1      14.195  15.564  26.296  1.00  0.00     0.211 HD
ENDBRANCH   1  16
TORSDOF 10
ENDMDL
MODEL 3
REMARK VINA RESULT:    -4.820      1.272      1.764
REMARK INTER + INTRA:          -8.266
REMARK INTER:                  -7.248
REMARK INTRA:                  -1.018
REMARK UNBOUND:                -1.333
REMARK SMILES O=C(CO)[C@@H](O)[C@H](O)[C@@H](O)CO
REMARK SMILES IDX 7 1 9 2 11 3 12 4 10 6 5 8 2 9 1 10 3 11 4 12 6 14 8 16
REMARK H PARENT 12 5 10 7 4 13 6 15 8 17
REMARK Flexibility Score: inf
ROOT
ATOM      1  C   UNL     1      13.878  15.183  27.223  1.00  0.00     0.181 C 
ENDROOT
BRANCH   1   2
ATOM      2  C   UNL     1      15.001  15.699  28.163  1.00  0.00     0.171 C 
BRANCH   2   3
ATOM      3  C   UNL     1      15.243  14.828  29.410  1.00  0.00     0.190 C 
BRANCH   3   4
ATOM      4  O   UNL     1      14.030  14.361  29.938  1.00  0.00    -0.394 OA
ATOM      5  H   UNL     1      14.082  14.459  30.924  1.00  0.00     0.210 HD
ENDBRANCH   3   4
ENDBRANCH   2   3
BRANCH   2   6
ATOM      6  O   UNL     1      14.704  17.014  28.559  1.00  0.00    -0.388 OA
ATOM      7  H   UNL     1      13.735  17.158  28.390  1.00  0.00     0.211 HD
ENDBRANCH   2   6
ENDBRANCH   1   2
BRANCH   1   8
ATOM      8  C   UNL     1      13.910  15.808  25.807  1.00  0.00     0.214 C 
BRANCH   8   9
ATOM      9  C   UNL     1      12.865  16.896  25.689  1.00  0.00     0.189 C 
ATOM     10  O   UNL     1      12.901  17.853  26.448  1.00  0.00    -0.294 OA
BRANCH   9  11
ATOM     11  C   UNL     1      11.775  16.825  24.653  1.00  0.00     0.234 C 
BRANCH  11  12
ATOM     12  O   UNL     1      11.729  15.543  24.088  1.00  0.00    -0.388 OA
ATOM     13  H   UNL     1      10.879  15.129  24.388  1.00  0.00     0.211 HD
ENDBRANCH  11  12
ENDBRANCH   9  11
ENDBRANCH   8   9
BRANCH   8  14
ATOM     14  O   UNL     1      15.176  16.356  25.545  1.00  0.00    -0.382 OA
ATOM     15  H   UNL     1      15.102  16.854  24.688  1.00  0.00     0.211 HD
ENDBRANCH   8  14
ENDBRANCH   1   8
BRANCH   1  16
ATOM     16  O   UNL     1      12.613  15.382  27.805  1.00  0.00    -0.387 OA
ATOM     17  H   UNL     1      11.990  14.744  27.368  1.00  0.00     0.211 HD
ENDBRANCH   1  16
TORSDOF 10
ENDMDL
MODEL 4
REMARK VINA RESULT:    -4.692      1.378      4.136
REMARK INTER + INTRA:          -8.082
REMARK INTER:                  -7.081
REMARK INTRA:                  -1.001
REMARK UNBOUND:                -1.333
REMARK SMILES O=C(CO)[C@@H](O)[C@H](O)[C@@H](O)CO
REMARK SMILES IDX 7 1 9 2 11 3 12 4 10 6 5 8 2 9 1 10 3 11 4 12 6 14 8 16
REMARK H PARENT 12 5 10 7 4 13 6 15 8 17
REMARK Flexibility Score: inf
ROOT
ATOM      1  C   UNL     1      12.673  15.670  26.580  1.00  0.00     0.181 C 
ENDROOT
BRANCH   1   2
ATOM      2  C   UNL     1      12.276  17.005  25.893  1.00  0.00     0.171 C 
BRANCH   2   3
ATOM      3  C   UNL     1      11.898  16.871  24.406  1.00  0.00     0.190 C 
BRANCH   3   4
ATOM      4  O   UNL     1      11.704  15.526  24.056  1.00  0.00    -0.394 OA
ATOM      5  H   UNL     1      12.318  14.987  24.618  1.00  0.00     0.210 HD
ENDBRANCH   3   4
ENDBRANCH   2   3
BRANCH   2   6
ATOM      6  O   UNL     1      13.328  17.925  26.030  1.00  0.00    -0.388 OA
ATOM      7  H   UNL     1      12.940  18.759  26.405  1.00  0.00     0.211 HD
ENDBRANCH   2   6
ENDBRANCH   1   2
BRANCH   1   8
ATOM      8  C   UNL     1      13.048  15.822  28.074  1.00  0.00     0.214 C 
BRANCH   8   9
ATOM      9  C   UNL     1      14.546  15.708  28.255  1.00  0.00     0.189 C 
ATOM     10  O   UNL     1      15.283  16.522  27.719  1.00  0.00    -0.294 OA
BRANCH   9  11
ATOM     11  C   UNL     1      15.152  14.607  29.083  1.00  0.00     0.234 C 
BRANCH  11  12
ATOM     12  O   UNL     1      14.229  14.156  30.037  1.00  0.00    -0.388 OA
ATOM     13  H   UNL     1      13.617  14.916  30.223  1.00  0.00     0.211 HD
ENDBRANCH  11  12
ENDBRANCH   9  11
ENDBRANCH   8   9
BRANCH   8  14
ATOM     14  O   UNL     1      12.620  17.069  28.559  1.00  0.00    -0.382 OA
ATOM     15  H   UNL     1      12.613  17.004  29.551  1.00  0.00     0.211 HD
ENDBRANCH   8  14
ENDBRANCH   1   8
BRANCH   1  16
ATOM     16  O   UNL     1      13.724  15.047  25.884  1.00  0.00    -0.387 OA
ATOM     17  H   UNL     1      14.511  15.044  26.490  1.00  0.00     0.211 HD
ENDBRANCH   1  16
TORSDOF 10
ENDMDL
MODEL 5
REMARK VINA RESULT:    -4.687      1.438      4.086
REMARK INTER + INTRA:          -8.075
REMARK INTER:                  -6.965
REMARK INTRA:                  -1.110
REMARK UNBOUND:                -1.333
REMARK SMILES O=C(CO)[C@@H](O)[C@H](O)[C@@H](O)CO
REMARK SMILES IDX 7 1 9 2 11 3 12 4 10 6 5 8 2 9 1 10 3 11 4 12 6 14 8 16
REMARK H PARENT 12 5 10 7 4 13 6 15 8 17
REMARK Flexibility Score: inf
ROOT
ATOM      1  C   UNL     1      13.833  16.479  25.725  1.00  0.00     0.181 C 
ENDROOT
BRANCH   1   2
ATOM      2  C   UNL     1      12.657  16.620  24.722  1.00  0.00     0.171 C 
BRANCH   2   3
ATOM      3  C   UNL     1      11.529  17.561  25.186  1.00  0.00     0.190 C 
BRANCH   3   4
ATOM      4  O   UNL     1      11.276  17.403  26.557  1.00  0.00    -0.394 OA
ATOM      5  H   UNL     1      10.703  18.161  26.838  1.00  0.00     0.210 HD
ENDBRANCH   3   4
ENDBRANCH   2   3
BRANCH   2   6
ATOM      6  O   UNL     1      12.126  15.348  24.451  1.00  0.00    -0.388 OA
ATOM      7  H   UNL     1      12.245  14.801  25.272  1.00  0.00     0.211 HD
ENDBRANCH   2   6
ENDBRANCH   1   2
BRANCH   1   8
ATOM      8  C   UNL     1      13.722  15.243  26.651  1.00  0.00     0.214 C 
BRANCH   8   9
ATOM      9  C   UNL     1      14.452  15.494  27.952  1.00  0.00     0.189 C 
ATOM     10  O   UNL     1      15.673  15.549  27.958  1.00  0.00    -0.294 OA
BRANCH   9  11
ATOM     11  C   UNL     1      13.705  15.676  29.246  1.00  0.00     0.234 C 
BRANCH  11  12
ATOM     12  O   UNL     1      12.848  16.782  29.157  1.00  0.00    -0.388 OA
ATOM     13  H   UNL     1      12.868  17.083  28.211  1.00  0.00     0.211 HD
ENDBRANCH  11  12
ENDBRANCH   9  11
ENDBRANCH   8   9
BRANCH   8  14
ATOM     14  O   UNL     1      12.374  14.960  26.926  1.00  0.00    -0.382 OA
ATOM     15  H   UNL     1      11.899  14.946  26.054  1.00  0.00     0.211 HD
ENDBRANCH   8  14
ENDBRANCH   1   8
BRANCH   1  16
ATOM     16  O   UNL     1      13.969  17.645  26.498  1.00  0.00    -0.387 OA
ATOM     17  H   UNL     1      14.571  18.256  25.998  1.00  0.00     0.211 HD
ENDBRANCH   1  16
TORSDOF 10
ENDMDL
MODEL 6
REMARK VINA RESULT:    -4.590      1.091      4.515
REMARK INTER + INTRA:          -7.935
REMARK INTER:                  -6.949
REMARK INTRA:                  -0.987
REMARK UNBOUND:                -1.333
REMARK SMILES O=C(CO)[C@@H](O)[C@H](O)[C@@H](O)CO
REMARK SMILES IDX 7 1 9 2 11 3 12 4 10 6 5 8 2 9 1 10 3 11 4 12 6 14 8 16
REMARK H PARENT 12 5 10 7 4 13 6 15 8 17
REMARK Flexibility Score: inf
ROOT
ATOM      1  C   UNL     1      13.086  17.212  25.343  1.00  0.00     0.181 C 
ENDROOT
BRANCH   1   2
ATOM      2  C   UNL     1      12.702  16.694  23.931  1.00  0.00     0.171 C 
BRANCH   2   3
ATOM      3  C   UNL     1      12.222  17.786  22.957  1.00  0.00     0.190 C 
BRANCH   3   4
ATOM      4  O   UNL     1      11.434  17.236  21.935  1.00  0.00    -0.394 OA
ATOM      5  H   UNL     1      11.581  17.786  21.123  1.00  0.00     0.210 HD
ENDBRANCH   3   4
ENDBRANCH   2   3
BRANCH   2   6
ATOM      6  O   UNL     1      11.710  15.707  24.056  1.00  0.00    -0.388 OA
ATOM      7  H   UNL     1      11.449  15.674  25.014  1.00  0.00     0.211 HD
ENDBRANCH   2   6
ENDBRANCH   1   2
BRANCH   1   8
ATOM      8  C   UNL     1      14.182  16.371  26.042  1.00  0.00     0.214 C 
BRANCH   8   9
ATOM      9  C   UNL     1      14.089  16.530  27.544  1.00  0.00     0.189 C 
ATOM     10  O   UNL     1      14.347  17.610  28.054  1.00  0.00    -0.294 OA
BRANCH   9  11
ATOM     11  C   UNL     1      13.685  15.382  28.429  1.00  0.00     0.234 C 
BRANCH  11  12
ATOM     12  O   UNL     1      12.352  15.027  28.181  1.00  0.00    -0.388 OA
ATOM     13  H   UNL     1      12.282  14.050  28.341  1.00  0.00     0.211 HD
ENDBRANCH  11  12
ENDBRANCH   9  11
ENDBRANCH   8   9
BRANCH   8  14
ATOM     14  O   UNL     1      14.038  15.013  25.714  1.00  0.00    -0.382 OA
ATOM     15  H   UNL     1      13.543  14.587  26.463  1.00  0.00     0.211 HD
ENDBRANCH   8  14
ENDBRANCH   1   8
BRANCH   1  16
ATOM     16  O   UNL     1      11.951  17.298  26.167  1.00  0.00    -0.387 OA
ATOM     17  H   UNL     1      11.663  18.248  26.167  1.00  0.00     0.211 HD
ENDBRANCH   1  16
TORSDOF 10
ENDMDL
MODEL 7
REMARK VINA RESULT:    -4.532      1.434      4.388
REMARK INTER + INTRA:          -7.852
REMARK INTER:                  -7.274
REMARK INTRA:                  -0.578
REMARK UNBOUND:                -1.333
REMARK SMILES O=C(CO)[C@@H](O)[C@H](O)[C@@H](O)CO
REMARK SMILES IDX 7 1 9 2 11 3 12 4 10 6 5 8 2 9 1 10 3 11 4 12 6 14 8 16
REMARK H PARENT 12 5 10 7 4 13 6 15 8 17
REMARK Flexibility Score: inf
ROOT
ATOM      1  C   UNL     1      13.332  16.906  27.141  1.00  0.00     0.181 C 
ENDROOT
BRANCH   1   2
ATOM      2  C   UNL     1      13.425  17.070  25.600  1.00  0.00     0.171 C 
BRANCH   2   3
ATOM      3  C   UNL     1      12.120  16.756  24.843  1.00  0.00     0.190 C 
BRANCH   3   4
ATOM      4  O   UNL     1      12.114  15.432  24.381  1.00  0.00    -0.394 OA
ATOM      5  H   UNL     1      11.781  14.865  25.123  1.00  0.00     0.210 HD
ENDBRANCH   3   4
ENDBRANCH   2   3
BRANCH   2   6
ATOM      6  O   UNL     1      14.459  16.255  25.110  1.00  0.00    -0.388 OA
ATOM      7  H   UNL     1      14.285  15.333  25.438  1.00  0.00     0.211 HD
ENDBRANCH   2   6
ENDBRANCH   1   2
BRANCH   1   8
ATOM      8  C   UNL     1      13.515  15.447  27.627  1.00  0.00     0.214 C 
BRANCH   8   9
ATOM      9  C   UNL     1      14.821  15.303  28.378  1.00  0.00     0.189 C 
ATOM     10  O   UNL     1      15.876  15.519  27.800  1.00  0.00    -0.294 OA
BRANCH   9  11
ATOM     11  C   UNL     1      14.850  14.895  29.826  1.00  0.00     0.234 C 
BRANCH  11  12
ATOM     12  O   UNL     1      14.687  13.507  29.940  1.00  0.00    -0.388 OA
ATOM     13  H   UNL     1      14.086  13.229  29.200  1.00  0.00     0.211 HD
ENDBRANCH  11  12
ENDBRANCH   9  11
ENDBRANCH   8   9
BRANCH   8  14
ATOM     14  O   UNL     1      12.456  15.079  28.472  1.00  0.00    -0.382 OA
ATOM     15  H   UNL     1      12.730  15.316  29.398  1.00  0.00     0.211 HD
ENDBRANCH   8  14
ENDBRANCH   1   8
BRANCH   1  16
ATOM     16  O   UNL     1      12.117  17.422  27.624  1.00  0.00    -0.387 OA
ATOM     17  H   UNL     1      11.413  16.755  27.408  1.00  0.00     0.211 HD
ENDBRANCH   1  16
TORSDOF 10
ENDMDL
MODEL 8
REMARK VINA RESULT:    -4.198      1.263      2.116
REMARK INTER + INTRA:          -7.372
REMARK INTER:                  -6.587
REMARK INTRA:                  -0.784
REMARK UNBOUND:                -1.333
REMARK SMILES O=C(CO)[C@@H](O)[C@H](O)[C@@H](O)CO
REMARK SMILES IDX 7 1 9 2 11 3 12 4 10 6 5 8 2 9 1 10 3 11 4 12 6 14 8 16
REMARK H PARENT 12 5 10 7 4 13 6 15 8 17
REMARK Flexibility Score: inf
ROOT
ATOM      1  C   UNL     1      12.621  16.823  26.357  1.00  0.00     0.181 C 
ENDROOT
BRANCH   1   2
ATOM      2  C   UNL     1      13.586  15.764  26.955  1.00  0.00     0.171 C 
BRANCH   2   3
ATOM      3  C   UNL     1      13.829  15.902  28.469  1.00  0.00     0.190 C 
BRANCH   3   4
ATOM      4  O   UNL     1      14.150  17.226  28.807  1.00  0.00    -0.394 OA
ATOM      5  H   UNL     1      14.758  17.189  29.589  1.00  0.00     0.210 HD
ENDBRANCH   3   4
ENDBRANCH   2   3
BRANCH   2   6
ATOM      6  O   UNL     1      14.813  15.822  26.274  1.00  0.00    -0.388 OA
ATOM      7  H   UNL     1      14.763  16.589  25.644  1.00  0.00     0.211 HD
ENDBRANCH   2   6
ENDBRANCH   1   2
BRANCH   1   8
ATOM      8  C   UNL     1      12.206  16.537  24.893  1.00  0.00     0.214 C 
BRANCH   8   9
ATOM      9  C   UNL     1      13.049  17.353  23.938  1.00  0.00     0.189 C 
ATOM     10  O   UNL     1      14.236  17.524  24.176  1.00  0.00    -0.294 OA
BRANCH   9  11
ATOM     11  C   UNL     1      12.457  17.964  22.696  1.00  0.00     0.234 C 
BRANCH  11  12
ATOM     12  O   UNL     1      11.497  17.102  22.146  1.00  0.00    -0.388 OA
ATOM     13  H   UNL     1      10.612  17.520  22.311  1.00  0.00     0.211 HD
ENDBRANCH  11  12
ENDBRANCH   9  11
ENDBRANCH   8   9
BRANCH   8  14
ATOM     14  O   UNL     1      12.366  15.174  24.599  1.00  0.00    -0.382 OA
ATOM     15  H   UNL     1      11.927  15.015  23.722  1.00  0.00     0.211 HD
ENDBRANCH   8  14
ENDBRANCH   1   8
BRANCH   1  16
ATOM     16  O   UNL     1      13.176  18.112  26.453  1.00  0.00    -0.387 OA
ATOM     17  H   UNL     1      12.835  18.512  27.296  1.00  0.00     0.211 HD
ENDBRANCH   1  16
TORSDOF 10
ENDMDL
MODEL 9
REMARK VINA RESULT:    -3.969      1.249      2.229
REMARK INTER + INTRA:          -7.043
REMARK INTER:                  -6.608
REMARK INTRA:                  -0.435
REMARK UNBOUND:                -1.333
REMARK SMILES O=C(CO)[C@@H](O)[C@H](O)[C@@H](O)CO
REMARK SMILES IDX 7 1 9 2 11 3 12 4 10 6 5 8 2 9 1 10 3 11 4 12 6 14 8 16
REMARK H PARENT 12 5 10 7 4 13 6 15 8 17
REMARK Flexibility Score: inf
ROOT
ATOM      1  C   UNL     1      12.410  16.201  26.675  1.00  0.00     0.181 C 
ENDROOT
BRANCH   1   2
ATOM      2  C   UNL     1      13.598  16.573  27.602  1.00  0.00     0.171 C 
BRANCH   2   3
ATOM      3  C   UNL     1      13.713  15.711  28.873  1.00  0.00     0.190 C 
BRANCH   3   4
ATOM      4  O   UNL     1      12.702  16.033  29.791  1.00  0.00    -0.394 OA
ATOM      5  H   UNL     1      12.491  15.207  30.296  1.00  0.00     0.210 HD
ENDBRANCH   3   4
ENDBRANCH   2   3
BRANCH   2   6
ATOM      6  O   UNL     1      13.498  17.927  27.960  1.00  0.00    -0.388 OA
ATOM      7  H   UNL     1      13.999  18.448  27.278  1.00  0.00     0.211 HD
ENDBRANCH   2   6
ENDBRANCH   1   2
BRANCH   1   8
ATOM      8  C   UNL     1      12.840  15.712  25.270  1.00  0.00     0.214 C 
BRANCH   8   9
ATOM      9  C   UNL     1      12.954  16.883  24.319  1.00  0.00     0.189 C 
ATOM     10  O   UNL     1      12.167  16.985  23.389  1.00  0.00    -0.294 OA
BRANCH   9  11
ATOM     11  C   UNL     1      14.022  17.930  24.491  1.00  0.00     0.234 C 
BRANCH  11  12
ATOM     12  O   UNL     1      15.286  17.326  24.542  1.00  0.00    -0.388 OA
ATOM     13  H   UNL     1      15.151  16.364  24.338  1.00  0.00     0.211 HD
ENDBRANCH  11  12
ENDBRANCH   9  11
ENDBRANCH   8   9
BRANCH   8  14
ATOM     14  O   UNL     1      14.078  15.055  25.341  1.00  0.00    -0.382 OA
ATOM     15  H   UNL     1      14.014  14.255  24.754  1.00  0.00     0.211 HD
ENDBRANCH   8  14
ENDBRANCH   1   8
BRANCH   1  16
ATOM     16  O   UNL     1      11.517  17.280  26.554  1.00  0.00    -0.387 OA
ATOM     17  H   UNL     1      11.965  18.072  26.951  1.00  0.00     0.211 HD
ENDBRANCH   1  16
TORSDOF 10
ENDMDL
