MODEL 1
REMARK VINA RESULT:    -3.593      0.000      0.000
REMARK INTER + INTRA:          -4.068
REMARK INTER:                  -3.803
REMARK INTRA:                  -0.266
REMARK UNBOUND:                -0.266
REMARK SMILES O=c1cc(-c2ccccc2)oc2ccccc12
REMARK SMILES IDX 4 1 3 2 2 3 1 4 17 5 16 6 15 7 14 8 13 9 12 10 11 11 5 12
REMARK SMILES IDX 8 13 7 14 9 15 6 16 10 17
REMARK H PARENT
REMARK Flexibility Score: inf
ROOT
ATOM      1  C   UNL     1      10.057 -32.890  14.189  1.00  0.00     0.138 A 
ATOM      2  C   UNL     1       9.128 -32.223  15.015  1.00  0.00     0.100 A 
ATOM      3  C   UNL     1       7.831 -32.725  15.137  1.00  0.00     0.193 A 
ATOM      4  O   UNL     1       7.000 -32.128  15.875  1.00  0.00    -0.289 OA
ATOM      5  C   UNL     1       7.471 -33.886  14.439  1.00  0.00     0.065 A 
ATOM      6  C   UNL     1       6.182 -34.445  14.519  1.00  0.00     0.016 A 
ATOM      7  C   UNL     1       5.875 -35.605  13.800  1.00  0.00     0.001 A 
ATOM      8  C   UNL     1       6.848 -36.213  13.002  1.00  0.00     0.004 A 
ATOM      9  C   UNL     1       8.130 -35.666  12.917  1.00  0.00     0.048 A 
ATOM     10  C   UNL     1       8.448 -34.505  13.631  1.00  0.00     0.138 A 
ATOM     11  O   UNL     1       9.671 -33.992  13.544  1.00  0.00    -0.456 OA
ENDROOT
BRANCH   1  12
ATOM     12  C   UNL     1      11.464 -32.421  14.003  1.00  0.00     0.017 A 
ATOM     13  C   UNL     1      14.139 -31.614  13.598  1.00  0.00     0.000 A 
ATOM     14  C   UNL     1      13.686 -32.823  13.069  1.00  0.00     0.001 A 
ATOM     15  C   UNL     1      13.269 -30.805  14.326  1.00  0.00     0.001 A 
ATOM     16  C   UNL     1      12.362 -33.224  13.268  1.00  0.00     0.012 A 
ATOM     17  C   UNL     1      11.942 -31.198  14.530  1.00  0.00     0.012 A 
ENDBRANCH   1  12
TORSDOF 1
ENDMDL
MODEL 2
REMARK VINA RESULT:    -3.476      2.266      6.153
REMARK INTER + INTRA:          -3.945
REMARK INTER:                  -3.687
REMARK INTRA:                  -0.257
REMARK UNBOUND:                -0.266
REMARK SMILES O=c1cc(-c2ccccc2)oc2ccccc12
REMARK SMILES IDX 4 1 3 2 2 3 1 4 17 5 16 6 15 7 14 8 13 9 12 10 11 11 5 12
REMARK SMILES IDX 8 13 7 14 9 15 6 16 10 17
REMARK H PARENT
REMARK Flexibility Score: inf
ROOT
ATOM      1  C   UNL     1       8.305 -33.811  15.142  1.00  0.00     0.138 A 
ATOM      2  C   UNL     1       9.296 -33.189  14.354  1.00  0.00     0.100 A 
ATOM      3  C   UNL     1      10.037 -32.132  14.887  1.00  0.00     0.193 A 
ATOM      4  O   UNL     1      10.923 -31.576  14.181  1.00  0.00    -0.289 OA
ATOM      5  C   UNL     1       9.787 -31.705  16.197  1.00  0.00     0.065 A 
ATOM      6  C   UNL     1      10.498 -30.648  16.795  1.00  0.00     0.016 A 
ATOM      7  C   UNL     1      10.208 -30.262  18.107  1.00  0.00     0.001 A 
ATOM      8  C   UNL     1       9.212 -30.924  18.830  1.00  0.00     0.004 A 
ATOM      9  C   UNL     1       8.501 -31.975  18.246  1.00  0.00     0.048 A 
ATOM     10  C   UNL     1       8.782 -32.370  16.933  1.00  0.00     0.138 A 
ATOM     11  O   UNL     1       8.101 -33.371  16.385  1.00  0.00    -0.456 OA
ENDROOT
BRANCH   1  12
ATOM     12  C   UNL     1       7.467 -34.947  14.650  1.00  0.00     0.017 A 
ATOM     13  C   UNL     1       5.875 -37.123  13.813  1.00  0.00     0.000 A 
ATOM     14  C   UNL     1       6.169 -36.951  15.166  1.00  0.00     0.001 A 
ATOM     15  C   UNL     1       6.369 -36.217  12.875  1.00  0.00     0.001 A 
ATOM     16  C   UNL     1       6.957 -35.875  15.583  1.00  0.00     0.012 A 
ATOM     17  C   UNL     1       7.158 -35.137  13.283  1.00  0.00     0.012 A 
ENDBRANCH   1  12
TORSDOF 1
ENDMDL
MODEL 3
REMARK VINA RESULT:    -3.204      1.390      2.400
REMARK INTER + INTRA:          -3.657
REMARK INTER:                  -3.399
REMARK INTRA:                  -0.258
REMARK UNBOUND:                -0.266
REMARK SMILES O=c1cc(-c2ccccc2)oc2ccccc12
REMARK SMILES IDX 4 1 3 2 2 3 1 4 17 5 16 6 15 7 14 8 13 9 12 10 11 11 5 12
REMARK SMILES IDX 8 13 7 14 9 15 6 16 10 17
REMARK H PARENT
REMARK Flexibility Score: inf
ROOT
ATOM      1  C   UNL     1      10.630 -33.226  13.549  1.00  0.00     0.138 A 
ATOM      2  C   UNL     1      10.725 -34.612  13.308  1.00  0.00     0.100 A 
ATOM      3  C   UNL     1       9.563 -35.355  13.091  1.00  0.00     0.193 A 
ATOM      4  O   UNL     1       9.649 -36.596  12.876  1.00  0.00    -0.289 OA
ATOM      5  C   UNL     1       8.318 -34.713  13.116  1.00  0.00     0.065 A 
ATOM      6  C   UNL     1       7.109 -35.402  12.904  1.00  0.00     0.016 A 
ATOM      7  C   UNL     1       5.894 -34.712  12.940  1.00  0.00     0.001 A 
ATOM      8  C   UNL     1       5.875 -33.335  13.184  1.00  0.00     0.004 A 
ATOM      9  C   UNL     1       7.070 -32.643  13.395  1.00  0.00     0.048 A 
ATOM     10  C   UNL     1       8.292 -33.323  13.362  1.00  0.00     0.138 A 
ATOM     11  O   UNL     1       9.423 -32.656  13.563  1.00  0.00    -0.456 OA
ENDROOT
BRANCH   1  12
ATOM     12  C   UNL     1      11.822 -32.357  13.790  1.00  0.00     0.017 A 
ATOM     13  C   UNL     1      14.127 -30.778  14.192  1.00  0.00     0.000 A 
ATOM     14  C   UNL     1      14.208 -31.956  13.450  1.00  0.00     0.001 A 
ATOM     15  C   UNL     1      12.906 -30.381  14.735  1.00  0.00     0.001 A 
ATOM     16  C   UNL     1      13.069 -32.739  13.249  1.00  0.00     0.012 A 
ATOM     17  C   UNL     1      11.760 -31.159  14.539  1.00  0.00     0.012 A 
ENDBRANCH   1  12
TORSDOF 1
ENDMDL
MODEL 4
REMARK VINA RESULT:    -2.698      2.570      4.180
REMARK INTER + INTRA:          -3.121
REMARK INTER:                  -2.863
REMARK INTRA:                  -0.259
REMARK UNBOUND:                -0.266
REMARK SMILES O=c1cc(-c2ccccc2)oc2ccccc12
REMARK SMILES IDX 4 1 3 2 2 3 1 4 17 5 16 6 15 7 14 8 13 9 12 10 11 11 5 12
REMARK SMILES IDX 8 13 7 14 9 15 6 16 10 17
REMARK H PARENT
REMARK Flexibility Score: inf
ROOT
ATOM      1  C   UNL     1       8.722 -33.524  15.894  1.00  0.00     0.138 A 
ATOM      2  C   UNL     1       9.635 -33.671  14.828  1.00  0.00     0.100 A 
ATOM      3  C   UNL     1       9.382 -34.612  13.829  1.00  0.00     0.193 A 
ATOM      4  O   UNL     1      10.200 -34.744  12.876  1.00  0.00    -0.289 OA
ATOM      5  C   UNL     1       8.223 -35.396  13.897  1.00  0.00     0.065 A 
ATOM      6  C   UNL     1       7.906 -36.361  12.922  1.00  0.00     0.016 A 
ATOM      7  C   UNL     1       6.736 -37.117  13.039  1.00  0.00     0.001 A 
ATOM      8  C   UNL     1       5.875 -36.917  14.122  1.00  0.00     0.004 A 
ATOM      9  C   UNL     1       6.181 -35.961  15.094  1.00  0.00     0.048 A 
ATOM     10  C   UNL     1       7.350 -35.199  14.988  1.00  0.00     0.138 A 
ATOM     11  O   UNL     1       7.631 -34.292  15.917  1.00  0.00    -0.456 OA
ENDROOT
BRANCH   1  12
ATOM     12  C   UNL     1       8.917 -32.542  17.004  1.00  0.00     0.017 A 
ATOM     13  C   UNL     1       9.233 -30.744  19.157  1.00  0.00     0.000 A 
ATOM     14  C   UNL     1       8.477 -31.905  19.321  1.00  0.00     0.001 A 
ATOM     15  C   UNL     1       9.832 -30.473  17.928  1.00  0.00     0.001 A 
ATOM     16  C   UNL     1       8.320 -32.797  18.256  1.00  0.00     0.012 A 
ATOM     17  C   UNL     1       9.680 -31.360  16.857  1.00  0.00     0.012 A 
ENDBRANCH   1  12
TORSDOF 1
ENDMDL
MODEL 5
REMARK VINA RESULT:    -2.383      1.353      5.877
REMARK INTER + INTRA:          -2.788
REMARK INTER:                  -2.559
REMARK INTRA:                  -0.229
REMARK UNBOUND:                -0.266
REMARK SMILES O=c1cc(-c2ccccc2)oc2ccccc12
REMARK SMILES IDX 4 1 3 2 2 3 1 4 17 5 16 6 15 7 14 8 13 9 12 10 11 11 5 12
REMARK SMILES IDX 8 13 7 14 9 15 6 16 10 17
REMARK H PARENT
REMARK Flexibility Score: inf
ROOT
ATOM      1  C   UNL     1       9.249 -32.880  14.369  1.00  0.00     0.138 A 
ATOM      2  C   UNL     1       9.165 -32.038  15.497  1.00  0.00     0.100 A 
ATOM      3  C   UNL     1      10.283 -31.301  15.892  1.00  0.00     0.193 A 
ATOM      4  O   UNL     1      10.207 -30.548  16.902  1.00  0.00    -0.289 OA
ATOM      5  C   UNL     1      11.473 -31.407  15.160  1.00  0.00     0.065 A 
ATOM      6  C   UNL     1      12.636 -30.691  15.503  1.00  0.00     0.016 A 
ATOM      7  C   UNL     1      13.797 -30.834  14.738  1.00  0.00     0.001 A 
ATOM      8  C   UNL     1      13.808 -31.687  13.631  1.00  0.00     0.004 A 
ATOM      9  C   UNL     1      12.659 -32.401  13.283  1.00  0.00     0.048 A 
ATOM     10  C   UNL     1      11.491 -32.267  14.041  1.00  0.00     0.138 A 
ATOM     11  O   UNL     1      10.403 -32.949  13.702  1.00  0.00    -0.456 OA
ENDROOT
BRANCH   1  12
ATOM     12  C   UNL     1       8.101 -33.703  13.878  1.00  0.00     0.017 A 
ATOM     13  C   UNL     1       5.888 -35.175  12.928  1.00  0.00     0.000 A 
ATOM     14  C   UNL     1       5.875 -33.781  12.875  1.00  0.00     0.001 A 
ATOM     15  C   UNL     1       6.996 -35.839  13.450  1.00  0.00     0.001 A 
ATOM     16  C   UNL     1       6.970 -33.050  13.345  1.00  0.00     0.012 A 
ATOM     17  C   UNL     1       8.096 -35.117  13.923  1.00  0.00     0.012 A 
ENDBRANCH   1  12
TORSDOF 1
ENDMDL
MODEL 6
REMARK VINA RESULT:    -2.055      1.679      6.342
REMARK INTER + INTRA:          -2.440
REMARK INTER:                  -2.192
REMARK INTRA:                  -0.249
REMARK UNBOUND:                -0.266
REMARK SMILES O=c1cc(-c2ccccc2)oc2ccccc12
REMARK SMILES IDX 4 1 3 2 2 3 1 4 17 5 16 6 15 7 14 8 13 9 12 10 11 11 5 12
REMARK SMILES IDX 8 13 7 14 9 15 6 16 10 17
REMARK H PARENT
REMARK Flexibility Score: inf
ROOT
ATOM      1  C   UNL     1      10.074 -32.956  14.084  1.00  0.00     0.138 A 
ATOM      2  C   UNL     1      10.757 -34.092  13.600  1.00  0.00     0.100 A 
ATOM      3  C   UNL     1      12.119 -34.003  13.308  1.00  0.00     0.193 A 
ATOM      4  O   UNL     1      12.730 -35.019  12.875  1.00  0.00    -0.289 OA
ATOM      5  C   UNL     1      12.789 -32.788  13.501  1.00  0.00     0.065 A 
ATOM      6  C   UNL     1      14.161 -32.631  13.228  1.00  0.00     0.016 A 
ATOM      7  C   UNL     1      14.780 -31.395  13.438  1.00  0.00     0.001 A 
ATOM      8  C   UNL     1      14.040 -30.312  13.921  1.00  0.00     0.004 A 
ATOM      9  C   UNL     1      12.678 -30.458  14.195  1.00  0.00     0.048 A 
ATOM     10  C   UNL     1      12.048 -31.690  13.988  1.00  0.00     0.138 A 
ATOM     11  O   UNL     1      10.752 -31.820  14.252  1.00  0.00    -0.456 OA
ENDROOT
BRANCH   1  12
ATOM     12  C   UNL     1       8.617 -32.965  14.421  1.00  0.00     0.017 A 
ATOM     13  C   UNL     1       5.886 -32.925  15.134  1.00  0.00     0.000 A 
ATOM     14  C   UNL     1       6.824 -32.260  15.923  1.00  0.00     0.001 A 
ATOM     15  C   UNL     1       6.299 -33.608  13.992  1.00  0.00     0.001 A 
ATOM     16  C   UNL     1       8.177 -32.278  15.572  1.00  0.00     0.012 A 
ATOM     17  C   UNL     1       7.651 -33.632  13.632  1.00  0.00     0.012 A 
ENDBRANCH   1  12
TORSDOF 1
ENDMDL
