MODEL 1
REMARK VINA RESULT:    -4.427      0.000      0.000
REMARK INTER + INTRA:          -4.709
REMARK INTER:                  -4.686
REMARK INTRA:                  -0.023
REMARK UNBOUND:                -0.023
REMARK SMILES O=C([O-])c1cccnc1
REMARK SMILES IDX 4 1 5 2 9 3 6 4 8 5 7 6 2 7 1 8 3 9
REMARK H PARENT
REMARK Flexibility Score: inf
ROOT
ATOM      1  C   UNL     1     -17.204  41.614  21.483  1.00  0.00     0.016 A 
ATOM      2  C   UNL     1     -16.344  42.724  21.555  1.00  0.00     0.013 A 
ATOM      3  C   UNL     1     -16.824  40.431  22.140  1.00  0.00     0.120 A 
ATOM      4  C   UNL     1     -15.147  42.638  22.267  1.00  0.00     0.021 A 
ATOM      5  N   UNL     1     -15.651  40.374  22.828  1.00  0.00    -0.264 NA
ATOM      6  C   UNL     1     -14.813  41.442  22.903  1.00  0.00     0.111 A 
ENDROOT
BRANCH   1   7
ATOM      7  C   UNL     1     -18.477  41.685  20.734  1.00  0.00     0.073 C 
ATOM      8  O   UNL     1     -19.304  40.736  20.787  1.00  0.00    -0.545 OA
ATOM      9  O   UNL     1     -18.779  42.801  19.963  1.00  0.00    -0.545 OA
ENDBRANCH   1   7
TORSDOF 1
ENDMDL
MODEL 2
REMARK VINA RESULT:    -4.376      2.704      3.734
REMARK INTER + INTRA:          -4.655
REMARK INTER:                  -4.633
REMARK INTRA:                  -0.022
REMARK UNBOUND:                -0.023
REMARK SMILES O=C([O-])c1cccnc1
REMARK SMILES IDX 4 1 5 2 9 3 6 4 8 5 7 6 2 7 1 8 3 9
REMARK H PARENT
REMARK Flexibility Score: inf
ROOT
ATOM      1  C   UNL     1     -17.368  42.211  21.095  1.00  0.00     0.016 A 
ATOM      2  C   UNL     1     -16.950  40.874  21.199  1.00  0.00     0.013 A 
ATOM      3  C   UNL     1     -18.478  42.503  20.284  1.00  0.00     0.120 A 
ATOM      4  C   UNL     1     -17.634  39.870  20.510  1.00  0.00     0.021 A 
ATOM      5  N   UNL     1     -19.126  41.506  19.623  1.00  0.00    -0.264 NA
ATOM      6  C   UNL     1     -18.731  40.209  19.718  1.00  0.00     0.111 A 
ENDROOT
BRANCH   1   7
ATOM      7  C   UNL     1     -16.658  43.289  21.817  1.00  0.00     0.073 C 
ATOM      8  O   UNL     1     -17.261  44.346  22.144  1.00  0.00    -0.545 OA
ATOM      9  O   UNL     1     -15.315  43.149  22.147  1.00  0.00    -0.545 OA
ENDBRANCH   1   7
TORSDOF 1
ENDMDL
MODEL 3
REMARK VINA RESULT:    -4.347     13.315     14.398
REMARK INTER + INTRA:          -4.625
REMARK INTER:                  -4.604
REMARK INTRA:                  -0.021
REMARK UNBOUND:                -0.023
REMARK SMILES O=C([O-])c1cccnc1
REMARK SMILES IDX 4 1 5 2 9 3 6 4 8 5 7 6 2 7 1 8 3 9
REMARK H PARENT
REMARK Flexibility Score: inf
ROOT
ATOM      1  C   UNL     1     -31.244  42.781  19.501  1.00  0.00     0.016 A 
ATOM      2  C   UNL     1     -31.118  41.770  20.469  1.00  0.00     0.013 A 
ATOM      3  C   UNL     1     -30.209  42.941  18.563  1.00  0.00     0.120 A 
ATOM      4  C   UNL     1     -29.987  40.951  20.484  1.00  0.00     0.021 A 
ATOM      5  N   UNL     1     -29.118  42.129  18.600  1.00  0.00    -0.264 NA
ATOM      6  C   UNL     1     -28.987  41.148  19.532  1.00  0.00     0.111 A 
ENDROOT
BRANCH   1   7
ATOM      7  C   UNL     1     -32.434  43.658  19.467  1.00  0.00     0.073 C 
ATOM      8  O   UNL     1     -33.015  43.992  20.534  1.00  0.00    -0.545 OA
ATOM      9  O   UNL     1     -32.928  44.128  18.255  1.00  0.00    -0.545 OA
ENDBRANCH   1   7
TORSDOF 1
ENDMDL
MODEL 4
REMARK VINA RESULT:    -4.325      2.393      3.486
REMARK INTER + INTRA:          -4.602
REMARK INTER:                  -4.580
REMARK INTRA:                  -0.022
REMARK UNBOUND:                -0.023
REMARK SMILES O=C([O-])c1cccnc1
REMARK SMILES IDX 4 1 5 2 9 3 6 4 8 5 7 6 2 7 1 8 3 9
REMARK H PARENT
REMARK Flexibility Score: inf
ROOT
ATOM      1  C   UNL     1     -17.396  42.326  21.175  1.00  0.00     0.016 A 
ATOM      2  C   UNL     1     -18.449  42.569  20.277  1.00  0.00     0.013 A 
ATOM      3  C   UNL     1     -16.996  40.996  21.393  1.00  0.00     0.120 A 
ATOM      4  C   UNL     1     -19.071  41.504  19.622  1.00  0.00     0.021 A 
ATOM      5  N   UNL     1     -17.619  39.977  20.742  1.00  0.00    -0.264 NA
ATOM      6  C   UNL     1     -18.638  40.201  19.870  1.00  0.00     0.111 A 
ENDROOT
BRANCH   1   7
ATOM      7  C   UNL     1     -16.723  43.440  21.879  1.00  0.00     0.073 C 
ATOM      8  O   UNL     1     -17.352  44.495  22.157  1.00  0.00    -0.545 OA
ATOM      9  O   UNL     1     -15.385  43.336  22.243  1.00  0.00    -0.545 OA
ENDBRANCH   1   7
TORSDOF 1
ENDMDL
MODEL 5
REMARK VINA RESULT:    -4.157     13.251     14.309
REMARK INTER + INTRA:          -4.423
REMARK INTER:                  -4.407
REMARK INTRA:                  -0.016
REMARK UNBOUND:                -0.023
REMARK SMILES O=C([O-])c1cccnc1
REMARK SMILES IDX 4 1 5 2 9 3 6 4 8 5 7 6 2 7 1 8 3 9
REMARK H PARENT
REMARK Flexibility Score: inf
ROOT
ATOM      1  C   UNL     1     -31.063  42.340  18.983  1.00  0.00     0.016 A 
ATOM      2  C   UNL     1     -29.822  42.568  19.601  1.00  0.00     0.013 A 
ATOM      3  C   UNL     1     -31.505  41.013  18.841  1.00  0.00     0.120 A 
ATOM      4  C   UNL     1     -29.058  41.493  20.059  1.00  0.00     0.021 A 
ATOM      5  N   UNL     1     -30.741  39.984  19.296  1.00  0.00    -0.264 NA
ATOM      6  C   UNL     1     -29.539  40.194  19.895  1.00  0.00     0.111 A 
ENDROOT
BRANCH   1   7
ATOM      7  C   UNL     1     -31.888  43.466  18.492  1.00  0.00     0.073 C 
ATOM      8  O   UNL     1     -31.756  43.890  17.313  1.00  0.00    -0.545 OA
ATOM      9  O   UNL     1     -32.821  44.070  19.326  1.00  0.00    -0.545 OA
ENDBRANCH   1   7
TORSDOF 1
ENDMDL
MODEL 6
REMARK VINA RESULT:    -4.088      1.148      1.583
REMARK INTER + INTRA:          -4.350
REMARK INTER:                  -4.329
REMARK INTRA:                  -0.021
REMARK UNBOUND:                -0.023
REMARK SMILES O=C([O-])c1cccnc1
REMARK SMILES IDX 4 1 5 2 9 3 6 4 8 5 7 6 2 7 1 8 3 9
REMARK H PARENT
REMARK Flexibility Score: inf
ROOT
ATOM      1  C   UNL     1     -17.569  40.913  20.886  1.00  0.00     0.016 A 
ATOM      2  C   UNL     1     -17.164  42.258  20.864  1.00  0.00     0.013 A 
ATOM      3  C   UNL     1     -16.956  40.045  21.806  1.00  0.00     0.120 A 
ATOM      4  C   UNL     1     -16.176  42.707  21.743  1.00  0.00     0.021 A 
ATOM      5  N   UNL     1     -15.996  40.508  22.651  1.00  0.00    -0.264 NA
ATOM      6  C   UNL     1     -15.597  41.807  22.639  1.00  0.00     0.111 A 
ENDROOT
BRANCH   1   7
ATOM      7  C   UNL     1     -18.614  40.418  19.963  1.00  0.00     0.073 C 
ATOM      8  O   UNL     1     -19.577  41.159  19.630  1.00  0.00    -0.545 OA
ATOM      9  O   UNL     1     -18.547  39.128  19.451  1.00  0.00    -0.545 OA
ENDBRANCH   1   7
TORSDOF 1
ENDMDL
MODEL 7
REMARK VINA RESULT:    -4.087     10.293     10.941
REMARK INTER + INTRA:          -4.349
REMARK INTER:                  -4.333
REMARK INTRA:                  -0.017
REMARK UNBOUND:                -0.023
REMARK SMILES O=C([O-])c1cccnc1
REMARK SMILES IDX 4 1 5 2 9 3 6 4 8 5 7 6 2 7 1 8 3 9
REMARK H PARENT
REMARK Flexibility Score: inf
ROOT
ATOM      1  C   UNL     1     -17.249  34.838  13.249  1.00  0.00     0.016 A 
ATOM      2  C   UNL     1     -16.892  34.967  11.896  1.00  0.00     0.013 A 
ATOM      3  C   UNL     1     -16.533  35.581  14.203  1.00  0.00     0.120 A 
ATOM      4  C   UNL     1     -15.849  35.818  11.525  1.00  0.00     0.021 A 
ATOM      5  N   UNL     1     -15.521  36.403  13.814  1.00  0.00    -0.264 NA
ATOM      6  C   UNL     1     -15.168  36.535  12.508  1.00  0.00     0.111 A 
ENDROOT
BRANCH   1   7
ATOM      7  C   UNL     1     -18.352  33.943  13.663  1.00  0.00     0.073 C 
ATOM      8  O   UNL     1     -18.189  32.694  13.683  1.00  0.00    -0.545 OA
ATOM      9  O   UNL     1     -19.583  34.469  14.036  1.00  0.00    -0.545 OA
ENDBRANCH   1   7
TORSDOF 1
ENDMDL
MODEL 8
REMARK VINA RESULT:    -4.070      4.040      4.727
REMARK INTER + INTRA:          -4.331
REMARK INTER:                  -4.315
REMARK INTRA:                  -0.016
REMARK UNBOUND:                -0.023
REMARK SMILES O=C([O-])c1cccnc1
REMARK SMILES IDX 4 1 5 2 9 3 6 4 8 5 7 6 2 7 1 8 3 9
REMARK H PARENT
REMARK Flexibility Score: inf
ROOT
ATOM      1  C   UNL     1     -16.454  45.142  22.323  1.00  0.00     0.016 A 
ATOM      2  C   UNL     1     -16.310  46.200  21.411  1.00  0.00     0.013 A 
ATOM      3  C   UNL     1     -16.632  45.450  23.683  1.00  0.00     0.120 A 
ATOM      4  C   UNL     1     -16.347  47.522  21.859  1.00  0.00     0.021 A 
ATOM      5  N   UNL     1     -16.664  46.747  24.093  1.00  0.00    -0.264 NA
ATOM      6  C   UNL     1     -16.526  47.778  23.219  1.00  0.00     0.111 A 
ENDROOT
BRANCH   1   7
ATOM      7  C   UNL     1     -16.419  43.734  21.868  1.00  0.00     0.073 C 
ATOM      8  O   UNL     1     -17.469  43.164  21.470  1.00  0.00    -0.545 OA
ATOM      9  O   UNL     1     -15.225  43.023  21.872  1.00  0.00    -0.545 OA
ENDBRANCH   1   7
TORSDOF 1
ENDMDL
MODEL 9
REMARK VINA RESULT:    -4.043      9.968     10.578
REMARK INTER + INTRA:          -4.302
REMARK INTER:                  -4.286
REMARK INTRA:                  -0.016
REMARK UNBOUND:                -0.023
REMARK SMILES O=C([O-])c1cccnc1
REMARK SMILES IDX 4 1 5 2 9 3 6 4 8 5 7 6 2 7 1 8 3 9
REMARK H PARENT
REMARK Flexibility Score: inf
ROOT
ATOM      1  C   UNL     1     -15.537  36.385  13.264  1.00  0.00     0.016 A 
ATOM      2  C   UNL     1     -16.008  35.885  12.039  1.00  0.00     0.013 A 
ATOM      3  C   UNL     1     -16.074  35.859  14.452  1.00  0.00     0.120 A 
ATOM      4  C   UNL     1     -16.986  34.888  12.018  1.00  0.00     0.021 A 
ATOM      5  N   UNL     1     -17.026  34.888  14.403  1.00  0.00    -0.264 NA
ATOM      6  C   UNL     1     -17.488  34.397  13.223  1.00  0.00     0.111 A 
ENDROOT
BRANCH   1   7
ATOM      7  C   UNL     1     -14.501  37.440  13.308  1.00  0.00     0.073 C 
ATOM      8  O   UNL     1     -13.282  37.137  13.403  1.00  0.00    -0.545 OA
ATOM      9  O   UNL     1     -14.860  38.781  13.243  1.00  0.00    -0.545 OA
ENDBRANCH   1   7
TORSDOF 1
ENDMDL
