MODEL 1
REMARK VINA RESULT:    -4.249      0.000      0.000
REMARK INTER + INTRA:          -5.950
REMARK INTER:                  -5.739
REMARK INTRA:                  -0.210
REMARK UNBOUND:                -0.210
REMARK SMILES O=C[C@H](O)[C@@H](O)[C@@H](O)CO
REMARK SMILES IDX 7 1 9 2 10 3 5 5 3 6 2 7 1 8 4 9 6 11 8 13
REMARK H PARENT 10 4 4 10 6 12 8 14
REMARK Flexibility Score: inf
ROOT
ATOM      1  C   UNL     1       4.678  30.658  34.605  1.00  0.00     0.171 C 
ENDROOT
BRANCH   1   2
ATOM      2  C   UNL     1       5.448  31.010  33.318  1.00  0.00     0.190 C 
BRANCH   2   3
ATOM      3  O   UNL     1       5.579  32.401  33.213  1.00  0.00    -0.394 OA
ATOM      4  H   UNL     1       5.118  32.660  32.373  1.00  0.00     0.210 HD
ENDBRANCH   2   3
ENDBRANCH   1   2
BRANCH   1   5
ATOM      5  C   UNL     1       3.207  30.214  34.362  1.00  0.00     0.181 C 
BRANCH   5   6
ATOM      6  C   UNL     1       2.762  30.361  32.884  1.00  0.00     0.209 C 
BRANCH   6   7
ATOM      7  C   UNL     1       1.658  31.378  32.741  1.00  0.00     0.258 C 
ATOM      8  O   UNL     1       1.883  32.558  32.960  1.00  0.00    -0.300 OA
ENDBRANCH   6   7
BRANCH   6   9
ATOM      9  O   UNL     1       2.359  29.132  32.333  1.00  0.00    -0.383 OA
ATOM     10  H   UNL     1       2.992  28.900  31.605  1.00  0.00     0.211 HD
ENDBRANCH   6   9
ENDBRANCH   5   6
BRANCH   5  11
ATOM     11  O   UNL     1       3.003  28.892  34.799  1.00  0.00    -0.387 OA
ATOM     12  H   UNL     1       2.876  28.924  35.783  1.00  0.00     0.211 HD
ENDBRANCH   5  11
ENDBRANCH   1   5
BRANCH   1  13
ATOM     13  O   UNL     1       5.364  29.668  35.330  1.00  0.00    -0.388 OA
ATOM     14  H   UNL     1       6.063  30.118  35.872  1.00  0.00     0.211 HD
ENDBRANCH   1  13
TORSDOF 8
ENDMDL
MODEL 2
REMARK VINA RESULT:    -4.223      1.340      3.058
REMARK INTER + INTRA:          -5.915
REMARK INTER:                  -5.068
REMARK INTRA:                  -0.847
REMARK UNBOUND:                -0.210
REMARK SMILES O=C[C@H](O)[C@@H](O)[C@@H](O)CO
REMARK SMILES IDX 7 1 9 2 10 3 5 5 3 6 2 7 1 8 4 9 6 11 8 13
REMARK H PARENT 10 4 4 10 6 12 8 14
REMARK Flexibility Score: inf
ROOT
ATOM      1  C   UNL     1       3.509  29.778  32.362  1.00  0.00     0.171 C 
ENDROOT
BRANCH   1   2
ATOM      2  C   UNL     1       4.574  30.326  31.392  1.00  0.00     0.190 C 
BRANCH   2   3
ATOM      3  O   UNL     1       5.700  30.741  32.115  1.00  0.00    -0.394 OA
ATOM      4  H   UNL     1       6.219  29.919  32.314  1.00  0.00     0.210 HD
ENDBRANCH   2   3
ENDBRANCH   1   2
BRANCH   1   5
ATOM      5  C   UNL     1       2.760  30.878  33.168  1.00  0.00     0.181 C 
BRANCH   5   6
ATOM      6  C   UNL     1       2.736  30.606  34.695  1.00  0.00     0.209 C 
BRANCH   6   7
ATOM      7  C   UNL     1       3.872  31.307  35.395  1.00  0.00     0.258 C 
ATOM      8  O   UNL     1       5.028  31.009  35.135  1.00  0.00    -0.300 OA
ENDBRANCH   6   7
BRANCH   6   9
ATOM      9  O   UNL     1       2.768  29.230  34.983  1.00  0.00    -0.383 OA
ATOM     10  H   UNL     1       3.650  28.877  34.695  1.00  0.00     0.211 HD
ENDBRANCH   6   9
ENDBRANCH   5   6
BRANCH   5  11
ATOM     11  O   UNL     1       3.307  32.149  32.912  1.00  0.00    -0.387 OA
ATOM     12  H   UNL     1       2.948  32.453  32.038  1.00  0.00     0.211 HD
ENDBRANCH   5  11
ENDBRANCH   1   5
BRANCH   1  13
ATOM     13  O   UNL     1       2.583  28.977  31.670  1.00  0.00    -0.388 OA
ATOM     14  H   UNL     1       3.095  28.363  31.081  1.00  0.00     0.211 HD
ENDBRANCH   1  13
TORSDOF 8
ENDMDL
MODEL 3
REMARK VINA RESULT:    -4.141      1.876      3.263
REMARK INTER + INTRA:          -5.805
REMARK INTER:                  -4.833
REMARK INTRA:                  -0.972
REMARK UNBOUND:                -0.210
REMARK SMILES O=C[C@H](O)[C@@H](O)[C@@H](O)CO
REMARK SMILES IDX 7 1 9 2 10 3 5 5 3 6 2 7 1 8 4 9 6 11 8 13
REMARK H PARENT 10 4 4 10 6 12 8 14
REMARK Flexibility Score: inf
ROOT
ATOM      1  C   UNL     1       4.397  30.543  31.803  1.00  0.00     0.171 C 
ENDROOT
BRANCH   1   2
ATOM      2  C   UNL     1       3.315  29.470  32.033  1.00  0.00     0.190 C 
BRANCH   2   3
ATOM      3  O   UNL     1       2.318  29.981  32.875  1.00  0.00    -0.394 OA
ATOM      4  H   UNL     1       2.782  30.292  33.696  1.00  0.00     0.210 HD
ENDBRANCH   2   3
ENDBRANCH   1   2
BRANCH   1   5
ATOM      5  C   UNL     1       5.080  31.045  33.107  1.00  0.00     0.181 C 
BRANCH   5   6
ATOM      6  C   UNL     1       4.492  32.383  33.628  1.00  0.00     0.209 C 
BRANCH   6   7
ATOM      7  C   UNL     1       4.013  32.254  35.051  1.00  0.00     0.258 C 
ATOM      8  O   UNL     1       2.960  31.684  35.292  1.00  0.00    -0.300 OA
ENDBRANCH   6   7
BRANCH   6   9
ATOM      9  O   UNL     1       3.451  32.852  32.808  1.00  0.00    -0.383 OA
ATOM     10  H   UNL     1       3.789  33.636  32.302  1.00  0.00     0.211 HD
ENDBRANCH   6   9
ENDBRANCH   5   6
BRANCH   5  11
ATOM     11  O   UNL     1       5.019  30.065  34.115  1.00  0.00    -0.387 OA
ATOM     12  H   UNL     1       4.464  29.319  33.768  1.00  0.00     0.211 HD
ENDBRANCH   5  11
ENDBRANCH   1   5
BRANCH   1  13
ATOM     13  O   UNL     1       5.370  30.071  30.904  1.00  0.00    -0.388 OA
ATOM     14  H   UNL     1       4.977  30.094  29.993  1.00  0.00     0.211 HD
ENDBRANCH   1  13
TORSDOF 8
ENDMDL
MODEL 4
REMARK VINA RESULT:    -4.141      2.026      2.596
REMARK INTER + INTRA:          -5.804
REMARK INTER:                  -5.253
REMARK INTRA:                  -0.551
REMARK UNBOUND:                -0.210
REMARK SMILES O=C[C@H](O)[C@@H](O)[C@@H](O)CO
REMARK SMILES IDX 7 1 9 2 10 3 5 5 3 6 2 7 1 8 4 9 6 11 8 13
REMARK H PARENT 10 4 4 10 6 12 8 14
REMARK Flexibility Score: inf
ROOT
ATOM      1  C   UNL     1       4.348  30.546  31.968  1.00  0.00     0.171 C 
ENDROOT
BRANCH   1   2
ATOM      2  C   UNL     1       4.579  29.676  30.717  1.00  0.00     0.190 C 
BRANCH   2   3
ATOM      3  O   UNL     1       5.216  30.435  29.727  1.00  0.00    -0.394 OA
ATOM      4  H   UNL     1       6.187  30.384  29.921  1.00  0.00     0.210 HD
ENDBRANCH   2   3
ENDBRANCH   1   2
BRANCH   1   5
ATOM      5  C   UNL     1       3.348  29.934  32.989  1.00  0.00     0.181 C 
BRANCH   5   6
ATOM      6  C   UNL     1       2.727  30.989  33.943  1.00  0.00     0.209 C 
BRANCH   6   7
ATOM      7  C   UNL     1       2.050  32.094  33.173  1.00  0.00     0.258 C 
ATOM      8  O   UNL     1       0.978  31.888  32.625  1.00  0.00    -0.300 OA
ENDBRANCH   6   7
BRANCH   6   9
ATOM      9  O   UNL     1       3.684  31.529  34.820  1.00  0.00    -0.383 OA
ATOM     10  H   UNL     1       3.231  32.207  35.386  1.00  0.00     0.211 HD
ENDBRANCH   6   9
ENDBRANCH   5   6
BRANCH   5  11
ATOM     11  O   UNL     1       2.329  29.221  32.330  1.00  0.00    -0.387 OA
ATOM     12  H   UNL     1       2.440  29.382  31.357  1.00  0.00     0.211 HD
ENDBRANCH   5  11
ENDBRANCH   1   5
BRANCH   1  13
ATOM     13  O   UNL     1       5.572  30.822  32.603  1.00  0.00    -0.388 OA
ATOM     14  H   UNL     1       5.425  31.579  33.229  1.00  0.00     0.211 HD
ENDBRANCH   1  13
TORSDOF 8
ENDMDL
MODEL 5
REMARK VINA RESULT:    -4.135      1.556      2.356
REMARK INTER + INTRA:          -5.796
REMARK INTER:                  -5.675
REMARK INTRA:                  -0.122
REMARK UNBOUND:                -0.210
REMARK SMILES O=C[C@H](O)[C@@H](O)[C@@H](O)CO
REMARK SMILES IDX 7 1 9 2 10 3 5 5 3 6 2 7 1 8 4 9 6 11 8 13
REMARK H PARENT 10 4 4 10 6 12 8 14
REMARK Flexibility Score: inf
ROOT
ATOM      1  C   UNL     1       4.928  31.094  32.955  1.00  0.00     0.171 C 
ENDROOT
BRANCH   1   2
ATOM      2  C   UNL     1       4.400  30.136  31.869  1.00  0.00     0.190 C 
BRANCH   2   3
ATOM      3  O   UNL     1       5.335  30.041  30.831  1.00  0.00    -0.394 OA
ATOM      4  H   UNL     1       6.181  29.735  31.248  1.00  0.00     0.210 HD
ENDBRANCH   2   3
ENDBRANCH   1   2
BRANCH   1   5
ATOM      5  C   UNL     1       4.475  30.729  34.397  1.00  0.00     0.181 C 
BRANCH   5   6
ATOM      6  C   UNL     1       3.006  30.237  34.469  1.00  0.00     0.209 C 
BRANCH   6   7
ATOM      7  C   UNL     1       2.146  31.188  35.261  1.00  0.00     0.258 C 
ATOM      8  O   UNL     1       1.729  32.212  34.742  1.00  0.00    -0.300 OA
ENDBRANCH   6   7
BRANCH   6   9
ATOM      9  O   UNL     1       2.914  28.941  35.008  1.00  0.00    -0.383 OA
ATOM     10  H   UNL     1       3.497  28.901  35.811  1.00  0.00     0.211 HD
ENDBRANCH   6   9
ENDBRANCH   5   6
BRANCH   5  11
ATOM     11  O   UNL     1       5.335  29.772  34.967  1.00  0.00    -0.387 OA
ATOM     12  H   UNL     1       5.294  28.962  34.394  1.00  0.00     0.211 HD
ENDBRANCH   5  11
ENDBRANCH   1   5
BRANCH   1  13
ATOM     13  O   UNL     1       6.331  31.171  32.898  1.00  0.00    -0.388 OA
ATOM     14  H   UNL     1       6.697  30.523  33.556  1.00  0.00     0.211 HD
ENDBRANCH   1  13
TORSDOF 8
ENDMDL
MODEL 6
REMARK VINA RESULT:    -4.133      0.966      2.189
REMARK INTER + INTRA:          -5.793
REMARK INTER:                  -5.345
REMARK INTRA:                  -0.449
REMARK UNBOUND:                -0.210
REMARK SMILES O=C[C@H](O)[C@@H](O)[C@@H](O)CO
REMARK SMILES IDX 7 1 9 2 10 3 5 5 3 6 2 7 1 8 4 9 6 11 8 13
REMARK H PARENT 10 4 4 10 6 12 8 14
REMARK Flexibility Score: inf
ROOT
ATOM      1  C   UNL     1       3.653  30.166  35.100  1.00  0.00     0.171 C 
ENDROOT
BRANCH   1   2
ATOM      2  C   UNL     1       4.782  30.397  36.124  1.00  0.00     0.190 C 
BRANCH   2   3
ATOM      3  O   UNL     1       5.765  29.410  35.971  1.00  0.00    -0.394 OA
ATOM      4  H   UNL     1       6.605  29.800  36.325  1.00  0.00     0.210 HD
ENDBRANCH   2   3
ENDBRANCH   1   2
BRANCH   1   5
ATOM      5  C   UNL     1       4.119  30.232  33.618  1.00  0.00     0.181 C 
BRANCH   5   6
ATOM      6  C   UNL     1       2.958  30.504  32.625  1.00  0.00     0.209 C 
BRANCH   6   7
ATOM      7  C   UNL     1       1.981  31.507  33.183  1.00  0.00     0.258 C 
ATOM      8  O   UNL     1       0.990  31.818  32.541  1.00  0.00    -0.300 OA
ENDBRANCH   6   7
BRANCH   6   9
ATOM      9  O   UNL     1       2.285  29.321  32.270  1.00  0.00    -0.383 OA
ATOM     10  H   UNL     1       2.815  28.554  32.610  1.00  0.00     0.211 HD
ENDBRANCH   6   9
ENDBRANCH   5   6
BRANCH   5  11
ATOM     11  O   UNL     1       5.131  31.196  33.452  1.00  0.00    -0.387 OA
ATOM     12  H   UNL     1       5.940  30.720  33.130  1.00  0.00     0.211 HD
ENDBRANCH   5  11
ENDBRANCH   1   5
BRANCH   1  13
ATOM     13  O   UNL     1       3.014  28.938  35.346  1.00  0.00    -0.388 OA
ATOM     14  H   UNL     1       3.633  28.374  35.879  1.00  0.00     0.211 HD
ENDBRANCH   1  13
TORSDOF 8
ENDMDL
MODEL 7
REMARK VINA RESULT:    -4.083      0.658      3.259
REMARK INTER + INTRA:          -5.725
REMARK INTER:                  -5.253
REMARK INTRA:                  -0.472
REMARK UNBOUND:                -0.210
REMARK SMILES O=C[C@H](O)[C@@H](O)[C@@H](O)CO
REMARK SMILES IDX 7 1 9 2 10 3 5 5 3 6 2 7 1 8 4 9 6 11 8 13
REMARK H PARENT 10 4 4 10 6 12 8 14
REMARK Flexibility Score: inf
ROOT
ATOM      1  C   UNL     1       2.863  30.331  32.950  1.00  0.00     0.171 C 
ENDROOT
BRANCH   1   2
ATOM      2  C   UNL     1       1.827  31.459  32.774  1.00  0.00     0.190 C 
BRANCH   2   3
ATOM      3  O   UNL     1       2.457  32.702  32.912  1.00  0.00    -0.394 OA
ATOM      4  H   UNL     1       1.961  33.187  33.621  1.00  0.00     0.210 HD
ENDBRANCH   2   3
ENDBRANCH   1   2
BRANCH   1   5
ATOM      5  C   UNL     1       3.264  30.064  34.428  1.00  0.00     0.181 C 
BRANCH   5   6
ATOM      6  C   UNL     1       4.689  30.568  34.775  1.00  0.00     0.209 C 
BRANCH   6   7
ATOM      7  C   UNL     1       5.405  31.075  33.549  1.00  0.00     0.258 C 
ATOM      8  O   UNL     1       5.525  32.276  33.364  1.00  0.00    -0.300 OA
ENDBRANCH   6   7
BRANCH   6   9
ATOM      9  O   UNL     1       5.457  29.573  35.405  1.00  0.00    -0.383 OA
ATOM     10  H   UNL     1       5.886  29.978  36.204  1.00  0.00     0.211 HD
ENDBRANCH   6   9
ENDBRANCH   5   6
BRANCH   5  11
ATOM     11  O   UNL     1       2.324  30.626  35.313  1.00  0.00    -0.387 OA
ATOM     12  H   UNL     1       2.685  31.501  35.609  1.00  0.00     0.211 HD
ENDBRANCH   5  11
ENDBRANCH   1   5
BRANCH   1  13
ATOM     13  O   UNL     1       2.398  29.144  32.357  1.00  0.00    -0.388 OA
ATOM     14  H   UNL     1       1.422  29.081  32.528  1.00  0.00     0.211 HD
ENDBRANCH   1  13
TORSDOF 8
ENDMDL
MODEL 8
REMARK VINA RESULT:    -3.841      1.699      2.982
REMARK INTER + INTRA:          -5.399
REMARK INTER:                  -4.649
REMARK INTRA:                  -0.750
REMARK UNBOUND:                -0.210
REMARK SMILES O=C[C@H](O)[C@@H](O)[C@@H](O)CO
REMARK SMILES IDX 7 1 9 2 10 3 5 5 3 6 2 7 1 8 4 9 6 11 8 13
REMARK H PARENT 10 4 4 10 6 12 8 14
REMARK Flexibility Score: inf
ROOT
ATOM      1  C   UNL     1       3.374  29.943  32.749  1.00  0.00     0.171 C 
ENDROOT
BRANCH   1   2
ATOM      2  C   UNL     1       4.447  30.288  31.699  1.00  0.00     0.190 C 
BRANCH   2   3
ATOM      3  O   UNL     1       5.577  30.816  32.337  1.00  0.00    -0.394 OA
ATOM      4  H   UNL     1       6.350  30.601  31.753  1.00  0.00     0.210 HD
ENDBRANCH   2   3
ENDBRANCH   1   2
BRANCH   1   5
ATOM      5  C   UNL     1       2.734  31.184  33.433  1.00  0.00     0.181 C 
BRANCH   5   6
ATOM      6  C   UNL     1       3.125  31.327  34.927  1.00  0.00     0.209 C 
BRANCH   6   7
ATOM      7  C   UNL     1       2.250  32.334  35.630  1.00  0.00     0.258 C 
ATOM      8  O   UNL     1       1.240  32.751  35.085  1.00  0.00    -0.300 OA
ENDBRANCH   6   7
BRANCH   6   9
ATOM      9  O   UNL     1       4.479  31.673  35.084  1.00  0.00    -0.383 OA
ATOM     10  H   UNL     1       4.730  32.273  34.333  1.00  0.00     0.211 HD
ENDBRANCH   6   9
ENDBRANCH   5   6
BRANCH   5  11
ATOM     11  O   UNL     1       3.053  32.363  32.735  1.00  0.00    -0.387 OA
ATOM     12  H   UNL     1       3.106  33.095  33.402  1.00  0.00     0.211 HD
ENDBRANCH   5  11
ENDBRANCH   1   5
BRANCH   1  13
ATOM     13  O   UNL     1       2.371  29.140  32.177  1.00  0.00    -0.388 OA
ATOM     14  H   UNL     1       1.624  29.078  32.828  1.00  0.00     0.211 HD
ENDBRANCH   1  13
TORSDOF 8
ENDMDL
MODEL 9
REMARK VINA RESULT:    -3.821     16.722     18.765
REMARK INTER + INTRA:          -5.372
REMARK INTER:                  -4.859
REMARK INTRA:                  -0.513
REMARK UNBOUND:                -0.210
REMARK SMILES O=C[C@H](O)[C@@H](O)[C@@H](O)CO
REMARK SMILES IDX 7 1 9 2 10 3 5 5 3 6 2 7 1 8 4 9 6 11 8 13
REMARK H PARENT 10 4 4 10 6 12 8 14
REMARK Flexibility Score: inf
ROOT
ATOM      1  C   UNL     1      -3.951  45.579  23.961  1.00  0.00     0.171 C 
ENDROOT
BRANCH   1   2
ATOM      2  C   UNL     1      -4.004  46.831  23.064  1.00  0.00     0.190 C 
BRANCH   2   3
ATOM      3  O   UNL     1      -5.122  47.606  23.404  1.00  0.00    -0.394 OA
ATOM      4  H   UNL     1      -5.128  47.663  24.395  1.00  0.00     0.210 HD
ENDBRANCH   2   3
ENDBRANCH   1   2
BRANCH   1   5
ATOM      5  C   UNL     1      -2.567  44.869  23.976  1.00  0.00     0.181 C 
BRANCH   5   6
ATOM      6  C   UNL     1      -2.560  43.564  24.815  1.00  0.00     0.209 C 
BRANCH   6   7
ATOM      7  C   UNL     1      -3.655  42.625  24.379  1.00  0.00     0.258 C 
ATOM      8  O   UNL     1      -3.659  42.177  23.242  1.00  0.00    -0.300 OA
ENDBRANCH   6   7
BRANCH   6   9
ATOM      9  O   UNL     1      -2.669  43.826  26.192  1.00  0.00    -0.383 OA
ATOM     10  H   UNL     1      -3.398  44.488  26.320  1.00  0.00     0.211 HD
ENDBRANCH   6   9
ENDBRANCH   5   6
BRANCH   5  11
ATOM     11  O   UNL     1      -2.125  44.604  22.666  1.00  0.00    -0.387 OA
ATOM     12  H   UNL     1      -2.240  43.631  22.508  1.00  0.00     0.211 HD
ENDBRANCH   5  11
ENDBRANCH   1   5
BRANCH   1  13
ATOM     13  O   UNL     1      -4.338  45.901  25.274  1.00  0.00    -0.388 OA
ATOM     14  H   UNL     1      -4.204  46.877  25.399  1.00  0.00     0.211 HD
ENDBRANCH   1  13
TORSDOF 8
ENDMDL
