MODEL 1
REMARK VINA RESULT:    -4.549      0.000      0.000
REMARK INTER + INTRA:         -10.577
REMARK INTER:                  -8.273
REMARK INTRA:                  -2.304
REMARK UNBOUND:                -2.304
REMARK SMILES CCCCCCCCCCCCCCCC(=O)[O-]
REMARK SMILES IDX 9 1 10 2 11 3 12 4 13 5 14 6 15 7 16 8 17 9 18 10 8 11 7 12
REMARK SMILES IDX 6 13 5 14 4 15 3 16 2 17 1 18
REMARK H PARENT
REMARK Flexibility Score: inf
ROOT
ATOM      1  C   UNL     1      21.099  -5.367  29.930  1.00  0.00     0.000 C 
ENDROOT
BRANCH   1   2
ATOM      2  C   UNL     1      19.676  -5.116  30.450  1.00  0.00     0.000 C 
BRANCH   2   3
ATOM      3  C   UNL     1      19.519  -3.733  31.101  1.00  0.00     0.000 C 
BRANCH   3   4
ATOM      4  C   UNL     1      18.490  -3.730  32.245  1.00  0.00     0.000 C 
BRANCH   4   5
ATOM      5  C   UNL     1      19.132  -3.465  33.616  1.00  0.00     0.000 C 
BRANCH   5   6
ATOM      6  C   UNL     1      20.305  -2.473  33.537  1.00  0.00     0.006 C 
BRANCH   6   7
ATOM      7  C   UNL     1      21.047  -2.346  34.874  1.00  0.00     0.053 C 
BRANCH   7   8
ATOM      8  C   UNL     1      21.277  -0.913  35.247  1.00  0.00     0.041 C 
ATOM      9  O   UNL     1      20.300  -0.144  35.440  1.00  0.00    -0.550 OA
ATOM     10  O   UNL     1      22.572  -0.438  35.416  1.00  0.00    -0.550 OA
ENDBRANCH   7   8
ENDBRANCH   6   7
ENDBRANCH   5   6
ENDBRANCH   4   5
ENDBRANCH   3   4
ENDBRANCH   2   3
ENDBRANCH   1   2
BRANCH   1  11
ATOM     11  C   UNL     1      21.869  -6.308  30.869  1.00  0.00     0.000 C 
BRANCH  11  12
ATOM     12  C   UNL     1      22.624  -5.555  31.977  1.00  0.00    -0.000 C 
BRANCH  12  13
ATOM     13  C   UNL     1      22.026  -5.803  33.373  1.00  0.00    -0.000 C 
BRANCH  13  14
ATOM     14  C   UNL     1      21.263  -7.136  33.467  1.00  0.00    -0.000 C 
BRANCH  14  15
ATOM     15  C   UNL     1      19.737  -7.009  33.658  1.00  0.00    -0.000 C 
BRANCH  15  16
ATOM     16  C   UNL     1      18.887  -7.904  32.738  1.00  0.00    -0.000 C 
BRANCH  16  17
ATOM     17  C   UNL     1      17.484  -8.173  33.300  1.00  0.00    -0.003 C 
ATOM     18  C   UNL     1      16.941  -6.947  34.031  1.00  0.00     0.004 C 
ENDBRANCH  16  17
ENDBRANCH  15  16
ENDBRANCH  14  15
ENDBRANCH  13  14
ENDBRANCH  12  13
ENDBRANCH  11  12
ENDBRANCH   1  11
TORSDOF 14
ENDMDL
MODEL 2
REMARK VINA RESULT:    -4.510      2.884      5.570
REMARK INTER + INTRA:         -10.504
REMARK INTER:                  -8.249
REMARK INTRA:                  -2.255
REMARK UNBOUND:                -2.304
REMARK SMILES CCCCCCCCCCCCCCCC(=O)[O-]
REMARK SMILES IDX 9 1 10 2 11 3 12 4 13 5 14 6 15 7 16 8 17 9 18 10 8 11 7 12
REMARK SMILES IDX 6 13 5 14 4 15 3 16 2 17 1 18
REMARK H PARENT
REMARK Flexibility Score: inf
ROOT
ATOM      1  C   UNL     1      20.252  -4.568  30.432  1.00  0.00     0.000 C 
ENDROOT
BRANCH   1   2
ATOM      2  C   UNL     1      20.856  -5.965  30.223  1.00  0.00     0.000 C 
BRANCH   2   3
ATOM      3  C   UNL     1      22.242  -6.113  30.872  1.00  0.00     0.000 C 
BRANCH   3   4
ATOM      4  C   UNL     1      22.224  -5.808  32.380  1.00  0.00     0.000 C 
BRANCH   4   5
ATOM      5  C   UNL     1      21.705  -6.989  33.215  1.00  0.00     0.000 C 
BRANCH   5   6
ATOM      6  C   UNL     1      20.296  -6.739  33.779  1.00  0.00     0.006 C 
BRANCH   6   7
ATOM      7  C   UNL     1      19.242  -7.643  33.126  1.00  0.00     0.053 C 
BRANCH   7   8
ATOM      8  C   UNL     1      17.861  -7.328  33.614  1.00  0.00     0.041 C 
ATOM      9  O   UNL     1      17.668  -6.349  34.381  1.00  0.00    -0.550 OA
ATOM     10  O   UNL     1      16.782  -8.096  33.193  1.00  0.00    -0.550 OA
ENDBRANCH   7   8
ENDBRANCH   6   7
ENDBRANCH   5   6
ENDBRANCH   4   5
ENDBRANCH   3   4
ENDBRANCH   2   3
ENDBRANCH   1   2
BRANCH   1  11
ATOM     11  C   UNL     1      18.835  -4.664  31.017  1.00  0.00     0.000 C 
BRANCH  11  12
ATOM     12  C   UNL     1      18.621  -3.722  32.213  1.00  0.00    -0.000 C 
BRANCH  12  13
ATOM     13  C   UNL     1      19.873  -2.891  32.542  1.00  0.00    -0.000 C 
BRANCH  13  14
ATOM     14  C   UNL     1      20.356  -3.088  33.990  1.00  0.00    -0.000 C 
BRANCH  14  15
ATOM     15  C   UNL     1      20.815  -1.804  34.711  1.00  0.00    -0.000 C 
BRANCH  15  16
ATOM     16  C   UNL     1      22.145  -1.924  35.476  1.00  0.00    -0.000 C 
BRANCH  16  17
ATOM     17  C   UNL     1      22.809  -3.297  35.304  1.00  0.00    -0.003 C 
ATOM     18  C   UNL     1      22.866  -4.050  36.631  1.00  0.00     0.004 C 
ENDBRANCH  16  17
ENDBRANCH  15  16
ENDBRANCH  14  15
ENDBRANCH  13  14
ENDBRANCH  12  13
ENDBRANCH  11  12
ENDBRANCH   1  11
TORSDOF 14
ENDMDL
MODEL 3
REMARK VINA RESULT:    -4.477      1.854      4.247
REMARK INTER + INTRA:         -10.445
REMARK INTER:                  -8.225
REMARK INTRA:                  -2.220
REMARK UNBOUND:                -2.304
REMARK SMILES CCCCCCCCCCCCCCCC(=O)[O-]
REMARK SMILES IDX 9 1 10 2 11 3 12 4 13 5 14 6 15 7 16 8 17 9 18 10 8 11 7 12
REMARK SMILES IDX 6 13 5 14 4 15 3 16 2 17 1 18
REMARK H PARENT
REMARK Flexibility Score: inf
ROOT
ATOM      1  C   UNL     1      19.744  -3.859  34.940  1.00  0.00     0.000 C 
ENDROOT
BRANCH   1   2
ATOM      2  C   UNL     1      20.987  -3.679  35.825  1.00  0.00     0.000 C 
BRANCH   2   3
ATOM      3  C   UNL     1      22.296  -3.713  35.020  1.00  0.00     0.000 C 
BRANCH   3   4
ATOM      4  C   UNL     1      23.377  -2.790  35.610  1.00  0.00     0.000 C 
BRANCH   4   5
ATOM      5  C   UNL     1      22.783  -1.643  36.442  1.00  0.00     0.000 C 
BRANCH   5   6
ATOM      6  C   UNL     1      22.832  -0.293  35.706  1.00  0.00     0.006 C 
BRANCH   6   7
ATOM      7  C   UNL     1      21.524   0.009  34.963  1.00  0.00     0.053 C 
BRANCH   7   8
ATOM      8  C   UNL     1      20.398   0.286  35.912  1.00  0.00     0.041 C 
ATOM      9  O   UNL     1      20.507   1.192  36.778  1.00  0.00    -0.550 OA
ATOM     10  O   UNL     1      19.213  -0.434  35.814  1.00  0.00    -0.550 OA
ENDBRANCH   7   8
ENDBRANCH   6   7
ENDBRANCH   5   6
ENDBRANCH   4   5
ENDBRANCH   3   4
ENDBRANCH   2   3
ENDBRANCH   1   2
BRANCH   1  11
ATOM     11  C   UNL     1      19.924  -3.149  33.590  1.00  0.00     0.000 C 
BRANCH  11  12
ATOM     12  C   UNL     1      19.129  -3.816  32.456  1.00  0.00    -0.000 C 
BRANCH  12  13
ATOM     13  C   UNL     1      19.920  -3.878  31.138  1.00  0.00    -0.000 C 
BRANCH  13  14
ATOM     14  C   UNL     1      19.708  -5.198  30.376  1.00  0.00    -0.000 C 
BRANCH  14  15
ATOM     15  C   UNL     1      20.761  -6.292  30.647  1.00  0.00    -0.000 C 
BRANCH  15  16
ATOM     16  C   UNL     1      22.077  -5.791  31.269  1.00  0.00    -0.000 C 
BRANCH  16  17
ATOM     17  C   UNL     1      22.456  -6.547  32.550  1.00  0.00    -0.003 C 
ATOM     18  C   UNL     1      21.216  -6.900  33.367  1.00  0.00     0.004 C 
ENDBRANCH  16  17
ENDBRANCH  15  16
ENDBRANCH  14  15
ENDBRANCH  13  14
ENDBRANCH  12  13
ENDBRANCH  11  12
ENDBRANCH   1  11
TORSDOF 14
ENDMDL
MODEL 4
REMARK VINA RESULT:    -4.475      1.941      3.811
REMARK INTER + INTRA:         -10.441
REMARK INTER:                  -8.913
REMARK INTRA:                  -1.529
REMARK UNBOUND:                -2.304
REMARK SMILES CCCCCCCCCCCCCCCC(=O)[O-]
REMARK SMILES IDX 9 1 10 2 11 3 12 4 13 5 14 6 15 7 16 8 17 9 18 10 8 11 7 12
REMARK SMILES IDX 6 13 5 14 4 15 3 16 2 17 1 18
REMARK H PARENT
REMARK Flexibility Score: inf
ROOT
ATOM      1  C   UNL     1      21.087  -3.869  34.732  1.00  0.00     0.000 C 
ENDROOT
BRANCH   1   2
ATOM      2  C   UNL     1      22.079  -4.651  35.606  1.00  0.00     0.000 C 
BRANCH   2   3
ATOM      3  C   UNL     1      22.992  -3.731  36.432  1.00  0.00     0.000 C 
BRANCH   3   4
ATOM      4  C   UNL     1      23.313  -2.412  35.708  1.00  0.00     0.000 C 
BRANCH   4   5
ATOM      5  C   UNL     1      23.083  -1.180  36.598  1.00  0.00     0.000 C 
BRANCH   5   6
ATOM      6  C   UNL     1      21.812  -0.403  36.215  1.00  0.00     0.006 C 
BRANCH   6   7
ATOM      7  C   UNL     1      21.887   0.162  34.791  1.00  0.00     0.053 C 
BRANCH   7   8
ATOM      8  C   UNL     1      22.243   1.618  34.789  1.00  0.00     0.041 C 
ATOM      9  O   UNL     1      23.337   2.002  34.299  1.00  0.00    -0.550 OA
ATOM     10  O   UNL     1      21.349   2.553  35.297  1.00  0.00    -0.550 OA
ENDBRANCH   7   8
ENDBRANCH   6   7
ENDBRANCH   5   6
ENDBRANCH   4   5
ENDBRANCH   3   4
ENDBRANCH   2   3
ENDBRANCH   1   2
BRANCH   1  11
ATOM     11  C   UNL     1      21.182  -4.312  33.264  1.00  0.00     0.000 C 
BRANCH  11  12
ATOM     12  C   UNL     1      22.228  -5.417  33.042  1.00  0.00    -0.000 C 
BRANCH  12  13
ATOM     13  C   UNL     1      21.957  -6.241  31.772  1.00  0.00    -0.000 C 
BRANCH  13  14
ATOM     14  C   UNL     1      20.963  -5.557  30.817  1.00  0.00    -0.000 C 
BRANCH  14  15
ATOM     15  C   UNL     1      19.590  -6.248  30.690  1.00  0.00    -0.000 C 
BRANCH  15  16
ATOM     16  C   UNL     1      19.252  -7.242  31.815  1.00  0.00    -0.000 C 
BRANCH  16  17
ATOM     17  C   UNL     1      17.957  -6.883  32.557  1.00  0.00    -0.003 C 
ATOM     18  C   UNL     1      17.674  -5.385  32.475  1.00  0.00     0.004 C 
ENDBRANCH  16  17
ENDBRANCH  15  16
ENDBRANCH  14  15
ENDBRANCH  13  14
ENDBRANCH  12  13
ENDBRANCH  11  12
ENDBRANCH   1  11
TORSDOF 14
ENDMDL
MODEL 5
REMARK VINA RESULT:    -4.468      3.465      5.102
REMARK INTER + INTRA:         -10.428
REMARK INTER:                  -7.934
REMARK INTRA:                  -2.494
REMARK UNBOUND:                -2.304
REMARK SMILES CCCCCCCCCCCCCCCC(=O)[O-]
REMARK SMILES IDX 9 1 10 2 11 3 12 4 13 5 14 6 15 7 16 8 17 9 18 10 8 11 7 12
REMARK SMILES IDX 6 13 5 14 4 15 3 16 2 17 1 18
REMARK H PARENT
REMARK Flexibility Score: inf
ROOT
ATOM      1  C   UNL     1      20.517  -6.049  30.346  1.00  0.00     0.000 C 
ENDROOT
BRANCH   1   2
ATOM      2  C   UNL     1      20.111  -4.567  30.360  1.00  0.00     0.000 C 
BRANCH   2   3
ATOM      3  C   UNL     1      18.960  -4.279  31.339  1.00  0.00     0.000 C 
BRANCH   3   4
ATOM      4  C   UNL     1      18.471  -5.544  32.066  1.00  0.00     0.000 C 
BRANCH   4   5
ATOM      5  C   UNL     1      17.437  -5.233  33.159  1.00  0.00     0.000 C 
BRANCH   5   6
ATOM      6  C   UNL     1      17.681  -6.036  34.448  1.00  0.00     0.006 C 
BRANCH   6   7
ATOM      7  C   UNL     1      16.372  -6.525  35.082  1.00  0.00     0.053 C 
BRANCH   7   8
ATOM      8  C   UNL     1      16.141  -7.983  34.823  1.00  0.00     0.041 C 
ATOM      9  O   UNL     1      16.980  -8.650  34.165  1.00  0.00    -0.550 OA
ATOM     10  O   UNL     1      15.015  -8.611  35.342  1.00  0.00    -0.550 OA
ENDBRANCH   7   8
ENDBRANCH   6   7
ENDBRANCH   5   6
ENDBRANCH   4   5
ENDBRANCH   3   4
ENDBRANCH   2   3
ENDBRANCH   1   2
BRANCH   1  11
ATOM     11  C   UNL     1      22.045  -6.199  30.386  1.00  0.00     0.000 C 
BRANCH  11  12
ATOM     12  C   UNL     1      22.638  -5.871  31.767  1.00  0.00    -0.000 C 
BRANCH  12  13
ATOM     13  C   UNL     1      22.051  -6.749  32.885  1.00  0.00    -0.000 C 
BRANCH  13  14
ATOM     14  C   UNL     1      21.580  -5.931  34.101  1.00  0.00    -0.000 C 
BRANCH  14  15
ATOM     15  C   UNL     1      21.667  -4.400  33.938  1.00  0.00    -0.000 C 
BRANCH  15  16
ATOM     16  C   UNL     1      20.670  -3.594  34.790  1.00  0.00    -0.000 C 
BRANCH  16  17
ATOM     17  C   UNL     1      20.270  -2.263  34.140  1.00  0.00    -0.003 C 
ATOM     18  C   UNL     1      18.780  -1.988  34.322  1.00  0.00     0.004 C 
ENDBRANCH  16  17
ENDBRANCH  15  16
ENDBRANCH  14  15
ENDBRANCH  13  14
ENDBRANCH  12  13
ENDBRANCH  11  12
ENDBRANCH   1  11
TORSDOF 14
ENDMDL
MODEL 6
REMARK VINA RESULT:    -4.458      3.165      6.117
REMARK INTER + INTRA:         -10.410
REMARK INTER:                  -8.084
REMARK INTRA:                  -2.326
REMARK UNBOUND:                -2.304
REMARK SMILES CCCCCCCCCCCCCCCC(=O)[O-]
REMARK SMILES IDX 9 1 10 2 11 3 12 4 13 5 14 6 15 7 16 8 17 9 18 10 8 11 7 12
REMARK SMILES IDX 6 13 5 14 4 15 3 16 2 17 1 18
REMARK H PARENT
REMARK Flexibility Score: inf
ROOT
ATOM      1  C   UNL     1      20.223  -2.916  33.061  1.00  0.00     0.000 C 
ENDROOT
BRANCH   1   2
ATOM      2  C   UNL     1      19.264  -3.020  31.865  1.00  0.00     0.000 C 
BRANCH   2   3
ATOM      3  C   UNL     1      19.477  -4.304  31.047  1.00  0.00     0.000 C 
BRANCH   3   4
ATOM      4  C   UNL     1      20.807  -5.003  31.379  1.00  0.00     0.000 C 
BRANCH   4   5
ATOM      5  C   UNL     1      20.653  -6.526  31.521  1.00  0.00     0.000 C 
BRANCH   5   6
ATOM      6  C   UNL     1      20.684  -6.987  32.988  1.00  0.00     0.006 C 
BRANCH   6   7
ATOM      7  C   UNL     1      19.303  -6.898  33.652  1.00  0.00     0.053 C 
BRANCH   7   8
ATOM      8  C   UNL     1      18.246  -7.566  32.826  1.00  0.00     0.041 C 
ATOM      9  O   UNL     1      18.231  -8.818  32.708  1.00  0.00    -0.550 OA
ATOM     10  O   UNL     1      17.256  -6.804  32.216  1.00  0.00    -0.550 OA
ENDBRANCH   7   8
ENDBRANCH   6   7
ENDBRANCH   5   6
ENDBRANCH   4   5
ENDBRANCH   3   4
ENDBRANCH   2   3
ENDBRANCH   1   2
BRANCH   1  11
ATOM     11  C   UNL     1      19.514  -3.298  34.368  1.00  0.00     0.000 C 
BRANCH  11  12
ATOM     12  C   UNL     1      20.497  -3.619  35.506  1.00  0.00    -0.000 C 
BRANCH  12  13
ATOM     13  C   UNL     1      21.880  -4.050  34.988  1.00  0.00    -0.000 C 
BRANCH  13  14
ATOM     14  C   UNL     1      23.005  -3.093  35.420  1.00  0.00    -0.000 C 
BRANCH  14  15
ATOM     15  C   UNL     1      22.565  -1.930  36.332  1.00  0.00    -0.000 C 
BRANCH  15  16
ATOM     16  C   UNL     1      22.963  -0.527  35.841  1.00  0.00    -0.000 C 
BRANCH  16  17
ATOM     17  C   UNL     1      21.841   0.171  35.059  1.00  0.00    -0.003 C 
ATOM     18  C   UNL     1      20.509   0.061  35.795  1.00  0.00     0.004 C 
ENDBRANCH  16  17
ENDBRANCH  15  16
ENDBRANCH  14  15
ENDBRANCH  13  14
ENDBRANCH  12  13
ENDBRANCH  11  12
ENDBRANCH   1  11
TORSDOF 14
ENDMDL
MODEL 7
REMARK VINA RESULT:    -4.411      4.928      6.608
REMARK INTER + INTRA:         -10.325
REMARK INTER:                  -8.982
REMARK INTRA:                  -1.343
REMARK UNBOUND:                -2.304
REMARK SMILES CCCCCCCCCCCCCCCC(=O)[O-]
REMARK SMILES IDX 9 1 10 2 11 3 12 4 13 5 14 6 15 7 16 8 17 9 18 10 8 11 7 12
REMARK SMILES IDX 6 13 5 14 4 15 3 16 2 17 1 18
REMARK H PARENT
REMARK Flexibility Score: inf
ROOT
ATOM      1  C   UNL     1      22.785  -3.462  35.474  1.00  0.00     0.000 C 
ENDROOT
BRANCH   1   2
ATOM      2  C   UNL     1      22.503  -4.115  36.835  1.00  0.00     0.000 C 
BRANCH   2   3
ATOM      3  C   UNL     1      23.788  -4.423  37.621  1.00  0.00     0.000 C 
BRANCH   3   4
ATOM      4  C   UNL     1      24.002  -5.932  37.836  1.00  0.00     0.000 C 
BRANCH   4   5
ATOM      5  C   UNL     1      23.621  -6.385  39.254  1.00  0.00     0.000 C 
BRANCH   5   6
ATOM      6  C   UNL     1      24.816  -6.969  40.028  1.00  0.00     0.006 C 
BRANCH   6   7
ATOM      7  C   UNL     1      25.843  -5.892  40.404  1.00  0.00     0.053 C 
BRANCH   7   8
ATOM      8  C   UNL     1      27.135  -6.076  39.667  1.00  0.00     0.041 C 
ATOM      9  O   UNL     1      27.604  -7.230  39.489  1.00  0.00    -0.550 OA
ATOM     10  O   UNL     1      27.800  -4.973  39.146  1.00  0.00    -0.550 OA
ENDBRANCH   7   8
ENDBRANCH   6   7
ENDBRANCH   5   6
ENDBRANCH   4   5
ENDBRANCH   3   4
ENDBRANCH   2   3
ENDBRANCH   1   2
BRANCH   1  11
ATOM     11  C   UNL     1      21.938  -4.109  34.368  1.00  0.00     0.000 C 
BRANCH  11  12
ATOM     12  C   UNL     1      21.524  -5.551  34.703  1.00  0.00    -0.000 C 
BRANCH  12  13
ATOM     13  C   UNL     1      21.706  -6.509  33.513  1.00  0.00    -0.000 C 
BRANCH  13  14
ATOM     14  C   UNL     1      22.614  -5.930  32.414  1.00  0.00    -0.000 C 
BRANCH  14  15
ATOM     15  C   UNL     1      22.127  -6.162  30.969  1.00  0.00    -0.000 C 
BRANCH  15  16
ATOM     16  C   UNL     1      20.607  -6.033  30.763  1.00  0.00    -0.000 C 
BRANCH  16  17
ATOM     17  C   UNL     1      20.146  -4.576  30.624  1.00  0.00    -0.003 C 
ATOM     18  C   UNL     1      19.204  -4.186  31.760  1.00  0.00     0.004 C 
ENDBRANCH  16  17
ENDBRANCH  15  16
ENDBRANCH  14  15
ENDBRANCH  13  14
ENDBRANCH  12  13
ENDBRANCH  11  12
ENDBRANCH   1  11
TORSDOF 14
ENDMDL
MODEL 8
REMARK VINA RESULT:    -4.411      3.755      5.632
REMARK INTER + INTRA:         -10.324
REMARK INTER:                  -8.562
REMARK INTRA:                  -1.763
REMARK UNBOUND:                -2.304
REMARK SMILES CCCCCCCCCCCCCCCC(=O)[O-]
REMARK SMILES IDX 9 1 10 2 11 3 12 4 13 5 14 6 15 7 16 8 17 9 18 10 8 11 7 12
REMARK SMILES IDX 6 13 5 14 4 15 3 16 2 17 1 18
REMARK H PARENT
REMARK Flexibility Score: inf
ROOT
ATOM      1  C   UNL     1      19.913  -3.976  34.568  1.00  0.00     0.000 C 
ENDROOT
BRANCH   1   2
ATOM      2  C   UNL     1      21.034  -3.973  35.618  1.00  0.00     0.000 C 
BRANCH   2   3
ATOM      3  C   UNL     1      22.385  -3.520  35.040  1.00  0.00     0.000 C 
BRANCH   3   4
ATOM      4  C   UNL     1      23.340  -2.981  36.120  1.00  0.00     0.000 C 
BRANCH   4   5
ATOM      5  C   UNL     1      23.213  -3.739  37.451  1.00  0.00     0.000 C 
BRANCH   5   6
ATOM      6  C   UNL     1      24.087  -5.004  37.495  1.00  0.00     0.006 C 
BRANCH   6   7
ATOM      7  C   UNL     1      23.451  -6.118  38.336  1.00  0.00     0.053 C 
BRANCH   7   8
ATOM      8  C   UNL     1      24.165  -6.305  39.641  1.00  0.00     0.041 C 
ATOM      9  O   UNL     1      24.668  -5.316  40.235  1.00  0.00    -0.550 OA
ATOM     10  O   UNL     1      24.242  -7.567  40.216  1.00  0.00    -0.550 OA
ENDBRANCH   7   8
ENDBRANCH   6   7
ENDBRANCH   5   6
ENDBRANCH   4   5
ENDBRANCH   3   4
ENDBRANCH   2   3
ENDBRANCH   1   2
BRANCH   1  11
ATOM     11  C   UNL     1      20.247  -3.029  33.406  1.00  0.00     0.000 C 
BRANCH  11  12
ATOM     12  C   UNL     1      19.176  -3.041  32.303  1.00  0.00    -0.000 C 
BRANCH  12  13
ATOM     13  C   UNL     1      19.701  -3.615  30.976  1.00  0.00    -0.000 C 
BRANCH  13  14
ATOM     14  C   UNL     1      19.204  -5.046  30.706  1.00  0.00    -0.000 C 
BRANCH  14  15
ATOM     15  C   UNL     1      20.224  -6.164  31.006  1.00  0.00    -0.000 C 
BRANCH  15  16
ATOM     16  C   UNL     1      21.700  -5.766  30.827  1.00  0.00    -0.000 C 
BRANCH  16  17
ATOM     17  C   UNL     1      22.490  -5.804  32.142  1.00  0.00    -0.003 C 
ATOM     18  C   UNL     1      21.857  -6.774  33.136  1.00  0.00     0.004 C 
ENDBRANCH  16  17
ENDBRANCH  15  16
ENDBRANCH  14  15
ENDBRANCH  13  14
ENDBRANCH  12  13
ENDBRANCH  11  12
ENDBRANCH   1  11
TORSDOF 14
ENDMDL
MODEL 9
REMARK VINA RESULT:    -4.367      1.386      3.258
REMARK INTER + INTRA:         -10.246
REMARK INTER:                  -7.865
REMARK INTRA:                  -2.381
REMARK UNBOUND:                -2.304
REMARK SMILES CCCCCCCCCCCCCCCC(=O)[O-]
REMARK SMILES IDX 9 1 10 2 11 3 12 4 13 5 14 6 15 7 16 8 17 9 18 10 8 11 7 12
REMARK SMILES IDX 6 13 5 14 4 15 3 16 2 17 1 18
REMARK H PARENT
REMARK Flexibility Score: inf
ROOT
ATOM      1  C   UNL     1      19.627  -3.075  31.685  1.00  0.00     0.000 C 
ENDROOT
BRANCH   1   2
ATOM      2  C   UNL     1      19.920  -2.888  33.182  1.00  0.00     0.000 C 
BRANCH   2   3
ATOM      3  C   UNL     1      18.905  -3.617  34.078  1.00  0.00     0.000 C 
BRANCH   3   4
ATOM      4  C   UNL     1      19.554  -4.224  35.335  1.00  0.00     0.000 C 
BRANCH   4   5
ATOM      5  C   UNL     1      20.571  -3.275  35.989  1.00  0.00     0.000 C 
BRANCH   5   6
ATOM      6  C   UNL     1      21.991  -3.864  36.023  1.00  0.00     0.006 C 
BRANCH   6   7
ATOM      7  C   UNL     1      23.043  -2.871  35.512  1.00  0.00     0.053 C 
BRANCH   7   8
ATOM      8  C   UNL     1      22.917  -1.536  36.182  1.00  0.00     0.041 C 
ATOM      9  O   UNL     1      23.107  -1.429  37.421  1.00  0.00    -0.550 OA
ATOM     10  O   UNL     1      22.625  -0.405  35.429  1.00  0.00    -0.550 OA
ENDBRANCH   7   8
ENDBRANCH   6   7
ENDBRANCH   5   6
ENDBRANCH   4   5
ENDBRANCH   3   4
ENDBRANCH   2   3
ENDBRANCH   1   2
BRANCH   1  11
ATOM     11  C   UNL     1      18.671  -4.255  31.456  1.00  0.00     0.000 C 
BRANCH  11  12
ATOM     12  C   UNL     1      19.273  -5.340  30.549  1.00  0.00    -0.000 C 
BRANCH  12  13
ATOM     13  C   UNL     1      20.697  -4.995  30.080  1.00  0.00    -0.000 C 
BRANCH  13  14
ATOM     14  C   UNL     1      21.717  -6.102  30.399  1.00  0.00    -0.000 C 
BRANCH  14  15
ATOM     15  C   UNL     1      22.650  -5.812  31.592  1.00  0.00    -0.000 C 
BRANCH  15  16
ATOM     16  C   UNL     1      21.961  -5.779  32.968  1.00  0.00    -0.000 C 
BRANCH  16  17
ATOM     17  C   UNL     1      21.508  -7.167  33.441  1.00  0.00    -0.003 C 
ATOM     18  C   UNL     1      19.986  -7.271  33.463  1.00  0.00     0.004 C 
ENDBRANCH  16  17
ENDBRANCH  15  16
ENDBRANCH  14  15
ENDBRANCH  13  14
ENDBRANCH  12  13
ENDBRANCH  11  12
ENDBRANCH   1  11
TORSDOF 14
ENDMDL
