MODEL 1
REMARK VINA RESULT:    -3.521      0.000      0.000
REMARK INTER + INTRA:          -5.182
REMARK INTER:                  -4.756
REMARK INTRA:                  -0.425
REMARK UNBOUND:                -0.425
REMARK SMILES CCCCCCCC(=O)[O-]
REMARK SMILES IDX 5 1 6 2 7 3 8 4 9 5 10 6 4 7 3 8 2 9 1 10
REMARK H PARENT
REMARK Flexibility Score: inf
ROOT
ATOM      1  C   UNL     1      29.839   5.676  15.980  1.00  0.00     0.000 C 
ENDROOT
BRANCH   1   2
ATOM      2  C   UNL     1      28.910   6.682  15.290  1.00  0.00     0.006 C 
BRANCH   2   3
ATOM      3  C   UNL     1      27.454   6.208  15.339  1.00  0.00     0.053 C 
BRANCH   3   4
ATOM      4  C   UNL     1      26.829   6.302  13.983  1.00  0.00     0.041 C 
ATOM      5  O   UNL     1      27.043   5.405  13.124  1.00  0.00    -0.550 OA
ATOM      6  O   UNL     1      25.974   7.353  13.681  1.00  0.00    -0.550 OA
ENDBRANCH   3   4
ENDBRANCH   2   3
ENDBRANCH   1   2
BRANCH   1   7
ATOM      7  C   UNL     1      30.416   6.257  17.277  1.00  0.00     0.000 C 
BRANCH   7   8
ATOM      8  C   UNL     1      29.812   5.563  18.507  1.00  0.00    -0.000 C 
BRANCH   8   9
ATOM      9  C   UNL     1      29.432   4.100  18.232  1.00  0.00    -0.003 C 
ATOM     10  C   UNL     1      28.006   3.767  18.670  1.00  0.00     0.004 C 
ENDBRANCH   8   9
ENDBRANCH   7   8
ENDBRANCH   1   7
TORSDOF 6
ENDMDL
MODEL 2
REMARK VINA RESULT:    -3.488      3.345      4.794
REMARK INTER + INTRA:          -5.136
REMARK INTER:                  -4.803
REMARK INTRA:                  -0.333
REMARK UNBOUND:                -0.425
REMARK SMILES CCCCCCCC(=O)[O-]
REMARK SMILES IDX 5 1 6 2 7 3 8 4 9 5 10 6 4 7 3 8 2 9 1 10
REMARK H PARENT
REMARK Flexibility Score: inf
ROOT
ATOM      1  C   UNL     1      25.108   7.104  15.398  1.00  0.00     0.000 C 
ENDROOT
BRANCH   1   2
ATOM      2  C   UNL     1      26.241   6.074  15.328  1.00  0.00     0.006 C 
BRANCH   2   3
ATOM      3  C   UNL     1      26.784   5.950  13.900  1.00  0.00     0.053 C 
BRANCH   3   4
ATOM      4  C   UNL     1      27.903   6.919  13.681  1.00  0.00     0.041 C 
ATOM      5  O   UNL     1      28.006   7.530  12.584  1.00  0.00    -0.550 OA
ATOM      6  O   UNL     1      28.804   7.184  14.703  1.00  0.00    -0.550 OA
ENDBRANCH   3   4
ENDBRANCH   2   3
ENDBRANCH   1   2
BRANCH   1   7
ATOM      7  C   UNL     1      23.746   6.444  15.150  1.00  0.00     0.000 C 
BRANCH   7   8
ATOM      8  C   UNL     1      22.731   6.857  16.226  1.00  0.00    -0.000 C 
BRANCH   8   9
ATOM      9  C   UNL     1      23.047   6.249  17.601  1.00  0.00    -0.003 C 
ATOM     10  C   UNL     1      23.043   4.721  17.586  1.00  0.00     0.004 C 
ENDBRANCH   8   9
ENDBRANCH   7   8
ENDBRANCH   1   7
TORSDOF 6
ENDMDL
MODEL 3
REMARK VINA RESULT:    -3.435      3.557      4.991
REMARK INTER + INTRA:          -5.065
REMARK INTER:                  -4.841
REMARK INTRA:                  -0.224
REMARK UNBOUND:                -0.425
REMARK SMILES CCCCCCCC(=O)[O-]
REMARK SMILES IDX 5 1 6 2 7 3 8 4 9 5 10 6 4 7 3 8 2 9 1 10
REMARK H PARENT
REMARK Flexibility Score: inf
ROOT
ATOM      1  C   UNL     1      24.158   7.147  16.009  1.00  0.00     0.000 C 
ENDROOT
BRANCH   1   2
ATOM      2  C   UNL     1      24.851   6.301  14.934  1.00  0.00     0.006 C 
BRANCH   2   3
ATOM      3  C   UNL     1      26.364   6.542  14.936  1.00  0.00     0.053 C 
BRANCH   3   4
ATOM      4  C   UNL     1      26.915   6.418  13.551  1.00  0.00     0.041 C 
ATOM      5  O   UNL     1      27.537   7.381  13.029  1.00  0.00    -0.550 OA
ATOM      6  O   UNL     1      26.782   5.225  12.854  1.00  0.00    -0.550 OA
ENDBRANCH   3   4
ENDBRANCH   2   3
ENDBRANCH   1   2
BRANCH   1   7
ATOM      7  C   UNL     1      22.680   6.761  16.147  1.00  0.00     0.000 C 
BRANCH   7   8
ATOM      8  C   UNL     1      22.501   5.629  17.170  1.00  0.00    -0.000 C 
BRANCH   8   9
ATOM      9  C   UNL     1      23.131   5.959  18.532  1.00  0.00    -0.003 C 
ATOM     10  C   UNL     1      23.047   4.795  19.519  1.00  0.00     0.004 C 
ENDBRANCH   8   9
ENDBRANCH   7   8
ENDBRANCH   1   7
TORSDOF 6
ENDMDL
MODEL 4
REMARK VINA RESULT:    -3.430      8.208     11.500
REMARK INTER + INTRA:          -5.058
REMARK INTER:                  -4.769
REMARK INTRA:                  -0.289
REMARK UNBOUND:                -0.425
REMARK SMILES CCCCCCCC(=O)[O-]
REMARK SMILES IDX 5 1 6 2 7 3 8 4 9 5 10 6 4 7 3 8 2 9 1 10
REMARK H PARENT
REMARK Flexibility Score: inf
ROOT
ATOM      1  C   UNL     1      19.955   5.292   9.354  1.00  0.00     0.000 C 
ENDROOT
BRANCH   1   2
ATOM      2  C   UNL     1      20.592   6.413  10.184  1.00  0.00     0.006 C 
BRANCH   2   3
ATOM      3  C   UNL     1      22.112   6.242  10.263  1.00  0.00     0.053 C 
BRANCH   3   4
ATOM      4  C   UNL     1      22.713   7.306  11.126  1.00  0.00     0.041 C 
ATOM      5  O   UNL     1      22.053   8.341  11.407  1.00  0.00    -0.550 OA
ATOM      6  O   UNL     1      23.984   7.134  11.659  1.00  0.00    -0.550 OA
ENDBRANCH   3   4
ENDBRANCH   2   3
ENDBRANCH   1   2
BRANCH   1   7
ATOM      7  C   UNL     1      18.451   5.527   9.172  1.00  0.00     0.000 C 
BRANCH   7   8
ATOM      8  C   UNL     1      18.101   5.732   7.690  1.00  0.00    -0.000 C 
BRANCH   8   9
ATOM      9  C   UNL     1      17.689   7.178   7.376  1.00  0.00    -0.003 C 
ATOM     10  C   UNL     1      17.372   7.988   8.632  1.00  0.00     0.004 C 
ENDBRANCH   8   9
ENDBRANCH   7   8
ENDBRANCH   1   7
TORSDOF 6
ENDMDL
MODEL 5
REMARK VINA RESULT:    -3.418      9.479     12.434
REMARK INTER + INTRA:          -5.042
REMARK INTER:                  -4.696
REMARK INTRA:                  -0.346
REMARK UNBOUND:                -0.425
REMARK SMILES CCCCCCCC(=O)[O-]
REMARK SMILES IDX 5 1 6 2 7 3 8 4 9 5 10 6 4 7 3 8 2 9 1 10
REMARK H PARENT
REMARK Flexibility Score: inf
ROOT
ATOM      1  C   UNL     1      17.145   7.685   9.957  1.00  0.00     0.000 C 
ENDROOT
BRANCH   1   2
ATOM      2  C   UNL     1      18.180   8.153  10.986  1.00  0.00     0.006 C 
BRANCH   2   3
ATOM      3  C   UNL     1      18.883   6.960  11.641  1.00  0.00     0.053 C 
BRANCH   3   4
ATOM      4  C   UNL     1      20.049   7.423  12.456  1.00  0.00     0.041 C 
ATOM      5  O   UNL     1      20.067   7.232  13.701  1.00  0.00    -0.550 OA
ATOM      6  O   UNL     1      21.137   8.022  11.836  1.00  0.00    -0.550 OA
ENDBRANCH   3   4
ENDBRANCH   2   3
ENDBRANCH   1   2
BRANCH   1   7
ATOM      7  C   UNL     1      17.387   8.342   8.592  1.00  0.00     0.000 C 
BRANCH   7   8
ATOM      8  C   UNL     1      17.417   7.291   7.473  1.00  0.00    -0.000 C 
BRANCH   8   9
ATOM      9  C   UNL     1      18.382   6.134   7.775  1.00  0.00    -0.003 C 
ATOM     10  C   UNL     1      17.722   4.763   7.635  1.00  0.00     0.004 C 
ENDBRANCH   8   9
ENDBRANCH   7   8
ENDBRANCH   1   7
TORSDOF 6
ENDMDL
MODEL 6
REMARK VINA RESULT:    -3.412      7.373      8.709
REMARK INTER + INTRA:          -5.034
REMARK INTER:                  -4.811
REMARK INTRA:                  -0.223
REMARK UNBOUND:                -0.425
REMARK SMILES CCCCCCCC(=O)[O-]
REMARK SMILES IDX 5 1 6 2 7 3 8 4 9 5 10 6 4 7 3 8 2 9 1 10
REMARK H PARENT
REMARK Flexibility Score: inf
ROOT
ATOM      1  C   UNL     1      22.757   7.478  10.732  1.00  0.00     0.000 C 
ENDROOT
BRANCH   1   2
ATOM      2  C   UNL     1      21.714   7.152  11.808  1.00  0.00     0.006 C 
BRANCH   2   3
ATOM      3  C   UNL     1      22.385   6.665  13.095  1.00  0.00     0.053 C 
BRANCH   3   4
ATOM      4  C   UNL     1      21.411   6.678  14.230  1.00  0.00     0.041 C 
ATOM      5  O   UNL     1      20.406   7.436  14.193  1.00  0.00    -0.550 OA
ATOM      6  O   UNL     1      21.585   5.819  15.307  1.00  0.00    -0.550 OA
ENDBRANCH   3   4
ENDBRANCH   2   3
ENDBRANCH   1   2
BRANCH   1   7
ATOM      7  C   UNL     1      23.832   6.388  10.657  1.00  0.00     0.000 C 
BRANCH   7   8
ATOM      8  C   UNL     1      24.067   5.946   9.205  1.00  0.00    -0.000 C 
BRANCH   8   9
ATOM      9  C   UNL     1      23.264   4.690   8.833  1.00  0.00    -0.003 C 
ATOM     10  C   UNL     1      23.602   4.165   7.438  1.00  0.00     0.004 C 
ENDBRANCH   8   9
ENDBRANCH   7   8
ENDBRANCH   1   7
TORSDOF 6
ENDMDL
MODEL 7
REMARK VINA RESULT:    -3.398      5.075      7.620
REMARK INTER + INTRA:          -5.015
REMARK INTER:                  -4.388
REMARK INTRA:                  -0.627
REMARK UNBOUND:                -0.425
REMARK SMILES CCCCCCCC(=O)[O-]
REMARK SMILES IDX 5 1 6 2 7 3 8 4 9 5 10 6 4 7 3 8 2 9 1 10
REMARK H PARENT
REMARK Flexibility Score: inf
ROOT
ATOM      1  C   UNL     1      22.529   6.688  12.447  1.00  0.00     0.000 C 
ENDROOT
BRANCH   1   2
ATOM      2  C   UNL     1      23.608   5.724  12.955  1.00  0.00     0.006 C 
BRANCH   2   3
ATOM      3  C   UNL     1      24.910   6.470  13.264  1.00  0.00     0.053 C 
BRANCH   3   4
ATOM      4  C   UNL     1      26.010   5.993  12.369  1.00  0.00     0.041 C 
ATOM      5  O   UNL     1      26.627   6.809  11.634  1.00  0.00    -0.550 OA
ATOM      6  O   UNL     1      26.386   4.657  12.380  1.00  0.00    -0.550 OA
ENDBRANCH   3   4
ENDBRANCH   2   3
ENDBRANCH   1   2
BRANCH   1   7
ATOM      7  C   UNL     1      22.256   6.473  10.954  1.00  0.00     0.000 C 
BRANCH   7   8
ATOM      8  C   UNL     1      23.010   7.507  10.103  1.00  0.00    -0.000 C 
BRANCH   8   9
ATOM      9  C   UNL     1      24.129   6.876   9.261  1.00  0.00    -0.003 C 
ATOM     10  C   UNL     1      24.035   5.352   9.202  1.00  0.00     0.004 C 
ENDBRANCH   8   9
ENDBRANCH   7   8
ENDBRANCH   1   7
TORSDOF 6
ENDMDL
MODEL 8
REMARK VINA RESULT:    -3.388      7.279      8.782
REMARK INTER + INTRA:          -5.002
REMARK INTER:                  -4.763
REMARK INTRA:                  -0.239
REMARK UNBOUND:                -0.425
REMARK SMILES CCCCCCCC(=O)[O-]
REMARK SMILES IDX 5 1 6 2 7 3 8 4 9 5 10 6 4 7 3 8 2 9 1 10
REMARK H PARENT
REMARK Flexibility Score: inf
ROOT
ATOM      1  C   UNL     1      23.972   3.272  19.453  1.00  0.00     0.000 C 
ENDROOT
BRANCH   1   2
ATOM      2  C   UNL     1      24.079   2.146  20.488  1.00  0.00     0.006 C 
BRANCH   2   3
ATOM      3  C   UNL     1      23.080   2.353  21.631  1.00  0.00     0.053 C 
BRANCH   3   4
ATOM      4  C   UNL     1      22.463   1.050  22.029  1.00  0.00     0.041 C 
ATOM      5  O   UNL     1      21.344   0.711  21.561  1.00  0.00    -0.550 OA
ATOM      6  O   UNL     1      23.144   0.189  22.878  1.00  0.00    -0.550 OA
ENDBRANCH   3   4
ENDBRANCH   2   3
ENDBRANCH   1   2
BRANCH   1   7
ATOM      7  C   UNL     1      22.898   4.290  19.853  1.00  0.00     0.000 C 
BRANCH   7   8
ATOM      8  C   UNL     1      23.070   5.605  19.079  1.00  0.00    -0.000 C 
BRANCH   8   9
ATOM      9  C   UNL     1      23.065   5.398  17.557  1.00  0.00    -0.003 C 
ATOM     10  C   UNL     1      22.937   6.709  16.783  1.00  0.00     0.004 C 
ENDBRANCH   8   9
ENDBRANCH   7   8
ENDBRANCH   1   7
TORSDOF 6
ENDMDL
MODEL 9
REMARK VINA RESULT:    -3.315      5.308      6.403
REMARK INTER + INTRA:          -4.904
REMARK INTER:                  -4.597
REMARK INTRA:                  -0.307
REMARK UNBOUND:                -0.425
REMARK SMILES CCCCCCCC(=O)[O-]
REMARK SMILES IDX 5 1 6 2 7 3 8 4 9 5 10 6 4 7 3 8 2 9 1 10
REMARK H PARENT
REMARK Flexibility Score: inf
ROOT
ATOM      1  C   UNL     1      24.319   4.002  18.972  1.00  0.00     0.000 C 
ENDROOT
BRANCH   1   2
ATOM      2  C   UNL     1      23.259   4.448  17.957  1.00  0.00     0.006 C 
BRANCH   2   3
ATOM      3  C   UNL     1      22.984   5.950  18.074  1.00  0.00     0.053 C 
BRANCH   3   4
ATOM      4  C   UNL     1      22.848   6.564  16.717  1.00  0.00     0.041 C 
ATOM      5  O   UNL     1      21.837   6.313  16.007  1.00  0.00    -0.550 OA
ATOM      6  O   UNL     1      23.812   7.448  16.253  1.00  0.00    -0.550 OA
ENDBRANCH   3   4
ENDBRANCH   2   3
ENDBRANCH   1   2
BRANCH   1   7
ATOM      7  C   UNL     1      23.884   2.724  19.698  1.00  0.00     0.000 C 
BRANCH   7   8
ATOM      8  C   UNL     1      22.499   2.899  20.339  1.00  0.00    -0.000 C 
BRANCH   8   9
ATOM      9  C   UNL     1      22.567   3.582  21.714  1.00  0.00    -0.003 C 
ATOM     10  C   UNL     1      23.234   2.708  22.776  1.00  0.00     0.004 C 
ENDBRANCH   8   9
ENDBRANCH   7   8
ENDBRANCH   1   7
TORSDOF 6
ENDMDL
