MODEL 1
REMARK VINA RESULT:    -8.672      0.000      0.000
REMARK INTER + INTRA:         -10.412
REMARK INTER:                 -10.447
REMARK INTRA:                   0.034
REMARK UNBOUND:                 0.034
REMARK SMILES O=c1c(O)c(-c2ccc(O)c(O)c2)oc2cc(O)cc(O)c12
REMARK SMILES IDX 5 1 3 2 2 3 1 4 22 5 20 6 19 7 17 8 16 9 15 10 14 11 6 12
REMARK SMILES IDX 7 13 8 14 9 15 13 16 11 17 10 18 12 20 4 22 21 24 18 26
REMARK H PARENT 10 19 12 21 4 23 21 25 18 27
REMARK Flexibility Score: inf
ROOT
ATOM      1  C   UNL     1      98.794 101.548 100.110  1.00  0.00     0.180 A 
ATOM      2  C   UNL     1      97.992 100.429  99.807  1.00  0.00     0.208 A 
ATOM      3  C   UNL     1      96.852 100.609  99.008  1.00  0.00     0.238 A 
ATOM      4  O   UNL     1      96.133  99.614  98.721  1.00  0.00    -0.285 OA
ATOM      5  C   UNL     1      96.522 101.900  98.545  1.00  0.00     0.111 A 
ATOM      6  C   UNL     1      95.389 102.165  97.739  1.00  0.00     0.134 A 
ATOM      7  C   UNL     1      95.122 103.480  97.325  1.00  0.00     0.093 A 
ATOM      8  C   UNL     1      95.967 104.530  97.702  1.00  0.00     0.123 A 
ATOM      9  C   UNL     1      97.085 104.272  98.496  1.00  0.00     0.094 A 
ATOM     10  C   UNL     1      97.369 102.969  98.918  1.00  0.00     0.146 A 
ATOM     11  O   UNL     1      98.443 102.752  99.668  1.00  0.00    -0.452 OA
ENDROOT
BRANCH   1  12
ATOM     12  C   UNL     1     100.021 101.437 100.931  1.00  0.00     0.025 A 
ATOM     13  C   UNL     1     100.963 100.442 100.632  1.00  0.00     0.016 A 
ATOM     14  C   UNL     1     102.118 100.308 101.405  1.00  0.00     0.051 A 
ATOM     15  C   UNL     1     102.348 101.151 102.499  1.00  0.00     0.157 A 
ATOM     16  C   UNL     1     100.238 102.271 102.042  1.00  0.00     0.062 A 
ATOM     17  C   UNL     1     101.391 102.141 102.825  1.00  0.00     0.158 A 
BRANCH  15  18
ATOM     18  O   UNL     1     103.526 100.969 103.226  1.00  0.00    -0.504 OA
ATOM     19  H   UNL     1     103.968 100.072 103.369  1.00  0.00     0.293 HD
ENDBRANCH  15  18
BRANCH  17  20
ATOM     20  O   UNL     1     101.542 103.005 103.912  1.00  0.00    -0.504 OA
ATOM     21  H   UNL     1     102.410 103.140 104.410  1.00  0.00     0.293 HD
ENDBRANCH  17  20
ENDBRANCH   1  12
BRANCH   2  22
ATOM     22  O   UNL     1      98.314  99.170 100.321  1.00  0.00    -0.502 OA
ATOM     23  H   UNL     1      98.036  98.876 101.248  1.00  0.00     0.293 HD
ENDBRANCH   2  22
BRANCH   6  24
ATOM     24  O   UNL     1      94.528 101.139  97.347  1.00  0.00    -0.507 OA
ATOM     25  H   UNL     1      93.772 100.820  97.942  1.00  0.00     0.293 HD
ENDBRANCH   6  24
BRANCH   8  26
ATOM     26  O   UNL     1      95.703 105.835  97.292  1.00  0.00    -0.508 OA
ATOM     27  H   UNL     1      96.111 106.632  97.766  1.00  0.00     0.293 HD
ENDBRANCH   8  26
TORSDOF 6
ENDMDL
MODEL 2
REMARK VINA RESULT:    -8.235      1.633      7.402
REMARK INTER + INTRA:          -9.885
REMARK INTER:                  -9.629
REMARK INTRA:                  -0.256
REMARK UNBOUND:                 0.034
REMARK SMILES O=c1c(O)c(-c2ccc(O)c(O)c2)oc2cc(O)cc(O)c12
REMARK SMILES IDX 5 1 3 2 2 3 1 4 22 5 20 6 19 7 17 8 16 9 15 10 14 11 6 12
REMARK SMILES IDX 7 13 8 14 9 15 13 16 11 17 10 18 12 20 4 22 21 24 18 26
REMARK H PARENT 10 19 12 21 4 23 21 25 18 27
REMARK Flexibility Score: inf
ROOT
ATOM      1  C   UNL     1      99.655 101.463 100.237  1.00  0.00     0.180 A 
ATOM      2  C   UNL     1     100.073 102.406 101.198  1.00  0.00     0.208 A 
ATOM      3  C   UNL     1     101.181 102.105 102.005  1.00  0.00     0.238 A 
ATOM      4  O   UNL     1     101.570 102.945 102.860  1.00  0.00    -0.285 OA
ATOM      5  C   UNL     1     101.837 100.865 101.855  1.00  0.00     0.111 A 
ATOM      6  C   UNL     1     102.957 100.485 102.632  1.00  0.00     0.134 A 
ATOM      7  C   UNL     1     103.550  99.229 102.430  1.00  0.00     0.093 A 
ATOM      8  C   UNL     1     103.043  98.349 101.466  1.00  0.00     0.123 A 
ATOM      9  C   UNL     1     101.938  98.721 100.698  1.00  0.00     0.094 A 
ATOM     10  C   UNL     1     101.334  99.968 100.884  1.00  0.00     0.146 A 
ATOM     11  O   UNL     1     100.289 100.298 100.135  1.00  0.00    -0.452 OA
ENDROOT
BRANCH   1  12
ATOM     12  C   UNL     1      98.508 101.714  99.335  1.00  0.00     0.025 A 
ATOM     13  C   UNL     1      98.647 102.625  98.279  1.00  0.00     0.016 A 
ATOM     14  C   UNL     1      97.572 102.891  97.429  1.00  0.00     0.051 A 
ATOM     15  C   UNL     1      96.334 102.267  97.625  1.00  0.00     0.157 A 
ATOM     16  C   UNL     1      97.260 101.102  99.550  1.00  0.00     0.062 A 
ATOM     17  C   UNL     1      96.175 101.366  98.704  1.00  0.00     0.158 A 
BRANCH  15  18
ATOM     18  O   UNL     1      95.303 102.571  96.735  1.00  0.00    -0.504 OA
ATOM     19  H   UNL     1      94.729 103.400  96.798  1.00  0.00     0.293 HD
ENDBRANCH  15  18
BRANCH  17  20
ATOM     20  O   UNL     1      94.967 100.721  98.975  1.00  0.00    -0.504 OA
ATOM     21  H   UNL     1      94.709 100.361  99.883  1.00  0.00     0.293 HD
ENDBRANCH  17  20
ENDBRANCH   1  12
BRANCH   2  22
ATOM     22  O   UNL     1      99.374 103.605 101.359  1.00  0.00    -0.502 OA
ATOM     23  H   UNL     1      98.723 103.950 100.666  1.00  0.00     0.293 HD
ENDBRANCH   2  22
BRANCH   6  24
ATOM     24  O   UNL     1     103.485 101.340 103.601  1.00  0.00    -0.507 OA
ATOM     25  H   UNL     1     102.956 102.123 103.966  1.00  0.00     0.293 HD
ENDBRANCH   6  24
BRANCH   8  26
ATOM     26  O   UNL     1     103.630  97.102 101.265  1.00  0.00    -0.508 OA
ATOM     27  H   UNL     1     104.636  96.979 101.290  1.00  0.00     0.293 HD
ENDBRANCH   8  26
TORSDOF 6
ENDMDL
MODEL 3
REMARK VINA RESULT:    -8.056      2.099      3.805
REMARK INTER + INTRA:          -9.670
REMARK INTER:                  -9.525
REMARK INTRA:                  -0.145
REMARK UNBOUND:                 0.034
REMARK SMILES O=c1c(O)c(-c2ccc(O)c(O)c2)oc2cc(O)cc(O)c12
REMARK SMILES IDX 5 1 3 2 2 3 1 4 22 5 20 6 19 7 17 8 16 9 15 10 14 11 6 12
REMARK SMILES IDX 7 13 8 14 9 15 13 16 11 17 10 18 12 20 4 22 21 24 18 26
REMARK H PARENT 10 19 12 21 4 23 21 25 18 27
REMARK Flexibility Score: inf
ROOT
ATOM      1  C   UNL     1     100.081 100.181 100.804  1.00  0.00     0.180 A 
ATOM      2  C   UNL     1     100.210 101.584 100.822  1.00  0.00     0.208 A 
ATOM      3  C   UNL     1      99.185 102.366 100.267  1.00  0.00     0.238 A 
ATOM      4  O   UNL     1      99.284 103.623 100.288  1.00  0.00    -0.285 OA
ATOM      5  C   UNL     1      98.064 101.737  99.687  1.00  0.00     0.111 A 
ATOM      6  C   UNL     1      96.991 102.452  99.104  1.00  0.00     0.134 A 
ATOM      7  C   UNL     1      95.914 101.752  98.538  1.00  0.00     0.093 A 
ATOM      8  C   UNL     1      95.891 100.353  98.545  1.00  0.00     0.123 A 
ATOM      9  C   UNL     1      96.947  99.644  99.120  1.00  0.00     0.094 A 
ATOM     10  C   UNL     1      98.029 100.322  99.690  1.00  0.00     0.146 A 
ATOM     11  O   UNL     1      99.017  99.622 100.234  1.00  0.00    -0.452 OA
ENDROOT
BRANCH   1  12
ATOM     12  C   UNL     1     101.110  99.289 101.385  1.00  0.00     0.025 A 
ATOM     13  C   UNL     1     102.391  99.251 100.818  1.00  0.00     0.016 A 
ATOM     14  C   UNL     1     103.370  98.403 101.339  1.00  0.00     0.051 A 
ATOM     15  C   UNL     1     103.086  97.565 102.424  1.00  0.00     0.157 A 
ATOM     16  C   UNL     1     100.814  98.434 102.461  1.00  0.00     0.062 A 
ATOM     17  C   UNL     1     101.788  97.577 102.988  1.00  0.00     0.158 A 
BRANCH  15  18
ATOM     18  O   UNL     1     104.111  96.746 102.901  1.00  0.00    -0.504 OA
ATOM     19  H   UNL     1     105.036  97.078 103.134  1.00  0.00     0.293 HD
ENDBRANCH  15  18
BRANCH  17  20
ATOM     20  O   UNL     1     101.425  96.756 104.058  1.00  0.00    -0.504 OA
ATOM     21  H   UNL     1     100.515  96.770 104.498  1.00  0.00     0.293 HD
ENDBRANCH  17  20
ENDBRANCH   1  12
BRANCH   2  22
ATOM     22  O   UNL     1     101.354 102.181 101.359  1.00  0.00    -0.502 OA
ATOM     23  H   UNL     1     102.251 101.711 101.381  1.00  0.00     0.293 HD
ENDBRANCH   2  22
BRANCH   6  24
ATOM     24  O   UNL     1      96.985 103.848  99.081  1.00  0.00    -0.507 OA
ATOM     25  H   UNL     1      97.148 104.368  98.227  1.00  0.00     0.293 HD
ENDBRANCH   6  24
BRANCH   8  26
ATOM     26  O   UNL     1      94.823  99.657  97.983  1.00  0.00    -0.508 OA
ATOM     27  H   UNL     1      94.454  99.901  97.071  1.00  0.00     0.293 HD
ENDBRANCH   8  26
TORSDOF 6
ENDMDL
MODEL 4
REMARK VINA RESULT:    -7.700      1.719      7.453
REMARK INTER + INTRA:          -9.241
REMARK INTER:                  -9.328
REMARK INTRA:                   0.087
REMARK UNBOUND:                 0.034
REMARK SMILES O=c1c(O)c(-c2ccc(O)c(O)c2)oc2cc(O)cc(O)c12
REMARK SMILES IDX 5 1 3 2 2 3 1 4 22 5 20 6 19 7 17 8 16 9 15 10 14 11 6 12
REMARK SMILES IDX 7 13 8 14 9 15 13 16 11 17 10 18 12 20 4 22 21 24 18 26
REMARK H PARENT 10 19 12 21 4 23 21 25 18 27
REMARK Flexibility Score: inf
ROOT
ATOM      1  C   UNL     1      99.277 101.237 100.632  1.00  0.00     0.180 A 
ATOM      2  C   UNL     1      99.967 102.319 101.213  1.00  0.00     0.208 A 
ATOM      3  C   UNL     1     101.018 102.053 102.105  1.00  0.00     0.238 A 
ATOM      4  O   UNL     1     101.649 103.014 102.622  1.00  0.00    -0.285 OA
ATOM      5  C   UNL     1     101.347 100.718 102.416  1.00  0.00     0.111 A 
ATOM      6  C   UNL     1     102.388 100.365 103.307  1.00  0.00     0.134 A 
ATOM      7  C   UNL     1     102.649  99.012 103.573  1.00  0.00     0.093 A 
ATOM      8  C   UNL     1     101.887  98.007 102.964  1.00  0.00     0.123 A 
ATOM      9  C   UNL     1     100.859  98.351 102.085  1.00  0.00     0.094 A 
ATOM     10  C   UNL     1     100.585  99.693 101.806  1.00  0.00     0.146 A 
ATOM     11  O   UNL     1      99.605  99.991 100.961  1.00  0.00    -0.452 OA
ENDROOT
BRANCH   1  12
ATOM     12  C   UNL     1      98.170 101.435  99.668  1.00  0.00     0.025 A 
ATOM     13  C   UNL     1      98.312 102.376  98.638  1.00  0.00     0.016 A 
ATOM     14  C   UNL     1      97.274 102.593  97.731  1.00  0.00     0.051 A 
ATOM     15  C   UNL     1      96.069 101.888  97.842  1.00  0.00     0.157 A 
ATOM     16  C   UNL     1      96.954 100.742  99.797  1.00  0.00     0.062 A 
ATOM     17  C   UNL     1      95.905 100.955  98.894  1.00  0.00     0.158 A 
BRANCH  15  18
ATOM     18  O   UNL     1      95.073 102.146  96.899  1.00  0.00    -0.504 OA
ATOM     19  H   UNL     1      94.392 102.888  96.984  1.00  0.00     0.293 HD
ENDBRANCH  15  18
BRANCH  17  20
ATOM     20  O   UNL     1      94.727 100.230  99.080  1.00  0.00    -0.504 OA
ATOM     21  H   UNL     1      94.172  99.849  98.327  1.00  0.00     0.293 HD
ENDBRANCH  17  20
ENDBRANCH   1  12
BRANCH   2  22
ATOM     22  O   UNL     1      99.588 103.634 100.926  1.00  0.00    -0.502 OA
ATOM     23  H   UNL     1     100.259 104.349 100.674  1.00  0.00     0.293 HD
ENDBRANCH   2  22
BRANCH   6  24
ATOM     24  O   UNL     1     103.164 101.344 103.929  1.00  0.00    -0.507 OA
ATOM     25  H   UNL     1     103.201 102.296 103.583  1.00  0.00     0.293 HD
ENDBRANCH   6  24
BRANCH   8  26
ATOM     26  O   UNL     1     102.144  96.664 103.228  1.00  0.00    -0.508 OA
ATOM     27  H   UNL     1     101.462  95.943 103.023  1.00  0.00     0.293 HD
ENDBRANCH   8  26
TORSDOF 6
ENDMDL
MODEL 5
REMARK VINA RESULT:    -7.651      1.730      3.344
REMARK INTER + INTRA:          -9.182
REMARK INTER:                  -8.867
REMARK INTRA:                  -0.315
REMARK UNBOUND:                 0.034
REMARK SMILES O=c1c(O)c(-c2ccc(O)c(O)c2)oc2cc(O)cc(O)c12
REMARK SMILES IDX 5 1 3 2 2 3 1 4 22 5 20 6 19 7 17 8 16 9 15 10 14 11 6 12
REMARK SMILES IDX 7 13 8 14 9 15 13 16 11 17 10 18 12 20 4 22 21 24 18 26
REMARK H PARENT 10 19 12 21 4 23 21 25 18 27
REMARK Flexibility Score: inf
ROOT
ATOM      1  C   UNL     1      98.268 101.051 100.029  1.00  0.00     0.180 A 
ATOM      2  C   UNL     1      98.158 102.416  99.697  1.00  0.00     0.208 A 
ATOM      3  C   UNL     1      97.053 102.843  98.944  1.00  0.00     0.238 A 
ATOM      4  O   UNL     1      96.939 104.064  98.650  1.00  0.00    -0.285 OA
ATOM      5  C   UNL     1      96.092 101.903  98.520  1.00  0.00     0.111 A 
ATOM      6  C   UNL     1      94.953 102.252  97.756  1.00  0.00     0.134 A 
ATOM      7  C   UNL     1      94.046 101.255  97.364  1.00  0.00     0.093 A 
ATOM      8  C   UNL     1      94.257  99.919  97.723  1.00  0.00     0.123 A 
ATOM      9  C   UNL     1      95.379  99.571  98.476  1.00  0.00     0.094 A 
ATOM     10  C   UNL     1      96.294 100.549  98.877  1.00  0.00     0.146 A 
ATOM     11  O   UNL     1      97.350 100.190  99.599  1.00  0.00    -0.452 OA
ENDROOT
BRANCH   1  12
ATOM     12  C   UNL     1      99.393 100.525 100.836  1.00  0.00     0.025 A 
ATOM     13  C   UNL     1      99.337 100.607 102.234  1.00  0.00     0.016 A 
ATOM     14  C   UNL     1     100.395 100.135 103.013  1.00  0.00     0.051 A 
ATOM     15  C   UNL     1     101.535  99.588 102.412  1.00  0.00     0.157 A 
ATOM     16  C   UNL     1     100.545  99.997 100.228  1.00  0.00     0.062 A 
ATOM     17  C   UNL     1     101.613  99.525 101.000  1.00  0.00     0.158 A 
BRANCH  15  18
ATOM     18  O   UNL     1     102.555  99.128 103.247  1.00  0.00    -0.504 OA
ATOM     19  H   UNL     1     103.056  99.712 103.901  1.00  0.00     0.293 HD
ENDBRANCH  15  18
BRANCH  17  20
ATOM     20  O   UNL     1     102.726  99.012 100.330  1.00  0.00    -0.504 OA
ATOM     21  H   UNL     1     103.670  99.052 100.688  1.00  0.00     0.293 HD
ENDBRANCH  17  20
ENDBRANCH   1  12
BRANCH   2  22
ATOM     22  O   UNL     1      99.151 103.319 100.087  1.00  0.00    -0.502 OA
ATOM     23  H   UNL     1     100.061 103.347  99.645  1.00  0.00     0.293 HD
ENDBRANCH   2  22
BRANCH   6  24
ATOM     24  O   UNL     1      94.715 103.576  97.383  1.00  0.00    -0.507 OA
ATOM     25  H   UNL     1      94.108 103.810  96.606  1.00  0.00     0.293 HD
ENDBRANCH   6  24
BRANCH   8  26
ATOM     26  O   UNL     1      93.358  98.929  97.333  1.00  0.00    -0.508 OA
ATOM     27  H   UNL     1      93.607  97.947  97.360  1.00  0.00     0.293 HD
ENDBRANCH   8  26
TORSDOF 6
ENDMDL
MODEL 6
REMARK VINA RESULT:    -7.634      1.629      2.916
REMARK INTER + INTRA:          -9.162
REMARK INTER:                  -8.835
REMARK INTRA:                  -0.327
REMARK UNBOUND:                 0.034
REMARK SMILES O=c1c(O)c(-c2ccc(O)c(O)c2)oc2cc(O)cc(O)c12
REMARK SMILES IDX 5 1 3 2 2 3 1 4 22 5 20 6 19 7 17 8 16 9 15 10 14 11 6 12
REMARK SMILES IDX 7 13 8 14 9 15 13 16 11 17 10 18 12 20 4 22 21 24 18 26
REMARK H PARENT 10 19 12 21 4 23 21 25 18 27
REMARK Flexibility Score: inf
ROOT
ATOM      1  C   UNL     1      98.489 101.210 100.112  1.00  0.00     0.180 A 
ATOM      2  C   UNL     1      98.402 101.895  98.884  1.00  0.00     0.208 A 
ATOM      3  C   UNL     1      97.170 101.924  98.211  1.00  0.00     0.238 A 
ATOM      4  O   UNL     1      97.077 102.543  97.117  1.00  0.00    -0.285 OA
ATOM      5  C   UNL     1      96.058 101.255  98.762  1.00  0.00     0.111 A 
ATOM      6  C   UNL     1      94.784 101.234  98.145  1.00  0.00     0.134 A 
ATOM      7  C   UNL     1      93.728 100.537  98.752  1.00  0.00     0.093 A 
ATOM      8  C   UNL     1      93.923  99.863  99.963  1.00  0.00     0.123 A 
ATOM      9  C   UNL     1      95.177  99.882 100.575  1.00  0.00     0.094 A 
ATOM     10  C   UNL     1      96.242 100.571  99.987  1.00  0.00     0.146 A 
ATOM     11  O   UNL     1      97.423 100.577 100.594  1.00  0.00    -0.452 OA
ENDROOT
BRANCH   1  12
ATOM     12  C   UNL     1      99.747 101.149 100.892  1.00  0.00     0.025 A 
ATOM     13  C   UNL     1     100.660 100.113 100.649  1.00  0.00     0.016 A 
ATOM     14  C   UNL     1     101.843 100.026 101.385  1.00  0.00     0.051 A 
ATOM     15  C   UNL     1     102.130 100.959 102.388  1.00  0.00     0.157 A 
ATOM     16  C   UNL     1     100.021 102.075 101.913  1.00  0.00     0.062 A 
ATOM     17  C   UNL     1     101.203 101.994 102.660  1.00  0.00     0.158 A 
BRANCH  15  18
ATOM     18  O   UNL     1     103.332 100.820 103.083  1.00  0.00    -0.504 OA
ATOM     19  H   UNL     1     103.416 100.893 104.087  1.00  0.00     0.293 HD
ENDBRANCH  15  18
BRANCH  17  20
ATOM     20  O   UNL     1     101.411 102.949 103.657  1.00  0.00    -0.504 OA
ATOM     21  H   UNL     1     102.261 103.485 103.758  1.00  0.00     0.293 HD
ENDBRANCH  17  20
ENDBRANCH   1  12
BRANCH   2  22
ATOM     22  O   UNL     1      99.532 102.507  98.336  1.00  0.00    -0.502 OA
ATOM     23  H   UNL     1      99.542 103.483  98.066  1.00  0.00     0.293 HD
ENDBRANCH   2  22
BRANCH   6  24
ATOM     24  O   UNL     1      94.559 101.896  96.937  1.00  0.00    -0.507 OA
ATOM     25  H   UNL     1      93.656 101.877  96.478  1.00  0.00     0.293 HD
ENDBRANCH   6  24
BRANCH   8  26
ATOM     26  O   UNL     1      92.875  99.170 100.566  1.00  0.00    -0.508 OA
ATOM     27  H   UNL     1      92.024  99.641 100.852  1.00  0.00     0.293 HD
ENDBRANCH   8  26
TORSDOF 6
ENDMDL
MODEL 7
REMARK VINA RESULT:    -7.521      3.856      6.768
REMARK INTER + INTRA:          -9.025
REMARK INTER:                  -8.693
REMARK INTRA:                  -0.332
REMARK UNBOUND:                 0.034
REMARK SMILES O=c1c(O)c(-c2ccc(O)c(O)c2)oc2cc(O)cc(O)c12
REMARK SMILES IDX 5 1 3 2 2 3 1 4 22 5 20 6 19 7 17 8 16 9 15 10 14 11 6 12
REMARK SMILES IDX 7 13 8 14 9 15 13 16 11 17 10 18 12 20 4 22 21 24 18 26
REMARK H PARENT 10 19 12 21 4 23 21 25 18 27
REMARK Flexibility Score: inf
ROOT
ATOM      1  C   UNL     1      94.919  99.782  97.919  1.00  0.00     0.180 A 
ATOM      2  C   UNL     1      94.104  99.143  98.873  1.00  0.00     0.208 A 
ATOM      3  C   UNL     1      93.714  97.813  98.650  1.00  0.00     0.238 A 
ATOM      4  O   UNL     1      92.993  97.227  99.502  1.00  0.00    -0.285 OA
ATOM      5  C   UNL     1      94.126  97.154  97.473  1.00  0.00     0.111 A 
ATOM      6  C   UNL     1      93.773  95.817  97.172  1.00  0.00     0.134 A 
ATOM      7  C   UNL     1      94.215  95.233  95.974  1.00  0.00     0.093 A 
ATOM      8  C   UNL     1      95.002  95.962  95.075  1.00  0.00     0.123 A 
ATOM      9  C   UNL     1      95.352  97.281  95.369  1.00  0.00     0.094 A 
ATOM     10  C   UNL     1      94.923  97.880  96.557  1.00  0.00     0.146 A 
ATOM     11  O   UNL     1      95.276  99.134  96.813  1.00  0.00    -0.452 OA
ENDROOT
BRANCH   1  12
ATOM     12  C   UNL     1      95.388 101.176  98.091  1.00  0.00     0.025 A 
ATOM     13  C   UNL     1      94.637 102.229  97.549  1.00  0.00     0.016 A 
ATOM     14  C   UNL     1      95.070 103.549  97.683  1.00  0.00     0.051 A 
ATOM     15  C   UNL     1      96.267 103.844  98.345  1.00  0.00     0.157 A 
ATOM     16  C   UNL     1      96.602 101.466  98.737  1.00  0.00     0.062 A 
ATOM     17  C   UNL     1      97.047 102.787  98.874  1.00  0.00     0.158 A 
BRANCH  15  18
ATOM     18  O   UNL     1      96.641 105.185  98.451  1.00  0.00    -0.504 OA
ATOM     19  H   UNL     1      97.452 105.506  98.960  1.00  0.00     0.293 HD
ENDBRANCH  15  18
BRANCH  17  20
ATOM     20  O   UNL     1      98.261 103.002  99.529  1.00  0.00    -0.504 OA
ATOM     21  H   UNL     1      98.696 103.908  99.630  1.00  0.00     0.293 HD
ENDBRANCH  17  20
ENDBRANCH   1  12
BRANCH   2  22
ATOM     22  O   UNL     1      93.669  99.835 100.007  1.00  0.00    -0.502 OA
ATOM     23  H   UNL     1      93.338 100.791  99.964  1.00  0.00     0.293 HD
ENDBRANCH   2  22
BRANCH   6  24
ATOM     24  O   UNL     1      92.990  95.065  98.048  1.00  0.00    -0.507 OA
ATOM     25  H   UNL     1      92.207  94.509  97.722  1.00  0.00     0.293 HD
ENDBRANCH   6  24
BRANCH   8  26
ATOM     26  O   UNL     1      95.440  95.385  93.885  1.00  0.00    -0.508 OA
ATOM     27  H   UNL     1      95.176  94.441  93.626  1.00  0.00     0.293 HD
ENDBRANCH   8  26
TORSDOF 6
ENDMDL
MODEL 8
REMARK VINA RESULT:    -7.465      4.912      7.402
REMARK INTER + INTRA:          -8.958
REMARK INTER:                  -9.088
REMARK INTRA:                   0.131
REMARK UNBOUND:                 0.034
REMARK SMILES O=c1c(O)c(-c2ccc(O)c(O)c2)oc2cc(O)cc(O)c12
REMARK SMILES IDX 5 1 3 2 2 3 1 4 22 5 20 6 19 7 17 8 16 9 15 10 14 11 6 12
REMARK SMILES IDX 7 13 8 14 9 15 13 16 11 17 10 18 12 20 4 22 21 24 18 26
REMARK H PARENT 10 19 12 21 4 23 21 25 18 27
REMARK Flexibility Score: inf
ROOT
ATOM      1  C   UNL     1      94.608  98.958  97.279  1.00  0.00     0.180 A 
ATOM      2  C   UNL     1      94.180  98.878  98.619  1.00  0.00     0.208 A 
ATOM      3  C   UNL     1      94.232 100.031  99.417  1.00  0.00     0.238 A 
ATOM      4  O   UNL     1      93.841  99.974 100.614  1.00  0.00    -0.285 OA
ATOM      5  C   UNL     1      94.729 101.234  98.873  1.00  0.00     0.111 A 
ATOM      6  C   UNL     1      94.818 102.438  99.613  1.00  0.00     0.134 A 
ATOM      7  C   UNL     1      95.333 103.592  99.003  1.00  0.00     0.093 A 
ATOM      8  C   UNL     1      95.759 103.564  97.669  1.00  0.00     0.123 A 
ATOM      9  C   UNL     1      95.672 102.379  96.938  1.00  0.00     0.094 A 
ATOM     10  C   UNL     1      95.161 101.218  97.527  1.00  0.00     0.146 A 
ATOM     11  O   UNL     1      95.085 100.106  96.805  1.00  0.00    -0.452 OA
ENDROOT
BRANCH   1  12
ATOM     12  C   UNL     1      94.566  97.792  96.368  1.00  0.00     0.025 A 
ATOM     13  C   UNL     1      93.450  96.944  96.384  1.00  0.00     0.016 A 
ATOM     14  C   UNL     1      93.399  95.827  95.547  1.00  0.00     0.051 A 
ATOM     15  C   UNL     1      94.465  95.526  94.691  1.00  0.00     0.157 A 
ATOM     16  C   UNL     1      95.648  97.481  95.526  1.00  0.00     0.062 A 
ATOM     17  C   UNL     1      95.608  96.361  94.686  1.00  0.00     0.158 A 
BRANCH  15  18
ATOM     18  O   UNL     1      94.347  94.400  93.875  1.00  0.00    -0.504 OA
ATOM     19  H   UNL     1      93.467  94.031  93.545  1.00  0.00     0.293 HD
ENDBRANCH  15  18
BRANCH  17  20
ATOM     20  O   UNL     1      96.717  96.114  93.875  1.00  0.00    -0.504 OA
ATOM     21  H   UNL     1      97.613  96.566  93.989  1.00  0.00     0.293 HD
ENDBRANCH  17  20
ENDBRANCH   1  12
BRANCH   2  22
ATOM     22  O   UNL     1      93.739  97.662  99.147  1.00  0.00    -0.502 OA
ATOM     23  H   UNL     1      93.812  97.440 100.132  1.00  0.00     0.293 HD
ENDBRANCH   2  22
BRANCH   6  24
ATOM     24  O   UNL     1      94.401 102.498 100.943  1.00  0.00    -0.507 OA
ATOM     25  H   UNL     1      94.024 101.688 101.421  1.00  0.00     0.293 HD
ENDBRANCH   6  24
BRANCH   8  26
ATOM     26  O   UNL     1      96.271 104.709  97.063  1.00  0.00    -0.508 OA
ATOM     27  H   UNL     1      96.620 104.694  96.112  1.00  0.00     0.293 HD
ENDBRANCH   8  26
TORSDOF 6
ENDMDL
MODEL 9
REMARK VINA RESULT:    -7.031      5.138      7.705
REMARK INTER + INTRA:          -8.435
REMARK INTER:                  -8.307
REMARK INTRA:                  -0.128
REMARK UNBOUND:                 0.034
REMARK SMILES O=c1c(O)c(-c2ccc(O)c(O)c2)oc2cc(O)cc(O)c12
REMARK SMILES IDX 5 1 3 2 2 3 1 4 22 5 20 6 19 7 17 8 16 9 15 10 14 11 6 12
REMARK SMILES IDX 7 13 8 14 9 15 13 16 11 17 10 18 12 20 4 22 21 24 18 26
REMARK H PARENT 10 19 12 21 4 23 21 25 18 27
REMARK Flexibility Score: inf
ROOT
ATOM      1  C   UNL     1      94.746  99.301  97.152  1.00  0.00     0.180 A 
ATOM      2  C   UNL     1      95.064 100.587  96.673  1.00  0.00     0.208 A 
ATOM      3  C   UNL     1      95.027 101.671  97.565  1.00  0.00     0.238 A 
ATOM      4  O   UNL     1      95.320 102.825  97.150  1.00  0.00    -0.285 OA
ATOM      5  C   UNL     1      94.655 101.456  98.908  1.00  0.00     0.111 A 
ATOM      6  C   UNL     1      94.590 102.494  99.868  1.00  0.00     0.134 A 
ATOM      7  C   UNL     1      94.202 102.201 101.185  1.00  0.00     0.093 A 
ATOM      8  C   UNL     1      93.879 100.891 101.557  1.00  0.00     0.123 A 
ATOM      9  C   UNL     1      93.942  99.864 100.613  1.00  0.00     0.094 A 
ATOM     10  C   UNL     1      94.328 100.135  99.297  1.00  0.00     0.146 A 
ATOM     11  O   UNL     1      94.385  99.138  98.421  1.00  0.00    -0.452 OA
ENDROOT
BRANCH   1  12
ATOM     12  C   UNL     1      94.780  98.106  96.278  1.00  0.00     0.025 A 
ATOM     13  C   UNL     1      93.634  97.307  96.156  1.00  0.00     0.016 A 
ATOM     14  C   UNL     1      93.650  96.165  95.354  1.00  0.00     0.051 A 
ATOM     15  C   UNL     1      94.813  95.789  94.671  1.00  0.00     0.157 A 
ATOM     16  C   UNL     1      95.956  97.719  95.612  1.00  0.00     0.062 A 
ATOM     17  C   UNL     1      95.983  96.574  94.807  1.00  0.00     0.158 A 
BRANCH  15  18
ATOM     18  O   UNL     1      94.760  94.640  93.879  1.00  0.00    -0.504 OA
ATOM     19  H   UNL     1      94.761  94.651  92.869  1.00  0.00     0.293 HD
ENDBRANCH  15  18
BRANCH  17  20
ATOM     20  O   UNL     1      97.184  96.250  94.173  1.00  0.00    -0.504 OA
ATOM     21  H   UNL     1      98.073  96.676  94.395  1.00  0.00     0.293 HD
ENDBRANCH  17  20
ENDBRANCH   1  12
BRANCH   2  22
ATOM     22  O   UNL     1      95.380 100.780  95.326  1.00  0.00    -0.502 OA
ATOM     23  H   UNL     1      96.336 100.842  94.997  1.00  0.00     0.293 HD
ENDBRANCH   2  22
BRANCH   6  24
ATOM     24  O   UNL     1      94.906 103.810  99.527  1.00  0.00    -0.507 OA
ATOM     25  H   UNL     1      95.475 104.029  98.718  1.00  0.00     0.293 HD
ENDBRANCH   6  24
BRANCH   8  26
ATOM     26  O   UNL     1      93.493 100.599 102.863  1.00  0.00    -0.508 OA
ATOM     27  H   UNL     1      94.140 100.685 103.639  1.00  0.00     0.293 HD
ENDBRANCH   8  26
TORSDOF 6
ENDMDL
