MODEL 1
REMARK VINA RESULT:    -3.875      0.000      0.000
REMARK INTER + INTRA:          -6.359
REMARK INTER:                  -4.781
REMARK INTRA:                  -1.578
REMARK UNBOUND:                -1.578
REMARK SMILES CC(C)=CCC[C@H](C)c1ccc(C)cc1
REMARK SMILES IDX 6 1 7 2 8 3 9 4 13 5 12 6 11 7 14 8 10 9 15 10 5 11 4 12
REMARK SMILES IDX 2 13 1 14 3 15
REMARK H PARENT
REMARK Flexibility Score: inf
ROOT
ATOM      1  C   UNL     1      -5.606  -8.377  10.488  1.00  0.00     0.012 C 
ENDROOT
BRANCH   1   2
ATOM      2  C   UNL     1      -5.421  -7.721  11.879  1.00  0.00     0.016 C 
ATOM      3  C   UNL     1      -5.472  -6.187  11.804  1.00  0.00     0.013 C 
BRANCH   2   4
ATOM      4  C   UNL     1      -4.115  -8.169  12.510  1.00  0.00    -0.045 A 
ATOM      5  C   UNL     1      -0.374  -9.405  14.282  1.00  0.00     0.044 C 
ATOM      6  C   UNL     1      -1.686  -8.980  13.693  1.00  0.00    -0.051 A 
ATOM      7  C   UNL     1      -2.047  -7.625  13.676  1.00  0.00     0.004 A 
ATOM      8  C   UNL     1      -2.532  -9.925  13.095  1.00  0.00     0.004 A 
ATOM      9  C   UNL     1      -3.254  -7.223  13.095  1.00  0.00     0.004 A 
ATOM     10  C   UNL     1      -3.738  -9.525  12.513  1.00  0.00     0.004 A 
ENDBRANCH   2   4
ENDBRANCH   1   2
BRANCH   1  11
ATOM     11  C   UNL     1      -4.697  -7.780   9.401  1.00  0.00     0.028 C 
BRANCH  11  12
ATOM     12  C   UNL     1      -3.659  -8.781   8.943  1.00  0.00    -0.028 C 
ATOM     13  C   UNL     1      -2.326  -8.652   9.121  1.00  0.00    -0.080 C 
ATOM     14  C   UNL     1      -1.424  -9.733   8.582  1.00  0.00     0.039 C 
ATOM     15  C   UNL     1      -1.720  -7.466   9.833  1.00  0.00     0.039 C 
ENDBRANCH  11  12
ENDBRANCH   1  11
TORSDOF 4
ENDMDL
MODEL 2
REMARK VINA RESULT:    -3.871      0.975      3.949
REMARK INTER + INTRA:          -6.355
REMARK INTER:                  -4.824
REMARK INTRA:                  -1.531
REMARK UNBOUND:                -1.578
REMARK SMILES CC(C)=CCC[C@H](C)c1ccc(C)cc1
REMARK SMILES IDX 6 1 7 2 8 3 9 4 13 5 12 6 11 7 14 8 10 9 15 10 5 11 4 12
REMARK SMILES IDX 2 13 1 14 3 15
REMARK H PARENT
REMARK Flexibility Score: inf
ROOT
ATOM      1  C   UNL     1      -4.650  -6.394  11.899  1.00  0.00     0.012 C 
ENDROOT
BRANCH   1   2
ATOM      2  C   UNL     1      -4.693  -6.624  10.367  1.00  0.00     0.016 C 
ATOM      3  C   UNL     1      -6.034  -7.220   9.910  1.00  0.00     0.013 C 
BRANCH   2   4
ATOM      4  C   UNL     1      -3.548  -7.521   9.930  1.00  0.00    -0.045 A 
ATOM      5  C   UNL     1      -0.270 -10.033   8.664  1.00  0.00     0.044 C 
ATOM      6  C   UNL     1      -1.408  -9.174   9.130  1.00  0.00    -0.051 A 
ATOM      7  C   UNL     1      -1.157  -7.934   9.734  1.00  0.00     0.004 A 
ATOM      8  C   UNL     1      -2.733  -9.574   8.905  1.00  0.00     0.004 A 
ATOM      9  C   UNL     1      -2.217  -7.116  10.136  1.00  0.00     0.004 A 
ATOM     10  C   UNL     1      -3.795  -8.758   9.306  1.00  0.00     0.004 A 
ENDBRANCH   2   4
ENDBRANCH   1   2
BRANCH   1  11
ATOM     11  C   UNL     1      -4.631  -7.698  12.715  1.00  0.00     0.028 C 
BRANCH  11  12
ATOM     12  C   UNL     1      -3.375  -7.802  13.551  1.00  0.00    -0.028 C 
ATOM     13  C   UNL     1      -2.506  -8.836  13.519  1.00  0.00    -0.080 C 
ATOM     14  C   UNL     1      -1.310  -8.795  14.436  1.00  0.00     0.039 C 
ATOM     15  C   UNL     1      -2.698 -10.020  12.602  1.00  0.00     0.039 C 
ENDBRANCH  11  12
ENDBRANCH   1  11
TORSDOF 4
ENDMDL
MODEL 3
REMARK VINA RESULT:    -3.794      1.275      4.518
REMARK INTER + INTRA:          -6.260
REMARK INTER:                  -4.966
REMARK INTRA:                  -1.294
REMARK UNBOUND:                -1.578
REMARK SMILES CC(C)=CCC[C@H](C)c1ccc(C)cc1
REMARK SMILES IDX 6 1 7 2 8 3 9 4 13 5 12 6 11 7 14 8 10 9 15 10 5 11 4 12
REMARK SMILES IDX 2 13 1 14 3 15
REMARK H PARENT
REMARK Flexibility Score: inf
ROOT
ATOM      1  C   UNL     1      -2.639  -7.054  13.436  1.00  0.00     0.012 C 
ENDROOT
BRANCH   1   2
ATOM      2  C   UNL     1      -3.618  -6.967  12.239  1.00  0.00     0.016 C 
ATOM      3  C   UNL     1      -5.033  -7.434  12.616  1.00  0.00     0.013 C 
BRANCH   2   4
ATOM      4  C   UNL     1      -3.098  -7.777  11.065  1.00  0.00    -0.045 A 
ATOM      5  C   UNL     1      -1.623 -10.125   7.752  1.00  0.00     0.044 C 
ATOM      6  C   UNL     1      -2.151  -9.293   8.883  1.00  0.00    -0.051 A 
ATOM      7  C   UNL     1      -3.307  -9.689   9.572  1.00  0.00     0.004 A 
ATOM      8  C   UNL     1      -1.457  -8.150   9.304  1.00  0.00     0.004 A 
ATOM      9  C   UNL     1      -3.780  -8.935  10.650  1.00  0.00     0.004 A 
ATOM     10  C   UNL     1      -1.928  -7.395  10.382  1.00  0.00     0.004 A 
ENDBRANCH   2   4
ENDBRANCH   1   2
BRANCH   1  11
ATOM     11  C   UNL     1      -2.540  -8.461  14.048  1.00  0.00     0.028 C 
BRANCH  11  12
ATOM     12  C   UNL     1      -1.127  -8.769  14.491  1.00  0.00    -0.028 C 
ATOM     13  C   UNL     1      -0.243  -9.517  13.796  1.00  0.00    -0.080 C 
ATOM     14  C   UNL     1       1.123  -9.747  14.390  1.00  0.00     0.039 C 
ATOM     15  C   UNL     1      -0.581 -10.124  12.455  1.00  0.00     0.039 C 
ENDBRANCH  11  12
ENDBRANCH   1  11
TORSDOF 4
ENDMDL
MODEL 4
REMARK VINA RESULT:    -3.764     15.206     16.308
REMARK INTER + INTRA:          -6.223
REMARK INTER:                  -5.437
REMARK INTRA:                  -0.786
REMARK UNBOUND:                -1.578
REMARK SMILES CC(C)=CCC[C@H](C)c1ccc(C)cc1
REMARK SMILES IDX 6 1 7 2 8 3 9 4 13 5 12 6 11 7 14 8 10 9 15 10 5 11 4 12
REMARK SMILES IDX 2 13 1 14 3 15
REMARK H PARENT
REMARK Flexibility Score: inf
ROOT
ATOM      1  C   UNL     1       2.756   7.265   9.545  1.00  0.00     0.012 C 
ENDROOT
BRANCH   1   2
ATOM      2  C   UNL     1       3.743   6.993   8.383  1.00  0.00     0.016 C 
ATOM      3  C   UNL     1       3.013   6.689   7.065  1.00  0.00     0.013 C 
BRANCH   2   4
ATOM      4  C   UNL     1       4.680   5.852   8.734  1.00  0.00    -0.045 A 
ATOM      5  C   UNL     1       7.379   2.636   9.754  1.00  0.00     0.044 C 
ATOM      6  C   UNL     1       6.419   3.736   9.409  1.00  0.00    -0.051 A 
ATOM      7  C   UNL     1       6.116   4.731  10.350  1.00  0.00     0.004 A 
ATOM      8  C   UNL     1       5.869   3.817   8.122  1.00  0.00     0.004 A 
ATOM      9  C   UNL     1       5.250   5.777  10.018  1.00  0.00     0.004 A 
ATOM     10  C   UNL     1       5.003   4.862   7.788  1.00  0.00     0.004 A 
ENDBRANCH   2   4
ENDBRANCH   1   2
BRANCH   1  11
ATOM     11  C   UNL     1       1.532   6.335   9.541  1.00  0.00     0.028 C 
BRANCH  11  12
ATOM     12  C   UNL     1       0.244   7.123   9.624  1.00  0.00    -0.028 C 
ATOM     13  C   UNL     1      -0.722   7.132   8.680  1.00  0.00    -0.080 C 
ATOM     14  C   UNL     1      -1.939   7.992   8.907  1.00  0.00     0.039 C 
ATOM     15  C   UNL     1      -0.617   6.314   7.414  1.00  0.00     0.039 C 
ENDBRANCH  11  12
ENDBRANCH   1  11
TORSDOF 4
ENDMDL
MODEL 5
REMARK VINA RESULT:    -3.756      1.368      4.976
REMARK INTER + INTRA:          -6.212
REMARK INTER:                  -4.755
REMARK INTRA:                  -1.457
REMARK UNBOUND:                -1.578
REMARK SMILES CC(C)=CCC[C@H](C)c1ccc(C)cc1
REMARK SMILES IDX 6 1 7 2 8 3 9 4 13 5 12 6 11 7 14 8 10 9 15 10 5 11 4 12
REMARK SMILES IDX 2 13 1 14 3 15
REMARK H PARENT
REMARK Flexibility Score: inf
ROOT
ATOM      1  C   UNL     1      -2.486  -9.540  10.134  1.00  0.00     0.012 C 
ENDROOT
BRANCH   1   2
ATOM      2  C   UNL     1      -2.737  -8.143   9.514  1.00  0.00     0.016 C 
ATOM      3  C   UNL     1      -1.639  -7.137   9.895  1.00  0.00     0.013 C 
BRANCH   2   4
ATOM      4  C   UNL     1      -4.097  -7.611   9.929  1.00  0.00    -0.045 A 
ATOM      5  C   UNL     1      -7.984  -6.105  11.065  1.00  0.00     0.044 C 
ATOM      6  C   UNL     1      -6.633  -6.643  10.696  1.00  0.00    -0.051 A 
ATOM      7  C   UNL     1      -6.522  -7.833   9.962  1.00  0.00     0.004 A 
ATOM      8  C   UNL     1      -5.473  -5.926  11.024  1.00  0.00     0.004 A 
ATOM      9  C   UNL     1      -5.265  -8.316   9.586  1.00  0.00     0.004 A 
ATOM     10  C   UNL     1      -4.216  -6.407  10.649  1.00  0.00     0.004 A 
ENDBRANCH   2   4
ENDBRANCH   1   2
BRANCH   1  11
ATOM     11  C   UNL     1      -1.950  -9.486  11.574  1.00  0.00     0.028 C 
BRANCH  11  12
ATOM     12  C   UNL     1      -3.079  -9.484  12.580  1.00  0.00    -0.028 C 
ATOM     13  C   UNL     1      -3.281  -8.531  13.516  1.00  0.00    -0.080 C 
ATOM     14  C   UNL     1      -4.446  -8.690  14.460  1.00  0.00     0.039 C 
ATOM     15  C   UNL     1      -2.382  -7.324  13.643  1.00  0.00     0.039 C 
ENDBRANCH  11  12
ENDBRANCH   1  11
TORSDOF 4
ENDMDL
MODEL 6
REMARK VINA RESULT:    -3.730     15.205     16.555
REMARK INTER + INTRA:          -6.181
REMARK INTER:                  -5.487
REMARK INTRA:                  -0.693
REMARK UNBOUND:                -1.578
REMARK SMILES CC(C)=CCC[C@H](C)c1ccc(C)cc1
REMARK SMILES IDX 6 1 7 2 8 3 9 4 13 5 12 6 11 7 14 8 10 9 15 10 5 11 4 12
REMARK SMILES IDX 2 13 1 14 3 15
REMARK H PARENT
REMARK Flexibility Score: inf
ROOT
ATOM      1  C   UNL     1       3.276   6.411   9.612  1.00  0.00     0.012 C 
ENDROOT
BRANCH   1   2
ATOM      2  C   UNL     1       2.680   6.537   8.187  1.00  0.00     0.016 C 
ATOM      3  C   UNL     1       3.344   7.665   7.382  1.00  0.00     0.013 C 
BRANCH   2   4
ATOM      4  C   UNL     1       1.179   6.759   8.254  1.00  0.00    -0.045 A 
ATOM      5  C   UNL     1      -3.087   7.421   8.403  1.00  0.00     0.044 C 
ATOM      6  C   UNL     1      -1.610   7.162   8.358  1.00  0.00    -0.051 A 
ATOM      7  C   UNL     1      -0.989   6.820   7.148  1.00  0.00     0.004 A 
ATOM      8  C   UNL     1      -0.828   7.327   9.510  1.00  0.00     0.004 A 
ATOM      9  C   UNL     1       0.393   6.614   7.097  1.00  0.00     0.004 A 
ATOM     10  C   UNL     1       0.554   7.122   9.461  1.00  0.00     0.004 A 
ENDBRANCH   2   4
ENDBRANCH   1   2
BRANCH   1  11
ATOM     11  C   UNL     1       4.801   6.596   9.658  1.00  0.00     0.028 C 
BRANCH  11  12
ATOM     12  C   UNL     1       5.495   5.325  10.093  1.00  0.00    -0.028 C 
ATOM     13  C   UNL     1       5.877   4.328   9.266  1.00  0.00    -0.080 C 
ATOM     14  C   UNL     1       6.539   3.113   9.865  1.00  0.00     0.039 C 
ATOM     15  C   UNL     1       5.660   4.394   7.773  1.00  0.00     0.039 C 
ENDBRANCH  11  12
ENDBRANCH   1  11
TORSDOF 4
ENDMDL
MODEL 7
REMARK VINA RESULT:    -3.711      1.113      2.011
REMARK INTER + INTRA:          -6.158
REMARK INTER:                  -4.963
REMARK INTRA:                  -1.195
REMARK UNBOUND:                -1.578
REMARK SMILES CC(C)=CCC[C@H](C)c1ccc(C)cc1
REMARK SMILES IDX 6 1 7 2 8 3 9 4 13 5 12 6 11 7 14 8 10 9 15 10 5 11 4 12
REMARK SMILES IDX 2 13 1 14 3 15
REMARK H PARENT
REMARK Flexibility Score: inf
ROOT
ATOM      1  C   UNL     1      -4.884  -6.616  11.884  1.00  0.00     0.012 C 
ENDROOT
BRANCH   1   2
ATOM      2  C   UNL     1      -4.924  -8.090  12.360  1.00  0.00     0.016 C 
ATOM      3  C   UNL     1      -6.012  -8.325  13.419  1.00  0.00     0.013 C 
BRANCH   2   4
ATOM      4  C   UNL     1      -3.570  -8.512  12.902  1.00  0.00    -0.045 A 
ATOM      5  C   UNL     1       0.264  -9.759  14.454  1.00  0.00     0.044 C 
ATOM      6  C   UNL     1      -1.053  -9.311  13.893  1.00  0.00    -0.051 A 
ATOM      7  C   UNL     1      -1.739 -10.115  12.971  1.00  0.00     0.004 A 
ATOM      8  C   UNL     1      -1.642  -8.118  14.337  1.00  0.00     0.004 A 
ATOM      9  C   UNL     1      -2.984  -9.717  12.475  1.00  0.00     0.004 A 
ATOM     10  C   UNL     1      -2.886  -7.718  13.843  1.00  0.00     0.004 A 
ENDBRANCH   2   4
ENDBRANCH   1   2
BRANCH   1  11
ATOM     11  C   UNL     1      -4.406  -6.452  10.432  1.00  0.00     0.028 C 
BRANCH  11  12
ATOM     12  C   UNL     1      -2.919  -6.703  10.313  1.00  0.00    -0.028 C 
ATOM     13  C   UNL     1      -2.356  -7.695   9.590  1.00  0.00    -0.080 C 
ATOM     14  C   UNL     1      -0.854  -7.821   9.595  1.00  0.00     0.039 C 
ATOM     15  C   UNL     1      -3.180  -8.673   8.787  1.00  0.00     0.039 C 
ENDBRANCH  11  12
ENDBRANCH   1  11
TORSDOF 4
ENDMDL
MODEL 8
REMARK VINA RESULT:    -3.706      1.617      3.869
REMARK INTER + INTRA:          -6.151
REMARK INTER:                  -4.676
REMARK INTRA:                  -1.474
REMARK UNBOUND:                -1.578
REMARK SMILES CC(C)=CCC[C@H](C)c1ccc(C)cc1
REMARK SMILES IDX 6 1 7 2 8 3 9 4 13 5 12 6 11 7 14 8 10 9 15 10 5 11 4 12
REMARK SMILES IDX 2 13 1 14 3 15
REMARK H PARENT
REMARK Flexibility Score: inf
ROOT
ATOM      1  C   UNL     1      -5.028  -5.990  11.512  1.00  0.00     0.012 C 
ENDROOT
BRANCH   1   2
ATOM      2  C   UNL     1      -3.947  -6.753  10.705  1.00  0.00     0.016 C 
ATOM      3  C   UNL     1      -4.566  -7.726   9.689  1.00  0.00     0.013 C 
BRANCH   2   4
ATOM      4  C   UNL     1      -3.013  -7.501  11.640  1.00  0.00    -0.045 A 
ATOM      5  C   UNL     1      -0.376  -9.672  14.285  1.00  0.00     0.044 C 
ATOM      6  C   UNL     1      -1.270  -8.900  13.359  1.00  0.00    -0.051 A 
ATOM      7  C   UNL     1      -1.429  -9.308  12.027  1.00  0.00     0.004 A 
ATOM      8  C   UNL     1      -2.004  -7.805  13.835  1.00  0.00     0.004 A 
ATOM      9  C   UNL     1      -2.289  -8.611  11.172  1.00  0.00     0.004 A 
ATOM     10  C   UNL     1      -2.865  -7.107  12.983  1.00  0.00     0.004 A 
ENDBRANCH   2   4
ENDBRANCH   1   2
BRANCH   1  11
ATOM     11  C   UNL     1      -6.316  -6.800  11.732  1.00  0.00     0.028 C 
BRANCH  11  12
ATOM     12  C   UNL     1      -6.519  -7.119  13.197  1.00  0.00    -0.028 C 
ATOM     13  C   UNL     1      -6.277  -8.318  13.770  1.00  0.00    -0.080 C 
ATOM     14  C   UNL     1      -6.554  -8.477  15.243  1.00  0.00     0.039 C 
ATOM     15  C   UNL     1      -5.744  -9.493  12.984  1.00  0.00     0.039 C 
ENDBRANCH  11  12
ENDBRANCH   1  11
TORSDOF 4
ENDMDL
MODEL 9
REMARK VINA RESULT:    -3.647      1.881      3.523
REMARK INTER + INTRA:          -6.079
REMARK INTER:                  -4.921
REMARK INTRA:                  -1.157
REMARK UNBOUND:                -1.578
REMARK SMILES CC(C)=CCC[C@H](C)c1ccc(C)cc1
REMARK SMILES IDX 6 1 7 2 8 3 9 4 13 5 12 6 11 7 14 8 10 9 15 10 5 11 4 12
REMARK SMILES IDX 2 13 1 14 3 15
REMARK H PARENT
REMARK Flexibility Score: inf
ROOT
ATOM      1  C   UNL     1      -3.073  -9.957  13.098  1.00  0.00     0.012 C 
ENDROOT
BRANCH   1   2
ATOM      2  C   UNL     1      -2.078  -9.228  14.034  1.00  0.00     0.016 C 
ATOM      3  C   UNL     1      -2.383  -7.725  14.143  1.00  0.00     0.013 C 
BRANCH   2   4
ATOM      4  C   UNL     1      -0.650  -9.436  13.562  1.00  0.00    -0.045 A 
ATOM      5  C   UNL     1       3.428  -9.992  12.249  1.00  0.00     0.044 C 
ATOM      6  C   UNL     1       2.008  -9.828  12.706  1.00  0.00    -0.051 A 
ATOM      7  C   UNL     1       1.715  -9.707  14.072  1.00  0.00     0.004 A 
ATOM      8  C   UNL     1       0.971  -9.728  11.768  1.00  0.00     0.004 A 
ATOM      9  C   UNL     1       0.397  -9.518  14.498  1.00  0.00     0.004 A 
ATOM     10  C   UNL     1      -0.348  -9.539  12.192  1.00  0.00     0.004 A 
ENDBRANCH   2   4
ENDBRANCH   1   2
BRANCH   1  11
ATOM     11  C   UNL     1      -3.985  -9.004  12.308  1.00  0.00     0.028 C 
BRANCH  11  12
ATOM     12  C   UNL     1      -3.830  -9.205  10.818  1.00  0.00    -0.028 C 
ATOM     13  C   UNL     1      -3.205  -8.349   9.980  1.00  0.00    -0.080 C 
ATOM     14  C   UNL     1      -3.158  -8.689   8.512  1.00  0.00     0.039 C 
ATOM     15  C   UNL     1      -2.561  -7.073  10.468  1.00  0.00     0.039 C 
ENDBRANCH  11  12
ENDBRANCH   1  11
TORSDOF 4
ENDMDL
