MODEL 1
REMARK VINA RESULT:    -6.484      0.000      0.000
REMARK INTER + INTRA:          -7.893
REMARK INTER:                  -7.621
REMARK INTRA:                  -0.272
REMARK UNBOUND:                -0.272
REMARK SMILES O=c1c(O)c(-c2ccc(O)cc2)oc2cc(O)cc(O)c12
REMARK SMILES IDX 5 1 3 2 2 3 1 4 21 5 19 6 18 7 16 8 15 9 14 10 13 11 6 12
REMARK SMILES IDX 7 13 8 14 9 15 12 16 11 17 10 18 4 20 20 22 17 24
REMARK H PARENT 10 19 4 21 20 23 17 25
REMARK Flexibility Score: inf
ROOT
ATOM      1  C   UNL     1       7.376   7.860 -14.661  1.00  0.00     0.180 A 
ATOM      2  C   UNL     1       6.965   8.283 -13.385  1.00  0.00     0.208 A 
ATOM      3  C   UNL     1       7.250   9.596 -12.978  1.00  0.00     0.238 A 
ATOM      4  O   UNL     1       6.832   9.985 -11.856  1.00  0.00    -0.285 OA
ATOM      5  C   UNL     1       7.957  10.465 -13.844  1.00  0.00     0.111 A 
ATOM      6  C   UNL     1       8.335  11.802 -13.519  1.00  0.00     0.134 A 
ATOM      7  C   UNL     1       8.916  12.613 -14.502  1.00  0.00     0.093 A 
ATOM      8  C   UNL     1       9.192  12.115 -15.777  1.00  0.00     0.123 A 
ATOM      9  C   UNL     1       8.881  10.792 -16.085  1.00  0.00     0.094 A 
ATOM     10  C   UNL     1       8.268   9.969 -15.138  1.00  0.00     0.146 A 
ATOM     11  O   UNL     1       7.979   8.718 -15.476  1.00  0.00    -0.452 OA
ENDROOT
BRANCH   1  12
ATOM     12  C   UNL     1       7.133   6.484 -15.152  1.00  0.00     0.021 A 
ATOM     13  C   UNL     1       7.949   5.409 -14.751  1.00  0.00     0.016 A 
ATOM     14  C   UNL     1       7.715   4.123 -15.246  1.00  0.00     0.047 A 
ATOM     15  C   UNL     1       6.675   3.897 -16.158  1.00  0.00     0.115 A 
ATOM     16  C   UNL     1       6.107   6.252 -16.082  1.00  0.00     0.016 A 
ATOM     17  C   UNL     1       5.875   4.965 -16.575  1.00  0.00     0.047 A 
BRANCH  15  18
ATOM     18  O   UNL     1       6.433   2.619 -16.657  1.00  0.00    -0.508 OA
ATOM     19  H   UNL     1       6.923   2.267 -17.472  1.00  0.00     0.293 HD
ENDBRANCH  15  18
ENDBRANCH   1  12
BRANCH   2  20
ATOM     20  O   UNL     1       6.250   7.416 -12.554  1.00  0.00    -0.502 OA
ATOM     21  H   UNL     1       6.652   7.007 -11.718  1.00  0.00     0.293 HD
ENDBRANCH   2  20
BRANCH   6  22
ATOM     22  O   UNL     1       8.188  12.369 -12.249  1.00  0.00    -0.507 OA
ATOM     23  H   UNL     1       8.111  13.358 -12.067  1.00  0.00     0.293 HD
ENDBRANCH   6  22
BRANCH   8  24
ATOM     24  O   UNL     1       9.785  12.924 -16.744  1.00  0.00    -0.508 OA
ATOM     25  H   UNL     1       9.334  13.102 -17.635  1.00  0.00     0.293 HD
ENDBRANCH   8  24
TORSDOF 5
ENDMDL
MODEL 2
REMARK VINA RESULT:    -6.405      2.918      7.330
REMARK INTER + INTRA:          -7.801
REMARK INTER:                  -7.500
REMARK INTRA:                  -0.300
REMARK UNBOUND:                -0.272
REMARK SMILES O=c1c(O)c(-c2ccc(O)cc2)oc2cc(O)cc(O)c12
REMARK SMILES IDX 5 1 3 2 2 3 1 4 21 5 19 6 18 7 16 8 15 9 14 10 13 11 6 12
REMARK SMILES IDX 7 13 8 14 9 15 12 16 11 17 10 18 4 20 20 22 17 24
REMARK H PARENT 10 19 4 21 20 23 17 25
REMARK Flexibility Score: inf
ROOT
ATOM      1  C   UNL     1       9.617  11.714 -16.046  1.00  0.00     0.180 A 
ATOM      2  C   UNL     1      10.232  10.509 -16.430  1.00  0.00     0.208 A 
ATOM      3  C   UNL     1       9.909   9.330 -15.740  1.00  0.00     0.238 A 
ATOM      4  O   UNL     1      10.421   8.245 -16.123  1.00  0.00    -0.285 OA
ATOM      5  C   UNL     1       8.990   9.372 -14.663  1.00  0.00     0.111 A 
ATOM      6  C   UNL     1       8.620   8.246 -13.868  1.00  0.00     0.134 A 
ATOM      7  C   UNL     1       7.603   8.378 -12.915  1.00  0.00     0.093 A 
ATOM      8  C   UNL     1       6.988   9.610 -12.683  1.00  0.00     0.123 A 
ATOM      9  C   UNL     1       7.384  10.728 -13.413  1.00  0.00     0.094 A 
ATOM     10  C   UNL     1       8.370  10.621 -14.396  1.00  0.00     0.146 A 
ATOM     11  O   UNL     1       8.710  11.710 -15.076  1.00  0.00    -0.452 OA
ENDROOT
BRANCH   1  12
ATOM     12  C   UNL     1       9.924  13.002 -16.709  1.00  0.00     0.021 A 
ATOM     13  C   UNL     1      10.967  13.830 -16.254  1.00  0.00     0.016 A 
ATOM     14  C   UNL     1      11.223  15.052 -16.882  1.00  0.00     0.047 A 
ATOM     15  C   UNL     1      10.432  15.470 -17.961  1.00  0.00     0.115 A 
ATOM     16  C   UNL     1       9.124  13.438 -17.778  1.00  0.00     0.016 A 
ATOM     17  C   UNL     1       9.382  14.660 -18.404  1.00  0.00     0.047 A 
BRANCH  15  18
ATOM     18  O   UNL     1      10.679  16.686 -18.594  1.00  0.00    -0.508 OA
ATOM     19  H   UNL     1      11.393  16.776 -19.308  1.00  0.00     0.293 HD
ENDBRANCH  15  18
ENDBRANCH   1  12
BRANCH   2  20
ATOM     20  O   UNL     1      11.120  10.486 -17.509  1.00  0.00    -0.502 OA
ATOM     21  H   UNL     1      12.122  10.398 -17.386  1.00  0.00     0.293 HD
ENDBRANCH   2  20
BRANCH   6  22
ATOM     22  O   UNL     1       9.235   6.993 -13.956  1.00  0.00    -0.507 OA
ATOM     23  H   UNL     1       9.645   6.612 -14.795  1.00  0.00     0.293 HD
ENDBRANCH   6  22
BRANCH   8  24
ATOM     24  O   UNL     1       5.988   9.737 -11.721  1.00  0.00    -0.508 OA
ATOM     25  H   UNL     1       5.785   8.988 -11.068  1.00  0.00     0.293 HD
ENDBRANCH   8  24
TORSDOF 5
ENDMDL
MODEL 3
REMARK VINA RESULT:    -6.331      3.008      4.869
REMARK INTER + INTRA:          -7.714
REMARK INTER:                  -7.855
REMARK INTRA:                   0.142
REMARK UNBOUND:                -0.272
REMARK SMILES O=c1c(O)c(-c2ccc(O)cc2)oc2cc(O)cc(O)c12
REMARK SMILES IDX 5 1 3 2 2 3 1 4 21 5 19 6 18 7 16 8 15 9 14 10 13 11 6 12
REMARK SMILES IDX 7 13 8 14 9 15 12 16 11 17 10 18 4 20 20 22 17 24
REMARK H PARENT 10 19 4 21 20 23 17 25
REMARK Flexibility Score: inf
ROOT
ATOM      1  C   UNL     1       8.405  11.256 -14.782  1.00  0.00     0.180 A 
ATOM      2  C   UNL     1       8.820  12.530 -14.358  1.00  0.00     0.208 A 
ATOM      3  C   UNL     1       9.255  13.459 -15.317  1.00  0.00     0.238 A 
ATOM      4  O   UNL     1       9.574  14.616 -14.938  1.00  0.00    -0.285 OA
ATOM      5  C   UNL     1       9.287  13.095 -16.686  1.00  0.00     0.111 A 
ATOM      6  C   UNL     1       9.748  13.942 -17.739  1.00  0.00     0.134 A 
ATOM      7  C   UNL     1       9.611  13.526 -19.069  1.00  0.00     0.093 A 
ATOM      8  C   UNL     1       9.090  12.269 -19.380  1.00  0.00     0.123 A 
ATOM      9  C   UNL     1       8.693  11.411 -18.357  1.00  0.00     0.094 A 
ATOM     10  C   UNL     1       8.783  11.811 -17.022  1.00  0.00     0.146 A 
ATOM     11  O   UNL     1       8.384  10.968 -16.078  1.00  0.00    -0.452 OA
ENDROOT
BRANCH   1  12
ATOM     12  C   UNL     1       7.956  10.216 -13.828  1.00  0.00     0.021 A 
ATOM     13  C   UNL     1       8.373   8.877 -13.953  1.00  0.00     0.016 A 
ATOM     14  C   UNL     1       7.917   7.909 -13.054  1.00  0.00     0.047 A 
ATOM     15  C   UNL     1       7.028   8.260 -12.030  1.00  0.00     0.115 A 
ATOM     16  C   UNL     1       7.049  10.555 -12.811  1.00  0.00     0.016 A 
ATOM     17  C   UNL     1       6.594   9.584 -11.913  1.00  0.00     0.047 A 
BRANCH  15  18
ATOM     18  O   UNL     1       6.568   7.304 -11.129  1.00  0.00    -0.508 OA
ATOM     19  H   UNL     1       5.639   6.904 -11.207  1.00  0.00     0.293 HD
ENDBRANCH  15  18
ENDBRANCH   1  12
BRANCH   2  20
ATOM     20  O   UNL     1       8.760  12.875 -13.005  1.00  0.00    -0.502 OA
ATOM     21  H   UNL     1       9.277  13.657 -12.620  1.00  0.00     0.293 HD
ENDBRANCH   2  20
BRANCH   6  22
ATOM     22  O   UNL     1      10.367  15.179 -17.532  1.00  0.00    -0.507 OA
ATOM     23  H   UNL     1      10.663  15.803 -18.267  1.00  0.00     0.293 HD
ENDBRANCH   6  22
BRANCH   8  24
ATOM     24  O   UNL     1       8.972  11.856 -20.706  1.00  0.00    -0.508 OA
ATOM     25  H   UNL     1       8.074  11.605 -21.105  1.00  0.00     0.293 HD
ENDBRANCH   8  24
TORSDOF 5
ENDMDL
MODEL 4
REMARK VINA RESULT:    -6.322      4.077      8.300
REMARK INTER + INTRA:          -7.703
REMARK INTER:                  -7.852
REMARK INTRA:                   0.148
REMARK UNBOUND:                -0.272
REMARK SMILES O=c1c(O)c(-c2ccc(O)cc2)oc2cc(O)cc(O)c12
REMARK SMILES IDX 5 1 3 2 2 3 1 4 21 5 19 6 18 7 16 8 15 9 14 10 13 11 6 12
REMARK SMILES IDX 7 13 8 14 9 15 12 16 11 17 10 18 4 20 20 22 17 24
REMARK H PARENT 10 19 4 21 20 23 17 25
REMARK Flexibility Score: inf
ROOT
ATOM      1  C   UNL     1       9.015  13.243 -18.724  1.00  0.00     0.180 A 
ATOM      2  C   UNL     1       9.422  11.929 -19.012  1.00  0.00     0.208 A 
ATOM      3  C   UNL     1       9.496  10.995 -17.967  1.00  0.00     0.238 A 
ATOM      4  O   UNL     1       9.809   9.806 -18.239  1.00  0.00    -0.285 OA
ATOM      5  C   UNL     1       9.180  11.390 -16.644  1.00  0.00     0.111 A 
ATOM      6  C   UNL     1       9.261  10.538 -15.502  1.00  0.00     0.134 A 
ATOM      7  C   UNL     1       8.798  10.998 -14.263  1.00  0.00     0.093 A 
ATOM      8  C   UNL     1       8.319  12.301 -14.112  1.00  0.00     0.123 A 
ATOM      9  C   UNL     1       8.293  13.160 -15.208  1.00  0.00     0.094 A 
ATOM     10  C   UNL     1       8.713  12.719 -16.465  1.00  0.00     0.146 A 
ATOM     11  O   UNL     1       8.662  13.566 -17.485  1.00  0.00    -0.452 OA
ENDROOT
BRANCH   1  12
ATOM     12  C   UNL     1       8.935  14.290 -19.768  1.00  0.00     0.021 A 
ATOM     13  C   UNL     1       9.408  15.596 -19.535  1.00  0.00     0.016 A 
ATOM     14  C   UNL     1       9.300  16.573 -20.529  1.00  0.00     0.047 A 
ATOM     15  C   UNL     1       8.706  16.265 -21.760  1.00  0.00     0.115 A 
ATOM     16  C   UNL     1       8.322  13.996 -20.997  1.00  0.00     0.016 A 
ATOM     17  C   UNL     1       8.216  14.976 -21.989  1.00  0.00     0.047 A 
BRANCH  15  18
ATOM     18  O   UNL     1       8.595  17.231 -22.756  1.00  0.00    -0.508 OA
ATOM     19  H   UNL     1       9.034  17.112 -23.662  1.00  0.00     0.293 HD
ENDBRANCH  15  18
ENDBRANCH   1  12
BRANCH   2  20
ATOM     20  O   UNL     1       9.709  11.554 -20.328  1.00  0.00    -0.502 OA
ATOM     21  H   UNL     1       9.395  12.092 -21.127  1.00  0.00     0.293 HD
ENDBRANCH   2  20
BRANCH   6  22
ATOM     22  O   UNL     1       9.807   9.251 -15.525  1.00  0.00    -0.507 OA
ATOM     23  H   UNL     1      10.217   8.816 -16.338  1.00  0.00     0.293 HD
ENDBRANCH   6  22
BRANCH   8  24
ATOM     24  O   UNL     1       7.876  12.757 -12.872  1.00  0.00    -0.508 OA
ATOM     25  H   UNL     1       8.297  12.434 -12.008  1.00  0.00     0.293 HD
ENDBRANCH   8  24
TORSDOF 5
ENDMDL
MODEL 5
REMARK VINA RESULT:    -6.260      3.477      6.300
REMARK INTER + INTRA:          -7.630
REMARK INTER:                  -7.330
REMARK INTRA:                  -0.300
REMARK UNBOUND:                -0.272
REMARK SMILES O=c1c(O)c(-c2ccc(O)cc2)oc2cc(O)cc(O)c12
REMARK SMILES IDX 5 1 3 2 2 3 1 4 21 5 19 6 18 7 16 8 15 9 14 10 13 11 6 12
REMARK SMILES IDX 7 13 8 14 9 15 12 16 11 17 10 18 4 20 20 22 17 24
REMARK H PARENT 10 19 4 21 20 23 17 25
REMARK Flexibility Score: inf
ROOT
ATOM      1  C   UNL     1       9.765  12.236 -16.958  1.00  0.00     0.180 A 
ATOM      2  C   UNL     1      10.408  13.379 -16.451  1.00  0.00     0.208 A 
ATOM      3  C   UNL     1      10.398  14.559 -17.212  1.00  0.00     0.238 A 
ATOM      4  O   UNL     1      10.929  15.594 -16.729  1.00  0.00    -0.285 OA
ATOM      5  C   UNL     1       9.762  14.577 -18.477  1.00  0.00     0.111 A 
ATOM      6  C   UNL     1       9.727  15.705 -19.351  1.00  0.00     0.134 A 
ATOM      7  C   UNL     1       8.957  15.650 -20.519  1.00  0.00     0.093 A 
ATOM      8  C   UNL     1       8.275  14.485 -20.877  1.00  0.00     0.123 A 
ATOM      9  C   UNL     1       8.351  13.359 -20.061  1.00  0.00     0.094 A 
ATOM     10  C   UNL     1       9.082  13.395 -18.871  1.00  0.00     0.146 A 
ATOM     11  O   UNL     1       9.121  12.303 -18.117  1.00  0.00    -0.452 OA
ENDROOT
BRANCH   1  12
ATOM     12  C   UNL     1       9.753  10.949 -16.225  1.00  0.00     0.021 A 
ATOM     13  C   UNL     1      10.771   9.994 -16.405  1.00  0.00     0.016 A 
ATOM     14  C   UNL     1      10.725   8.776 -15.720  1.00  0.00     0.047 A 
ATOM     15  C   UNL     1       9.656   8.490 -14.861  1.00  0.00     0.115 A 
ATOM     16  C   UNL     1       8.674  10.645 -15.379  1.00  0.00     0.016 A 
ATOM     17  C   UNL     1       8.631   9.426 -14.695  1.00  0.00     0.047 A 
BRANCH  15  18
ATOM     18  O   UNL     1       9.601   7.280 -14.173  1.00  0.00    -0.508 OA
ATOM     19  H   UNL     1       9.996   6.431 -14.562  1.00  0.00     0.293 HD
ENDBRANCH  15  18
ENDBRANCH   1  12
BRANCH   2  20
ATOM     20  O   UNL     1      11.011  13.345 -15.191  1.00  0.00    -0.502 OA
ATOM     21  H   UNL     1      11.304  12.481 -14.751  1.00  0.00     0.293 HD
ENDBRANCH   2  20
BRANCH   6  22
ATOM     22  O   UNL     1      10.446  16.884 -19.132  1.00  0.00    -0.507 OA
ATOM     23  H   UNL     1      10.274  17.530 -18.376  1.00  0.00     0.293 HD
ENDBRANCH   6  22
BRANCH   8  24
ATOM     24  O   UNL     1       7.523  14.433 -22.050  1.00  0.00    -0.508 OA
ATOM     25  H   UNL     1       7.706  13.737 -22.765  1.00  0.00     0.293 HD
ENDBRANCH   8  24
TORSDOF 5
ENDMDL
MODEL 6
REMARK VINA RESULT:    -6.141      1.727      6.742
REMARK INTER + INTRA:          -7.490
REMARK INTER:                  -7.194
REMARK INTRA:                  -0.297
REMARK UNBOUND:                -0.272
REMARK SMILES O=c1c(O)c(-c2ccc(O)cc2)oc2cc(O)cc(O)c12
REMARK SMILES IDX 5 1 3 2 2 3 1 4 21 5 19 6 18 7 16 8 15 9 14 10 13 11 6 12
REMARK SMILES IDX 7 13 8 14 9 15 12 16 11 17 10 18 4 20 20 22 17 24
REMARK H PARENT 10 19 4 21 20 23 17 25
REMARK Flexibility Score: inf
ROOT
ATOM      1  C   UNL     1       8.501  11.387 -15.104  1.00  0.00     0.180 A 
ATOM      2  C   UNL     1       8.196  11.449 -13.733  1.00  0.00     0.208 A 
ATOM      3  C   UNL     1       7.656  10.317 -13.103  1.00  0.00     0.238 A 
ATOM      4  O   UNL     1       7.436  10.361 -11.864  1.00  0.00    -0.285 OA
ATOM      5  C   UNL     1       7.410   9.142 -13.855  1.00  0.00     0.111 A 
ATOM      6  C   UNL     1       6.828   7.950 -13.328  1.00  0.00     0.134 A 
ATOM      7  C   UNL     1       6.753   6.805 -14.132  1.00  0.00     0.093 A 
ATOM      8  C   UNL     1       7.180   6.830 -15.461  1.00  0.00     0.123 A 
ATOM      9  C   UNL     1       7.694   8.006 -16.002  1.00  0.00     0.094 A 
ATOM     10  C   UNL     1       7.815   9.153 -15.215  1.00  0.00     0.146 A 
ATOM     11  O   UNL     1       8.320  10.250 -15.767  1.00  0.00    -0.452 OA
ENDROOT
BRANCH   1  12
ATOM     12  C   UNL     1       9.050  12.547 -15.843  1.00  0.00     0.021 A 
ATOM     13  C   UNL     1       8.205  13.480 -16.473  1.00  0.00     0.016 A 
ATOM     14  C   UNL     1       8.748  14.554 -17.185  1.00  0.00     0.047 A 
ATOM     15  C   UNL     1      10.137  14.701 -17.290  1.00  0.00     0.115 A 
ATOM     16  C   UNL     1      10.441  12.690 -15.970  1.00  0.00     0.016 A 
ATOM     17  C   UNL     1      10.980  13.765 -16.683  1.00  0.00     0.047 A 
BRANCH  15  18
ATOM     18  O   UNL     1      10.688  15.768 -17.996  1.00  0.00    -0.508 OA
ATOM     19  H   UNL     1      10.356  16.019 -18.920  1.00  0.00     0.293 HD
ENDBRANCH  15  18
ENDBRANCH   1  12
BRANCH   2  20
ATOM     20  O   UNL     1       8.466  12.612 -13.005  1.00  0.00    -0.502 OA
ATOM     21  H   UNL     1       8.148  13.527 -13.304  1.00  0.00     0.293 HD
ENDBRANCH   2  20
BRANCH   6  22
ATOM     22  O   UNL     1       6.288   7.846 -12.043  1.00  0.00    -0.507 OA
ATOM     23  H   UNL     1       5.437   7.354 -11.815  1.00  0.00     0.293 HD
ENDBRANCH   6  22
BRANCH   8  24
ATOM     24  O   UNL     1       7.087   5.691 -16.259  1.00  0.00    -0.508 OA
ATOM     25  H   UNL     1       6.805   4.796 -15.874  1.00  0.00     0.293 HD
ENDBRANCH   8  24
TORSDOF 5
ENDMDL
MODEL 7
REMARK VINA RESULT:    -6.139      3.485      6.108
REMARK INTER + INTRA:          -7.488
REMARK INTER:                  -7.200
REMARK INTRA:                  -0.288
REMARK UNBOUND:                -0.272
REMARK SMILES O=c1c(O)c(-c2ccc(O)cc2)oc2cc(O)cc(O)c12
REMARK SMILES IDX 5 1 3 2 2 3 1 4 21 5 19 6 18 7 16 8 15 9 14 10 13 11 6 12
REMARK SMILES IDX 7 13 8 14 9 15 12 16 11 17 10 18 4 20 20 22 17 24
REMARK H PARENT 10 19 4 21 20 23 17 25
REMARK Flexibility Score: inf
ROOT
ATOM      1  C   UNL     1       8.640  11.558 -17.442  1.00  0.00     0.180 A 
ATOM      2  C   UNL     1       7.924  11.259 -18.615  1.00  0.00     0.208 A 
ATOM      3  C   UNL     1       7.823  12.236 -19.618  1.00  0.00     0.238 A 
ATOM      4  O   UNL     1       7.227  11.945 -20.688  1.00  0.00    -0.285 OA
ATOM      5  C   UNL     1       8.422  13.505 -19.429  1.00  0.00     0.111 A 
ATOM      6  C   UNL     1       8.347  14.584 -20.360  1.00  0.00     0.134 A 
ATOM      7  C   UNL     1       9.088  15.749 -20.128  1.00  0.00     0.093 A 
ATOM      8  C   UNL     1       9.848  15.900 -18.967  1.00  0.00     0.123 A 
ATOM      9  C   UNL     1       9.880  14.876 -18.023  1.00  0.00     0.094 A 
ATOM     10  C   UNL     1       9.181  13.688 -18.243  1.00  0.00     0.146 A 
ATOM     11  O   UNL     1       9.246  12.733 -17.322  1.00  0.00    -0.452 OA
ENDROOT
BRANCH   1  12
ATOM     12  C   UNL     1       8.771  10.588 -16.330  1.00  0.00     0.021 A 
ATOM     13  C   UNL     1       9.807   9.636 -16.306  1.00  0.00     0.016 A 
ATOM     14  C   UNL     1       9.895   8.716 -15.258  1.00  0.00     0.047 A 
ATOM     15  C   UNL     1       8.943   8.724 -14.230  1.00  0.00     0.115 A 
ATOM     16  C   UNL     1       7.809  10.575 -15.307  1.00  0.00     0.016 A 
ATOM     17  C   UNL     1       7.900   9.654 -14.260  1.00  0.00     0.047 A 
BRANCH  15  18
ATOM     18  O   UNL     1       9.023   7.812 -13.181  1.00  0.00    -0.508 OA
ATOM     19  H   UNL     1       9.766   7.124 -13.131  1.00  0.00     0.293 HD
ENDBRANCH  15  18
ENDBRANCH   1  12
BRANCH   2  20
ATOM     20  O   UNL     1       7.359   9.993 -18.790  1.00  0.00    -0.502 OA
ATOM     21  H   UNL     1       7.263   9.330 -18.030  1.00  0.00     0.293 HD
ENDBRANCH   2  20
BRANCH   6  22
ATOM     22  O   UNL     1       7.545  14.572 -21.506  1.00  0.00    -0.507 OA
ATOM     23  H   UNL     1       7.843  14.885 -22.418  1.00  0.00     0.293 HD
ENDBRANCH   6  22
BRANCH   8  24
ATOM     24  O   UNL     1      10.570  17.070 -18.735  1.00  0.00    -0.508 OA
ATOM     25  H   UNL     1      11.571  17.114 -18.893  1.00  0.00     0.293 HD
ENDBRANCH   8  24
TORSDOF 5
ENDMDL
MODEL 8
REMARK VINA RESULT:    -6.061      2.899      7.118
REMARK INTER + INTRA:          -7.396
REMARK INTER:                  -7.116
REMARK INTRA:                  -0.280
REMARK UNBOUND:                -0.272
REMARK SMILES O=c1c(O)c(-c2ccc(O)cc2)oc2cc(O)cc(O)c12
REMARK SMILES IDX 5 1 3 2 2 3 1 4 21 5 19 6 18 7 16 8 15 9 14 10 13 11 6 12
REMARK SMILES IDX 7 13 8 14 9 15 12 16 11 17 10 18 4 20 20 22 17 24
REMARK H PARENT 10 19 4 21 20 23 17 25
REMARK Flexibility Score: inf
ROOT
ATOM      1  C   UNL     1       8.409  12.765 -15.953  1.00  0.00     0.180 A 
ATOM      2  C   UNL     1       7.444  13.138 -15.001  1.00  0.00     0.208 A 
ATOM      3  C   UNL     1       7.013  12.189 -14.060  1.00  0.00     0.238 A 
ATOM      4  O   UNL     1       6.189  12.544 -13.177  1.00  0.00    -0.285 OA
ATOM      5  C   UNL     1       7.539  10.874 -14.094  1.00  0.00     0.111 A 
ATOM      6  C   UNL     1       7.144   9.821 -13.215  1.00  0.00     0.134 A 
ATOM      7  C   UNL     1       7.825   8.598 -13.253  1.00  0.00     0.093 A 
ATOM      8  C   UNL     1       8.842   8.370 -14.182  1.00  0.00     0.123 A 
ATOM      9  C   UNL     1       9.194   9.371 -15.084  1.00  0.00     0.094 A 
ATOM     10  C   UNL     1       8.558  10.614 -15.047  1.00  0.00     0.146 A 
ATOM     11  O   UNL     1       8.931  11.545 -15.917  1.00  0.00    -0.452 OA
ENDROOT
BRANCH   1  12
ATOM     12  C   UNL     1       8.895  13.702 -16.991  1.00  0.00     0.021 A 
ATOM     13  C   UNL     1      10.058  14.471 -16.799  1.00  0.00     0.016 A 
ATOM     14  C   UNL     1      10.483  15.367 -17.784  1.00  0.00     0.047 A 
ATOM     15  C   UNL     1       9.746  15.517 -18.966  1.00  0.00     0.115 A 
ATOM     16  C   UNL     1       8.151  13.875 -18.170  1.00  0.00     0.016 A 
ATOM     17  C   UNL     1       8.579  14.771 -19.154  1.00  0.00     0.047 A 
BRANCH  15  18
ATOM     18  O   UNL     1      10.161  16.406 -19.954  1.00  0.00    -0.508 OA
ATOM     19  H   UNL     1       9.540  17.117 -20.323  1.00  0.00     0.293 HD
ENDBRANCH  15  18
ENDBRANCH   1  12
BRANCH   2  20
ATOM     20  O   UNL     1       6.954  14.447 -14.972  1.00  0.00    -0.502 OA
ATOM     21  H   UNL     1       7.393  15.180 -14.426  1.00  0.00     0.293 HD
ENDBRANCH   2  20
BRANCH   6  22
ATOM     22  O   UNL     1       6.080   9.915 -12.312  1.00  0.00    -0.507 OA
ATOM     23  H   UNL     1       5.859   9.223 -11.611  1.00  0.00     0.293 HD
ENDBRANCH   6  22
BRANCH   8  24
ATOM     24  O   UNL     1       9.504   7.144 -14.225  1.00  0.00    -0.508 OA
ATOM     25  H   UNL     1       9.416   6.522 -15.021  1.00  0.00     0.293 HD
ENDBRANCH   8  24
TORSDOF 5
ENDMDL
MODEL 9
REMARK VINA RESULT:    -5.982      1.551      2.436
REMARK INTER + INTRA:          -7.304
REMARK INTER:                  -7.058
REMARK INTRA:                  -0.246
REMARK UNBOUND:                -0.272
REMARK SMILES O=c1c(O)c(-c2ccc(O)cc2)oc2cc(O)cc(O)c12
REMARK SMILES IDX 5 1 3 2 2 3 1 4 21 5 19 6 18 7 16 8 15 9 14 10 13 11 6 12
REMARK SMILES IDX 7 13 8 14 9 15 12 16 11 17 10 18 4 20 20 22 17 24
REMARK H PARENT 10 19 4 21 20 23 17 25
REMARK Flexibility Score: inf
ROOT
ATOM      1  C   UNL     1       8.023   9.764 -15.144  1.00  0.00     0.180 A 
ATOM      2  C   UNL     1       8.073  10.519 -13.960  1.00  0.00     0.208 A 
ATOM      3  C   UNL     1       8.486  11.859 -14.024  1.00  0.00     0.238 A 
ATOM      4  O   UNL     1       8.477  12.547 -12.970  1.00  0.00    -0.285 OA
ATOM      5  C   UNL     1       8.862  12.422 -15.269  1.00  0.00     0.111 A 
ATOM      6  C   UNL     1       9.337  13.757 -15.444  1.00  0.00     0.134 A 
ATOM      7  C   UNL     1       9.554  14.247 -16.738  1.00  0.00     0.093 A 
ATOM      8  C   UNL     1       9.377  13.431 -17.857  1.00  0.00     0.123 A 
ATOM      9  C   UNL     1       8.972  12.108 -17.691  1.00  0.00     0.094 A 
ATOM     10  C   UNL     1       8.712  11.601 -16.417  1.00  0.00     0.146 A 
ATOM     11  O   UNL     1       8.318  10.338 -16.304  1.00  0.00    -0.452 OA
ENDROOT
BRANCH   1  12
ATOM     12  C   UNL     1       7.620   8.338 -15.153  1.00  0.00     0.021 A 
ATOM     13  C   UNL     1       8.488   7.329 -14.696  1.00  0.00     0.016 A 
ATOM     14  C   UNL     1       8.094   5.988 -14.736  1.00  0.00     0.047 A 
ATOM     15  C   UNL     1       6.837   5.637 -15.247  1.00  0.00     0.115 A 
ATOM     16  C   UNL     1       6.371   7.976 -15.682  1.00  0.00     0.016 A 
ATOM     17  C   UNL     1       5.980   6.634 -15.721  1.00  0.00     0.047 A 
BRANCH  15  18
ATOM     18  O   UNL     1       6.435   4.305 -15.291  1.00  0.00    -0.508 OA
ATOM     19  H   UNL     1       7.027   3.560 -14.940  1.00  0.00     0.293 HD
ENDBRANCH  15  18
ENDBRANCH   1  12
BRANCH   2  20
ATOM     20  O   UNL     1       7.677   9.951 -12.746  1.00  0.00    -0.502 OA
ATOM     21  H   UNL     1       7.995   9.038 -12.443  1.00  0.00     0.293 HD
ENDBRANCH   2  20
BRANCH   6  22
ATOM     22  O   UNL     1       9.633  14.626 -14.390  1.00  0.00    -0.507 OA
ATOM     23  H   UNL     1      10.310  15.372 -14.433  1.00  0.00     0.293 HD
ENDBRANCH   6  22
BRANCH   8  24
ATOM     24  O   UNL     1       9.612  13.921 -19.140  1.00  0.00    -0.508 OA
ATOM     25  H   UNL     1      10.389  13.589 -19.700  1.00  0.00     0.293 HD
ENDBRANCH   8  24
TORSDOF 5
ENDMDL
