MODEL 1
REMARK VINA RESULT:    -2.855      0.000      0.000
REMARK INTER + INTRA:          -5.577
REMARK INTER:                  -4.524
REMARK INTRA:                  -1.053
REMARK UNBOUND:                -1.053
REMARK SMILES CCCCCCCCCCCC(=O)[O-]
REMARK SMILES IDX 7 1 8 2 9 3 10 4 11 5 12 6 13 7 14 8 6 9 5 10 4 11 3 12 2 13
REMARK SMILES IDX 1 14
REMARK H PARENT
REMARK Flexibility Score: inf
ROOT
ATOM      1  C   UNL     1     -10.317 -19.952  19.294  1.00  0.00     0.000 C 
ENDROOT
BRANCH   1   2
ATOM      2  C   UNL     1     -11.034 -21.283  19.586  1.00  0.00     0.000 C 
BRANCH   2   3
ATOM      3  C   UNL     1     -10.178 -22.549  19.382  1.00  0.00     0.000 C 
BRANCH   3   4
ATOM      4  C   UNL     1      -8.703 -22.290  19.013  1.00  0.00     0.006 C 
BRANCH   4   5
ATOM      5  C   UNL     1      -8.369 -22.528  17.532  1.00  0.00     0.053 C 
BRANCH   5   6
ATOM      6  C   UNL     1      -6.903 -22.379  17.259  1.00  0.00     0.041 C 
ATOM      7  O   UNL     1      -6.494 -22.179  16.085  1.00  0.00    -0.550 OA
ATOM      8  O   UNL     1      -5.988 -22.494  18.298  1.00  0.00    -0.550 OA
ENDBRANCH   5   6
ENDBRANCH   4   5
ENDBRANCH   3   4
ENDBRANCH   2   3
ENDBRANCH   1   2
BRANCH   1   9
ATOM      9  C   UNL     1     -11.125 -18.726  19.750  1.00  0.00     0.000 C 
BRANCH   9  10
ATOM     10  C   UNL     1     -10.413 -17.928  20.856  1.00  0.00    -0.000 C 
BRANCH  10  11
ATOM     11  C   UNL     1     -10.768 -18.422  22.267  1.00  0.00    -0.000 C 
BRANCH  11  12
ATOM     12  C   UNL     1      -9.622 -19.249  22.862  1.00  0.00    -0.000 C 
BRANCH  12  13
ATOM     13  C   UNL     1     -10.062 -20.695  23.118  1.00  0.00    -0.003 C 
ATOM     14  C   UNL     1      -8.875 -21.651  23.059  1.00  0.00     0.004 C 
ENDBRANCH  12  13
ENDBRANCH  11  12
ENDBRANCH  10  11
ENDBRANCH   9  10
ENDBRANCH   1   9
TORSDOF 10
ENDMDL
MODEL 2
REMARK VINA RESULT:    -2.829      0.814      2.496
REMARK INTER + INTRA:          -5.535
REMARK INTER:                  -4.472
REMARK INTRA:                  -1.063
REMARK UNBOUND:                -1.053
REMARK SMILES CCCCCCCCCCCC(=O)[O-]
REMARK SMILES IDX 7 1 8 2 9 3 10 4 11 5 12 6 13 7 14 8 6 9 5 10 4 11 3 12 2 13
REMARK SMILES IDX 1 14
REMARK H PARENT
REMARK Flexibility Score: inf
ROOT
ATOM      1  C   UNL     1      -8.989 -22.355  21.930  1.00  0.00     0.000 C 
ENDROOT
BRANCH   1   2
ATOM      2  C   UNL     1     -10.194 -22.586  20.998  1.00  0.00     0.000 C 
BRANCH   2   3
ATOM      3  C   UNL     1      -9.912 -22.376  19.497  1.00  0.00     0.000 C 
BRANCH   3   4
ATOM      4  C   UNL     1      -8.420 -22.372  19.104  1.00  0.00     0.006 C 
BRANCH   4   5
ATOM      5  C   UNL     1      -8.152 -22.732  17.635  1.00  0.00     0.053 C 
BRANCH   5   6
ATOM      6  C   UNL     1      -6.763 -22.358  17.213  1.00  0.00     0.041 C 
ATOM      7  O   UNL     1      -6.546 -21.941  16.045  1.00  0.00    -0.550 OA
ATOM      8  O   UNL     1      -5.705 -22.504  18.101  1.00  0.00    -0.550 OA
ENDBRANCH   5   6
ENDBRANCH   4   5
ENDBRANCH   3   4
ENDBRANCH   2   3
ENDBRANCH   1   2
BRANCH   1   9
ATOM      9  C   UNL     1      -9.311 -21.406  23.096  1.00  0.00     0.000 C 
BRANCH   9  10
ATOM     10  C   UNL     1     -10.790 -20.987  23.126  1.00  0.00    -0.000 C 
BRANCH  10  11
ATOM     11  C   UNL     1     -10.977 -19.462  23.110  1.00  0.00    -0.000 C 
BRANCH  11  12
ATOM     12  C   UNL     1      -9.697 -18.758  22.644  1.00  0.00    -0.000 C 
BRANCH  12  13
ATOM     13  C   UNL     1      -9.962 -17.897  21.404  1.00  0.00    -0.003 C 
ATOM     14  C   UNL     1     -10.314 -18.763  20.198  1.00  0.00     0.004 C 
ENDBRANCH  12  13
ENDBRANCH  11  12
ENDBRANCH  10  11
ENDBRANCH   9  10
ENDBRANCH   1   9
TORSDOF 10
ENDMDL
MODEL 3
REMARK VINA RESULT:    -2.738      1.147      2.038
REMARK INTER + INTRA:          -5.392
REMARK INTER:                  -4.041
REMARK INTRA:                  -1.351
REMARK UNBOUND:                -1.053
REMARK SMILES CCCCCCCCCCCC(=O)[O-]
REMARK SMILES IDX 7 1 8 2 9 3 10 4 11 5 12 6 13 7 14 8 6 9 5 10 4 11 3 12 2 13
REMARK SMILES IDX 1 14
REMARK H PARENT
REMARK Flexibility Score: inf
ROOT
ATOM      1  C   UNL     1     -10.661 -18.175  20.668  1.00  0.00     0.000 C 
ENDROOT
BRANCH   1   2
ATOM      2  C   UNL     1     -10.019 -19.239  19.759  1.00  0.00     0.000 C 
BRANCH   2   3
ATOM      3  C   UNL     1     -10.980 -20.329  19.245  1.00  0.00     0.000 C 
BRANCH   3   4
ATOM      4  C   UNL     1     -10.321 -21.444  18.407  1.00  0.00     0.006 C 
BRANCH   4   5
ATOM      5  C   UNL     1      -9.028 -22.010  19.012  1.00  0.00     0.053 C 
BRANCH   5   6
ATOM      6  C   UNL     1      -7.941 -22.141  17.989  1.00  0.00     0.041 C 
ATOM      7  O   UNL     1      -8.214 -22.073  16.762  1.00  0.00    -0.550 OA
ATOM      8  O   UNL     1      -6.631 -22.370  18.392  1.00  0.00    -0.550 OA
ENDBRANCH   5   6
ENDBRANCH   4   5
ENDBRANCH   3   4
ENDBRANCH   2   3
ENDBRANCH   1   2
BRANCH   1   9
ATOM      9  C   UNL     1     -10.077 -18.175  22.090  1.00  0.00     0.000 C 
BRANCH   9  10
ATOM     10  C   UNL     1     -11.058 -18.742  23.131  1.00  0.00    -0.000 C 
BRANCH  10  11
ATOM     11  C   UNL     1     -11.093 -20.277  23.140  1.00  0.00    -0.000 C 
BRANCH  11  12
ATOM     12  C   UNL     1      -9.676 -20.859  23.089  1.00  0.00    -0.000 C 
BRANCH  12  13
ATOM     13  C   UNL     1      -9.691 -22.303  22.577  1.00  0.00    -0.003 C 
ATOM     14  C   UNL     1     -11.086 -22.708  22.110  1.00  0.00     0.004 C 
ENDBRANCH  12  13
ENDBRANCH  11  12
ENDBRANCH  10  11
ENDBRANCH   9  10
ENDBRANCH   1   9
TORSDOF 10
ENDMDL
MODEL 4
REMARK VINA RESULT:    -2.704      3.138      5.734
REMARK INTER + INTRA:          -5.337
REMARK INTER:                  -4.375
REMARK INTRA:                  -0.962
REMARK UNBOUND:                -1.053
REMARK SMILES CCCCCCCCCCCC(=O)[O-]
REMARK SMILES IDX 7 1 8 2 9 3 10 4 11 5 12 6 13 7 14 8 6 9 5 10 4 11 3 12 2 13
REMARK SMILES IDX 1 14
REMARK H PARENT
REMARK Flexibility Score: inf
ROOT
ATOM      1  C   UNL     1      -8.067 -23.125  20.786  1.00  0.00     0.000 C 
ENDROOT
BRANCH   1   2
ATOM      2  C   UNL     1      -8.410 -22.826  22.258  1.00  0.00     0.000 C 
BRANCH   2   3
ATOM      3  C   UNL     1      -9.762 -22.121  22.487  1.00  0.00     0.000 C 
BRANCH   3   4
ATOM      4  C   UNL     1      -9.667 -20.688  23.049  1.00  0.00     0.006 C 
BRANCH   4   5
ATOM      5  C   UNL     1     -10.569 -19.668  22.337  1.00  0.00     0.053 C 
BRANCH   5   6
ATOM      6  C   UNL     1      -9.899 -18.336  22.188  1.00  0.00     0.041 C 
ATOM      7  O   UNL     1      -9.185 -17.878  23.118  1.00  0.00    -0.550 OA
ATOM      8  O   UNL     1     -10.091 -17.588  21.033  1.00  0.00    -0.550 OA
ENDBRANCH   5   6
ENDBRANCH   4   5
ENDBRANCH   3   4
ENDBRANCH   2   3
ENDBRANCH   1   2
BRANCH   1   9
ATOM      9  C   UNL     1      -9.300 -23.094  19.869  1.00  0.00     0.000 C 
BRANCH   9  10
ATOM     10  C   UNL     1      -9.139 -22.112  18.696  1.00  0.00    -0.000 C 
BRANCH  10  11
ATOM     11  C   UNL     1      -9.732 -20.726  18.995  1.00  0.00    -0.000 C 
BRANCH  11  12
ATOM     12  C   UNL     1     -11.054 -20.522  18.246  1.00  0.00    -0.000 C 
BRANCH  12  13
ATOM     13  C   UNL     1     -10.984 -21.116  16.835  1.00  0.00    -0.003 C 
ATOM     14  C   UNL     1     -10.682 -20.038  15.798  1.00  0.00     0.004 C 
ENDBRANCH  12  13
ENDBRANCH  11  12
ENDBRANCH  10  11
ENDBRANCH   9  10
ENDBRANCH   1   9
TORSDOF 10
ENDMDL
MODEL 5
REMARK VINA RESULT:    -2.596      2.731      5.737
REMARK INTER + INTRA:          -5.167
REMARK INTER:                  -4.355
REMARK INTRA:                  -0.812
REMARK UNBOUND:                -1.053
REMARK SMILES CCCCCCCCCCCC(=O)[O-]
REMARK SMILES IDX 7 1 8 2 9 3 10 4 11 5 12 6 13 7 14 8 6 9 5 10 4 11 3 12 2 13
REMARK SMILES IDX 1 14
REMARK H PARENT
REMARK Flexibility Score: inf
ROOT
ATOM      1  C   UNL     1     -10.267 -19.844  19.371  1.00  0.00     0.000 C 
ENDROOT
BRANCH   1   2
ATOM      2  C   UNL     1     -10.948 -18.822  20.301  1.00  0.00     0.000 C 
BRANCH   2   3
ATOM      3  C   UNL     1      -9.998 -18.061  21.247  1.00  0.00     0.000 C 
BRANCH   3   4
ATOM      4  C   UNL     1     -10.067 -18.489  22.728  1.00  0.00     0.006 C 
BRANCH   4   5
ATOM      5  C   UNL     1     -11.073 -19.612  23.017  1.00  0.00     0.053 C 
BRANCH   5   6
ATOM      6  C   UNL     1     -10.390 -20.901  23.357  1.00  0.00     0.041 C 
ATOM      7  O   UNL     1      -9.156 -21.040  23.147  1.00  0.00    -0.550 OA
ATOM      8  O   UNL     1     -11.125 -21.961  23.874  1.00  0.00    -0.550 OA
ENDBRANCH   5   6
ENDBRANCH   4   5
ENDBRANCH   3   4
ENDBRANCH   2   3
ENDBRANCH   1   2
BRANCH   1   9
ATOM      9  C   UNL     1     -10.670 -21.294  19.681  1.00  0.00     0.000 C 
BRANCH   9  10
ATOM     10  C   UNL     1     -10.721 -22.175  18.422  1.00  0.00    -0.000 C 
BRANCH  10  11
ATOM     11  C   UNL     1      -9.645 -21.801  17.391  1.00  0.00    -0.000 C 
BRANCH  11  12
ATOM     12  C   UNL     1      -8.467 -22.781  17.448  1.00  0.00    -0.000 C 
BRANCH  12  13
ATOM     13  C   UNL     1      -7.265 -22.156  18.164  1.00  0.00    -0.003 C 
ATOM     14  C   UNL     1      -6.042 -22.114  17.252  1.00  0.00     0.004 C 
ENDBRANCH  12  13
ENDBRANCH  11  12
ENDBRANCH  10  11
ENDBRANCH   9  10
ENDBRANCH   1   9
TORSDOF 10
ENDMDL
MODEL 6
REMARK VINA RESULT:    -2.591      3.079      5.937
REMARK INTER + INTRA:          -5.159
REMARK INTER:                  -4.339
REMARK INTRA:                  -0.820
REMARK UNBOUND:                -1.053
REMARK SMILES CCCCCCCCCCCC(=O)[O-]
REMARK SMILES IDX 7 1 8 2 9 3 10 4 11 5 12 6 13 7 14 8 6 9 5 10 4 11 3 12 2 13
REMARK SMILES IDX 1 14
REMARK H PARENT
REMARK Flexibility Score: inf
ROOT
ATOM      1  C   UNL     1      -8.666 -22.655  21.830  1.00  0.00     0.000 C 
ENDROOT
BRANCH   1   2
ATOM      2  C   UNL     1      -8.934 -21.809  23.089  1.00  0.00     0.000 C 
BRANCH   2   3
ATOM      3  C   UNL     1     -10.422 -21.572  23.416  1.00  0.00     0.000 C 
BRANCH   3   4
ATOM      4  C   UNL     1     -10.938 -20.147  23.131  1.00  0.00     0.006 C 
BRANCH   4   5
ATOM      5  C   UNL     1     -10.475 -19.562  21.789  1.00  0.00     0.053 C 
BRANCH   5   6
ATOM      6  C   UNL     1      -9.923 -18.177  21.943  1.00  0.00     0.041 C 
ATOM      7  O   UNL     1      -9.366 -17.832  23.018  1.00  0.00    -0.550 OA
ATOM      8  O   UNL     1     -10.054 -17.258  20.909  1.00  0.00    -0.550 OA
ENDBRANCH   5   6
ENDBRANCH   4   5
ENDBRANCH   3   4
ENDBRANCH   2   3
ENDBRANCH   1   2
BRANCH   1   9
ATOM      9  C   UNL     1      -9.958 -23.125  21.141  1.00  0.00     0.000 C 
BRANCH   9  10
ATOM     10  C   UNL     1      -9.915 -22.936  19.615  1.00  0.00    -0.000 C 
BRANCH  10  11
ATOM     11  C   UNL     1      -8.758 -22.034  19.161  1.00  0.00    -0.000 C 
BRANCH  11  12
ATOM     12  C   UNL     1      -8.200 -22.497  17.810  1.00  0.00    -0.000 C 
BRANCH  12  13
ATOM     13  C   UNL     1      -6.690 -22.245  17.722  1.00  0.00    -0.003 C 
ATOM     14  C   UNL     1      -6.256 -21.996  16.280  1.00  0.00     0.004 C 
ENDBRANCH  12  13
ENDBRANCH  11  12
ENDBRANCH  10  11
ENDBRANCH   9  10
ENDBRANCH   1   9
TORSDOF 10
ENDMDL
MODEL 7
REMARK VINA RESULT:    -2.453      3.022      6.020
REMARK INTER + INTRA:          -4.940
REMARK INTER:                  -4.403
REMARK INTRA:                  -0.537
REMARK UNBOUND:                -1.053
REMARK SMILES CCCCCCCCCCCC(=O)[O-]
REMARK SMILES IDX 7 1 8 2 9 3 10 4 11 5 12 6 13 7 14 8 6 9 5 10 4 11 3 12 2 13
REMARK SMILES IDX 1 14
REMARK H PARENT
REMARK Flexibility Score: inf
ROOT
ATOM      1  C   UNL     1      -9.667 -20.559  19.722  1.00  0.00     0.000 C 
ENDROOT
BRANCH   1   2
ATOM      2  C   UNL     1     -11.058 -19.978  19.409  1.00  0.00     0.000 C 
BRANCH   2   3
ATOM      3  C   UNL     1     -11.125 -18.439  19.336  1.00  0.00     0.000 C 
BRANCH   3   4
ATOM      4  C   UNL     1     -10.469 -17.697  20.518  1.00  0.00     0.006 C 
BRANCH   4   5
ATOM      5  C   UNL     1     -10.915 -18.191  21.903  1.00  0.00     0.053 C 
BRANCH   5   6
ATOM      6  C   UNL     1      -9.751 -18.400  22.823  1.00  0.00     0.041 C 
ATOM      7  O   UNL     1      -9.181 -17.414  23.360  1.00  0.00    -0.550 OA
ATOM      8  O   UNL     1      -9.277 -19.684  23.062  1.00  0.00    -0.550 OA
ENDBRANCH   5   6
ENDBRANCH   4   5
ENDBRANCH   3   4
ENDBRANCH   2   3
ENDBRANCH   1   2
BRANCH   1   9
ATOM      9  C   UNL     1      -9.578 -22.071  19.456  1.00  0.00     0.000 C 
BRANCH   9  10
ATOM     10  C   UNL     1      -9.591 -22.407  17.955  1.00  0.00    -0.000 C 
BRANCH  10  11
ATOM     11  C   UNL     1      -8.288 -23.071  17.484  1.00  0.00    -0.000 C 
BRANCH  11  12
ATOM     12  C   UNL     1      -7.132 -22.748  18.439  1.00  0.00    -0.000 C 
BRANCH  12  13
ATOM     13  C   UNL     1      -5.817 -22.571  17.671  1.00  0.00    -0.003 C 
ATOM     14  C   UNL     1      -6.068 -22.044  16.261  1.00  0.00     0.004 C 
ENDBRANCH  12  13
ENDBRANCH  11  12
ENDBRANCH  10  11
ENDBRANCH   9  10
ENDBRANCH   1   9
TORSDOF 10
ENDMDL
MODEL 8
REMARK VINA RESULT:    -2.423      1.305      2.490
REMARK INTER + INTRA:          -4.893
REMARK INTER:                  -4.217
REMARK INTRA:                  -0.676
REMARK UNBOUND:                -1.053
REMARK SMILES CCCCCCCCCCCC(=O)[O-]
REMARK SMILES IDX 7 1 8 2 9 3 10 4 11 5 12 6 13 7 14 8 6 9 5 10 4 11 3 12 2 13
REMARK SMILES IDX 1 14
REMARK H PARENT
REMARK Flexibility Score: inf
ROOT
ATOM      1  C   UNL     1      -9.567 -21.036  19.540  1.00  0.00     0.000 C 
ENDROOT
BRANCH   1   2
ATOM      2  C   UNL     1      -9.996 -21.454  18.121  1.00  0.00     0.000 C 
BRANCH   2   3
ATOM      3  C   UNL     1      -9.145 -22.566  17.478  1.00  0.00     0.000 C 
BRANCH   3   4
ATOM      4  C   UNL     1      -7.951 -22.074  16.634  1.00  0.00     0.006 C 
BRANCH   4   5
ATOM      5  C   UNL     1      -6.852 -23.125  16.417  1.00  0.00     0.053 C 
BRANCH   5   6
ATOM      6  C   UNL     1      -5.652 -22.866  17.276  1.00  0.00     0.041 C 
ATOM      7  O   UNL     1      -4.508 -22.783  16.759  1.00  0.00    -0.550 OA
ATOM      8  O   UNL     1      -5.797 -22.748  18.654  1.00  0.00    -0.550 OA
ENDBRANCH   5   6
ENDBRANCH   4   5
ENDBRANCH   3   4
ENDBRANCH   2   3
ENDBRANCH   1   2
BRANCH   1   9
ATOM      9  C   UNL     1     -10.442 -21.663  20.637  1.00  0.00     0.000 C 
BRANCH   9  10
ATOM     10  C   UNL     1      -9.688 -21.838  21.966  1.00  0.00    -0.000 C 
BRANCH  10  11
ATOM     11  C   UNL     1     -10.371 -21.113  23.136  1.00  0.00    -0.000 C 
BRANCH  11  12
ATOM     12  C   UNL     1     -11.054 -19.826  22.660  1.00  0.00    -0.000 C 
BRANCH  12  13
ATOM     13  C   UNL     1     -10.095 -18.633  22.735  1.00  0.00    -0.003 C 
ATOM     14  C   UNL     1     -10.030 -17.894  21.401  1.00  0.00     0.004 C 
ENDBRANCH  12  13
ENDBRANCH  11  12
ENDBRANCH  10  11
ENDBRANCH   9  10
ENDBRANCH   1   9
TORSDOF 10
ENDMDL
MODEL 9
REMARK VINA RESULT:    -2.323      3.426      5.962
REMARK INTER + INTRA:          -4.733
REMARK INTER:                  -3.887
REMARK INTRA:                  -0.846
REMARK UNBOUND:                -1.053
REMARK SMILES CCCCCCCCCCCC(=O)[O-]
REMARK SMILES IDX 7 1 8 2 9 3 10 4 11 5 12 6 13 7 14 8 6 9 5 10 4 11 3 12 2 13
REMARK SMILES IDX 1 14
REMARK H PARENT
REMARK Flexibility Score: inf
ROOT
ATOM      1  C   UNL     1      -9.038 -22.181  19.102  1.00  0.00     0.000 C 
ENDROOT
BRANCH   1   2
ATOM      2  C   UNL     1      -9.286 -23.058  20.344  1.00  0.00     0.000 C 
BRANCH   2   3
ATOM      3  C   UNL     1     -10.083 -22.381  21.477  1.00  0.00     0.000 C 
BRANCH   3   4
ATOM      4  C   UNL     1     -10.758 -21.046  21.097  1.00  0.00     0.006 C 
BRANCH   4   5
ATOM      5  C   UNL     1     -10.199 -19.822  21.837  1.00  0.00     0.053 C 
BRANCH   5   6
ATOM      6  C   UNL     1     -10.289 -18.578  21.007  1.00  0.00     0.041 C 
ATOM      7  O   UNL     1      -9.968 -17.463  21.496  1.00  0.00    -0.550 OA
ATOM      8  O   UNL     1     -10.761 -18.647  19.701  1.00  0.00    -0.550 OA
ENDBRANCH   5   6
ENDBRANCH   4   5
ENDBRANCH   3   4
ENDBRANCH   2   3
ENDBRANCH   1   2
BRANCH   1   9
ATOM      9  C   UNL     1      -9.701 -22.744  17.834  1.00  0.00     0.000 C 
BRANCH   9  10
ATOM     10  C   UNL     1     -10.974 -21.975  17.442  1.00  0.00    -0.000 C 
BRANCH  10  11
ATOM     11  C   UNL     1     -10.671 -20.621  16.781  1.00  0.00    -0.000 C 
BRANCH  11  12
ATOM     12  C   UNL     1     -11.125 -20.612  15.317  1.00  0.00    -0.000 C 
BRANCH  12  13
ATOM     13  C   UNL     1     -10.091 -19.918  14.424  1.00  0.00    -0.003 C 
ATOM     14  C   UNL     1      -8.752 -20.649  14.460  1.00  0.00     0.004 C 
ENDBRANCH  12  13
ENDBRANCH  11  12
ENDBRANCH  10  11
ENDBRANCH   9  10
ENDBRANCH   1   9
TORSDOF 10
ENDMDL
