MODEL 1
REMARK VINA RESULT:    -7.730      0.000      0.000
REMARK INTER + INTRA:         -12.564
REMARK INTER:                 -11.346
REMARK INTRA:                  -1.218
REMARK UNBOUND:                -1.218
REMARK SMILES O=c1c(O[C@@H]2O[C@H](CO)[C@@H](O)[C@@H](O)[C@H]2O)c(-c2ccc(O)c(O)c2)oc2cc(O)cc(O)c12
REMARK SMILES IDX 4 1 3 2 16 3 25 4 2 5 26 6 1 7 33 8 27 9 31 10 28 11 30 12
REMARK SMILES IDX 17 13 18 14 19 15 20 16 24 17 22 18 21 19 23 21 32 23 29 25
REMARK SMILES IDX 5 27 14 28 6 29 12 30 7 31 10 32 15 33 13 35 8 37 9 38 11 40
REMARK H PARENT 21 20 23 22 32 24 29 26 15 34 13 36 9 39 11 41
REMARK Flexibility Score: inf
ROOT
ATOM      1  O   UNL     1     -38.767  -5.283   3.554  1.00  0.00    -0.454 OA
ENDROOT
BRANCH   1   2
ATOM      2  C   UNL     1     -37.414  -5.291   3.122  1.00  0.00     0.214 A 
ATOM      3  C   UNL     1     -36.988  -4.641   1.938  1.00  0.00     0.180 A 
ATOM      4  O   UNL     1     -36.935  -3.307   2.024  1.00  0.00    -0.452 OA
ATOM      5  C   UNL     1     -36.683  -4.819   4.222  1.00  0.00     0.239 A 
ATOM      6  C   UNL     1     -36.843  -2.659   3.174  1.00  0.00     0.146 A 
ATOM      7  O   UNL     1     -36.217  -5.603   5.116  1.00  0.00    -0.285 OA
ATOM      8  C   UNL     1     -36.605  -3.394   4.353  1.00  0.00     0.111 A 
ATOM      9  C   UNL     1     -36.882  -1.251   3.208  1.00  0.00     0.094 A 
ATOM     10  C   UNL     1     -36.476  -2.689   5.575  1.00  0.00     0.134 A 
ATOM     11  C   UNL     1     -36.650  -0.569   4.406  1.00  0.00     0.123 A 
ATOM     12  C   UNL     1     -36.449  -1.271   5.603  1.00  0.00     0.093 A 
BRANCH   3  13
ATOM     13  C   UNL     1     -36.365  -5.269   0.718  1.00  0.00     0.025 A 
ATOM     14  C   UNL     1     -36.359  -6.703   0.652  1.00  0.00     0.016 A 
ATOM     15  C   UNL     1     -36.246  -7.360  -0.566  1.00  0.00     0.051 A 
ATOM     16  C   UNL     1     -36.040  -6.647  -1.741  1.00  0.00     0.157 A 
ATOM     17  C   UNL     1     -35.951  -4.576  -0.454  1.00  0.00     0.062 A 
ATOM     18  C   UNL     1     -35.926  -5.244  -1.699  1.00  0.00     0.158 A 
BRANCH  16  19
ATOM     19  O   UNL     1     -35.950  -7.374  -2.910  1.00  0.00    -0.504 OA
ATOM     20  H   UNL     1     -35.455  -8.248  -2.972  1.00  0.00     0.293 HD
ENDBRANCH  16  19
BRANCH  18  21
ATOM     21  O   UNL     1     -35.906  -4.515  -2.903  1.00  0.00    -0.504 OA
ATOM     22  H   UNL     1     -35.038  -4.462  -3.417  1.00  0.00     0.293 HD
ENDBRANCH  18  21
ENDBRANCH   3  13
BRANCH  10  23
ATOM     23  O   UNL     1     -36.490  -3.340   6.806  1.00  0.00    -0.507 OA
ATOM     24  H   UNL     1     -36.544  -4.359   6.903  1.00  0.00     0.293 HD
ENDBRANCH  10  23
BRANCH  11  25
ATOM     25  O   UNL     1     -36.498   0.816   4.365  1.00  0.00    -0.508 OA
ATOM     26  H   UNL     1     -36.734   1.399   5.177  1.00  0.00     0.293 HD
ENDBRANCH  11  25
ENDBRANCH   1   2
BRANCH   1  27
ATOM     27  C   UNL     1     -39.739  -6.304   3.766  1.00  0.00     0.339 C 
ATOM     28  C   UNL     1     -39.161  -7.770   3.915  1.00  0.00     0.214 C 
ATOM     29  O   UNL     1     -40.611  -5.937   4.811  1.00  0.00    -0.332 OA
ATOM     30  C   UNL     1     -39.200  -8.080   5.423  1.00  0.00     0.180 C 
ATOM     31  C   UNL     1     -41.497  -7.004   5.092  1.00  0.00     0.179 C 
ATOM     32  C   UNL     1     -40.716  -8.116   5.893  1.00  0.00     0.177 C 
BRANCH  28  33
ATOM     33  O   UNL     1     -40.033  -8.680   3.237  1.00  0.00    -0.384 OA
ATOM     34  H   UNL     1     -39.515  -9.382   2.717  1.00  0.00     0.211 HD
ENDBRANCH  28  33
BRANCH  30  35
ATOM     35  O   UNL     1     -38.452  -9.232   5.754  1.00  0.00    -0.387 OA
ATOM     36  H   UNL     1     -37.804  -9.398   4.962  1.00  0.00     0.211 HD
ENDBRANCH  30  35
BRANCH  31  37
ATOM     37  C   UNL     1     -42.783  -6.399   5.635  1.00  0.00     0.191 C 
BRANCH  37  38
ATOM     38  O   UNL     1     -42.627  -4.979   5.699  1.00  0.00    -0.394 OA
ATOM     39  H   UNL     1     -42.154  -4.741   4.846  1.00  0.00     0.210 HD
ENDBRANCH  37  38
ENDBRANCH  31  37
BRANCH  32  40
ATOM     40  O   UNL     1     -41.258  -9.411   5.639  1.00  0.00    -0.387 OA
ATOM     41  H   UNL     1     -42.256  -9.393   5.784  1.00  0.00     0.211 HD
ENDBRANCH  32  40
ENDBRANCH   1  27
TORSDOF 12
ENDMDL
MODEL 2
REMARK VINA RESULT:    -7.067      3.230      9.053
REMARK INTER + INTRA:         -11.590
REMARK INTER:                 -10.779
REMARK INTRA:                  -0.812
REMARK UNBOUND:                -1.218
REMARK SMILES O=c1c(O[C@@H]2O[C@H](CO)[C@@H](O)[C@@H](O)[C@H]2O)c(-c2ccc(O)c(O)c2)oc2cc(O)cc(O)c12
REMARK SMILES IDX 4 1 3 2 16 3 25 4 2 5 26 6 1 7 33 8 27 9 31 10 28 11 30 12
REMARK SMILES IDX 17 13 18 14 19 15 20 16 24 17 22 18 21 19 23 21 32 23 29 25
REMARK SMILES IDX 5 27 14 28 6 29 12 30 7 31 10 32 15 33 13 35 8 37 9 38 11 40
REMARK H PARENT 21 20 23 22 32 24 29 26 15 34 13 36 9 39 11 41
REMARK Flexibility Score: inf
ROOT
ATOM      1  O   UNL     1     -40.784  -6.860   5.082  1.00  0.00    -0.454 OA
ENDROOT
BRANCH   1   2
ATOM      2  C   UNL     1     -40.649  -8.166   5.625  1.00  0.00     0.214 A 
ATOM      3  C   UNL     1     -41.731  -8.857   6.223  1.00  0.00     0.180 A 
ATOM      4  O   UNL     1     -42.637  -9.329   5.359  1.00  0.00    -0.452 OA
ATOM      5  C   UNL     1     -40.102  -8.933   4.586  1.00  0.00     0.239 A 
ATOM      6  C   UNL     1     -42.374  -9.544   4.080  1.00  0.00     0.146 A 
ATOM      7  O   UNL     1     -38.841  -9.062   4.427  1.00  0.00    -0.285 OA
ATOM      8  C   UNL     1     -41.039  -9.453   3.636  1.00  0.00     0.111 A 
ATOM      9  C   UNL     1     -43.393  -9.956   3.199  1.00  0.00     0.094 A 
ATOM     10  C   UNL     1     -40.762  -9.718   2.272  1.00  0.00     0.134 A 
ATOM     11  C   UNL     1     -43.083 -10.312   1.883  1.00  0.00     0.123 A 
ATOM     12  C   UNL     1     -41.773 -10.196   1.398  1.00  0.00     0.093 A 
BRANCH   3  13
ATOM     13  C   UNL     1     -41.844  -9.328   7.651  1.00  0.00     0.025 A 
ATOM     14  C   UNL     1     -41.741 -10.742   7.882  1.00  0.00     0.016 A 
ATOM     15  C   UNL     1     -41.377 -11.235   9.127  1.00  0.00     0.051 A 
ATOM     16  C   UNL     1     -41.196 -10.377  10.206  1.00  0.00     0.157 A 
ATOM     17  C   UNL     1     -41.858  -8.494   8.803  1.00  0.00     0.062 A 
ATOM     18  C   UNL     1     -41.401  -8.993  10.044  1.00  0.00     0.158 A 
BRANCH  16  19
ATOM     19  O   UNL     1     -40.823 -10.946  11.406  1.00  0.00    -0.504 OA
ATOM     20  H   UNL     1     -40.569 -11.917  11.494  1.00  0.00     0.293 HD
ENDBRANCH  16  19
BRANCH  18  21
ATOM     21  O   UNL     1     -41.037  -8.114  11.080  1.00  0.00    -0.504 OA
ATOM     22  H   UNL     1     -40.532  -7.272  10.839  1.00  0.00     0.293 HD
ENDBRANCH  18  21
ENDBRANCH   3  13
BRANCH  10  23
ATOM     23  O   UNL     1     -39.530  -9.413   1.697  1.00  0.00    -0.507 OA
ATOM     24  H   UNL     1     -39.184  -8.454   1.584  1.00  0.00     0.293 HD
ENDBRANCH  10  23
BRANCH  11  25
ATOM     25  O   UNL     1     -44.076 -10.902   1.102  1.00  0.00    -0.508 OA
ATOM     26  H   UNL     1     -43.932 -11.068   0.099  1.00  0.00     0.293 HD
ENDBRANCH  11  25
ENDBRANCH   1   2
BRANCH   1  27
ATOM     27  C   UNL     1     -39.917  -6.012   4.334  1.00  0.00     0.339 C 
ATOM     28  C   UNL     1     -40.394  -4.510   4.191  1.00  0.00     0.214 C 
ATOM     29  O   UNL     1     -38.592  -6.136   4.799  1.00  0.00    -0.332 OA
ATOM     30  C   UNL     1     -39.541  -3.706   5.189  1.00  0.00     0.180 C 
ATOM     31  C   UNL     1     -37.761  -5.207   4.131  1.00  0.00     0.179 C 
ATOM     32  C   UNL     1     -38.025  -3.769   4.724  1.00  0.00     0.177 C 
BRANCH  28  33
ATOM     33  O   UNL     1     -40.099  -4.056   2.866  1.00  0.00    -0.384 OA
ATOM     34  H   UNL     1     -39.348  -3.373   2.859  1.00  0.00     0.211 HD
ENDBRANCH  28  33
BRANCH  30  35
ATOM     35  O   UNL     1     -40.041  -2.401   5.396  1.00  0.00    -0.387 OA
ATOM     36  H   UNL     1     -39.229  -1.814   5.660  1.00  0.00     0.211 HD
ENDBRANCH  30  35
BRANCH  31  37
ATOM     37  C   UNL     1     -36.359  -5.797   4.089  1.00  0.00     0.191 C 
BRANCH  37  38
ATOM     38  O   UNL     1     -36.282  -6.857   5.044  1.00  0.00    -0.394 OA
ATOM     39  H   UNL     1     -36.021  -6.404   5.901  1.00  0.00     0.210 HD
ENDBRANCH  37  38
ENDBRANCH  31  37
BRANCH  32  40
ATOM     40  O   UNL     1     -37.788  -2.757   3.748  1.00  0.00    -0.387 OA
ATOM     41  H   UNL     1     -36.915  -2.940   3.277  1.00  0.00     0.211 HD
ENDBRANCH  32  40
ENDBRANCH   1  27
TORSDOF 12
ENDMDL
MODEL 3
REMARK VINA RESULT:    -6.382      3.291      9.273
REMARK INTER + INTRA:         -10.585
REMARK INTER:                  -9.707
REMARK INTRA:                  -0.879
REMARK UNBOUND:                -1.218
REMARK SMILES O=c1c(O[C@@H]2O[C@H](CO)[C@@H](O)[C@@H](O)[C@H]2O)c(-c2ccc(O)c(O)c2)oc2cc(O)cc(O)c12
REMARK SMILES IDX 4 1 3 2 16 3 25 4 2 5 26 6 1 7 33 8 27 9 31 10 28 11 30 12
REMARK SMILES IDX 17 13 18 14 19 15 20 16 24 17 22 18 21 19 23 21 32 23 29 25
REMARK SMILES IDX 5 27 14 28 6 29 12 30 7 31 10 32 15 33 13 35 8 37 9 38 11 40
REMARK H PARENT 21 20 23 22 32 24 29 26 15 34 13 36 9 39 11 41
REMARK Flexibility Score: inf
ROOT
ATOM      1  O   UNL     1     -40.486  -7.305   5.226  1.00  0.00    -0.454 OA
ENDROOT
BRANCH   1   2
ATOM      2  C   UNL     1     -40.459  -8.621   5.761  1.00  0.00     0.214 A 
ATOM      3  C   UNL     1     -41.542  -9.168   6.490  1.00  0.00     0.180 A 
ATOM      4  O   UNL     1     -42.599  -9.512   5.745  1.00  0.00    -0.452 OA
ATOM      5  C   UNL     1     -40.144  -9.445   4.671  1.00  0.00     0.239 A 
ATOM      6  C   UNL     1     -42.521  -9.751   4.446  1.00  0.00     0.146 A 
ATOM      7  O   UNL     1     -38.940  -9.736   4.364  1.00  0.00    -0.285 OA
ATOM      8  C   UNL     1     -41.249  -9.832   3.844  1.00  0.00     0.111 A 
ATOM      9  C   UNL     1     -43.683 -10.020   3.696  1.00  0.00     0.094 A 
ATOM     10  C   UNL     1     -41.174 -10.121   2.459  1.00  0.00     0.134 A 
ATOM     11  C   UNL     1     -43.582 -10.404   2.356  1.00  0.00     0.123 A 
ATOM     12  C   UNL     1     -42.335 -10.456   1.717  1.00  0.00     0.093 A 
BRANCH   3  13
ATOM     13  C   UNL     1     -41.544  -9.631   7.925  1.00  0.00     0.025 A 
ATOM     14  C   UNL     1     -40.894  -8.784   8.886  1.00  0.00     0.016 A 
ATOM     15  C   UNL     1     -41.215  -8.857  10.234  1.00  0.00     0.051 A 
ATOM     16  C   UNL     1     -42.106  -9.818  10.700  1.00  0.00     0.157 A 
ATOM     17  C   UNL     1     -42.285 -10.729   8.444  1.00  0.00     0.062 A 
ATOM     18  C   UNL     1     -42.676 -10.741   9.802  1.00  0.00     0.158 A 
BRANCH  16  19
ATOM     19  O   UNL     1     -42.381  -9.817  12.052  1.00  0.00    -0.504 OA
ATOM     20  H   UNL     1     -42.760  -9.016  12.531  1.00  0.00     0.293 HD
ENDBRANCH  16  19
BRANCH  18  21
ATOM     21  O   UNL     1     -43.712 -11.585  10.242  1.00  0.00    -0.504 OA
ATOM     22  H   UNL     1     -43.751 -11.825  11.223  1.00  0.00     0.293 HD
ENDBRANCH  18  21
ENDBRANCH   3  13
BRANCH  10  23
ATOM     23  O   UNL     1     -39.990  -9.975   1.739  1.00  0.00    -0.507 OA
ATOM     24  H   UNL     1     -39.402  -9.137   1.786  1.00  0.00     0.293 HD
ENDBRANCH  10  23
BRANCH  11  25
ATOM     25  O   UNL     1     -44.730 -10.854   1.704  1.00  0.00    -0.508 OA
ATOM     26  H   UNL     1     -44.778 -10.886   0.679  1.00  0.00     0.293 HD
ENDBRANCH  11  25
ENDBRANCH   1   2
BRANCH   1  27
ATOM     27  C   UNL     1     -39.486  -6.317   4.992  1.00  0.00     0.339 C 
ATOM     28  C   UNL     1     -38.354  -6.728   3.965  1.00  0.00     0.214 C 
ATOM     29  O   UNL     1     -40.086  -5.076   4.696  1.00  0.00    -0.332 OA
ATOM     30  C   UNL     1     -38.701  -6.004   2.652  1.00  0.00     0.180 C 
ATOM     31  C   UNL     1     -39.089  -4.132   4.352  1.00  0.00     0.179 C 
ATOM     32  C   UNL     1     -38.582  -4.439   2.890  1.00  0.00     0.177 C 
BRANCH  28  33
ATOM     33  O   UNL     1     -37.097  -6.234   4.442  1.00  0.00    -0.384 OA
ATOM     34  H   UNL     1     -36.349  -6.906   4.302  1.00  0.00     0.211 HD
ENDBRANCH  28  33
BRANCH  30  35
ATOM     35  O   UNL     1     -37.956  -6.492   1.555  1.00  0.00    -0.387 OA
ATOM     36  H   UNL     1     -37.000  -6.679   1.910  1.00  0.00     0.211 HD
ENDBRANCH  30  35
BRANCH  31  37
ATOM     37  C   UNL     1     -39.614  -2.756   4.731  1.00  0.00     0.191 C 
BRANCH  37  38
ATOM     38  O   UNL     1     -38.656  -1.775   4.327  1.00  0.00    -0.394 OA
ATOM     39  H   UNL     1     -37.923  -1.845   5.009  1.00  0.00     0.210 HD
ENDBRANCH  37  38
ENDBRANCH  31  37
BRANCH  32  40
ATOM     40  O   UNL     1     -37.224  -4.038   2.720  1.00  0.00    -0.387 OA
ATOM     41  H   UNL     1     -37.189  -3.185   2.182  1.00  0.00     0.211 HD
ENDBRANCH  32  40
ENDBRANCH   1  27
TORSDOF 12
ENDMDL
MODEL 4
REMARK VINA RESULT:    -6.187      3.757      6.365
REMARK INTER + INTRA:         -10.299
REMARK INTER:                  -9.051
REMARK INTRA:                  -1.248
REMARK UNBOUND:                -1.218
REMARK SMILES O=c1c(O[C@@H]2O[C@H](CO)[C@@H](O)[C@@H](O)[C@H]2O)c(-c2ccc(O)c(O)c2)oc2cc(O)cc(O)c12
REMARK SMILES IDX 4 1 3 2 16 3 25 4 2 5 26 6 1 7 33 8 27 9 31 10 28 11 30 12
REMARK SMILES IDX 17 13 18 14 19 15 20 16 24 17 22 18 21 19 23 21 32 23 29 25
REMARK SMILES IDX 5 27 14 28 6 29 12 30 7 31 10 32 15 33 13 35 8 37 9 38 11 40
REMARK H PARENT 21 20 23 22 32 24 29 26 15 34 13 36 9 39 11 41
REMARK Flexibility Score: inf
ROOT
ATOM      1  O   UNL     1     -41.007  -8.639   6.855  1.00  0.00    -0.454 OA
ENDROOT
BRANCH   1   2
ATOM      2  C   UNL     1     -40.598  -9.137   5.588  1.00  0.00     0.214 A 
ATOM      3  C   UNL     1     -41.189  -8.708   4.375  1.00  0.00     0.180 A 
ATOM      4  O   UNL     1     -40.834  -7.478   3.987  1.00  0.00    -0.452 OA
ATOM      5  C   UNL     1     -39.211  -8.929   5.552  1.00  0.00     0.239 A 
ATOM      6  C   UNL     1     -39.731  -6.877   4.406  1.00  0.00     0.146 A 
ATOM      7  O   UNL     1     -38.381  -9.805   5.966  1.00  0.00    -0.285 OA
ATOM      8  C   UNL     1     -38.790  -7.621   5.145  1.00  0.00     0.111 A 
ATOM      9  C   UNL     1     -39.455  -5.546   4.034  1.00  0.00     0.094 A 
ATOM     10  C   UNL     1     -37.597  -6.979   5.561  1.00  0.00     0.134 A 
ATOM     11  C   UNL     1     -38.229  -4.963   4.366  1.00  0.00     0.123 A 
ATOM     12  C   UNL     1     -37.287  -5.662   5.133  1.00  0.00     0.093 A 
BRANCH   3  13
ATOM     13  C   UNL     1     -41.944  -9.544   3.374  1.00  0.00     0.025 A 
ATOM     14  C   UNL     1     -43.284  -9.928   3.720  1.00  0.00     0.016 A 
ATOM     15  C   UNL     1     -44.200 -10.280   2.739  1.00  0.00     0.051 A 
ATOM     16  C   UNL     1     -43.816 -10.362   1.405  1.00  0.00     0.157 A 
ATOM     17  C   UNL     1     -41.522  -9.833   2.046  1.00  0.00     0.062 A 
ATOM     18  C   UNL     1     -42.480 -10.105   1.042  1.00  0.00     0.158 A 
BRANCH  16  19
ATOM     19  O   UNL     1     -44.790 -10.708   0.491  1.00  0.00    -0.504 OA
ATOM     20  H   UNL     1     -45.684 -11.083   0.762  1.00  0.00     0.293 HD
ENDBRANCH  16  19
BRANCH  18  21
ATOM     21  O   UNL     1     -42.139 -10.005  -0.319  1.00  0.00    -0.504 OA
ATOM     22  H   UNL     1     -41.509 -10.693  -0.707  1.00  0.00     0.293 HD
ENDBRANCH  18  21
ENDBRANCH   3  13
BRANCH  10  23
ATOM     23  O   UNL     1     -36.737  -7.554   6.494  1.00  0.00    -0.507 OA
ATOM     24  H   UNL     1     -37.016  -7.770   7.457  1.00  0.00     0.293 HD
ENDBRANCH  10  23
BRANCH  11  25
ATOM     25  O   UNL     1     -37.911  -3.723   3.814  1.00  0.00    -0.508 OA
ATOM     26  H   UNL     1     -38.398  -3.374   2.981  1.00  0.00     0.293 HD
ENDBRANCH  11  25
ENDBRANCH   1   2
BRANCH   1  27
ATOM     27  C   UNL     1     -41.724  -9.205   7.949  1.00  0.00     0.339 C 
ATOM     28  C   UNL     1     -41.500 -10.754   8.180  1.00  0.00     0.214 C 
ATOM     29  O   UNL     1     -41.528  -8.432   9.112  1.00  0.00    -0.332 OA
ATOM     30  C   UNL     1     -40.534 -10.861   9.375  1.00  0.00     0.180 C 
ATOM     31  C   UNL     1     -42.147  -9.063  10.217  1.00  0.00     0.179 C 
ATOM     32  C   UNL     1     -41.260 -10.289  10.665  1.00  0.00     0.177 C 
BRANCH  28  33
ATOM     33  O   UNL     1     -42.749 -11.352   8.545  1.00  0.00    -0.384 OA
ATOM     34  H   UNL     1     -42.907 -11.315   9.547  1.00  0.00     0.211 HD
ENDBRANCH  28  33
BRANCH  30  35
ATOM     35  O   UNL     1     -40.006 -12.162   9.523  1.00  0.00    -0.387 OA
ATOM     36  H   UNL     1     -40.467 -12.750   8.805  1.00  0.00     0.211 HD
ENDBRANCH  30  35
BRANCH  31  37
ATOM     37  C   UNL     1     -42.541  -7.974  11.202  1.00  0.00     0.191 C 
BRANCH  37  38
ATOM     38  O   UNL     1     -42.470  -8.508  12.526  1.00  0.00    -0.394 OA
ATOM     39  H   UNL     1     -42.310  -9.490  12.391  1.00  0.00     0.210 HD
ENDBRANCH  37  38
ENDBRANCH  31  37
BRANCH  32  40
ATOM     40  O   UNL     1     -42.058 -11.315  11.252  1.00  0.00    -0.387 OA
ATOM     41  H   UNL     1     -41.681 -12.218  11.005  1.00  0.00     0.211 HD
ENDBRANCH  32  40
ENDBRANCH   1  27
TORSDOF 12
ENDMDL
MODEL 5
REMARK VINA RESULT:    -6.165      1.399      2.169
REMARK INTER + INTRA:         -10.267
REMARK INTER:                  -9.005
REMARK INTRA:                  -1.262
REMARK UNBOUND:                -1.218
REMARK SMILES O=c1c(O[C@@H]2O[C@H](CO)[C@@H](O)[C@@H](O)[C@H]2O)c(-c2ccc(O)c(O)c2)oc2cc(O)cc(O)c12
REMARK SMILES IDX 4 1 3 2 16 3 25 4 2 5 26 6 1 7 33 8 27 9 31 10 28 11 30 12
REMARK SMILES IDX 17 13 18 14 19 15 20 16 24 17 22 18 21 19 23 21 32 23 29 25
REMARK SMILES IDX 5 27 14 28 6 29 12 30 7 31 10 32 15 33 13 35 8 37 9 38 11 40
REMARK H PARENT 21 20 23 22 32 24 29 26 15 34 13 36 9 39 11 41
REMARK Flexibility Score: inf
ROOT
ATOM      1  O   UNL     1     -38.631  -6.596   3.690  1.00  0.00    -0.454 OA
ENDROOT
BRANCH   1   2
ATOM      2  C   UNL     1     -37.341  -6.315   3.163  1.00  0.00     0.214 A 
ATOM      3  C   UNL     1     -37.152  -5.616   1.947  1.00  0.00     0.180 A 
ATOM      4  O   UNL     1     -37.391  -4.301   2.017  1.00  0.00    -0.452 OA
ATOM      5  C   UNL     1     -36.662  -5.667   4.205  1.00  0.00     0.239 A 
ATOM      6  C   UNL     1     -37.368  -3.621   3.152  1.00  0.00     0.146 A 
ATOM      7  O   UNL     1     -35.974  -6.306   5.070  1.00  0.00    -0.285 OA
ATOM      8  C   UNL     1     -36.894  -4.257   4.317  1.00  0.00     0.111 A 
ATOM      9  C   UNL     1     -37.717  -2.256   3.176  1.00  0.00     0.094 A 
ATOM     10  C   UNL     1     -36.843  -3.512   5.521  1.00  0.00     0.134 A 
ATOM     11  C   UNL     1     -37.562  -1.511   4.350  1.00  0.00     0.123 A 
ATOM     12  C   UNL     1     -37.130  -2.123   5.535  1.00  0.00     0.093 A 
BRANCH   3  13
ATOM     13  C   UNL     1     -36.489  -6.119   0.690  1.00  0.00     0.025 A 
ATOM     14  C   UNL     1     -36.498  -7.538   0.470  1.00  0.00     0.016 A 
ATOM     15  C   UNL     1     -36.345  -8.062  -0.806  1.00  0.00     0.051 A 
ATOM     16  C   UNL     1     -36.083  -7.230  -1.889  1.00  0.00     0.157 A 
ATOM     17  C   UNL     1     -36.019  -5.311  -0.383  1.00  0.00     0.062 A 
ATOM     18  C   UNL     1     -35.953  -5.842  -1.691  1.00  0.00     0.158 A 
BRANCH  16  19
ATOM     19  O   UNL     1     -35.956  -7.829  -3.125  1.00  0.00    -0.504 OA
ATOM     20  H   UNL     1     -35.202  -8.457  -3.352  1.00  0.00     0.293 HD
ENDBRANCH  16  19
BRANCH  18  21
ATOM     21  O   UNL     1     -35.876  -4.988  -2.807  1.00  0.00    -0.504 OA
ATOM     22  H   UNL     1     -36.731  -4.755  -3.291  1.00  0.00     0.293 HD
ENDBRANCH  18  21
ENDBRANCH   3  13
BRANCH  10  23
ATOM     23  O   UNL     1     -36.628  -4.120   6.756  1.00  0.00    -0.507 OA
ATOM     24  H   UNL     1     -37.294  -4.770   7.186  1.00  0.00     0.293 HD
ENDBRANCH  10  23
BRANCH  11  25
ATOM     25  O   UNL     1     -37.725  -0.128   4.286  1.00  0.00    -0.508 OA
ATOM     26  H   UNL     1     -38.362   0.360   4.926  1.00  0.00     0.293 HD
ENDBRANCH  11  25
ENDBRANCH   1   2
BRANCH   1  27
ATOM     27  C   UNL     1     -39.325  -7.801   4.003  1.00  0.00     0.339 C 
ATOM     28  C   UNL     1     -40.023  -7.834   5.422  1.00  0.00     0.214 C 
ATOM     29  O   UNL     1     -40.189  -8.155   2.946  1.00  0.00    -0.332 OA
ATOM     30  C   UNL     1     -41.522  -7.601   5.153  1.00  0.00     0.180 C 
ATOM     31  C   UNL     1     -40.956  -9.285   3.313  1.00  0.00     0.179 C 
ATOM     32  C   UNL     1     -42.083  -8.829   4.320  1.00  0.00     0.177 C 
BRANCH  28  33
ATOM     33  O   UNL     1     -39.856  -9.137   5.989  1.00  0.00    -0.384 OA
ATOM     34  H   UNL     1     -40.544  -9.326   6.711  1.00  0.00     0.211 HD
ENDBRANCH  28  33
BRANCH  30  35
ATOM     35  O   UNL     1     -42.241  -7.312   6.334  1.00  0.00    -0.387 OA
ATOM     36  H   UNL     1     -43.004  -6.666   6.062  1.00  0.00     0.211 HD
ENDBRANCH  30  35
BRANCH  31  37
ATOM     37  C   UNL     1     -41.298 -10.038   2.036  1.00  0.00     0.191 C 
BRANCH  37  38
ATOM     38  O   UNL     1     -42.542 -10.716   2.226  1.00  0.00    -0.394 OA
ATOM     39  H   UNL     1     -42.748 -10.592   3.200  1.00  0.00     0.210 HD
ENDBRANCH  37  38
ENDBRANCH  31  37
BRANCH  32  40
ATOM     40  O   UNL     1     -42.434  -9.885   5.212  1.00  0.00    -0.387 OA
ATOM     41  H   UNL     1     -42.597  -9.508   6.133  1.00  0.00     0.211 HD
ENDBRANCH  32  40
ENDBRANCH   1  27
TORSDOF 12
ENDMDL
MODEL 6
REMARK VINA RESULT:    -6.115      3.187      7.781
REMARK INTER + INTRA:         -10.192
REMARK INTER:                  -9.114
REMARK INTRA:                  -1.079
REMARK UNBOUND:                -1.218
REMARK SMILES O=c1c(O[C@@H]2O[C@H](CO)[C@@H](O)[C@@H](O)[C@H]2O)c(-c2ccc(O)c(O)c2)oc2cc(O)cc(O)c12
REMARK SMILES IDX 4 1 3 2 16 3 25 4 2 5 26 6 1 7 33 8 27 9 31 10 28 11 30 12
REMARK SMILES IDX 17 13 18 14 19 15 20 16 24 17 22 18 21 19 23 21 32 23 29 25
REMARK SMILES IDX 5 27 14 28 6 29 12 30 7 31 10 32 15 33 13 35 8 37 9 38 11 40
REMARK H PARENT 21 20 23 22 32 24 29 26 15 34 13 36 9 39 11 41
REMARK Flexibility Score: inf
ROOT
ATOM      1  O   UNL     1     -40.506  -7.088   5.181  1.00  0.00    -0.454 OA
ENDROOT
BRANCH   1   2
ATOM      2  C   UNL     1     -41.672  -7.878   4.995  1.00  0.00     0.214 A 
ATOM      3  C   UNL     1     -41.615  -9.233   4.587  1.00  0.00     0.180 A 
ATOM      4  O   UNL     1     -41.210 -10.084   5.537  1.00  0.00    -0.452 OA
ATOM      5  C   UNL     1     -42.378  -7.766   6.202  1.00  0.00     0.239 A 
ATOM      6  C   UNL     1     -41.278  -9.811   6.830  1.00  0.00     0.146 A 
ATOM      7  O   UNL     1     -43.246  -6.850   6.398  1.00  0.00    -0.285 OA
ATOM      8  C   UNL     1     -41.972  -8.658   7.246  1.00  0.00     0.111 A 
ATOM      9  C   UNL     1     -40.752 -10.710   7.780  1.00  0.00     0.094 A 
ATOM     10  C   UNL     1     -42.067  -8.391   8.634  1.00  0.00     0.134 A 
ATOM     11  C   UNL     1     -40.945 -10.482   9.146  1.00  0.00     0.123 A 
ATOM     12  C   UNL     1     -41.597  -9.325   9.594  1.00  0.00     0.093 A 
BRANCH   3  13
ATOM     13  C   UNL     1     -42.184  -9.839   3.329  1.00  0.00     0.025 A 
ATOM     14  C   UNL     1     -43.569 -10.218   3.355  1.00  0.00     0.016 A 
ATOM     15  C   UNL     1     -44.295 -10.344   2.179  1.00  0.00     0.051 A 
ATOM     16  C   UNL     1     -43.675 -10.200   0.943  1.00  0.00     0.157 A 
ATOM     17  C   UNL     1     -41.531  -9.899   2.067  1.00  0.00     0.062 A 
ATOM     18  C   UNL     1     -42.293  -9.941   0.877  1.00  0.00     0.158 A 
BRANCH  16  19
ATOM     19  O   UNL     1     -44.470 -10.329  -0.177  1.00  0.00    -0.504 OA
ATOM     20  H   UNL     1     -44.832  -9.538  -0.684  1.00  0.00     0.293 HD
ENDBRANCH  16  19
BRANCH  18  21
ATOM     21  O   UNL     1     -41.709  -9.610  -0.359  1.00  0.00    -0.504 OA
ATOM     22  H   UNL     1     -40.714  -9.436  -0.388  1.00  0.00     0.293 HD
ENDBRANCH  18  21
ENDBRANCH   3  13
BRANCH  10  23
ATOM     23  O   UNL     1     -42.510  -7.162   9.121  1.00  0.00    -0.507 OA
ATOM     24  H   UNL     1     -42.118  -6.264   8.821  1.00  0.00     0.293 HD
ENDBRANCH  10  23
BRANCH  11  25
ATOM     25  O   UNL     1     -40.590 -11.487  10.045  1.00  0.00    -0.508 OA
ATOM     26  H   UNL     1     -40.799 -11.399  11.046  1.00  0.00     0.293 HD
ENDBRANCH  11  25
ENDBRANCH   1   2
BRANCH   1  27
ATOM     27  C   UNL     1     -39.749  -6.234   4.327  1.00  0.00     0.339 C 
ATOM     28  C   UNL     1     -40.196  -4.717   4.314  1.00  0.00     0.214 C 
ATOM     29  O   UNL     1     -38.370  -6.409   4.560  1.00  0.00    -0.332 OA
ATOM     30  C   UNL     1     -39.164  -3.972   5.180  1.00  0.00     0.180 C 
ATOM     31  C   UNL     1     -37.632  -5.478   3.792  1.00  0.00     0.179 C 
ATOM     32  C   UNL     1     -37.749  -4.056   4.467  1.00  0.00     0.177 C 
BRANCH  28  33
ATOM     33  O   UNL     1     -40.111  -4.222   2.973  1.00  0.00    -0.384 OA
ATOM     34  H   UNL     1     -40.808  -4.646   2.369  1.00  0.00     0.211 HD
ENDBRANCH  28  33
BRANCH  30  35
ATOM     35  O   UNL     1     -39.583  -2.663   5.509  1.00  0.00    -0.387 OA
ATOM     36  H   UNL     1     -39.594  -2.128   4.621  1.00  0.00     0.211 HD
ENDBRANCH  30  35
BRANCH  31  37
ATOM     37  C   UNL     1     -36.276  -6.101   3.498  1.00  0.00     0.191 C 
BRANCH  37  38
ATOM     38  O   UNL     1     -36.368  -6.840   2.278  1.00  0.00    -0.394 OA
ATOM     39  H   UNL     1     -36.493  -6.140   1.571  1.00  0.00     0.210 HD
ENDBRANCH  37  38
ENDBRANCH  31  37
BRANCH  32  40
ATOM     40  O   UNL     1     -37.646  -3.015   3.497  1.00  0.00    -0.387 OA
ATOM     41  H   UNL     1     -36.685  -2.920   3.206  1.00  0.00     0.211 HD
ENDBRANCH  32  40
ENDBRANCH   1  27
TORSDOF 12
ENDMDL
MODEL 7
REMARK VINA RESULT:    -5.800      3.403      7.643
REMARK INTER + INTRA:          -9.731
REMARK INTER:                  -8.443
REMARK INTRA:                  -1.288
REMARK UNBOUND:                -1.218
REMARK SMILES O=c1c(O[C@@H]2O[C@H](CO)[C@@H](O)[C@@H](O)[C@H]2O)c(-c2ccc(O)c(O)c2)oc2cc(O)cc(O)c12
REMARK SMILES IDX 4 1 3 2 16 3 25 4 2 5 26 6 1 7 33 8 27 9 31 10 28 11 30 12
REMARK SMILES IDX 17 13 18 14 19 15 20 16 24 17 22 18 21 19 23 21 32 23 29 25
REMARK SMILES IDX 5 27 14 28 6 29 12 30 7 31 10 32 15 33 13 35 8 37 9 38 11 40
REMARK H PARENT 21 20 23 22 32 24 29 26 15 34 13 36 9 39 11 41
REMARK Flexibility Score: inf
ROOT
ATOM      1  O   UNL     1     -40.275  -7.375   5.567  1.00  0.00    -0.454 OA
ENDROOT
BRANCH   1   2
ATOM      2  C   UNL     1     -41.500  -8.045   5.302  1.00  0.00     0.214 A 
ATOM      3  C   UNL     1     -41.552  -9.396   4.880  1.00  0.00     0.180 A 
ATOM      4  O   UNL     1     -41.290 -10.290   5.839  1.00  0.00    -0.452 OA
ATOM      5  C   UNL     1     -42.263  -7.873   6.467  1.00  0.00     0.239 A 
ATOM      6  C   UNL     1     -41.408 -10.022   7.130  1.00  0.00     0.146 A 
ATOM      7  O   UNL     1     -43.047  -6.878   6.624  1.00  0.00    -0.285 OA
ATOM      8  C   UNL     1     -42.009  -8.809   7.521  1.00  0.00     0.111 A 
ATOM      9  C   UNL     1     -41.032 -10.976   8.096  1.00  0.00     0.094 A 
ATOM     10  C   UNL     1     -42.160  -8.545   8.904  1.00  0.00     0.134 A 
ATOM     11  C   UNL     1     -41.283 -10.741   9.452  1.00  0.00     0.123 A 
ATOM     12  C   UNL     1     -41.844  -9.528   9.877  1.00  0.00     0.093 A 
BRANCH   3  13
ATOM     13  C   UNL     1     -42.101  -9.932   3.582  1.00  0.00     0.025 A 
ATOM     14  C   UNL     1     -43.492 -10.290   3.559  1.00  0.00     0.016 A 
ATOM     15  C   UNL     1     -44.193 -10.349   2.363  1.00  0.00     0.051 A 
ATOM     16  C   UNL     1     -43.543 -10.156   1.149  1.00  0.00     0.157 A 
ATOM     17  C   UNL     1     -41.420  -9.944   2.333  1.00  0.00     0.062 A 
ATOM     18  C   UNL     1     -42.156  -9.917   1.126  1.00  0.00     0.158 A 
BRANCH  16  19
ATOM     19  O   UNL     1     -44.314 -10.220   0.007  1.00  0.00    -0.504 OA
ATOM     20  H   UNL     1     -43.918 -10.247  -0.919  1.00  0.00     0.293 HD
ENDBRANCH  16  19
BRANCH  18  21
ATOM     21  O   UNL     1     -41.539  -9.538  -0.080  1.00  0.00    -0.504 OA
ATOM     22  H   UNL     1     -42.127  -9.251  -0.850  1.00  0.00     0.293 HD
ENDBRANCH  18  21
ENDBRANCH   3  13
BRANCH  10  23
ATOM     23  O   UNL     1     -42.510  -7.283   9.381  1.00  0.00    -0.507 OA
ATOM     24  H   UNL     1     -42.149  -6.893  10.257  1.00  0.00     0.293 HD
ENDBRANCH  10  23
BRANCH  11  25
ATOM     25  O   UNL     1     -41.082 -11.783  10.356  1.00  0.00    -0.508 OA
ATOM     26  H   UNL     1     -40.580 -12.634  10.079  1.00  0.00     0.293 HD
ENDBRANCH  11  25
ENDBRANCH   1   2
BRANCH   1  27
ATOM     27  C   UNL     1     -39.659  -6.206   5.035  1.00  0.00     0.339 C 
ATOM     28  C   UNL     1     -38.435  -6.464   4.066  1.00  0.00     0.214 C 
ATOM     29  O   UNL     1     -40.633  -5.346   4.488  1.00  0.00    -0.332 OA
ATOM     30  C   UNL     1     -38.979  -6.248   2.642  1.00  0.00     0.180 C 
ATOM     31  C   UNL     1     -40.004  -4.246   3.861  1.00  0.00     0.179 C 
ATOM     32  C   UNL     1     -39.395  -4.724   2.486  1.00  0.00     0.177 C 
BRANCH  28  33
ATOM     33  O   UNL     1     -37.425  -5.483   4.325  1.00  0.00    -0.384 OA
ATOM     34  H   UNL     1     -37.808  -4.543   4.345  1.00  0.00     0.211 HD
ENDBRANCH  28  33
BRANCH  30  35
ATOM     35  O   UNL     1     -38.093  -6.722   1.650  1.00  0.00    -0.387 OA
ATOM     36  H   UNL     1     -37.295  -6.061   1.629  1.00  0.00     0.211 HD
ENDBRANCH  30  35
BRANCH  31  37
ATOM     37  C   UNL     1     -40.966  -3.069   3.930  1.00  0.00     0.191 C 
BRANCH  37  38
ATOM     38  O   UNL     1     -42.262  -3.560   4.280  1.00  0.00    -0.394 OA
ATOM     39  H   UNL     1     -42.782  -2.738   4.528  1.00  0.00     0.210 HD
ENDBRANCH  37  38
ENDBRANCH  31  37
BRANCH  32  40
ATOM     40  O   UNL     1     -38.246  -3.954   2.135  1.00  0.00    -0.387 OA
ATOM     41  H   UNL     1     -38.519  -3.202   1.522  1.00  0.00     0.211 HD
ENDBRANCH  32  40
ENDBRANCH   1  27
TORSDOF 12
ENDMDL
MODEL 8
REMARK VINA RESULT:    -5.546      3.420      7.251
REMARK INTER + INTRA:          -9.358
REMARK INTER:                  -8.177
REMARK INTRA:                  -1.181
REMARK UNBOUND:                -1.218
REMARK SMILES O=c1c(O[C@@H]2O[C@H](CO)[C@@H](O)[C@@H](O)[C@H]2O)c(-c2ccc(O)c(O)c2)oc2cc(O)cc(O)c12
REMARK SMILES IDX 4 1 3 2 16 3 25 4 2 5 26 6 1 7 33 8 27 9 31 10 28 11 30 12
REMARK SMILES IDX 17 13 18 14 19 15 20 16 24 17 22 18 21 19 23 21 32 23 29 25
REMARK SMILES IDX 5 27 14 28 6 29 12 30 7 31 10 32 15 33 13 35 8 37 9 38 11 40
REMARK H PARENT 21 20 23 22 32 24 29 26 15 34 13 36 9 39 11 41
REMARK Flexibility Score: inf
ROOT
ATOM      1  O   UNL     1     -40.749  -9.127   6.669  1.00  0.00    -0.454 OA
ENDROOT
BRANCH   1   2
ATOM      2  C   UNL     1     -40.776  -7.954   5.868  1.00  0.00     0.214 A 
ATOM      3  C   UNL     1     -39.780  -7.669   4.902  1.00  0.00     0.180 A 
ATOM      4  O   UNL     1     -39.853  -8.410   3.791  1.00  0.00    -0.452 OA
ATOM      5  C   UNL     1     -42.044  -7.959   5.267  1.00  0.00     0.239 A 
ATOM      6  C   UNL     1     -40.959  -9.024   3.402  1.00  0.00     0.146 A 
ATOM      7  O   UNL     1     -43.055  -7.398   5.809  1.00  0.00    -0.285 OA
ATOM      8  C   UNL     1     -42.165  -8.745   4.076  1.00  0.00     0.111 A 
ATOM      9  C   UNL     1     -40.951  -9.864   2.271  1.00  0.00     0.094 A 
ATOM     10  C   UNL     1     -43.349  -9.383   3.632  1.00  0.00     0.134 A 
ATOM     11  C   UNL     1     -42.147 -10.402   1.786  1.00  0.00     0.123 A 
ATOM     12  C   UNL     1     -43.358 -10.176   2.455  1.00  0.00     0.093 A 
BRANCH   3  13
ATOM     13  C   UNL     1     -38.837  -6.492   4.874  1.00  0.00     0.025 A 
ATOM     14  C   UNL     1     -37.433  -6.778   4.972  1.00  0.00     0.016 A 
ATOM     15  C   UNL     1     -36.489  -5.872   4.511  1.00  0.00     0.051 A 
ATOM     16  C   UNL     1     -36.875  -4.626   4.028  1.00  0.00     0.157 A 
ATOM     17  C   UNL     1     -39.195  -5.148   4.575  1.00  0.00     0.062 A 
ATOM     18  C   UNL     1     -38.236  -4.267   4.024  1.00  0.00     0.158 A 
BRANCH  16  19
ATOM     19  O   UNL     1     -35.875  -3.790   3.578  1.00  0.00    -0.504 OA
ATOM     20  H   UNL     1     -35.070  -3.551   4.135  1.00  0.00     0.293 HD
ENDBRANCH  16  19
BRANCH  18  21
ATOM     21  O   UNL     1     -38.639  -3.090   3.367  1.00  0.00    -0.504 OA
ATOM     22  H   UNL     1     -39.195  -3.176   2.528  1.00  0.00     0.293 HD
ENDBRANCH  18  21
ENDBRANCH   3  13
BRANCH  10  23
ATOM     23  O   UNL     1     -44.524  -9.362   4.382  1.00  0.00    -0.507 OA
ATOM     24  H   UNL     1     -44.608  -9.797   5.306  1.00  0.00     0.293 HD
ENDBRANCH  10  23
BRANCH  11  25
ATOM     25  O   UNL     1     -42.131 -11.061   0.557  1.00  0.00    -0.508 OA
ATOM     26  H   UNL     1     -42.577 -11.978   0.443  1.00  0.00     0.293 HD
ENDBRANCH  11  25
ENDBRANCH   1   2
BRANCH   1  27
ATOM     27  C   UNL     1     -41.507  -9.569   7.792  1.00  0.00     0.339 C 
ATOM     28  C   UNL     1     -41.402 -11.114   8.116  1.00  0.00     0.214 C 
ATOM     29  O   UNL     1     -41.254  -8.745   8.907  1.00  0.00    -0.332 OA
ATOM     30  C   UNL     1     -40.448 -11.222   9.320  1.00  0.00     0.180 C 
ATOM     31  C   UNL     1     -41.920  -9.259  10.044  1.00  0.00     0.179 C 
ATOM     32  C   UNL     1     -41.129 -10.520  10.570  1.00  0.00     0.177 C 
BRANCH  28  33
ATOM     33  O   UNL     1     -42.693 -11.592   8.510  1.00  0.00    -0.384 OA
ATOM     34  H   UNL     1     -43.427 -11.236   7.907  1.00  0.00     0.211 HD
ENDBRANCH  28  33
BRANCH  30  35
ATOM     35  O   UNL     1     -40.020 -12.548   9.550  1.00  0.00    -0.387 OA
ATOM     36  H   UNL     1     -40.278 -12.775  10.528  1.00  0.00     0.211 HD
ENDBRANCH  30  35
BRANCH  31  37
ATOM     37  C   UNL     1     -42.231  -8.086  10.961  1.00  0.00     0.191 C 
BRANCH  37  38
ATOM     38  O   UNL     1     -42.292  -8.562  12.307  1.00  0.00    -0.394 OA
ATOM     39  H   UNL     1     -41.830  -9.452  12.278  1.00  0.00     0.210 HD
ENDBRANCH  37  38
ENDBRANCH  31  37
BRANCH  32  40
ATOM     40  O   UNL     1     -42.003 -11.445  11.214  1.00  0.00    -0.387 OA
ATOM     41  H   UNL     1     -42.910 -11.417  10.771  1.00  0.00     0.211 HD
ENDBRANCH  32  40
ENDBRANCH   1  27
TORSDOF 12
ENDMDL
MODEL 9
REMARK VINA RESULT:    -4.745      2.732      8.394
REMARK INTER + INTRA:          -8.181
REMARK INTER:                  -6.876
REMARK INTRA:                  -1.305
REMARK UNBOUND:                -1.218
REMARK SMILES O=c1c(O[C@@H]2O[C@H](CO)[C@@H](O)[C@@H](O)[C@H]2O)c(-c2ccc(O)c(O)c2)oc2cc(O)cc(O)c12
REMARK SMILES IDX 4 1 3 2 16 3 25 4 2 5 26 6 1 7 33 8 27 9 31 10 28 11 30 12
REMARK SMILES IDX 17 13 18 14 19 15 20 16 24 17 22 18 21 19 23 21 32 23 29 25
REMARK SMILES IDX 5 27 14 28 6 29 12 30 7 31 10 32 15 33 13 35 8 37 9 38 11 40
REMARK H PARENT 21 20 23 22 32 24 29 26 15 34 13 36 9 39 11 41
REMARK Flexibility Score: inf
ROOT
ATOM      1  O   UNL     1     -40.095  -6.694   3.078  1.00  0.00    -0.454 OA
ENDROOT
BRANCH   1   2
ATOM      2  C   UNL     1     -39.670  -7.927   3.644  1.00  0.00     0.214 A 
ATOM      3  C   UNL     1     -40.128  -8.384   4.903  1.00  0.00     0.180 A 
ATOM      4  O   UNL     1     -41.387  -8.836   4.907  1.00  0.00    -0.452 OA
ATOM      5  C   UNL     1     -39.934  -8.886   2.655  1.00  0.00     0.239 A 
ATOM      6  C   UNL     1     -42.012  -9.247   3.815  1.00  0.00     0.146 A 
ATOM      7  O   UNL     1     -39.074  -9.202   1.767  1.00  0.00    -0.285 OA
ATOM      8  C   UNL     1     -41.274  -9.393   2.623  1.00  0.00     0.111 A 
ATOM      9  C   UNL     1     -43.368  -9.627   3.866  1.00  0.00     0.094 A 
ATOM     10  C   UNL     1     -41.944  -9.864   1.467  1.00  0.00     0.134 A 
ATOM     11  C   UNL     1     -43.984 -10.186   2.742  1.00  0.00     0.123 A 
ATOM     12  C   UNL     1     -43.290 -10.309   1.531  1.00  0.00     0.093 A 
BRANCH   3  13
ATOM     13  C   UNL     1     -39.307  -8.650   6.139  1.00  0.00     0.025 A 
ATOM     14  C   UNL     1     -37.924  -8.264   6.100  1.00  0.00     0.016 A 
ATOM     15  C   UNL     1     -37.215  -8.036   7.271  1.00  0.00     0.051 A 
ATOM     16  C   UNL     1     -37.799  -8.267   8.512  1.00  0.00     0.157 A 
ATOM     17  C   UNL     1     -39.814  -9.075   7.399  1.00  0.00     0.062 A 
ATOM     18  C   UNL     1     -39.117  -8.756   8.587  1.00  0.00     0.158 A 
BRANCH  16  19
ATOM     19  O   UNL     1     -37.031  -8.004   9.627  1.00  0.00    -0.504 OA
ATOM     20  H   UNL     1     -36.027  -7.927   9.593  1.00  0.00     0.293 HD
ENDBRANCH  16  19
BRANCH  18  21
ATOM     21  O   UNL     1     -39.766  -8.810   9.834  1.00  0.00    -0.504 OA
ATOM     22  H   UNL     1     -39.312  -8.384  10.629  1.00  0.00     0.293 HD
ENDBRANCH  18  21
ENDBRANCH   3  13
BRANCH  10  23
ATOM     23  O   UNL     1     -41.363  -9.802   0.202  1.00  0.00    -0.507 OA
ATOM     24  H   UNL     1     -41.524 -10.507  -0.525  1.00  0.00     0.293 HD
ENDBRANCH  10  23
BRANCH  11  25
ATOM     25  O   UNL     1     -45.259 -10.732   2.885  1.00  0.00    -0.508 OA
ATOM     26  H   UNL     1     -45.920 -10.359   3.576  1.00  0.00     0.293 HD
ENDBRANCH  11  25
ENDBRANCH   1   2
BRANCH   1  27
ATOM     27  C   UNL     1     -39.460  -5.435   2.874  1.00  0.00     0.339 C 
ATOM     28  C   UNL     1     -39.115  -4.627   4.189  1.00  0.00     0.214 C 
ATOM     29  O   UNL     1     -38.361  -5.579   2.001  1.00  0.00    -0.332 OA
ATOM     30  C   UNL     1     -37.603  -4.817   4.410  1.00  0.00     0.180 C 
ATOM     31  C   UNL     1     -37.669  -4.349   1.896  1.00  0.00     0.179 C 
ATOM     32  C   UNL     1     -36.826  -4.126   3.211  1.00  0.00     0.177 C 
BRANCH  28  33
ATOM     33  O   UNL     1     -39.374  -3.238   3.959  1.00  0.00    -0.384 OA
ATOM     34  H   UNL     1     -38.761  -2.852   3.247  1.00  0.00     0.211 HD
ENDBRANCH  28  33
BRANCH  30  35
ATOM     35  O   UNL     1     -37.191  -4.403   5.696  1.00  0.00    -0.387 OA
ATOM     36  H   UNL     1     -36.967  -3.394   5.622  1.00  0.00     0.211 HD
ENDBRANCH  30  35
BRANCH  31  37
ATOM     37  C   UNL     1     -37.014  -4.310   0.524  1.00  0.00     0.191 C 
BRANCH  37  38
ATOM     38  O   UNL     1     -37.770  -3.436  -0.318  1.00  0.00    -0.394 OA
ATOM     39  H   UNL     1     -37.912  -2.614   0.239  1.00  0.00     0.210 HD
ENDBRANCH  37  38
ENDBRANCH  31  37
BRANCH  32  40
ATOM     40  O   UNL     1     -36.665  -2.736   3.491  1.00  0.00    -0.387 OA
ATOM     41  H   UNL     1     -35.703  -2.550   3.731  1.00  0.00     0.211 HD
ENDBRANCH  32  40
ENDBRANCH   1  27
TORSDOF 12
ENDMDL
