MODEL 1
REMARK VINA RESULT:    -3.304      0.000      0.000
REMARK INTER + INTRA:          -8.725
REMARK INTER:                  -6.008
REMARK INTRA:                  -2.716
REMARK UNBOUND:                -2.716
REMARK SMILES CCCCCCCCCCCCCC[C@@H](C)C(=O)[O-]
REMARK SMILES IDX 9 1 10 2 11 3 12 4 13 5 14 6 15 7 16 8 17 9 18 10 19 11 8 12
REMARK SMILES IDX 7 13 6 14 5 15 4 16 3 17 2 18 1 19
REMARK H PARENT
REMARK Flexibility Score: inf
ROOT
ATOM      1  C   UNL     1      -4.698  -2.854  36.847  1.00  0.00     0.000 C 
ENDROOT
BRANCH   1   2
ATOM      2  C   UNL     1      -5.304  -1.589  37.474  1.00  0.00     0.000 C 
BRANCH   2   3
ATOM      3  C   UNL     1      -4.215  -0.558  37.793  1.00  0.00     0.000 C 
BRANCH   3   4
ATOM      4  C   UNL     1      -4.541   0.802  37.158  1.00  0.00     0.000 C 
BRANCH   4   5
ATOM      5  C   UNL     1      -5.510   0.686  35.970  1.00  0.00     0.001 C 
BRANCH   5   6
ATOM      6  C   UNL     1      -4.803   0.871  34.612  1.00  0.00     0.009 C 
BRANCH   6   7
ATOM      7  C   UNL     1      -5.611   0.352  33.402  1.00  0.00     0.032 C 
ATOM      8  C   UNL     1      -7.005  -0.158  33.798  1.00  0.00     0.014 C 
BRANCH   7   9
ATOM      9  C   UNL     1      -5.687   1.379  32.302  1.00  0.00     0.044 C 
ATOM     10  O   UNL     1      -6.742   1.495  31.625  1.00  0.00    -0.550 OA
ATOM     11  O   UNL     1      -4.587   2.171  31.990  1.00  0.00    -0.550 OA
ENDBRANCH   7   9
ENDBRANCH   6   7
ENDBRANCH   5   6
ENDBRANCH   4   5
ENDBRANCH   3   4
ENDBRANCH   2   3
ENDBRANCH   1   2
BRANCH   1  12
ATOM     12  C   UNL     1      -5.387  -3.256  35.532  1.00  0.00     0.000 C 
BRANCH  12  13
ATOM     13  C   UNL     1      -4.521  -2.956  34.297  1.00  0.00    -0.000 C 
BRANCH  13  14
ATOM     14  C   UNL     1      -3.020  -2.904  34.627  1.00  0.00    -0.000 C 
BRANCH  14  15
ATOM     15  C   UNL     1      -2.361  -1.585  34.193  1.00  0.00    -0.000 C 
BRANCH  15  16
ATOM     16  C   UNL     1      -1.591  -0.947  35.359  1.00  0.00    -0.000 C 
BRANCH  16  17
ATOM     17  C   UNL     1      -1.118  -1.976  36.401  1.00  0.00    -0.000 C 
BRANCH  17  18
ATOM     18  C   UNL     1       0.303  -2.521  36.174  1.00  0.00    -0.003 C 
ATOM     19  C   UNL     1       1.345  -1.417  35.998  1.00  0.00     0.004 C 
ENDBRANCH  17  18
ENDBRANCH  16  17
ENDBRANCH  15  16
ENDBRANCH  14  15
ENDBRANCH  13  14
ENDBRANCH  12  13
ENDBRANCH   1  12
TORSDOF 14
ENDMDL
MODEL 2
REMARK VINA RESULT:    -3.299      3.004      5.860
REMARK INTER + INTRA:          -8.715
REMARK INTER:                  -6.215
REMARK INTRA:                  -2.500
REMARK UNBOUND:                -2.716
REMARK SMILES CCCCCCCCCCCCCC[C@@H](C)C(=O)[O-]
REMARK SMILES IDX 9 1 10 2 11 3 12 4 13 5 14 6 15 7 16 8 17 9 18 10 19 11 8 12
REMARK SMILES IDX 7 13 6 14 5 15 4 16 3 17 2 18 1 19
REMARK H PARENT
REMARK Flexibility Score: inf
ROOT
ATOM      1  C   UNL     1      -5.830  -2.560  36.869  1.00  0.00     0.000 C 
ENDROOT
BRANCH   1   2
ATOM      2  C   UNL     1      -5.376  -3.336  35.623  1.00  0.00     0.000 C 
BRANCH   2   3
ATOM      3  C   UNL     1      -3.854  -3.259  35.453  1.00  0.00     0.000 C 
BRANCH   3   4
ATOM      4  C   UNL     1      -3.481  -2.805  34.034  1.00  0.00     0.000 C 
BRANCH   4   5
ATOM      5  C   UNL     1      -2.543  -1.587  34.028  1.00  0.00     0.001 C 
BRANCH   5   6
ATOM      6  C   UNL     1      -1.887  -1.340  35.401  1.00  0.00     0.009 C 
BRANCH   6   7
ATOM      7  C   UNL     1      -0.342  -1.330  35.373  1.00  0.00     0.032 C 
ATOM      8  C   UNL     1       0.251  -0.075  36.030  1.00  0.00     0.014 C 
BRANCH   7   9
ATOM      9  C   UNL     1       0.233  -2.591  35.963  1.00  0.00     0.044 C 
ATOM     10  O   UNL     1      -0.468  -3.297  36.734  1.00  0.00    -0.550 OA
ATOM     11  O   UNL     1       1.549  -2.962  35.707  1.00  0.00    -0.550 OA
ENDBRANCH   7   9
ENDBRANCH   6   7
ENDBRANCH   5   6
ENDBRANCH   4   5
ENDBRANCH   3   4
ENDBRANCH   2   3
ENDBRANCH   1   2
BRANCH   1  12
ATOM     12  C   UNL     1      -4.669  -2.236  37.824  1.00  0.00     0.000 C 
BRANCH  12  13
ATOM     13  C   UNL     1      -4.859  -0.893  38.549  1.00  0.00    -0.000 C 
BRANCH  13  14
ATOM     14  C   UNL     1      -4.136   0.266  37.843  1.00  0.00    -0.000 C 
BRANCH  14  15
ATOM     15  C   UNL     1      -5.089   1.152  37.026  1.00  0.00    -0.000 C 
BRANCH  15  16
ATOM     16  C   UNL     1      -4.892   0.924  35.519  1.00  0.00    -0.000 C 
BRANCH  16  17
ATOM     17  C   UNL     1      -6.127   0.308  34.839  1.00  0.00    -0.000 C 
BRANCH  17  18
ATOM     18  C   UNL     1      -5.964   0.025  33.335  1.00  0.00    -0.003 C 
ATOM     19  C   UNL     1      -6.354   1.214  32.458  1.00  0.00     0.004 C 
ENDBRANCH  17  18
ENDBRANCH  16  17
ENDBRANCH  15  16
ENDBRANCH  14  15
ENDBRANCH  13  14
ENDBRANCH  12  13
ENDBRANCH   1  12
TORSDOF 14
ENDMDL
MODEL 3
REMARK VINA RESULT:    -3.251      2.807      4.828
REMARK INTER + INTRA:          -8.628
REMARK INTER:                  -5.644
REMARK INTRA:                  -2.984
REMARK UNBOUND:                -2.716
REMARK SMILES CCCCCCCCCCCCCC[C@@H](C)C(=O)[O-]
REMARK SMILES IDX 9 1 10 2 11 3 12 4 13 5 14 6 15 7 16 8 17 9 18 10 19 11 8 12
REMARK SMILES IDX 7 13 6 14 5 15 4 16 3 17 2 18 1 19
REMARK H PARENT
REMARK Flexibility Score: inf
ROOT
ATOM      1  C   UNL     1      -5.015  -2.270  37.642  1.00  0.00     0.000 C 
ENDROOT
BRANCH   1   2
ATOM      2  C   UNL     1      -5.763  -0.978  38.002  1.00  0.00     0.000 C 
BRANCH   2   3
ATOM      3  C   UNL     1      -4.779   0.163  38.290  1.00  0.00     0.000 C 
BRANCH   3   4
ATOM      4  C   UNL     1      -3.333  -0.352  38.327  1.00  0.00     0.000 C 
BRANCH   4   5
ATOM      5  C   UNL     1      -2.338   0.624  37.678  1.00  0.00     0.001 C 
BRANCH   5   6
ATOM      6  C   UNL     1      -0.999  -0.050  37.319  1.00  0.00     0.009 C 
BRANCH   6   7
ATOM      7  C   UNL     1      -0.233   0.636  36.165  1.00  0.00     0.032 C 
ATOM      8  C   UNL     1       0.438   1.947  36.600  1.00  0.00     0.014 C 
BRANCH   7   9
ATOM      9  C   UNL     1       0.749  -0.302  35.514  1.00  0.00     0.044 C 
ATOM     10  O   UNL     1       0.610  -0.611  34.301  1.00  0.00    -0.550 OA
ATOM     11  O   UNL     1       1.783  -0.874  36.248  1.00  0.00    -0.550 OA
ENDBRANCH   7   9
ENDBRANCH   6   7
ENDBRANCH   5   6
ENDBRANCH   4   5
ENDBRANCH   3   4
ENDBRANCH   2   3
ENDBRANCH   1   2
BRANCH   1  12
ATOM     12  C   UNL     1      -5.619  -2.987  36.423  1.00  0.00     0.000 C 
BRANCH  12  13
ATOM     13  C   UNL     1      -4.546  -3.614  35.516  1.00  0.00    -0.000 C 
BRANCH  13  14
ATOM     14  C   UNL     1      -3.130  -3.487  36.103  1.00  0.00    -0.000 C 
BRANCH  14  15
ATOM     15  C   UNL     1      -2.204  -2.620  35.238  1.00  0.00    -0.000 C 
BRANCH  15  16
ATOM     16  C   UNL     1      -2.965  -2.029  34.042  1.00  0.00    -0.000 C 
BRANCH  16  17
ATOM     17  C   UNL     1      -3.003  -0.491  34.056  1.00  0.00    -0.000 C 
BRANCH  17  18
ATOM     18  C   UNL     1      -4.306   0.121  34.603  1.00  0.00    -0.003 C 
ATOM     19  C   UNL     1      -5.552  -0.373  33.870  1.00  0.00     0.004 C 
ENDBRANCH  17  18
ENDBRANCH  16  17
ENDBRANCH  15  16
ENDBRANCH  14  15
ENDBRANCH  13  14
ENDBRANCH  12  13
ENDBRANCH   1  12
TORSDOF 14
ENDMDL
MODEL 4
REMARK VINA RESULT:    -3.246      3.315      5.701
REMARK INTER + INTRA:          -8.619
REMARK INTER:                  -5.789
REMARK INTRA:                  -2.829
REMARK UNBOUND:                -2.716
REMARK SMILES CCCCCCCCCCCCCC[C@@H](C)C(=O)[O-]
REMARK SMILES IDX 9 1 10 2 11 3 12 4 13 5 14 6 15 7 16 8 17 9 18 10 19 11 8 12
REMARK SMILES IDX 7 13 6 14 5 15 4 16 3 17 2 18 1 19
REMARK H PARENT
REMARK Flexibility Score: inf
ROOT
ATOM      1  C   UNL     1      -5.372  -3.268  35.575  1.00  0.00     0.000 C 
ENDROOT
BRANCH   1   2
ATOM      2  C   UNL     1      -4.839  -2.335  34.478  1.00  0.00     0.000 C 
BRANCH   2   3
ATOM      3  C   UNL     1      -3.497  -2.838  33.934  1.00  0.00     0.000 C 
BRANCH   3   4
ATOM      4  C   UNL     1      -2.321  -2.153  34.647  1.00  0.00     0.000 C 
BRANCH   4   5
ATOM      5  C   UNL     1      -1.893  -2.889  35.926  1.00  0.00     0.001 C 
BRANCH   5   6
ATOM      6  C   UNL     1      -0.747  -2.169  36.666  1.00  0.00     0.009 C 
BRANCH   6   7
ATOM      7  C   UNL     1       0.130  -1.276  35.760  1.00  0.00     0.032 C 
ATOM      8  C   UNL     1       0.276   0.152  36.306  1.00  0.00     0.014 C 
BRANCH   7   9
ATOM      9  C   UNL     1       1.470  -1.907  35.487  1.00  0.00     0.044 C 
ATOM     10  O   UNL     1       1.602  -3.156  35.568  1.00  0.00    -0.550 OA
ATOM     11  O   UNL     1       2.580  -1.122  35.192  1.00  0.00    -0.550 OA
ENDBRANCH   7   9
ENDBRANCH   6   7
ENDBRANCH   5   6
ENDBRANCH   4   5
ENDBRANCH   3   4
ENDBRANCH   2   3
ENDBRANCH   1   2
BRANCH   1  12
ATOM     12  C   UNL     1      -5.698  -2.526  36.882  1.00  0.00     0.000 C 
BRANCH  12  13
ATOM     13  C   UNL     1      -5.422  -1.016  36.787  1.00  0.00    -0.000 C 
BRANCH  13  14
ATOM     14  C   UNL     1      -4.311  -0.558  37.748  1.00  0.00    -0.000 C 
BRANCH  14  15
ATOM     15  C   UNL     1      -3.348   0.451  37.105  1.00  0.00    -0.000 C 
BRANCH  15  16
ATOM     16  C   UNL     1      -3.944   1.031  35.813  1.00  0.00    -0.000 C 
BRANCH  16  17
ATOM     17  C   UNL     1      -2.872   1.534  34.831  1.00  0.00    -0.000 C 
BRANCH  17  18
ATOM     18  C   UNL     1      -3.105   1.143  33.361  1.00  0.00    -0.003 C 
ATOM     19  C   UNL     1      -4.452   1.623  32.821  1.00  0.00     0.004 C 
ENDBRANCH  17  18
ENDBRANCH  16  17
ENDBRANCH  15  16
ENDBRANCH  14  15
ENDBRANCH  13  14
ENDBRANCH  12  13
ENDBRANCH   1  12
TORSDOF 14
ENDMDL
MODEL 5
REMARK VINA RESULT:    -3.212      2.020      3.291
REMARK INTER + INTRA:          -8.558
REMARK INTER:                  -5.759
REMARK INTRA:                  -2.799
REMARK UNBOUND:                -2.716
REMARK SMILES CCCCCCCCCCCCCC[C@@H](C)C(=O)[O-]
REMARK SMILES IDX 9 1 10 2 11 3 12 4 13 5 14 6 15 7 16 8 17 9 18 10 19 11 8 12
REMARK SMILES IDX 7 13 6 14 5 15 4 16 3 17 2 18 1 19
REMARK H PARENT
REMARK Flexibility Score: inf
ROOT
ATOM      1  C   UNL     1      -4.645  -2.920  34.240  1.00  0.00     0.000 C 
ENDROOT
BRANCH   1   2
ATOM      2  C   UNL     1      -4.355  -3.346  35.687  1.00  0.00     0.000 C 
BRANCH   2   3
ATOM      3  C   UNL     1      -5.491  -2.917  36.623  1.00  0.00     0.000 C 
BRANCH   3   4
ATOM      4  C   UNL     1      -4.946  -2.143  37.833  1.00  0.00     0.000 C 
BRANCH   4   5
ATOM      5  C   UNL     1      -5.819  -0.936  38.209  1.00  0.00     0.001 C 
BRANCH   5   6
ATOM      6  C   UNL     1      -7.043  -0.781  37.284  1.00  0.00     0.009 C 
BRANCH   6   7
ATOM      7  C   UNL     1      -7.663   0.634  37.285  1.00  0.00     0.032 C 
ATOM      8  C   UNL     1      -6.655   1.719  37.691  1.00  0.00     0.014 C 
BRANCH   7   9
ATOM      9  C   UNL     1      -8.323   0.953  35.968  1.00  0.00     0.044 C 
ATOM     10  O   UNL     1      -7.750   0.645  34.891  1.00  0.00    -0.550 OA
ATOM     11  O   UNL     1      -9.538   1.629  35.925  1.00  0.00    -0.550 OA
ENDBRANCH   7   9
ENDBRANCH   6   7
ENDBRANCH   5   6
ENDBRANCH   4   5
ENDBRANCH   3   4
ENDBRANCH   2   3
ENDBRANCH   1   2
BRANCH   1  12
ATOM     12  C   UNL     1      -5.058  -1.443  34.125  1.00  0.00     0.000 C 
BRANCH  12  13
ATOM     13  C   UNL     1      -3.857  -0.486  34.216  1.00  0.00    -0.000 C 
BRANCH  13  14
ATOM     14  C   UNL     1      -4.055   0.609  35.278  1.00  0.00    -0.000 C 
BRANCH  14  15
ATOM     15  C   UNL     1      -2.964   0.592  36.359  1.00  0.00    -0.000 C 
BRANCH  15  16
ATOM     16  C   UNL     1      -1.774  -0.277  35.924  1.00  0.00    -0.000 C 
BRANCH  16  17
ATOM     17  C   UNL     1      -1.426  -1.374  36.946  1.00  0.00    -0.000 C 
BRANCH  17  18
ATOM     18  C   UNL     1      -0.779  -2.635  36.347  1.00  0.00    -0.003 C 
ATOM     19  C   UNL     1       0.617  -2.379  35.781  1.00  0.00     0.004 C 
ENDBRANCH  17  18
ENDBRANCH  16  17
ENDBRANCH  15  16
ENDBRANCH  14  15
ENDBRANCH  13  14
ENDBRANCH  12  13
ENDBRANCH   1  12
TORSDOF 14
ENDMDL
MODEL 6
REMARK VINA RESULT:    -3.195      3.887      6.483
REMARK INTER + INTRA:          -8.526
REMARK INTER:                  -6.333
REMARK INTRA:                  -2.193
REMARK UNBOUND:                -2.716
REMARK SMILES CCCCCCCCCCCCCC[C@@H](C)C(=O)[O-]
REMARK SMILES IDX 9 1 10 2 11 3 12 4 13 5 14 6 15 7 16 8 17 9 18 10 19 11 8 12
REMARK SMILES IDX 7 13 6 14 5 15 4 16 3 17 2 18 1 19
REMARK H PARENT
REMARK Flexibility Score: inf
ROOT
ATOM      1  C   UNL     1      -3.573  -2.966  33.997  1.00  0.00     0.000 C 
ENDROOT
BRANCH   1   2
ATOM      2  C   UNL     1      -2.484  -2.117  34.672  1.00  0.00     0.000 C 
BRANCH   2   3
ATOM      3  C   UNL     1      -1.766  -2.915  35.767  1.00  0.00     0.000 C 
BRANCH   3   4
ATOM      4  C   UNL     1      -0.928  -1.990  36.663  1.00  0.00     0.000 C 
BRANCH   4   5
ATOM      5  C   UNL     1       0.315  -1.438  35.948  1.00  0.00     0.001 C 
BRANCH   5   6
ATOM      6  C   UNL     1       1.364  -2.532  35.660  1.00  0.00     0.009 C 
BRANCH   6   7
ATOM      7  C   UNL     1       2.443  -2.121  34.633  1.00  0.00     0.032 C 
ATOM      8  C   UNL     1       1.962  -1.013  33.685  1.00  0.00     0.014 C 
BRANCH   7   9
ATOM      9  C   UNL     1       3.740  -1.753  35.306  1.00  0.00     0.044 C 
ATOM     10  O   UNL     1       4.830  -2.171  34.835  1.00  0.00    -0.550 OA
ATOM     11  O   UNL     1       3.748  -0.995  36.473  1.00  0.00    -0.550 OA
ENDBRANCH   7   9
ENDBRANCH   6   7
ENDBRANCH   5   6
ENDBRANCH   4   5
ENDBRANCH   3   4
ENDBRANCH   2   3
ENDBRANCH   1   2
BRANCH   1  12
ATOM     12  C   UNL     1      -4.987  -2.621  34.491  1.00  0.00     0.000 C 
BRANCH  12  13
ATOM     13  C   UNL     1      -5.344  -3.336  35.806  1.00  0.00    -0.000 C 
BRANCH  13  14
ATOM     14  C   UNL     1      -5.903  -2.373  36.867  1.00  0.00    -0.000 C 
BRANCH  14  15
ATOM     15  C   UNL     1      -4.913  -2.109  38.011  1.00  0.00    -0.000 C 
BRANCH  15  16
ATOM     16  C   UNL     1      -4.162  -0.787  37.792  1.00  0.00    -0.000 C 
BRANCH  16  17
ATOM     17  C   UNL     1      -4.976   0.239  36.985  1.00  0.00    -0.000 C 
BRANCH  17  18
ATOM     18  C   UNL     1      -4.186   0.974  35.887  1.00  0.00    -0.003 C 
ATOM     19  C   UNL     1      -2.736   1.253  36.279  1.00  0.00     0.004 C 
ENDBRANCH  17  18
ENDBRANCH  16  17
ENDBRANCH  15  16
ENDBRANCH  14  15
ENDBRANCH  13  14
ENDBRANCH  12  13
ENDBRANCH   1  12
TORSDOF 14
ENDMDL
MODEL 7
REMARK VINA RESULT:    -3.193      1.592      3.016
REMARK INTER + INTRA:          -8.522
REMARK INTER:                  -6.051
REMARK INTRA:                  -2.471
REMARK UNBOUND:                -2.716
REMARK SMILES CCCCCCCCCCCCCC[C@@H](C)C(=O)[O-]
REMARK SMILES IDX 9 1 10 2 11 3 12 4 13 5 14 6 15 7 16 8 17 9 18 10 19 11 8 12
REMARK SMILES IDX 7 13 6 14 5 15 4 16 3 17 2 18 1 19
REMARK H PARENT
REMARK Flexibility Score: inf
ROOT
ATOM      1  C   UNL     1      -5.608  -2.862  36.489  1.00  0.00     0.000 C 
ENDROOT
BRANCH   1   2
ATOM      2  C   UNL     1      -4.670  -3.459  35.429  1.00  0.00     0.000 C 
BRANCH   2   3
ATOM      3  C   UNL     1      -4.617  -2.570  34.180  1.00  0.00     0.000 C 
BRANCH   3   4
ATOM      4  C   UNL     1      -5.635  -1.423  34.276  1.00  0.00     0.000 C 
BRANCH   4   5
ATOM      5  C   UNL     1      -5.011  -0.050  33.985  1.00  0.00     0.001 C 
BRANCH   5   6
ATOM      6  C   UNL     1      -5.924   1.117  34.413  1.00  0.00     0.009 C 
BRANCH   6   7
ATOM      7  C   UNL     1      -6.572   1.879  33.236  1.00  0.00     0.032 C 
ATOM      8  C   UNL     1      -5.797   1.704  31.922  1.00  0.00     0.014 C 
BRANCH   7   9
ATOM      9  C   UNL     1      -8.027   1.522  33.075  1.00  0.00     0.044 C 
ATOM     10  O   UNL     1      -8.758   2.202  32.309  1.00  0.00    -0.550 OA
ATOM     11  O   UNL     1      -8.588   0.477  33.802  1.00  0.00    -0.550 OA
ENDBRANCH   7   9
ENDBRANCH   6   7
ENDBRANCH   5   6
ENDBRANCH   4   5
ENDBRANCH   3   4
ENDBRANCH   2   3
ENDBRANCH   1   2
BRANCH   1  12
ATOM     12  C   UNL     1      -4.852  -2.314  37.711  1.00  0.00     0.000 C 
BRANCH  12  13
ATOM     13  C   UNL     1      -5.179  -0.838  37.995  1.00  0.00    -0.000 C 
BRANCH  13  14
ATOM     14  C   UNL     1      -4.053   0.111  37.550  1.00  0.00    -0.000 C 
BRANCH  14  15
ATOM     15  C   UNL     1      -2.764  -0.073  38.364  1.00  0.00    -0.000 C 
BRANCH  15  16
ATOM     16  C   UNL     1      -1.540  -0.156  37.439  1.00  0.00    -0.000 C 
BRANCH  16  17
ATOM     17  C   UNL     1      -1.913  -0.426  35.971  1.00  0.00    -0.000 C 
BRANCH  17  18
ATOM     18  C   UNL     1      -1.375  -1.749  35.398  1.00  0.00    -0.003 C 
ATOM     19  C   UNL     1      -0.679  -2.615  36.447  1.00  0.00     0.004 C 
ENDBRANCH  17  18
ENDBRANCH  16  17
ENDBRANCH  15  16
ENDBRANCH  14  15
ENDBRANCH  13  14
ENDBRANCH  12  13
ENDBRANCH   1  12
TORSDOF 14
ENDMDL
MODEL 8
REMARK VINA RESULT:    -3.179      1.169      1.670
REMARK INTER + INTRA:          -8.497
REMARK INTER:                  -6.052
REMARK INTRA:                  -2.445
REMARK UNBOUND:                -2.716
REMARK SMILES CCCCCCCCCCCCCC[C@@H](C)C(=O)[O-]
REMARK SMILES IDX 9 1 10 2 11 3 12 4 13 5 14 6 15 7 16 8 17 9 18 10 19 11 8 12
REMARK SMILES IDX 7 13 6 14 5 15 4 16 3 17 2 18 1 19
REMARK H PARENT
REMARK Flexibility Score: inf
ROOT
ATOM      1  C   UNL     1      -5.744  -2.865  36.365  1.00  0.00     0.000 C 
ENDROOT
BRANCH   1   2
ATOM      2  C   UNL     1      -5.061  -2.384  37.653  1.00  0.00     0.000 C 
BRANCH   2   3
ATOM      3  C   UNL     1      -5.265  -0.878  37.854  1.00  0.00     0.000 C 
BRANCH   3   4
ATOM      4  C   UNL     1      -3.935  -0.120  37.726  1.00  0.00     0.000 C 
BRANCH   4   5
ATOM      5  C   UNL     1      -3.820   0.657  36.405  1.00  0.00     0.001 C 
BRANCH   5   6
ATOM      6  C   UNL     1      -5.181   0.830  35.701  1.00  0.00     0.009 C 
BRANCH   6   7
ATOM      7  C   UNL     1      -5.083   1.355  34.250  1.00  0.00     0.032 C 
ATOM      8  C   UNL     1      -3.661   1.247  33.680  1.00  0.00     0.014 C 
BRANCH   7   9
ATOM      9  C   UNL     1      -6.094   0.694  33.350  1.00  0.00     0.044 C 
ATOM     10  O   UNL     1      -6.874  -0.176  33.818  1.00  0.00    -0.550 OA
ATOM     11  O   UNL     1      -6.146   0.997  31.994  1.00  0.00    -0.550 OA
ENDBRANCH   7   9
ENDBRANCH   6   7
ENDBRANCH   5   6
ENDBRANCH   4   5
ENDBRANCH   3   4
ENDBRANCH   2   3
ENDBRANCH   1   2
BRANCH   1  12
ATOM     12  C   UNL     1      -4.757  -3.489  35.364  1.00  0.00     0.000 C 
BRANCH  12  13
ATOM     13  C   UNL     1      -4.286  -2.486  34.298  1.00  0.00    -0.000 C 
BRANCH  13  14
ATOM     14  C   UNL     1      -2.759  -2.305  34.292  1.00  0.00    -0.000 C 
BRANCH  14  15
ATOM     15  C   UNL     1      -2.088  -2.877  35.550  1.00  0.00    -0.000 C 
BRANCH  15  16
ATOM     16  C   UNL     1      -1.135  -1.848  36.178  1.00  0.00    -0.000 C 
BRANCH  16  17
ATOM     17  C   UNL     1       0.161  -1.659  35.371  1.00  0.00    -0.000 C 
BRANCH  17  18
ATOM     18  C   UNL     1       1.311  -2.607  35.760  1.00  0.00    -0.003 C 
ATOM     19  C   UNL     1       2.288  -2.863  34.613  1.00  0.00     0.004 C 
ENDBRANCH  17  18
ENDBRANCH  16  17
ENDBRANCH  15  16
ENDBRANCH  14  15
ENDBRANCH  13  14
ENDBRANCH  12  13
ENDBRANCH   1  12
TORSDOF 14
ENDMDL
MODEL 9
REMARK VINA RESULT:    -3.161      1.415      4.104
REMARK INTER + INTRA:          -8.464
REMARK INTER:                  -5.778
REMARK INTRA:                  -2.685
REMARK UNBOUND:                -2.716
REMARK SMILES CCCCCCCCCCCCCC[C@@H](C)C(=O)[O-]
REMARK SMILES IDX 9 1 10 2 11 3 12 4 13 5 14 6 15 7 16 8 17 9 18 10 19 11 8 12
REMARK SMILES IDX 7 13 6 14 5 15 4 16 3 17 2 18 1 19
REMARK H PARENT
REMARK Flexibility Score: inf
ROOT
ATOM      1  C   UNL     1      -0.896  -2.555  36.421  1.00  0.00     0.000 C 
ENDROOT
BRANCH   1   2
ATOM      2  C   UNL     1      -2.002  -2.794  35.382  1.00  0.00     0.000 C 
BRANCH   2   3
ATOM      3  C   UNL     1      -3.123  -3.663  35.963  1.00  0.00     0.000 C 
BRANCH   3   4
ATOM      4  C   UNL     1      -4.502  -3.153  35.518  1.00  0.00     0.000 C 
BRANCH   4   5
ATOM      5  C   UNL     1      -4.411  -2.022  34.482  1.00  0.00     0.001 C 
BRANCH   5   6
ATOM      6  C   UNL     1      -5.766  -1.323  34.249  1.00  0.00     0.009 C 
BRANCH   6   7
ATOM      7  C   UNL     1      -5.669   0.210  34.086  1.00  0.00     0.032 C 
ATOM      8  C   UNL     1      -4.274   0.668  33.635  1.00  0.00     0.014 C 
BRANCH   7   9
ATOM      9  C   UNL     1      -6.748   0.743  33.181  1.00  0.00     0.044 C 
ATOM     10  O   UNL     1      -6.461   1.102  32.009  1.00  0.00    -0.550 OA
ATOM     11  O   UNL     1      -8.054   0.889  33.637  1.00  0.00    -0.550 OA
ENDBRANCH   7   9
ENDBRANCH   6   7
ENDBRANCH   5   6
ENDBRANCH   4   5
ENDBRANCH   3   4
ENDBRANCH   2   3
ENDBRANCH   1   2
BRANCH   1  12
ATOM     12  C   UNL     1       0.212  -1.621  35.907  1.00  0.00     0.000 C 
BRANCH  12  13
ATOM     13  C   UNL     1      -0.081  -0.140  36.201  1.00  0.00    -0.000 C 
BRANCH  13  14
ATOM     14  C   UNL     1      -1.174   0.044  37.267  1.00  0.00    -0.000 C 
BRANCH  14  15
ATOM     15  C   UNL     1      -2.339   0.919  36.780  1.00  0.00    -0.000 C 
BRANCH  15  16
ATOM     16  C   UNL     1      -3.684   0.365  37.275  1.00  0.00    -0.000 C 
BRANCH  16  17
ATOM     17  C   UNL     1      -3.527  -0.707  38.367  1.00  0.00    -0.000 C 
BRANCH  17  18
ATOM     18  C   UNL     1      -4.825  -1.444  38.743  1.00  0.00    -0.003 C 
ATOM     19  C   UNL     1      -6.055  -0.893  38.023  1.00  0.00     0.004 C 
ENDBRANCH  17  18
ENDBRANCH  16  17
ENDBRANCH  15  16
ENDBRANCH  14  15
ENDBRANCH  13  14
ENDBRANCH  12  13
ENDBRANCH   1  12
TORSDOF 14
ENDMDL
