MODEL 1
REMARK VINA RESULT:    -5.046      0.000      0.000
REMARK INTER + INTRA:          -5.358
REMARK INTER:                  -5.341
REMARK INTRA:                  -0.018
REMARK UNBOUND:                -0.018
REMARK SMILES O=C([O-])c1cccnc1
REMARK SMILES IDX 4 1 5 2 9 3 6 4 8 5 7 6 2 7 1 8 3 9
REMARK H PARENT
REMARK Flexibility Score: inf
ROOT
ATOM      1  C   UNL     1       4.542   7.981  12.748  1.00  0.00     0.016 A 
ATOM      2  C   UNL     1       4.032   8.694  13.846  1.00  0.00     0.013 A 
ATOM      3  C   UNL     1       4.410   8.544  11.467  1.00  0.00     0.120 A 
ATOM      4  C   UNL     1       3.410   9.930  13.652  1.00  0.00     0.021 A 
ATOM      5  N   UNL     1       3.801   9.749  11.306  1.00  0.00    -0.264 NA
ATOM      6  C   UNL     1       3.304  10.446  12.360  1.00  0.00     0.111 A 
ENDROOT
BRANCH   1   7
ATOM      7  C   UNL     1       5.203   6.672  12.932  1.00  0.00     0.073 C 
ATOM      8  O   UNL     1       6.267   6.580  13.601  1.00  0.00    -0.545 OA
ATOM      9  O   UNL     1       4.660   5.523  12.369  1.00  0.00    -0.545 OA
ENDBRANCH   1   7
TORSDOF 1
ENDMDL
MODEL 2
REMARK VINA RESULT:    -5.000      2.770      4.101
REMARK INTER + INTRA:          -5.310
REMARK INTER:                  -5.293
REMARK INTRA:                  -0.017
REMARK UNBOUND:                -0.018
REMARK SMILES O=C([O-])c1cccnc1
REMARK SMILES IDX 4 1 5 2 9 3 6 4 8 5 7 6 2 7 1 8 3 9
REMARK H PARENT
REMARK Flexibility Score: inf
ROOT
ATOM      1  C   UNL     1       5.068   7.390  13.156  1.00  0.00     0.016 A 
ATOM      2  C   UNL     1       4.661   6.200  12.531  1.00  0.00     0.013 A 
ATOM      3  C   UNL     1       6.272   7.386  13.881  1.00  0.00     0.120 A 
ATOM      4  C   UNL     1       5.443   5.048  12.640  1.00  0.00     0.021 A 
ATOM      5  N   UNL     1       7.016   6.250  13.971  1.00  0.00    -0.264 NA
ATOM      6  C   UNL     1       6.630   5.094  13.372  1.00  0.00     0.111 A 
ENDROOT
BRANCH   1   7
ATOM      7  C   UNL     1       4.255   8.620  13.054  1.00  0.00     0.073 C 
ATOM      8  O   UNL     1       3.749   9.142  14.083  1.00  0.00    -0.545 OA
ATOM      9  O   UNL     1       4.038   9.220  11.818  1.00  0.00    -0.545 OA
ENDBRANCH   1   7
TORSDOF 1
ENDMDL
MODEL 3
REMARK VINA RESULT:    -4.997      0.923      1.929
REMARK INTER + INTRA:          -5.306
REMARK INTER:                  -5.289
REMARK INTRA:                  -0.017
REMARK UNBOUND:                -0.018
REMARK SMILES O=C([O-])c1cccnc1
REMARK SMILES IDX 4 1 5 2 9 3 6 4 8 5 7 6 2 7 1 8 3 9
REMARK H PARENT
REMARK Flexibility Score: inf
ROOT
ATOM      1  C   UNL     1       4.523   8.005  12.701  1.00  0.00     0.016 A 
ATOM      2  C   UNL     1       4.392   8.622  11.445  1.00  0.00     0.013 A 
ATOM      3  C   UNL     1       4.026   8.678  13.830  1.00  0.00     0.120 A 
ATOM      4  C   UNL     1       3.783   9.874  11.339  1.00  0.00     0.021 A 
ATOM      5  N   UNL     1       3.437   9.896  13.700  1.00  0.00    -0.264 NA
ATOM      6  C   UNL     1       3.306  10.502  12.492  1.00  0.00     0.111 A 
ENDROOT
BRANCH   1   7
ATOM      7  C   UNL     1       5.165   6.680  12.834  1.00  0.00     0.073 C 
ATOM      8  O   UNL     1       4.620   5.653  12.349  1.00  0.00    -0.545 OA
ATOM      9  O   UNL     1       6.381   6.549  13.495  1.00  0.00    -0.545 OA
ENDBRANCH   1   7
TORSDOF 1
ENDMDL
MODEL 4
REMARK VINA RESULT:    -4.866      3.152      3.928
REMARK INTER + INTRA:          -5.168
REMARK INTER:                  -5.152
REMARK INTRA:                  -0.016
REMARK UNBOUND:                -0.018
REMARK SMILES O=C([O-])c1cccnc1
REMARK SMILES IDX 4 1 5 2 9 3 6 4 8 5 7 6 2 7 1 8 3 9
REMARK H PARENT
REMARK Flexibility Score: inf
ROOT
ATOM      1  C   UNL     1       3.645   9.750  12.094  1.00  0.00     0.016 A 
ATOM      2  C   UNL     1       3.511   9.692  13.492  1.00  0.00     0.013 A 
ATOM      3  C   UNL     1       4.335   8.712  11.446  1.00  0.00     0.120 A 
ATOM      4  C   UNL     1       4.058   8.623  14.205  1.00  0.00     0.021 A 
ATOM      5  N   UNL     1       4.858   7.681  12.164  1.00  0.00    -0.264 NA
ATOM      6  C   UNL     1       4.735   7.616  13.515  1.00  0.00     0.111 A 
ENDROOT
BRANCH   1   7
ATOM      7  C   UNL     1       3.073  10.873  11.321  1.00  0.00     0.073 C 
ATOM      8  O   UNL     1       1.842  10.908  11.058  1.00  0.00    -0.545 OA
ATOM      9  O   UNL     1       3.888  11.908  10.875  1.00  0.00    -0.545 OA
ENDBRANCH   1   7
TORSDOF 1
ENDMDL
MODEL 5
REMARK VINA RESULT:    -4.797      2.738      4.046
REMARK INTER + INTRA:          -5.095
REMARK INTER:                  -5.078
REMARK INTRA:                  -0.016
REMARK UNBOUND:                -0.018
REMARK SMILES O=C([O-])c1cccnc1
REMARK SMILES IDX 4 1 5 2 9 3 6 4 8 5 7 6 2 7 1 8 3 9
REMARK H PARENT
REMARK Flexibility Score: inf
ROOT
ATOM      1  C   UNL     1       5.171   7.163  13.232  1.00  0.00     0.016 A 
ATOM      2  C   UNL     1       6.532   7.146  13.583  1.00  0.00     0.013 A 
ATOM      3  C   UNL     1       4.614   6.005  12.663  1.00  0.00     0.120 A 
ATOM      4  C   UNL     1       7.299   6.000  13.363  1.00  0.00     0.021 A 
ATOM      5  N   UNL     1       5.383   4.901  12.460  1.00  0.00    -0.264 NA
ATOM      6  C   UNL     1       6.699   4.875  12.794  1.00  0.00     0.111 A 
ENDROOT
BRANCH   1   7
ATOM      7  C   UNL     1       4.343   8.366  13.457  1.00  0.00     0.073 C 
ATOM      8  O   UNL     1       3.917   8.644  14.610  1.00  0.00    -0.545 OA
ATOM      9  O   UNL     1       4.023   9.209  12.399  1.00  0.00    -0.545 OA
ENDBRANCH   1   7
TORSDOF 1
ENDMDL
MODEL 6
REMARK VINA RESULT:    -4.447      1.181      1.344
REMARK INTER + INTRA:          -4.724
REMARK INTER:                  -4.708
REMARK INTRA:                  -0.016
REMARK UNBOUND:                -0.018
REMARK SMILES O=C([O-])c1cccnc1
REMARK SMILES IDX 4 1 5 2 9 3 6 4 8 5 7 6 2 7 1 8 3 9
REMARK H PARENT
REMARK Flexibility Score: inf
ROOT
ATOM      1  C   UNL     1       5.477   7.362  13.150  1.00  0.00     0.016 A 
ATOM      2  C   UNL     1       5.066   8.070  14.292  1.00  0.00     0.013 A 
ATOM      3  C   UNL     1       4.949   7.742  11.904  1.00  0.00     0.120 A 
ATOM      4  C   UNL     1       4.153   9.120  14.176  1.00  0.00     0.021 A 
ATOM      5  N   UNL     1       4.062   8.769  11.817  1.00  0.00    -0.264 NA
ATOM      6  C   UNL     1       3.657   9.458  12.915  1.00  0.00     0.111 A 
ENDROOT
BRANCH   1   7
ATOM      7  C   UNL     1       6.443   6.248  13.251  1.00  0.00     0.073 C 
ATOM      8  O   UNL     1       7.664   6.433  12.999  1.00  0.00    -0.545 OA
ATOM      9  O   UNL     1       6.017   4.979  13.629  1.00  0.00    -0.545 OA
ENDBRANCH   1   7
TORSDOF 1
ENDMDL
MODEL 7
REMARK VINA RESULT:    -3.900      2.862      3.628
REMARK INTER + INTRA:          -4.145
REMARK INTER:                  -4.129
REMARK INTRA:                  -0.016
REMARK UNBOUND:                -0.018
REMARK SMILES O=C([O-])c1cccnc1
REMARK SMILES IDX 4 1 5 2 9 3 6 4 8 5 7 6 2 7 1 8 3 9
REMARK H PARENT
REMARK Flexibility Score: inf
ROOT
ATOM      1  C   UNL     1       4.237   8.848  13.021  1.00  0.00     0.016 A 
ATOM      2  C   UNL     1       4.985   8.637  14.191  1.00  0.00     0.013 A 
ATOM      3  C   UNL     1       4.381   7.936  11.962  1.00  0.00     0.120 A 
ATOM      4  C   UNL     1       5.850   7.544  14.282  1.00  0.00     0.021 A 
ATOM      5  N   UNL     1       5.230   6.879  12.076  1.00  0.00    -0.264 NA
ATOM      6  C   UNL     1       5.959   6.666  13.202  1.00  0.00     0.111 A 
ENDROOT
BRANCH   1   7
ATOM      7  C   UNL     1       3.316   9.999  12.905  1.00  0.00     0.073 C 
ATOM      8  O   UNL     1       3.637  11.011  12.226  1.00  0.00    -0.545 OA
ATOM      9  O   UNL     1       2.080   9.980  13.542  1.00  0.00    -0.545 OA
ENDBRANCH   1   7
TORSDOF 1
ENDMDL
MODEL 8
REMARK VINA RESULT:    -3.708      3.433      4.133
REMARK INTER + INTRA:          -3.942
REMARK INTER:                  -3.921
REMARK INTRA:                  -0.022
REMARK UNBOUND:                -0.018
REMARK SMILES O=C([O-])c1cccnc1
REMARK SMILES IDX 4 1 5 2 9 3 6 4 8 5 7 6 2 7 1 8 3 9
REMARK H PARENT
REMARK Flexibility Score: inf
ROOT
ATOM      1  C   UNL     1       6.827   6.990  13.575  1.00  0.00     0.016 A 
ATOM      2  C   UNL     1       5.453   7.266  13.488  1.00  0.00     0.013 A 
ATOM      3  C   UNL     1       7.296   5.766  13.069  1.00  0.00     0.120 A 
ATOM      4  C   UNL     1       4.585   6.336  12.912  1.00  0.00     0.021 A 
ATOM      5  N   UNL     1       6.430   4.877  12.512  1.00  0.00    -0.264 NA
ATOM      6  C   UNL     1       5.100   5.133  12.424  1.00  0.00     0.111 A 
ENDROOT
BRANCH   1   7
ATOM      7  C   UNL     1       7.762   7.962  14.181  1.00  0.00     0.073 C 
ATOM      8  O   UNL     1       7.378   8.731  15.104  1.00  0.00    -0.545 OA
ATOM      9  O   UNL     1       9.079   8.041  13.743  1.00  0.00    -0.545 OA
ENDBRANCH   1   7
TORSDOF 1
ENDMDL
MODEL 9
REMARK VINA RESULT:    -3.045      2.945      3.480
REMARK INTER + INTRA:          -3.241
REMARK INTER:                  -3.225
REMARK INTRA:                  -0.016
REMARK UNBOUND:                -0.018
REMARK SMILES O=C([O-])c1cccnc1
REMARK SMILES IDX 4 1 5 2 9 3 6 4 8 5 7 6 2 7 1 8 3 9
REMARK H PARENT
REMARK Flexibility Score: inf
ROOT
ATOM      1  C   UNL     1       5.769   6.747  12.974  1.00  0.00     0.016 A 
ATOM      2  C   UNL     1       5.590   7.682  14.007  1.00  0.00     0.013 A 
ATOM      3  C   UNL     1       7.080   6.390  12.617  1.00  0.00     0.120 A 
ATOM      4  C   UNL     1       6.698   8.236  14.652  1.00  0.00     0.021 A 
ATOM      5  N   UNL     1       8.143   6.944  13.261  1.00  0.00    -0.264 NA
ATOM      6  C   UNL     1       7.981   7.850  14.260  1.00  0.00     0.111 A 
ENDROOT
BRANCH   1   7
ATOM      7  C   UNL     1       4.609   6.149  12.280  1.00  0.00     0.073 C 
ATOM      8  O   UNL     1       4.008   6.784  11.373  1.00  0.00    -0.545 OA
ATOM      9  O   UNL     1       4.166   4.875  12.618  1.00  0.00    -0.545 OA
ENDBRANCH   1   7
TORSDOF 1
ENDMDL
