MODEL 1
REMARK VINA RESULT:    -5.883      0.000      0.000
REMARK INTER + INTRA:          -6.055
REMARK INTER:                  -6.055
REMARK INTRA:                   0.000
REMARK UNBOUND:                 0.000
REMARK SMILES C=C1[C@@H](O)C[C@@]23C[C@@H]1C(C)(C)[C@H]2CC[C@@H]3C
REMARK SMILES IDX 16 1 15 2 14 3 13 4 12 5 6 6 7 7 8 8 9 9 10 10 11 11 2 12
REMARK SMILES IDX 1 13 3 14 5 15 4 16
REMARK H PARENT 4 17
REMARK Flexibility Score: inf
ROOT
ATOM      1  C   UNL     1     114.136 122.445 128.393  1.00  0.00     0.008 C 
ATOM      2  C   UNL     1     114.779 121.155 128.936  1.00  0.00    -0.008 C 
ATOM      3  C   UNL     1     115.932 120.635 128.019  1.00  0.00     0.004 C 
ATOM      4  C   UNL     1     117.270 120.854 128.772  1.00  0.00     0.005 C 
ATOM      5  C   UNL     1     116.850 121.781 129.893  1.00  0.00     0.002 C 
ATOM      6  C   UNL     1     115.465 121.312 130.316  1.00  0.00    -0.020 C 
ATOM      7  C   UNL     1     115.133 122.415 131.315  1.00  0.00     0.016 C 
ATOM      8  C   UNL     1     116.415 122.367 132.192  1.00  0.00     0.023 C 
ATOM      9  C   UNL     1     117.614 122.128 131.187  1.00  0.00    -0.025 C 
ATOM     10  C   UNL     1     118.626 121.022 131.583  1.00  0.00     0.012 C 
ATOM     11  C   UNL     1     118.409 123.445 131.021  1.00  0.00     0.012 C 
ATOM     12  C   UNL     1     116.243 121.203 133.140  1.00  0.00    -0.045 C 
ATOM     13  C   UNL     1     116.680 121.280 134.406  1.00  0.00     0.011 C 
ATOM     14  C   UNL     1     115.607 119.929 132.625  1.00  0.00     0.140 C 
ATOM     15  C   UNL     1     115.427 119.914 131.070  1.00  0.00     0.044 C 
ENDROOT
BRANCH  14  16
ATOM     16  O   UNL     1     114.361 119.774 133.256  1.00  0.00    -0.389 OA
ATOM     17  H   UNL     1     114.531 119.777 134.234  1.00  0.00     0.211 HD
ENDBRANCH  14  16
TORSDOF 1
ENDMDL
MODEL 2
REMARK VINA RESULT:    -5.818     13.746     16.013
REMARK INTER + INTRA:          -5.988
REMARK INTER:                  -5.988
REMARK INTRA:                   0.000
REMARK UNBOUND:                 0.000
REMARK SMILES C=C1[C@@H](O)C[C@@]23C[C@@H]1C(C)(C)[C@H]2CC[C@@H]3C
REMARK SMILES IDX 16 1 15 2 14 3 13 4 12 5 6 6 7 7 8 8 9 9 10 10 11 11 2 12
REMARK SMILES IDX 1 13 3 14 5 15 4 16
REMARK H PARENT 4 17
REMARK Flexibility Score: inf
ROOT
ATOM      1  C   UNL     1     127.505 122.169 118.999  1.00  0.00     0.008 C 
ATOM      2  C   UNL     1     128.034 120.815 119.506  1.00  0.00    -0.008 C 
ATOM      3  C   UNL     1     128.336 120.832 121.039  1.00  0.00     0.004 C 
ATOM      4  C   UNL     1     127.272 119.949 121.740  1.00  0.00     0.005 C 
ATOM      5  C   UNL     1     126.243 119.769 120.644  1.00  0.00     0.002 C 
ATOM      6  C   UNL     1     127.039 119.639 119.353  1.00  0.00    -0.020 C 
ATOM      7  C   UNL     1     125.882 119.622 118.359  1.00  0.00     0.016 C 
ATOM      8  C   UNL     1     125.003 118.512 119.001  1.00  0.00     0.023 C 
ATOM      9  C   UNL     1     125.097 118.740 120.564  1.00  0.00    -0.025 C 
ATOM     10  C   UNL     1     125.382 117.480 121.421  1.00  0.00     0.012 C 
ATOM     11  C   UNL     1     123.770 119.354 121.070  1.00  0.00     0.012 C 
ATOM     12  C   UNL     1     125.614 117.192 118.594  1.00  0.00    -0.045 C 
ATOM     13  C   UNL     1     124.836 116.138 118.303  1.00  0.00     0.011 C 
ATOM     14  C   UNL     1     127.122 117.064 118.559  1.00  0.00     0.140 C 
ATOM     15  C   UNL     1     127.860 118.287 119.201  1.00  0.00     0.044 C 
ENDROOT
BRANCH  14  16
ATOM     16  O   UNL     1     127.520 116.909 117.221  1.00  0.00    -0.389 OA
ATOM     17  H   UNL     1     127.645 115.936 117.068  1.00  0.00     0.211 HD
ENDBRANCH  14  16
TORSDOF 1
ENDMDL
MODEL 3
REMARK VINA RESULT:    -5.696      1.587      4.226
REMARK INTER + INTRA:          -5.863
REMARK INTER:                  -5.863
REMARK INTRA:                   0.000
REMARK UNBOUND:                 0.000
REMARK SMILES C=C1[C@@H](O)C[C@@]23C[C@@H]1C(C)(C)[C@H]2CC[C@@H]3C
REMARK SMILES IDX 16 1 15 2 14 3 13 4 12 5 6 6 7 7 8 8 9 9 10 10 11 11 2 12
REMARK SMILES IDX 1 13 3 14 5 15 4 16
REMARK H PARENT 4 17
REMARK Flexibility Score: inf
ROOT
ATOM      1  C   UNL     1     116.244 119.747 134.555  1.00  0.00     0.008 C 
ATOM      2  C   UNL     1     116.615 120.988 133.722  1.00  0.00    -0.008 C 
ATOM      3  C   UNL     1     118.154 121.260 133.716  1.00  0.00     0.004 C 
ATOM      4  C   UNL     1     118.685 120.942 132.294  1.00  0.00     0.005 C 
ATOM      5  C   UNL     1     117.519 120.192 131.685  1.00  0.00     0.002 C 
ATOM      6  C   UNL     1     116.268 120.877 132.217  1.00  0.00    -0.020 C 
ATOM      7  C   UNL     1     115.216 119.930 131.649  1.00  0.00     0.016 C 
ATOM      8  C   UNL     1     115.672 119.895 130.163  1.00  0.00     0.023 C 
ATOM      9  C   UNL     1     117.254 119.876 130.200  1.00  0.00    -0.025 C 
ATOM     10  C   UNL     1     117.970 120.873 129.252  1.00  0.00     0.012 C 
ATOM     11  C   UNL     1     117.754 118.456 129.841  1.00  0.00     0.012 C 
ATOM     12  C   UNL     1     115.145 121.158 129.523  1.00  0.00    -0.045 C 
ATOM     13  C   UNL     1     114.689 121.148 128.262  1.00  0.00     0.011 C 
ATOM     14  C   UNL     1     115.180 122.448 130.315  1.00  0.00     0.140 C 
ATOM     15  C   UNL     1     116.003 122.335 131.642  1.00  0.00     0.044 C 
ENDROOT
BRANCH  14  16
ATOM     16  O   UNL     1     113.857 122.826 130.599  1.00  0.00    -0.389 OA
ATOM     17  H   UNL     1     113.368 121.999 130.847  1.00  0.00     0.211 HD
ENDBRANCH  14  16
TORSDOF 1
ENDMDL
MODEL 4
REMARK VINA RESULT:    -5.507      4.046      6.147
REMARK INTER + INTRA:          -5.668
REMARK INTER:                  -5.668
REMARK INTRA:                   0.000
REMARK UNBOUND:                 0.000
REMARK SMILES C=C1[C@@H](O)C[C@@]23C[C@@H]1C(C)(C)[C@H]2CC[C@@H]3C
REMARK SMILES IDX 16 1 15 2 14 3 13 4 12 5 6 6 7 7 8 8 9 9 10 10 11 11 2 12
REMARK SMILES IDX 1 13 3 14 5 15 4 16
REMARK H PARENT 4 17
REMARK Flexibility Score: inf
ROOT
ATOM      1  C   UNL     1     117.368 127.624 132.089  1.00  0.00     0.008 C 
ATOM      2  C   UNL     1     117.275 127.725 130.556  1.00  0.00    -0.008 C 
ATOM      3  C   UNL     1     118.374 128.659 129.954  1.00  0.00     0.004 C 
ATOM      4  C   UNL     1     119.385 127.766 129.189  1.00  0.00     0.005 C 
ATOM      5  C   UNL     1     119.015 126.383 129.679  1.00  0.00     0.002 C 
ATOM      6  C   UNL     1     117.498 126.387 129.810  1.00  0.00    -0.020 C 
ATOM      7  C   UNL     1     117.308 125.013 130.443  1.00  0.00     0.016 C 
ATOM      8  C   UNL     1     118.133 124.150 129.447  1.00  0.00     0.023 C 
ATOM      9  C   UNL     1     119.404 125.017 129.079  1.00  0.00    -0.025 C 
ATOM     10  C   UNL     1     119.747 125.118 127.570  1.00  0.00     0.012 C 
ATOM     11  C   UNL     1     120.644 124.433 129.797  1.00  0.00     0.012 C 
ATOM     12  C   UNL     1     117.248 123.920 128.245  1.00  0.00    -0.045 C 
ATOM     13  C   UNL     1     117.259 122.744 127.600  1.00  0.00     0.011 C 
ATOM     14  C   UNL     1     116.377 125.056 127.751  1.00  0.00     0.140 C 
ATOM     15  C   UNL     1     116.703 126.426 128.434  1.00  0.00     0.044 C 
ENDROOT
BRANCH  14  16
ATOM     16  O   UNL     1     115.034 124.712 127.979  1.00  0.00    -0.389 OA
ATOM     17  H   UNL     1     114.720 125.267 128.739  1.00  0.00     0.211 HD
ENDBRANCH  14  16
TORSDOF 1
ENDMDL
MODEL 5
REMARK VINA RESULT:    -5.499      1.939      4.335
REMARK INTER + INTRA:          -5.659
REMARK INTER:                  -5.659
REMARK INTRA:                   0.000
REMARK UNBOUND:                 0.000
REMARK SMILES C=C1[C@@H](O)C[C@@]23C[C@@H]1C(C)(C)[C@H]2CC[C@@H]3C
REMARK SMILES IDX 16 1 15 2 14 3 13 4 12 5 6 6 7 7 8 8 9 9 10 10 11 11 2 12
REMARK SMILES IDX 1 13 3 14 5 15 4 16
REMARK H PARENT 4 17
REMARK Flexibility Score: inf
ROOT
ATOM      1  C   UNL     1     115.428 120.690 134.292  1.00  0.00     0.008 C 
ATOM      2  C   UNL     1     116.633 121.245 133.511  1.00  0.00    -0.008 C 
ATOM      3  C   UNL     1     117.842 120.255 133.500  1.00  0.00     0.004 C 
ATOM      4  C   UNL     1     117.984 119.699 132.060  1.00  0.00     0.005 C 
ATOM      5  C   UNL     1     116.672 120.119 131.431  1.00  0.00     0.002 C 
ATOM      6  C   UNL     1     116.363 121.494 132.006  1.00  0.00    -0.020 C 
ATOM      7  C   UNL     1     114.975 121.697 131.409  1.00  0.00     0.016 C 
ATOM      8  C   UNL     1     115.284 121.385 129.918  1.00  0.00     0.023 C 
ATOM      9  C   UNL     1     116.299 120.170 129.936  1.00  0.00    -0.025 C 
ATOM     10  C   UNL     1     117.546 120.310 129.026  1.00  0.00     0.012 C 
ATOM     11  C   UNL     1     115.557 118.881 129.508  1.00  0.00     0.012 C 
ATOM     12  C   UNL     1     115.916 122.629 129.341  1.00  0.00    -0.045 C 
ATOM     13  C   UNL     1     115.645 123.017 128.085  1.00  0.00     0.011 C 
ATOM     14  C   UNL     1     116.897 123.412 130.189  1.00  0.00     0.140 C 
ATOM     15  C   UNL     1     117.311 122.665 131.501  1.00  0.00     0.044 C 
ENDROOT
BRANCH  14  16
ATOM     16  O   UNL     1     116.315 124.651 130.504  1.00  0.00    -0.389 OA
ATOM     17  H   UNL     1     117.051 125.248 130.798  1.00  0.00     0.211 HD
ENDBRANCH  14  16
TORSDOF 1
ENDMDL
MODEL 6
REMARK VINA RESULT:    -5.432      2.344      3.520
REMARK INTER + INTRA:          -5.591
REMARK INTER:                  -5.591
REMARK INTRA:                   0.000
REMARK UNBOUND:                 0.000
REMARK SMILES C=C1[C@@H](O)C[C@@]23C[C@@H]1C(C)(C)[C@H]2CC[C@@H]3C
REMARK SMILES IDX 16 1 15 2 14 3 13 4 12 5 6 6 7 7 8 8 9 9 10 10 11 11 2 12
REMARK SMILES IDX 1 13 3 14 5 15 4 16
REMARK H PARENT 4 17
REMARK Flexibility Score: inf
ROOT
ATOM      1  C   UNL     1     114.383 120.535 127.549  1.00  0.00     0.008 C 
ATOM      2  C   UNL     1     115.485 120.578 128.623  1.00  0.00    -0.008 C 
ATOM      3  C   UNL     1     116.718 119.695 128.245  1.00  0.00     0.004 C 
ATOM      4  C   UNL     1     117.897 120.647 127.916  1.00  0.00     0.005 C 
ATOM      5  C   UNL     1     117.195 121.982 127.786  1.00  0.00     0.002 C 
ATOM      6  C   UNL     1     116.106 121.978 128.850  1.00  0.00    -0.020 C 
ATOM      7  C   UNL     1     115.415 123.289 128.490  1.00  0.00     0.016 C 
ATOM      8  C   UNL     1     116.648 124.234 128.455  1.00  0.00     0.023 C 
ATOM      9  C   UNL     1     117.813 123.395 127.790  1.00  0.00    -0.025 C 
ATOM     10  C   UNL     1     119.182 123.432 128.518  1.00  0.00     0.012 C 
ATOM     11  C   UNL     1     118.044 123.900 126.346  1.00  0.00     0.012 C 
ATOM     12  C   UNL     1     116.962 124.582 129.892  1.00  0.00    -0.045 C 
ATOM     13  C   UNL     1     117.379 125.813 130.223  1.00  0.00     0.011 C 
ATOM     14  C   UNL     1     116.840 123.504 130.948  1.00  0.00     0.140 C 
ATOM     15  C   UNL     1     116.628 122.073 130.348  1.00  0.00     0.044 C 
ENDROOT
BRANCH  14  16
ATOM     16  O   UNL     1     115.768 123.836 131.793  1.00  0.00    -0.389 OA
ATOM     17  H   UNL     1     115.178 124.449 131.283  1.00  0.00     0.211 HD
ENDBRANCH  14  16
TORSDOF 1
ENDMDL
MODEL 7
REMARK VINA RESULT:    -5.256      3.023      4.140
REMARK INTER + INTRA:          -5.409
REMARK INTER:                  -5.409
REMARK INTRA:                   0.000
REMARK UNBOUND:                 0.000
REMARK SMILES C=C1[C@@H](O)C[C@@]23C[C@@H]1C(C)(C)[C@H]2CC[C@@H]3C
REMARK SMILES IDX 16 1 15 2 14 3 13 4 12 5 6 6 7 7 8 8 9 9 10 10 11 11 2 12
REMARK SMILES IDX 1 13 3 14 5 15 4 16
REMARK H PARENT 4 17
REMARK Flexibility Score: inf
ROOT
ATOM      1  C   UNL     1     118.889 125.911 127.147  1.00  0.00     0.008 C 
ATOM      2  C   UNL     1     118.172 124.625 126.698  1.00  0.00    -0.008 C 
ATOM      3  C   UNL     1     119.162 123.569 126.108  1.00  0.00     0.004 C 
ATOM      4  C   UNL     1     119.257 122.395 127.117  1.00  0.00     0.005 C 
ATOM      5  C   UNL     1     118.611 122.990 128.350  1.00  0.00     0.002 C 
ATOM      6  C   UNL     1     117.466 123.852 127.839  1.00  0.00    -0.020 C 
ATOM      7  C   UNL     1     117.032 124.482 129.158  1.00  0.00     0.016 C 
ATOM      8  C   UNL     1     116.887 123.200 130.025  1.00  0.00     0.023 C 
ATOM      9  C   UNL     1     118.090 122.261 129.606  1.00  0.00    -0.025 C 
ATOM     10  C   UNL     1     117.731 120.781 129.316  1.00  0.00     0.012 C 
ATOM     11  C   UNL     1     119.155 122.267 130.728  1.00  0.00     0.012 C 
ATOM     12  C   UNL     1     115.553 122.588 129.666  1.00  0.00    -0.045 C 
ATOM     13  C   UNL     1     114.790 122.009 130.606  1.00  0.00     0.011 C 
ATOM     14  C   UNL     1     115.108 122.600 128.219  1.00  0.00     0.140 C 
ATOM     15  C   UNL     1     116.237 123.048 127.230  1.00  0.00     0.044 C 
ENDROOT
BRANCH  14  16
ATOM     16  O   UNL     1     114.001 123.458 128.106  1.00  0.00    -0.389 OA
ATOM     17  H   UNL     1     113.422 123.087 127.390  1.00  0.00     0.211 HD
ENDBRANCH  14  16
TORSDOF 1
ENDMDL
MODEL 8
REMARK VINA RESULT:    -5.247      1.676      2.890
REMARK INTER + INTRA:          -5.400
REMARK INTER:                  -5.400
REMARK INTRA:                   0.000
REMARK UNBOUND:                 0.000
REMARK SMILES C=C1[C@@H](O)C[C@@]23C[C@@H]1C(C)(C)[C@H]2CC[C@@H]3C
REMARK SMILES IDX 16 1 15 2 14 3 13 4 12 5 6 6 7 7 8 8 9 9 10 10 11 11 2 12
REMARK SMILES IDX 1 13 3 14 5 15 4 16
REMARK H PARENT 4 17
REMARK Flexibility Score: inf
ROOT
ATOM      1  C   UNL     1     119.034 124.198 129.327  1.00  0.00     0.008 C 
ATOM      2  C   UNL     1     117.666 123.601 128.949  1.00  0.00    -0.008 C 
ATOM      3  C   UNL     1     117.720 122.789 127.615  1.00  0.00     0.004 C 
ATOM      4  C   UNL     1     117.555 121.288 127.969  1.00  0.00     0.005 C 
ATOM      5  C   UNL     1     117.763 121.295 129.468  1.00  0.00     0.002 C 
ATOM      6  C   UNL     1     117.109 122.576 129.967  1.00  0.00    -0.020 C 
ATOM      7  C   UNL     1     117.533 122.508 131.431  1.00  0.00     0.016 C 
ATOM      8  C   UNL     1     117.074 121.062 131.768  1.00  0.00     0.023 C 
ATOM      9  C   UNL     1     117.416 120.194 130.490  1.00  0.00    -0.025 C 
ATOM     10  C   UNL     1     116.290 119.258 129.980  1.00  0.00     0.012 C 
ATOM     11  C   UNL     1     118.651 119.311 130.790  1.00  0.00     0.012 C 
ATOM     12  C   UNL     1     115.585 121.131 132.012  1.00  0.00    -0.045 C 
ATOM     13  C   UNL     1     115.012 120.383 132.968  1.00  0.00     0.011 C 
ATOM     14  C   UNL     1     114.741 122.027 131.131  1.00  0.00     0.140 C 
ATOM     15  C   UNL     1     115.521 122.593 129.898  1.00  0.00     0.044 C 
ENDROOT
BRANCH  14  16
ATOM     16  O   UNL     1     114.252 123.083 131.918  1.00  0.00    -0.389 OA
ATOM     17  H   UNL     1     115.033 123.483 132.382  1.00  0.00     0.211 HD
ENDBRANCH  14  16
TORSDOF 1
ENDMDL
MODEL 9
REMARK VINA RESULT:    -5.230      1.810      3.996
REMARK INTER + INTRA:          -5.383
REMARK INTER:                  -5.383
REMARK INTRA:                   0.000
REMARK UNBOUND:                 0.000
REMARK SMILES C=C1[C@@H](O)C[C@@]23C[C@@H]1C(C)(C)[C@H]2CC[C@@H]3C
REMARK SMILES IDX 16 1 15 2 14 3 13 4 12 5 6 6 7 7 8 8 9 9 10 10 11 11 2 12
REMARK SMILES IDX 1 13 3 14 5 15 4 16
REMARK H PARENT 4 17
REMARK Flexibility Score: inf
ROOT
ATOM      1  C   UNL     1     116.333 120.285 133.994  1.00  0.00     0.008 C 
ATOM      2  C   UNL     1     115.509 120.140 132.702  1.00  0.00    -0.008 C 
ATOM      3  C   UNL     1     114.377 121.212 132.595  1.00  0.00     0.004 C 
ATOM      4  C   UNL     1     114.770 122.203 131.469  1.00  0.00     0.005 C 
ATOM      5  C   UNL     1     116.226 121.858 131.242  1.00  0.00     0.002 C 
ATOM      6  C   UNL     1     116.319 120.346 131.398  1.00  0.00    -0.020 C 
ATOM      7  C   UNL     1     117.832 120.187 131.297  1.00  0.00     0.016 C 
ATOM      8  C   UNL     1     118.091 120.983 129.987  1.00  0.00     0.023 C 
ATOM      9  C   UNL     1     117.126 122.236 130.049  1.00  0.00    -0.025 C 
ATOM     10  C   UNL     1     116.305 122.527 128.766  1.00  0.00     0.012 C 
ATOM     11  C   UNL     1     117.957 123.503 130.364  1.00  0.00     0.012 C 
ATOM     12  C   UNL     1     117.733 120.060 128.847  1.00  0.00    -0.045 C 
ATOM     13  C   UNL     1     118.454 120.057 127.715  1.00  0.00     0.011 C 
ATOM     14  C   UNL     1     116.519 119.166 128.983  1.00  0.00     0.140 C 
ATOM     15  C   UNL     1     115.640 119.506 130.233  1.00  0.00     0.044 C 
ENDROOT
BRANCH  14  16
ATOM     16  O   UNL     1     116.960 117.833 129.053  1.00  0.00    -0.389 OA
ATOM     17  H   UNL     1     117.316 117.600 128.156  1.00  0.00     0.211 HD
ENDBRANCH  14  16
TORSDOF 1
ENDMDL
