MODEL 1
REMARK VINA RESULT:    -4.011      0.000      0.000
REMARK INTER + INTRA:         -12.588
REMARK INTER:                 -10.107
REMARK INTRA:                  -2.482
REMARK UNBOUND:                -2.482
REMARK SMILES CCCCCCCCCCCCCCCCCCCCCCCCCCCC(=O)[O-]
REMARK SMILES IDX 15 1 16 2 17 3 18 4 19 5 20 6 21 7 22 8 23 9 24 10 25 11
REMARK SMILES IDX 26 12 27 13 28 14 29 15 30 16 14 17 13 18 12 19 11 20 10 21
REMARK SMILES IDX 9 22 8 23 7 24 6 25 5 26 4 27 3 28 2 29 1 30
REMARK H PARENT
REMARK Flexibility Score: inf
ROOT
ATOM      1  C   UNL     1      10.195  20.390  30.085  1.00  0.00     0.000 C 
ENDROOT
BRANCH   1   2
ATOM      2  C   UNL     1      10.788  19.237  30.913  1.00  0.00     0.000 C 
BRANCH   2   3
ATOM      3  C   UNL     1      11.848  19.716  31.920  1.00  0.00     0.000 C 
BRANCH   3   4
ATOM      4  C   UNL     1      13.141  18.875  31.848  1.00  0.00     0.000 C 
BRANCH   4   5
ATOM      5  C   UNL     1      14.420  19.694  32.107  1.00  0.00     0.000 C 
BRANCH   5   6
ATOM      6  C   UNL     1      15.730  18.976  31.733  1.00  0.00     0.000 C 
BRANCH   6   7
ATOM      7  C   UNL     1      16.828  19.952  31.277  1.00  0.00     0.000 C 
BRANCH   7   8
ATOM      8  C   UNL     1      16.682  21.345  31.911  1.00  0.00     0.000 C 
BRANCH   8   9
ATOM      9  C   UNL     1      17.766  22.330  31.438  1.00  0.00     0.000 C 
BRANCH   9  10
ATOM     10  C   UNL     1      18.022  22.250  29.925  1.00  0.00     0.000 C 
BRANCH  10  11
ATOM     11  C   UNL     1      16.775  22.608  29.096  1.00  0.00     0.000 C 
BRANCH  11  12
ATOM     12  C   UNL     1      17.142  23.131  27.697  1.00  0.00     0.006 C 
BRANCH  12  13
ATOM     13  C   UNL     1      16.012  23.957  27.069  1.00  0.00     0.053 C 
BRANCH  13  14
ATOM     14  C   UNL     1      16.309  24.246  25.631  1.00  0.00     0.041 C 
ATOM     15  O   UNL     1      16.616  23.308  24.847  1.00  0.00    -0.550 OA
ATOM     16  O   UNL     1      16.208  25.544  25.146  1.00  0.00    -0.550 OA
ENDBRANCH  13  14
ENDBRANCH  12  13
ENDBRANCH  11  12
ENDBRANCH  10  11
ENDBRANCH   9  10
ENDBRANCH   8   9
ENDBRANCH   7   8
ENDBRANCH   6   7
ENDBRANCH   5   6
ENDBRANCH   4   5
ENDBRANCH   3   4
ENDBRANCH   2   3
ENDBRANCH   1   2
BRANCH   1  17
ATOM     17  C   UNL     1       8.694  20.596  30.350  1.00  0.00     0.000 C 
BRANCH  17  18
ATOM     18  C   UNL     1       8.357  22.045  30.736  1.00  0.00     0.000 C 
BRANCH  18  19
ATOM     19  C   UNL     1       8.949  22.447  32.100  1.00  0.00     0.000 C 
BRANCH  19  20
ATOM     20  C   UNL     1      10.469  22.670  32.041  1.00  0.00     0.000 C 
BRANCH  20  21
ATOM     21  C   UNL     1      10.843  24.112  31.654  1.00  0.00     0.000 C 
BRANCH  21  22
ATOM     22  C   UNL     1      10.947  24.304  30.127  1.00  0.00    -0.000 C 
BRANCH  22  23
ATOM     23  C   UNL     1      12.335  24.777  29.652  1.00  0.00    -0.000 C 
BRANCH  23  24
ATOM     24  C   UNL     1      13.494  24.454  30.610  1.00  0.00    -0.000 C 
BRANCH  24  25
ATOM     25  C   UNL     1      14.131  23.084  30.331  1.00  0.00    -0.000 C 
BRANCH  25  26
ATOM     26  C   UNL     1      13.239  22.245  29.405  1.00  0.00    -0.000 C 
BRANCH  26  27
ATOM     27  C   UNL     1      13.800  20.833  29.157  1.00  0.00    -0.000 C 
BRANCH  27  28
ATOM     28  C   UNL     1      14.005  20.459  27.675  1.00  0.00    -0.000 C 
BRANCH  28  29
ATOM     29  C   UNL     1      14.005  21.651  26.702  1.00  0.00    -0.003 C 
ATOM     30  C   UNL     1      14.046  21.219  25.237  1.00  0.00     0.004 C 
ENDBRANCH  28  29
ENDBRANCH  27  28
ENDBRANCH  26  27
ENDBRANCH  25  26
ENDBRANCH  24  25
ENDBRANCH  23  24
ENDBRANCH  22  23
ENDBRANCH  21  22
ENDBRANCH  20  21
ENDBRANCH  19  20
ENDBRANCH  18  19
ENDBRANCH  17  18
ENDBRANCH   1  17
TORSDOF 26
ENDMDL
MODEL 2
REMARK VINA RESULT:    -3.881      1.197      3.328
REMARK INTER + INTRA:         -12.261
REMARK INTER:                  -9.215
REMARK INTRA:                  -3.046
REMARK UNBOUND:                -2.482
REMARK SMILES CCCCCCCCCCCCCCCCCCCCCCCCCCCC(=O)[O-]
REMARK SMILES IDX 15 1 16 2 17 3 18 4 19 5 20 6 21 7 22 8 23 9 24 10 25 11
REMARK SMILES IDX 26 12 27 13 28 14 29 15 30 16 14 17 13 18 12 19 11 20 10 21
REMARK SMILES IDX 9 22 8 23 7 24 6 25 5 26 4 27 3 28 2 29 1 30
REMARK H PARENT
REMARK Flexibility Score: inf
ROOT
ATOM      1  C   UNL     1      12.189  24.759  29.585  1.00  0.00     0.000 C 
ENDROOT
BRANCH   1   2
ATOM      2  C   UNL     1      13.697  24.625  29.317  1.00  0.00     0.000 C 
BRANCH   2   3
ATOM      3  C   UNL     1      14.494  24.262  30.582  1.00  0.00     0.000 C 
BRANCH   3   4
ATOM      4  C   UNL     1      15.299  22.956  30.407  1.00  0.00     0.000 C 
BRANCH   4   5
ATOM      5  C   UNL     1      14.603  21.720  31.010  1.00  0.00     0.000 C 
BRANCH   5   6
ATOM      6  C   UNL     1      15.493  20.864  31.927  1.00  0.00     0.000 C 
BRANCH   6   7
ATOM      7  C   UNL     1      15.987  19.580  31.239  1.00  0.00     0.000 C 
BRANCH   7   8
ATOM      8  C   UNL     1      17.460  19.668  30.809  1.00  0.00     0.000 C 
BRANCH   8   9
ATOM      9  C   UNL     1      17.968  21.118  30.716  1.00  0.00     0.000 C 
BRANCH   9  10
ATOM     10  C   UNL     1      17.918  21.674  29.286  1.00  0.00     0.000 C 
BRANCH  10  11
ATOM     11  C   UNL     1      17.053  20.814  28.347  1.00  0.00     0.000 C 
BRANCH  11  12
ATOM     12  C   UNL     1      16.879  21.464  26.964  1.00  0.00     0.006 C 
BRANCH  12  13
ATOM     13  C   UNL     1      16.395  22.917  27.060  1.00  0.00     0.053 C 
BRANCH  13  14
ATOM     14  C   UNL     1      16.231  23.507  25.695  1.00  0.00     0.041 C 
ATOM     15  O   UNL     1      16.236  22.763  24.678  1.00  0.00    -0.550 OA
ATOM     16  O   UNL     1      16.033  24.875  25.547  1.00  0.00    -0.550 OA
ENDBRANCH  13  14
ENDBRANCH  12  13
ENDBRANCH  11  12
ENDBRANCH  10  11
ENDBRANCH   9  10
ENDBRANCH   8   9
ENDBRANCH   7   8
ENDBRANCH   6   7
ENDBRANCH   5   6
ENDBRANCH   4   5
ENDBRANCH   3   4
ENDBRANCH   2   3
ENDBRANCH   1   2
BRANCH   1  17
ATOM     17  C   UNL     1      11.762  24.094  30.905  1.00  0.00     0.000 C 
BRANCH  17  18
ATOM     18  C   UNL     1      10.680  24.895  31.646  1.00  0.00     0.000 C 
BRANCH  18  19
ATOM     19  C   UNL     1       9.511  24.012  32.121  1.00  0.00     0.000 C 
BRANCH  19  20
ATOM     20  C   UNL     1       9.863  22.516  32.122  1.00  0.00     0.000 C 
BRANCH  20  21
ATOM     21  C   UNL     1       8.618  21.612  32.125  1.00  0.00     0.000 C 
BRANCH  21  22
ATOM     22  C   UNL     1       8.136  21.270  30.699  1.00  0.00    -0.000 C 
BRANCH  22  23
ATOM     23  C   UNL     1       9.282  21.019  29.699  1.00  0.00    -0.000 C 
BRANCH  23  24
ATOM     24  C   UNL     1       9.908  19.616  29.767  1.00  0.00    -0.000 C 
BRANCH  24  25
ATOM     25  C   UNL     1      10.785  19.417  31.013  1.00  0.00    -0.000 C 
BRANCH  25  26
ATOM     26  C   UNL     1      12.223  19.054  30.619  1.00  0.00    -0.000 C 
BRANCH  26  27
ATOM     27  C   UNL     1      12.398  18.875  29.100  1.00  0.00    -0.000 C 
BRANCH  27  28
ATOM     28  C   UNL     1      13.664  19.522  28.505  1.00  0.00    -0.000 C 
BRANCH  28  29
ATOM     29  C   UNL     1      13.425  20.843  27.754  1.00  0.00    -0.003 C 
ATOM     30  C   UNL     1      12.179  21.583  28.238  1.00  0.00     0.004 C 
ENDBRANCH  28  29
ENDBRANCH  27  28
ENDBRANCH  26  27
ENDBRANCH  25  26
ENDBRANCH  24  25
ENDBRANCH  23  24
ENDBRANCH  22  23
ENDBRANCH  21  22
ENDBRANCH  20  21
ENDBRANCH  19  20
ENDBRANCH  18  19
ENDBRANCH  17  18
ENDBRANCH   1  17
TORSDOF 26
ENDMDL
MODEL 3
REMARK VINA RESULT:    -3.703      1.781      5.858
REMARK INTER + INTRA:         -11.813
REMARK INTER:                  -9.890
REMARK INTRA:                  -1.923
REMARK UNBOUND:                -2.482
REMARK SMILES CCCCCCCCCCCCCCCCCCCCCCCCCCCC(=O)[O-]
REMARK SMILES IDX 15 1 16 2 17 3 18 4 19 5 20 6 21 7 22 8 23 9 24 10 25 11
REMARK SMILES IDX 26 12 27 13 28 14 29 15 30 16 14 17 13 18 12 19 11 20 10 21
REMARK SMILES IDX 9 22 8 23 7 24 6 25 5 26 4 27 3 28 2 29 1 30
REMARK H PARENT
REMARK Flexibility Score: inf
ROOT
ATOM      1  C   UNL     1      12.577  21.281  28.081  1.00  0.00     0.000 C 
ENDROOT
BRANCH   1   2
ATOM      2  C   UNL     1      11.557  21.033  29.205  1.00  0.00     0.000 C 
BRANCH   2   3
ATOM      3  C   UNL     1      11.433  19.545  29.575  1.00  0.00     0.000 C 
BRANCH   3   4
ATOM      4  C   UNL     1      11.823  19.276  31.045  1.00  0.00     0.000 C 
BRANCH   4   5
ATOM      5  C   UNL     1      11.103  20.198  32.049  1.00  0.00     0.000 C 
BRANCH   5   6
ATOM      6  C   UNL     1       9.576  20.019  32.106  1.00  0.00     0.000 C 
BRANCH   6   7
ATOM      7  C   UNL     1       8.891  20.360  30.771  1.00  0.00     0.000 C 
BRANCH   7   8
ATOM      8  C   UNL     1       8.188  21.727  30.799  1.00  0.00     0.000 C 
BRANCH   8   9
ATOM      9  C   UNL     1       8.406  22.481  32.123  1.00  0.00     0.000 C 
BRANCH   9  10
ATOM     10  C   UNL     1       9.469  23.584  32.009  1.00  0.00     0.000 C 
BRANCH  10  11
ATOM     11  C   UNL     1      10.158  23.601  30.632  1.00  0.00     0.000 C 
BRANCH  11  12
ATOM     12  C   UNL     1      11.192  24.734  30.517  1.00  0.00     0.006 C 
BRANCH  12  13
ATOM     13  C   UNL     1      12.494  24.412  31.263  1.00  0.00     0.053 C 
BRANCH  13  14
ATOM     14  C   UNL     1      13.609  24.175  30.293  1.00  0.00     0.041 C 
ATOM     15  O   UNL     1      13.777  24.955  29.318  1.00  0.00    -0.550 OA
ATOM     16  O   UNL     1      14.488  23.116  30.489  1.00  0.00    -0.550 OA
ENDBRANCH  13  14
ENDBRANCH  12  13
ENDBRANCH  11  12
ENDBRANCH  10  11
ENDBRANCH   9  10
ENDBRANCH   8   9
ENDBRANCH   7   8
ENDBRANCH   6   7
ENDBRANCH   5   6
ENDBRANCH   4   5
ENDBRANCH   3   4
ENDBRANCH   2   3
ENDBRANCH   1   2
BRANCH   1  17
ATOM     17  C   UNL     1      13.640  20.174  27.993  1.00  0.00     0.000 C 
BRANCH  17  18
ATOM     18  C   UNL     1      14.698  20.282  29.102  1.00  0.00     0.000 C 
BRANCH  18  19
ATOM     19  C   UNL     1      15.051  18.915  29.719  1.00  0.00     0.000 C 
BRANCH  19  20
ATOM     20  C   UNL     1      16.457  18.894  30.341  1.00  0.00     0.000 C 
BRANCH  20  21
ATOM     21  C   UNL     1      16.452  19.272  31.833  1.00  0.00     0.000 C 
BRANCH  21  22
ATOM     22  C   UNL     1      16.357  20.796  32.054  1.00  0.00    -0.000 C 
BRANCH  22  23
ATOM     23  C   UNL     1      17.713  21.523  31.965  1.00  0.00    -0.000 C 
BRANCH  23  24
ATOM     24  C   UNL     1      17.851  22.498  30.783  1.00  0.00    -0.000 C 
BRANCH  24  25
ATOM     25  C   UNL     1      18.015  21.778  29.436  1.00  0.00    -0.000 C 
BRANCH  25  26
ATOM     26  C   UNL     1      16.837  22.090  28.502  1.00  0.00    -0.000 C 
BRANCH  26  27
ATOM     27  C   UNL     1      16.888  23.521  27.936  1.00  0.00    -0.000 C 
BRANCH  27  28
ATOM     28  C   UNL     1      16.017  23.763  26.687  1.00  0.00    -0.000 C 
BRANCH  28  29
ATOM     29  C   UNL     1      16.378  22.895  25.469  1.00  0.00    -0.003 C 
ATOM     30  C   UNL     1      15.262  21.926  25.080  1.00  0.00     0.004 C 
ENDBRANCH  28  29
ENDBRANCH  27  28
ENDBRANCH  26  27
ENDBRANCH  25  26
ENDBRANCH  24  25
ENDBRANCH  23  24
ENDBRANCH  22  23
ENDBRANCH  21  22
ENDBRANCH  20  21
ENDBRANCH  19  20
ENDBRANCH  18  19
ENDBRANCH  17  18
ENDBRANCH   1  17
TORSDOF 26
ENDMDL
MODEL 4
REMARK VINA RESULT:    -3.606      3.220      6.204
REMARK INTER + INTRA:         -11.569
REMARK INTER:                  -9.100
REMARK INTRA:                  -2.470
REMARK UNBOUND:                -2.482
REMARK SMILES CCCCCCCCCCCCCCCCCCCCCCCCCCCC(=O)[O-]
REMARK SMILES IDX 15 1 16 2 17 3 18 4 19 5 20 6 21 7 22 8 23 9 24 10 25 11
REMARK SMILES IDX 26 12 27 13 28 14 29 15 30 16 14 17 13 18 12 19 11 20 10 21
REMARK SMILES IDX 9 22 8 23 7 24 6 25 5 26 4 27 3 28 2 29 1 30
REMARK H PARENT
REMARK Flexibility Score: inf
ROOT
ATOM      1  C   UNL     1      12.696  24.763  30.465  1.00  0.00     0.000 C 
ENDROOT
BRANCH   1   2
ATOM      2  C   UNL     1      11.330  24.070  30.602  1.00  0.00     0.000 C 
BRANCH   2   3
ATOM      3  C   UNL     1      11.203  23.264  31.906  1.00  0.00     0.000 C 
BRANCH   3   4
ATOM      4  C   UNL     1      11.907  21.893  31.813  1.00  0.00     0.000 C 
BRANCH   4   5
ATOM      5  C   UNL     1      10.977  20.703  32.124  1.00  0.00     0.000 C 
BRANCH   5   6
ATOM      6  C   UNL     1      11.505  19.335  31.658  1.00  0.00     0.000 C 
BRANCH   6   7
ATOM      7  C   UNL     1      12.902  19.427  31.021  1.00  0.00     0.000 C 
BRANCH   7   8
ATOM      8  C   UNL     1      12.918  18.958  29.557  1.00  0.00     0.000 C 
BRANCH   8   9
ATOM      9  C   UNL     1      12.928  20.128  28.557  1.00  0.00     0.000 C 
BRANCH   9  10
ATOM     10  C   UNL     1      11.523  20.490  28.054  1.00  0.00     0.000 C 
BRANCH  10  11
ATOM     11  C   UNL     1      10.985  21.787  28.685  1.00  0.00     0.000 C 
BRANCH  11  12
ATOM     12  C   UNL     1       9.452  21.778  28.808  1.00  0.00     0.006 C 
BRANCH  12  13
ATOM     13  C   UNL     1       8.966  20.905  29.973  1.00  0.00     0.053 C 
BRANCH  13  14
ATOM     14  C   UNL     1       7.759  21.513  30.616  1.00  0.00     0.041 C 
ATOM     15  O   UNL     1       7.869  22.141  31.702  1.00  0.00    -0.550 OA
ATOM     16  O   UNL     1       6.519  21.420  29.995  1.00  0.00    -0.550 OA
ENDBRANCH  13  14
ENDBRANCH  12  13
ENDBRANCH  11  12
ENDBRANCH  10  11
ENDBRANCH   9  10
ENDBRANCH   8   9
ENDBRANCH   7   8
ENDBRANCH   6   7
ENDBRANCH   5   6
ENDBRANCH   4   5
ENDBRANCH   3   4
ENDBRANCH   2   3
ENDBRANCH   1   2
BRANCH   1  17
ATOM     17  C   UNL     1      13.651  24.009  29.525  1.00  0.00     0.000 C 
BRANCH  17  18
ATOM     18  C   UNL     1      14.929  23.538  30.237  1.00  0.00     0.000 C 
BRANCH  18  19
ATOM     19  C   UNL     1      14.765  22.157  30.897  1.00  0.00     0.000 C 
BRANCH  19  20
ATOM     20  C   UNL     1      16.084  21.617  31.472  1.00  0.00     0.000 C 
BRANCH  20  21
ATOM     21  C   UNL     1      16.588  20.366  30.730  1.00  0.00     0.000 C 
BRANCH  21  22
ATOM     22  C   UNL     1      16.410  20.477  29.201  1.00  0.00    -0.000 C 
BRANCH  22  23
ATOM     23  C   UNL     1      17.620  21.097  28.476  1.00  0.00    -0.000 C 
BRANCH  23  24
ATOM     24  C   UNL     1      18.121  22.426  29.068  1.00  0.00    -0.000 C 
BRANCH  24  25
ATOM     25  C   UNL     1      17.215  23.614  28.711  1.00  0.00    -0.000 C 
BRANCH  25  26
ATOM     26  C   UNL     1      17.560  24.166  27.320  1.00  0.00    -0.000 C 
BRANCH  26  27
ATOM     27  C   UNL     1      16.373  24.100  26.342  1.00  0.00    -0.000 C 
BRANCH  27  28
ATOM     28  C   UNL     1      15.281  23.075  26.705  1.00  0.00    -0.000 C 
BRANCH  28  29
ATOM     29  C   UNL     1      15.244  21.824  25.811  1.00  0.00    -0.003 C 
ATOM     30  C   UNL     1      15.899  22.048  24.449  1.00  0.00     0.004 C 
ENDBRANCH  28  29
ENDBRANCH  27  28
ENDBRANCH  26  27
ENDBRANCH  25  26
ENDBRANCH  24  25
ENDBRANCH  23  24
ENDBRANCH  22  23
ENDBRANCH  21  22
ENDBRANCH  20  21
ENDBRANCH  19  20
ENDBRANCH  18  19
ENDBRANCH  17  18
ENDBRANCH   1  17
TORSDOF 26
ENDMDL
MODEL 5
REMARK VINA RESULT:    -3.587      1.417      3.338
REMARK INTER + INTRA:         -11.520
REMARK INTER:                  -8.752
REMARK INTRA:                  -2.768
REMARK UNBOUND:                -2.482
REMARK SMILES CCCCCCCCCCCCCCCCCCCCCCCCCCCC(=O)[O-]
REMARK SMILES IDX 15 1 16 2 17 3 18 4 19 5 20 6 21 7 22 8 23 9 24 10 25 11
REMARK SMILES IDX 26 12 27 13 28 14 29 15 30 16 14 17 13 18 12 19 11 20 10 21
REMARK SMILES IDX 9 22 8 23 7 24 6 25 5 26 4 27 3 28 2 29 1 30
REMARK H PARENT
REMARK Flexibility Score: inf
ROOT
ATOM      1  C   UNL     1      11.370  24.456  30.368  1.00  0.00     0.000 C 
ENDROOT
BRANCH   1   2
ATOM      2  C   UNL     1      12.540  24.195  31.332  1.00  0.00     0.000 C 
BRANCH   2   3
ATOM      3  C   UNL     1      13.807  23.708  30.607  1.00  0.00     0.000 C 
BRANCH   3   4
ATOM      4  C   UNL     1      14.180  22.261  30.995  1.00  0.00     0.000 C 
BRANCH   4   5
ATOM      5  C   UNL     1      13.251  21.655  32.066  1.00  0.00     0.000 C 
BRANCH   5   6
ATOM      6  C   UNL     1      13.216  20.117  32.091  1.00  0.00     0.000 C 
BRANCH   6   7
ATOM      7  C   UNL     1      13.852  19.491  30.838  1.00  0.00     0.000 C 
BRANCH   7   8
ATOM      8  C   UNL     1      15.240  18.891  31.115  1.00  0.00     0.000 C 
BRANCH   8   9
ATOM      9  C   UNL     1      16.180  18.977  29.899  1.00  0.00     0.000 C 
BRANCH   9  10
ATOM     10  C   UNL     1      17.377  19.909  30.139  1.00  0.00     0.000 C 
BRANCH  10  11
ATOM     11  C   UNL     1      17.391  21.113  29.180  1.00  0.00     0.000 C 
BRANCH  11  12
ATOM     12  C   UNL     1      17.526  22.448  29.931  1.00  0.00     0.006 C 
BRANCH  12  13
ATOM     13  C   UNL     1      17.940  23.599  29.003  1.00  0.00     0.053 C 
BRANCH  13  14
ATOM     14  C   UNL     1      16.858  23.888  28.011  1.00  0.00     0.041 C 
ATOM     15  O   UNL     1      15.672  24.061  28.399  1.00  0.00    -0.550 OA
ATOM     16  O   UNL     1      17.166  24.009  26.661  1.00  0.00    -0.550 OA
ENDBRANCH  13  14
ENDBRANCH  12  13
ENDBRANCH  11  12
ENDBRANCH  10  11
ENDBRANCH   9  10
ENDBRANCH   8   9
ENDBRANCH   7   8
ENDBRANCH   6   7
ENDBRANCH   5   6
ENDBRANCH   4   5
ENDBRANCH   3   4
ENDBRANCH   2   3
ENDBRANCH   1   2
BRANCH   1  17
ATOM     17  C   UNL     1      10.000  24.334  31.055  1.00  0.00     0.000 C 
BRANCH  17  18
ATOM     18  C   UNL     1       9.972  23.231  32.125  1.00  0.00     0.000 C 
BRANCH  18  19
ATOM     19  C   UNL     1       8.669  22.409  32.095  1.00  0.00     0.000 C 
BRANCH  19  20
ATOM     20  C   UNL     1       8.160  22.163  30.665  1.00  0.00     0.000 C 
BRANCH  20  21
ATOM     21  C   UNL     1       8.586  20.793  30.110  1.00  0.00     0.000 C 
BRANCH  21  22
ATOM     22  C   UNL     1       9.895  20.281  30.747  1.00  0.00    -0.000 C 
BRANCH  22  23
ATOM     23  C   UNL     1      10.741  19.399  29.808  1.00  0.00    -0.000 C 
BRANCH  23  24
ATOM     24  C   UNL     1      11.004  19.998  28.417  1.00  0.00    -0.000 C 
BRANCH  24  25
ATOM     25  C   UNL     1      11.423  21.474  28.475  1.00  0.00    -0.000 C 
BRANCH  25  26
ATOM     26  C   UNL     1      12.952  21.612  28.436  1.00  0.00    -0.000 C 
BRANCH  26  27
ATOM     27  C   UNL     1      13.580  20.924  27.211  1.00  0.00    -0.000 C 
BRANCH  27  28
ATOM     28  C   UNL     1      14.517  21.814  26.369  1.00  0.00    -0.000 C 
BRANCH  28  29
ATOM     29  C   UNL     1      14.554  21.476  24.868  1.00  0.00    -0.003 C 
ATOM     30  C   UNL     1      15.863  21.892  24.199  1.00  0.00     0.004 C 
ENDBRANCH  28  29
ENDBRANCH  27  28
ENDBRANCH  26  27
ENDBRANCH  25  26
ENDBRANCH  24  25
ENDBRANCH  23  24
ENDBRANCH  22  23
ENDBRANCH  21  22
ENDBRANCH  20  21
ENDBRANCH  19  20
ENDBRANCH  18  19
ENDBRANCH  17  18
ENDBRANCH   1  17
TORSDOF 26
ENDMDL
MODEL 6
REMARK VINA RESULT:    -3.539      1.394      3.417
REMARK INTER + INTRA:         -11.401
REMARK INTER:                  -7.543
REMARK INTRA:                  -3.858
REMARK UNBOUND:                -2.482
REMARK SMILES CCCCCCCCCCCCCCCCCCCCCCCCCCCC(=O)[O-]
REMARK SMILES IDX 15 1 16 2 17 3 18 4 19 5 20 6 21 7 22 8 23 9 24 10 25 11
REMARK SMILES IDX 26 12 27 13 28 14 29 15 30 16 14 17 13 18 12 19 11 20 10 21
REMARK SMILES IDX 9 22 8 23 7 24 6 25 5 26 4 27 3 28 2 29 1 30
REMARK H PARENT
REMARK Flexibility Score: inf
ROOT
ATOM      1  C   UNL     1       8.936  21.217  30.448  1.00  0.00     0.000 C 
ENDROOT
BRANCH   1   2
ATOM      2  C   UNL     1      10.006  20.295  29.840  1.00  0.00     0.000 C 
BRANCH   2   3
ATOM      3  C   UNL     1      10.506  19.232  30.833  1.00  0.00     0.000 C 
BRANCH   3   4
ATOM      4  C   UNL     1      11.255  19.859  32.028  1.00  0.00     0.000 C 
BRANCH   4   5
ATOM      5  C   UNL     1      12.762  20.059  31.772  1.00  0.00     0.000 C 
BRANCH   5   6
ATOM      6  C   UNL     1      13.455  18.881  31.064  1.00  0.00     0.000 C 
BRANCH   6   7
ATOM      7  C   UNL     1      14.886  19.222  30.616  1.00  0.00     0.000 C 
BRANCH   7   8
ATOM      8  C   UNL     1      14.986  19.491  29.106  1.00  0.00     0.000 C 
BRANCH   8   9
ATOM      9  C   UNL     1      13.616  19.460  28.404  1.00  0.00     0.000 C 
BRANCH   9  10
ATOM     10  C   UNL     1      13.069  20.865  28.109  1.00  0.00     0.000 C 
BRANCH  10  11
ATOM     11  C   UNL     1      14.066  21.734  27.321  1.00  0.00     0.000 C 
BRANCH  11  12
ATOM     12  C   UNL     1      14.109  21.358  25.831  1.00  0.00     0.006 C 
BRANCH  12  13
ATOM     13  C   UNL     1      15.530  21.422  25.255  1.00  0.00     0.053 C 
BRANCH  13  14
ATOM     14  C   UNL     1      15.493  21.787  23.805  1.00  0.00     0.041 C 
ATOM     15  O   UNL     1      14.470  22.337  23.316  1.00  0.00    -0.550 OA
ATOM     16  O   UNL     1      16.603  21.557  23.000  1.00  0.00    -0.550 OA
ENDBRANCH  13  14
ENDBRANCH  12  13
ENDBRANCH  11  12
ENDBRANCH  10  11
ENDBRANCH   9  10
ENDBRANCH   8   9
ENDBRANCH   7   8
ENDBRANCH   6   7
ENDBRANCH   5   6
ENDBRANCH   4   5
ENDBRANCH   3   4
ENDBRANCH   2   3
ENDBRANCH   1   2
BRANCH   1  17
ATOM     17  C   UNL     1       9.251  22.708  30.240  1.00  0.00     0.000 C 
BRANCH  17  18
ATOM     18  C   UNL     1      10.761  22.995  30.225  1.00  0.00     0.000 C 
BRANCH  18  19
ATOM     19  C   UNL     1      11.230  23.760  31.476  1.00  0.00     0.000 C 
BRANCH  19  20
ATOM     20  C   UNL     1      12.517  24.565  31.229  1.00  0.00     0.000 C 
BRANCH  20  21
ATOM     21  C   UNL     1      13.137  24.283  29.848  1.00  0.00     0.000 C 
BRANCH  21  22
ATOM     22  C   UNL     1      14.433  23.452  29.944  1.00  0.00    -0.000 C 
BRANCH  22  23
ATOM     23  C   UNL     1      14.661  22.811  31.327  1.00  0.00    -0.000 C 
BRANCH  23  24
ATOM     24  C   UNL     1      15.980  22.035  31.474  1.00  0.00    -0.000 C 
BRANCH  24  25
ATOM     25  C   UNL     1      17.147  22.701  30.729  1.00  0.00    -0.000 C 
BRANCH  25  26
ATOM     26  C   UNL     1      17.817  21.713  29.764  1.00  0.00    -0.000 C 
BRANCH  26  27
ATOM     27  C   UNL     1      17.515  22.024  28.287  1.00  0.00    -0.000 C 
BRANCH  27  28
ATOM     28  C   UNL     1      16.766  23.348  28.037  1.00  0.00    -0.000 C 
BRANCH  28  29
ATOM     29  C   UNL     1      17.248  24.143  26.811  1.00  0.00    -0.003 C 
ATOM     30  C   UNL     1      16.100  24.615  25.921  1.00  0.00     0.004 C 
ENDBRANCH  28  29
ENDBRANCH  27  28
ENDBRANCH  26  27
ENDBRANCH  25  26
ENDBRANCH  24  25
ENDBRANCH  23  24
ENDBRANCH  22  23
ENDBRANCH  21  22
ENDBRANCH  20  21
ENDBRANCH  19  20
ENDBRANCH  18  19
ENDBRANCH  17  18
ENDBRANCH   1  17
TORSDOF 26
ENDMDL
MODEL 7
REMARK VINA RESULT:    -3.440      1.693      4.818
REMARK INTER + INTRA:         -11.151
REMARK INTER:                  -9.122
REMARK INTRA:                  -2.029
REMARK UNBOUND:                -2.482
REMARK SMILES CCCCCCCCCCCCCCCCCCCCCCCCCCCC(=O)[O-]
REMARK SMILES IDX 15 1 16 2 17 3 18 4 19 5 20 6 21 7 22 8 23 9 24 10 25 11
REMARK SMILES IDX 26 12 27 13 28 14 29 15 30 16 14 17 13 18 12 19 11 20 10 21
REMARK SMILES IDX 9 22 8 23 7 24 6 25 5 26 4 27 3 28 2 29 1 30
REMARK H PARENT
REMARK Flexibility Score: inf
ROOT
ATOM      1  C   UNL     1      15.169  19.303  30.773  1.00  0.00     0.000 C 
ENDROOT
BRANCH   1   2
ATOM      2  C   UNL     1      16.633  18.875  30.971  1.00  0.00     0.000 C 
BRANCH   2   3
ATOM      3  C   UNL     1      17.632  19.936  30.479  1.00  0.00     0.000 C 
BRANCH   3   4
ATOM      4  C   UNL     1      18.027  20.925  31.596  1.00  0.00     0.000 C 
BRANCH   4   5
ATOM      5  C   UNL     1      18.118  22.387  31.118  1.00  0.00     0.000 C 
BRANCH   5   6
ATOM      6  C   UNL     1      17.823  22.594  29.621  1.00  0.00     0.000 C 
BRANCH   6   7
ATOM      7  C   UNL     1      16.529  23.388  29.379  1.00  0.00     0.000 C 
BRANCH   7   8
ATOM      8  C   UNL     1      16.510  24.086  28.009  1.00  0.00     0.000 C 
BRANCH   8   9
ATOM      9  C   UNL     1      17.365  23.356  26.958  1.00  0.00     0.000 C 
BRANCH   9  10
ATOM     10  C   UNL     1      16.785  21.989  26.567  1.00  0.00     0.000 C 
BRANCH  10  11
ATOM     11  C   UNL     1      16.002  22.035  25.242  1.00  0.00     0.000 C 
BRANCH  11  12
ATOM     12  C   UNL     1      14.562  21.520  25.403  1.00  0.00     0.006 C 
BRANCH  12  13
ATOM     13  C   UNL     1      13.967  21.872  26.773  1.00  0.00     0.053 C 
BRANCH  13  14
ATOM     14  C   UNL     1      14.052  20.701  27.699  1.00  0.00     0.041 C 
ATOM     15  O   UNL     1      13.043  19.972  27.895  1.00  0.00    -0.550 OA
ATOM     16  O   UNL     1      15.258  20.388  28.316  1.00  0.00    -0.550 OA
ENDBRANCH  13  14
ENDBRANCH  12  13
ENDBRANCH  11  12
ENDBRANCH  10  11
ENDBRANCH   9  10
ENDBRANCH   8   9
ENDBRANCH   7   8
ENDBRANCH   6   7
ENDBRANCH   5   6
ENDBRANCH   4   5
ENDBRANCH   3   4
ENDBRANCH   2   3
ENDBRANCH   1   2
BRANCH   1  17
ATOM     17  C   UNL     1      14.534  19.852  32.062  1.00  0.00     0.000 C 
BRANCH  17  18
ATOM     18  C   UNL     1      14.299  21.370  32.005  1.00  0.00     0.000 C 
BRANCH  18  19
ATOM     19  C   UNL     1      12.982  21.739  31.297  1.00  0.00     0.000 C 
BRANCH  19  20
ATOM     20  C   UNL     1      13.202  22.644  30.074  1.00  0.00     0.000 C 
BRANCH  20  21
ATOM     21  C   UNL     1      13.228  24.139  30.439  1.00  0.00     0.000 C 
BRANCH  21  22
ATOM     22  C   UNL     1      12.125  24.518  31.449  1.00  0.00    -0.000 C 
BRANCH  22  23
ATOM     23  C   UNL     1      10.703  24.494  30.855  1.00  0.00    -0.000 C 
BRANCH  23  24
ATOM     24  C   UNL     1       9.579  24.238  31.873  1.00  0.00    -0.000 C 
BRANCH  24  25
ATOM     25  C   UNL     1       9.155  22.763  31.932  1.00  0.00    -0.000 C 
BRANCH  25  26
ATOM     26  C   UNL     1       8.648  22.284  30.563  1.00  0.00    -0.000 C 
BRANCH  26  27
ATOM     27  C   UNL     1       8.843  20.773  30.351  1.00  0.00    -0.000 C 
BRANCH  27  28
ATOM     28  C   UNL     1      10.288  20.336  30.036  1.00  0.00    -0.000 C 
BRANCH  28  29
ATOM     29  C   UNL     1      10.665  18.932  30.540  1.00  0.00    -0.003 C 
ATOM     30  C   UNL     1      11.025  18.912  32.024  1.00  0.00     0.004 C 
ENDBRANCH  28  29
ENDBRANCH  27  28
ENDBRANCH  26  27
ENDBRANCH  25  26
ENDBRANCH  24  25
ENDBRANCH  23  24
ENDBRANCH  22  23
ENDBRANCH  21  22
ENDBRANCH  20  21
ENDBRANCH  19  20
ENDBRANCH  18  19
ENDBRANCH  17  18
ENDBRANCH   1  17
TORSDOF 26
ENDMDL
MODEL 8
REMARK VINA RESULT:    -3.139      3.460      6.735
REMARK INTER + INTRA:         -10.392
REMARK INTER:                  -9.472
REMARK INTRA:                  -0.920
REMARK UNBOUND:                -2.482
REMARK SMILES CCCCCCCCCCCCCCCCCCCCCCCCCCCC(=O)[O-]
REMARK SMILES IDX 15 1 16 2 17 3 18 4 19 5 20 6 21 7 22 8 23 9 24 10 25 11
REMARK SMILES IDX 26 12 27 13 28 14 29 15 30 16 14 17 13 18 12 19 11 20 10 21
REMARK SMILES IDX 9 22 8 23 7 24 6 25 5 26 4 27 3 28 2 29 1 30
REMARK H PARENT
REMARK Flexibility Score: inf
ROOT
ATOM      1  C   UNL     1      13.243  24.507  31.006  1.00  0.00     0.000 C 
ENDROOT
BRANCH   1   2
ATOM      2  C   UNL     1      11.854  24.078  31.505  1.00  0.00     0.000 C 
BRANCH   2   3
ATOM      3  C   UNL     1      11.755  22.563  31.754  1.00  0.00     0.000 C 
BRANCH   3   4
ATOM      4  C   UNL     1      13.125  21.940  32.099  1.00  0.00     0.000 C 
BRANCH   4   5
ATOM      5  C   UNL     1      13.191  20.421  31.846  1.00  0.00     0.000 C 
BRANCH   5   6
ATOM      6  C   UNL     1      11.865  19.674  32.075  1.00  0.00     0.000 C 
BRANCH   6   7
ATOM      7  C   UNL     1      11.415  18.879  30.838  1.00  0.00     0.000 C 
BRANCH   7   8
ATOM      8  C   UNL     1      10.364  19.628  30.002  1.00  0.00     0.000 C 
BRANCH   8   9
ATOM      9  C   UNL     1      10.984  20.413  28.832  1.00  0.00     0.000 C 
BRANCH   9  10
ATOM     10  C   UNL     1      10.238  21.723  28.536  1.00  0.00     0.000 C 
BRANCH  10  11
ATOM     11  C   UNL     1       9.584  22.328  29.791  1.00  0.00     0.000 C 
BRANCH  11  12
ATOM     12  C   UNL     1       9.068  21.246  30.753  1.00  0.00     0.006 C 
BRANCH  12  13
ATOM     13  C   UNL     1       7.977  21.774  31.694  1.00  0.00     0.053 C 
BRANCH  13  14
ATOM     14  C   UNL     1       6.620  21.399  31.188  1.00  0.00     0.041 C 
ATOM     15  O   UNL     1       6.375  21.422  29.952  1.00  0.00    -0.550 OA
ATOM     16  O   UNL     1       5.636  20.983  32.077  1.00  0.00    -0.550 OA
ENDBRANCH  13  14
ENDBRANCH  12  13
ENDBRANCH  11  12
ENDBRANCH  10  11
ENDBRANCH   9  10
ENDBRANCH   8   9
ENDBRANCH   7   8
ENDBRANCH   6   7
ENDBRANCH   5   6
ENDBRANCH   4   5
ENDBRANCH   3   4
ENDBRANCH   2   3
ENDBRANCH   1   2
BRANCH   1  17
ATOM     17  C   UNL     1      13.355  24.482  29.472  1.00  0.00     0.000 C 
BRANCH  17  18
ATOM     18  C   UNL     1      14.772  24.132  28.989  1.00  0.00     0.000 C 
BRANCH  18  19
ATOM     19  C   UNL     1      15.597  23.396  30.061  1.00  0.00     0.000 C 
BRANCH  19  20
ATOM     20  C   UNL     1      17.039  23.115  29.606  1.00  0.00     0.000 C 
BRANCH  20  21
ATOM     21  C   UNL     1      17.766  22.113  30.520  1.00  0.00     0.000 C 
BRANCH  21  22
ATOM     22  C   UNL     1      16.788  21.191  31.277  1.00  0.00    -0.000 C 
BRANCH  22  23
ATOM     23  C   UNL     1      16.697  19.767  30.694  1.00  0.00    -0.000 C 
BRANCH  23  24
ATOM     24  C   UNL     1      16.069  19.678  29.293  1.00  0.00    -0.000 C 
BRANCH  24  25
ATOM     25  C   UNL     1      14.835  20.580  29.137  1.00  0.00    -0.000 C 
BRANCH  25  26
ATOM     26  C   UNL     1      14.127  20.313  27.801  1.00  0.00    -0.000 C 
BRANCH  26  27
ATOM     27  C   UNL     1      14.285  21.472  26.801  1.00  0.00    -0.000 C 
BRANCH  27  28
ATOM     28  C   UNL     1      15.741  21.845  26.455  1.00  0.00    -0.000 C 
BRANCH  28  29
ATOM     29  C   UNL     1      15.902  22.734  25.209  1.00  0.00    -0.003 C 
ATOM     30  C   UNL     1      16.238  24.184  25.554  1.00  0.00     0.004 C 
ENDBRANCH  28  29
ENDBRANCH  27  28
ENDBRANCH  26  27
ENDBRANCH  25  26
ENDBRANCH  24  25
ENDBRANCH  23  24
ENDBRANCH  22  23
ENDBRANCH  21  22
ENDBRANCH  20  21
ENDBRANCH  19  20
ENDBRANCH  18  19
ENDBRANCH  17  18
ENDBRANCH   1  17
TORSDOF 26
ENDMDL
MODEL 9
REMARK VINA RESULT:    -3.120      1.766      6.049
REMARK INTER + INTRA:         -10.343
REMARK INTER:                  -9.001
REMARK INTRA:                  -1.343
REMARK UNBOUND:                -2.482
REMARK SMILES CCCCCCCCCCCCCCCCCCCCCCCCCCCC(=O)[O-]
REMARK SMILES IDX 15 1 16 2 17 3 18 4 19 5 20 6 21 7 22 8 23 9 24 10 25 11
REMARK SMILES IDX 26 12 27 13 28 14 29 15 30 16 14 17 13 18 12 19 11 20 10 21
REMARK SMILES IDX 9 22 8 23 7 24 6 25 5 26 4 27 3 28 2 29 1 30
REMARK H PARENT
REMARK Flexibility Score: inf
ROOT
ATOM      1  C   UNL     1      13.994  24.346  29.858  1.00  0.00     0.000 C 
ENDROOT
BRANCH   1   2
ATOM      2  C   UNL     1      12.485  24.288  30.149  1.00  0.00     0.000 C 
BRANCH   2   3
ATOM      3  C   UNL     1      12.123  24.887  31.520  1.00  0.00     0.000 C 
BRANCH   3   4
ATOM      4  C   UNL     1      10.777  24.348  32.052  1.00  0.00     0.000 C 
BRANCH   4   5
ATOM      5  C   UNL     1      10.360  23.006  31.420  1.00  0.00     0.000 C 
BRANCH   5   6
ATOM      6  C   UNL     1       9.012  23.035  30.678  1.00  0.00     0.000 C 
BRANCH   6   7
ATOM      7  C   UNL     1       8.098  21.861  31.069  1.00  0.00     0.000 C 
BRANCH   7   8
ATOM      8  C   UNL     1       8.884  20.573  31.366  1.00  0.00     0.000 C 
BRANCH   8   9
ATOM      9  C   UNL     1       9.588  20.005  30.120  1.00  0.00     0.000 C 
BRANCH   9  10
ATOM     10  C   UNL     1      10.782  19.105  30.472  1.00  0.00     0.000 C 
BRANCH  10  11
ATOM     11  C   UNL     1      11.724  18.878  29.276  1.00  0.00     0.000 C 
BRANCH  11  12
ATOM     12  C   UNL     1      13.153  19.368  29.565  1.00  0.00     0.006 C 
BRANCH  12  13
ATOM     13  C   UNL     1      13.854  19.895  28.305  1.00  0.00     0.053 C 
BRANCH  13  14
ATOM     14  C   UNL     1      13.125  21.082  27.757  1.00  0.00     0.041 C 
ATOM     15  O   UNL     1      13.381  21.502  26.598  1.00  0.00    -0.550 OA
ATOM     16  O   UNL     1      12.135  21.699  28.512  1.00  0.00    -0.550 OA
ENDBRANCH  13  14
ENDBRANCH  12  13
ENDBRANCH  11  12
ENDBRANCH  10  11
ENDBRANCH   9  10
ENDBRANCH   8   9
ENDBRANCH   7   8
ENDBRANCH   6   7
ENDBRANCH   5   6
ENDBRANCH   4   5
ENDBRANCH   3   4
ENDBRANCH   2   3
ENDBRANCH   1   2
BRANCH   1  17
ATOM     17  C   UNL     1      14.785  23.267  30.617  1.00  0.00     0.000 C 
BRANCH  17  18
ATOM     18  C   UNL     1      13.871  22.248  31.316  1.00  0.00     0.000 C 
BRANCH  18  19
ATOM     19  C   UNL     1      14.611  20.951  31.694  1.00  0.00     0.000 C 
BRANCH  19  20
ATOM     20  C   UNL     1      16.080  21.199  32.074  1.00  0.00     0.000 C 
BRANCH  20  21
ATOM     21  C   UNL     1      16.926  19.914  32.044  1.00  0.00     0.000 C 
BRANCH  21  22
ATOM     22  C   UNL     1      16.531  18.976  30.884  1.00  0.00    -0.000 C 
BRANCH  22  23
ATOM     23  C   UNL     1      17.008  19.462  29.501  1.00  0.00    -0.000 C 
BRANCH  23  24
ATOM     24  C   UNL     1      17.713  20.828  29.500  1.00  0.00    -0.000 C 
BRANCH  24  25
ATOM     25  C   UNL     1      17.290  21.714  28.319  1.00  0.00    -0.000 C 
BRANCH  25  26
ATOM     26  C   UNL     1      17.417  23.202  28.677  1.00  0.00    -0.000 C 
BRANCH  26  27
ATOM     27  C   UNL     1      17.031  24.131  27.513  1.00  0.00    -0.000 C 
BRANCH  27  28
ATOM     28  C   UNL     1      16.076  23.513  26.472  1.00  0.00    -0.000 C 
BRANCH  28  29
ATOM     29  C   UNL     1      16.645  22.306  25.707  1.00  0.00    -0.003 C 
ATOM     30  C   UNL     1      15.859  21.984  24.437  1.00  0.00     0.004 C 
ENDBRANCH  28  29
ENDBRANCH  27  28
ENDBRANCH  26  27
ENDBRANCH  25  26
ENDBRANCH  24  25
ENDBRANCH  23  24
ENDBRANCH  22  23
ENDBRANCH  21  22
ENDBRANCH  20  21
ENDBRANCH  19  20
ENDBRANCH  18  19
ENDBRANCH  17  18
ENDBRANCH   1  17
TORSDOF 26
ENDMDL
