MODEL 1
REMARK VINA RESULT:    -4.258      0.000      0.000
REMARK INTER + INTRA:          -7.787
REMARK INTER:                  -6.499
REMARK INTRA:                  -1.288
REMARK UNBOUND:                -1.288
REMARK SMILES CCCCCCCCCCC(=O)[O-]
REMARK SMILES IDX 7 1 8 2 9 3 10 4 11 5 12 6 13 7 6 8 5 9 4 10 3 11 2 12 1 13
REMARK H PARENT
REMARK Flexibility Score: inf
ROOT
ATOM      1  C   UNL     1       8.731  -2.343  48.357  1.00  0.00     0.000 C 
ENDROOT
BRANCH   1   2
ATOM      2  C   UNL     1       7.763  -2.104  49.526  1.00  0.00     0.000 C 
BRANCH   2   3
ATOM      3  C   UNL     1       6.390  -1.595  49.063  1.00  0.00     0.006 C 
BRANCH   3   4
ATOM      4  C   UNL     1       6.003  -2.211  47.716  1.00  0.00     0.053 C 
BRANCH   4   5
ATOM      5  C   UNL     1       5.902  -1.152  46.664  1.00  0.00     0.041 C 
ATOM      6  O   UNL     1       6.353   0.004  46.882  1.00  0.00    -0.550 OA
ATOM      7  O   UNL     1       5.265  -1.425  45.461  1.00  0.00    -0.550 OA
ENDBRANCH   4   5
ENDBRANCH   3   4
ENDBRANCH   2   3
ENDBRANCH   1   2
BRANCH   1   8
ATOM      8  C   UNL     1       9.754  -3.451  48.652  1.00  0.00     0.000 C 
BRANCH   8   9
ATOM      9  C   UNL     1       9.054  -4.734  49.117  1.00  0.00    -0.000 C 
BRANCH   9  10
ATOM     10  C   UNL     1       8.166  -5.311  48.008  1.00  0.00    -0.000 C 
BRANCH  10  11
ATOM     11  C   UNL     1       6.789  -5.708  48.555  1.00  0.00    -0.000 C 
BRANCH  11  12
ATOM     12  C   UNL     1       6.781  -5.685  50.088  1.00  0.00    -0.003 C 
ATOM     13  C   UNL     1       5.546  -4.967  50.622  1.00  0.00     0.004 C 
ENDBRANCH  11  12
ENDBRANCH  10  11
ENDBRANCH   9  10
ENDBRANCH   8   9
ENDBRANCH   1   8
TORSDOF 9
ENDMDL
MODEL 2
REMARK VINA RESULT:    -4.224      1.193      2.797
REMARK INTER + INTRA:          -7.734
REMARK INTER:                  -6.517
REMARK INTRA:                  -1.217
REMARK UNBOUND:                -1.288
REMARK SMILES CCCCCCCCCCC(=O)[O-]
REMARK SMILES IDX 7 1 8 2 9 3 10 4 11 5 12 6 13 7 6 8 5 9 4 10 3 11 2 12 1 13
REMARK H PARENT
REMARK Flexibility Score: inf
ROOT
ATOM      1  C   UNL     1       5.873  -2.990  50.972  1.00  0.00     0.000 C 
ENDROOT
BRANCH   1   2
ATOM      2  C   UNL     1       6.081  -1.932  49.878  1.00  0.00     0.000 C 
BRANCH   2   3
ATOM      3  C   UNL     1       5.680  -2.435  48.483  1.00  0.00     0.006 C 
BRANCH   3   4
ATOM      4  C   UNL     1       5.503  -1.266  47.509  1.00  0.00     0.053 C 
BRANCH   4   5
ATOM      5  C   UNL     1       6.808  -0.911  46.872  1.00  0.00     0.041 C 
ATOM      6  O   UNL     1       7.196   0.287  46.844  1.00  0.00    -0.550 OA
ATOM      7  O   UNL     1       7.575  -1.896  46.262  1.00  0.00    -0.550 OA
ENDBRANCH   4   5
ENDBRANCH   3   4
ENDBRANCH   2   3
ENDBRANCH   1   2
BRANCH   1   8
ATOM      8  C   UNL     1       5.332  -4.317  50.418  1.00  0.00     0.000 C 
BRANCH   8   9
ATOM      9  C   UNL     1       6.342  -5.452  50.627  1.00  0.00    -0.000 C 
BRANCH   9  10
ATOM     10  C   UNL     1       7.102  -5.759  49.331  1.00  0.00    -0.000 C 
BRANCH  10  11
ATOM     11  C   UNL     1       8.575  -5.348  49.445  1.00  0.00    -0.000 C 
BRANCH  11  12
ATOM     12  C   UNL     1       8.948  -4.335  48.357  1.00  0.00    -0.003 C 
ATOM     13  C   UNL     1       9.556  -3.074  48.963  1.00  0.00     0.004 C 
ENDBRANCH  11  12
ENDBRANCH  10  11
ENDBRANCH   9  10
ENDBRANCH   8   9
ENDBRANCH   1   8
TORSDOF 9
ENDMDL
MODEL 3
REMARK VINA RESULT:    -4.220      1.198      2.371
REMARK INTER + INTRA:          -7.729
REMARK INTER:                  -6.373
REMARK INTRA:                  -1.355
REMARK UNBOUND:                -1.288
REMARK SMILES CCCCCCCCCCC(=O)[O-]
REMARK SMILES IDX 7 1 8 2 9 3 10 4 11 5 12 6 13 7 6 8 5 9 4 10 3 11 2 12 1 13
REMARK H PARENT
REMARK Flexibility Score: inf
ROOT
ATOM      1  C   UNL     1       8.642  -4.511  48.063  1.00  0.00     0.000 C 
ENDROOT
BRANCH   1   2
ATOM      2  C   UNL     1       9.401  -3.192  48.271  1.00  0.00     0.000 C 
BRANCH   2   3
ATOM      3  C   UNL     1       8.533  -1.958  47.981  1.00  0.00     0.006 C 
BRANCH   3   4
ATOM      4  C   UNL     1       7.739  -2.139  46.684  1.00  0.00     0.053 C 
BRANCH   4   5
ATOM      5  C   UNL     1       6.590  -1.184  46.634  1.00  0.00     0.041 C 
ATOM      6  O   UNL     1       5.448  -1.582  46.282  1.00  0.00    -0.550 OA
ATOM      7  O   UNL     1       6.789   0.159  46.928  1.00  0.00    -0.550 OA
ENDBRANCH   4   5
ENDBRANCH   3   4
ENDBRANCH   2   3
ENDBRANCH   1   2
BRANCH   1   8
ATOM      8  C   UNL     1       8.434  -5.288  49.372  1.00  0.00     0.000 C 
BRANCH   8   9
ATOM      9  C   UNL     1       6.959  -5.273  49.789  1.00  0.00    -0.000 C 
BRANCH   9  10
ATOM     10  C   UNL     1       6.064  -4.799  48.637  1.00  0.00    -0.000 C 
BRANCH  10  11
ATOM     11  C   UNL     1       5.106  -3.697  49.102  1.00  0.00    -0.000 C 
BRANCH  11  12
ATOM     12  C   UNL     1       5.483  -3.195  50.500  1.00  0.00    -0.003 C 
ATOM     13  C   UNL     1       5.914  -1.732  50.464  1.00  0.00     0.004 C 
ENDBRANCH  11  12
ENDBRANCH  10  11
ENDBRANCH   9  10
ENDBRANCH   8   9
ENDBRANCH   1   8
TORSDOF 9
ENDMDL
MODEL 4
REMARK VINA RESULT:    -4.140      1.368      3.308
REMARK INTER + INTRA:          -7.606
REMARK INTER:                  -6.572
REMARK INTRA:                  -1.034
REMARK UNBOUND:                -1.288
REMARK SMILES CCCCCCCCCCC(=O)[O-]
REMARK SMILES IDX 7 1 8 2 9 3 10 4 11 5 12 6 13 7 6 8 5 9 4 10 3 11 2 12 1 13
REMARK H PARENT
REMARK Flexibility Score: inf
ROOT
ATOM      1  C   UNL     1       5.272  -3.320  50.459  1.00  0.00     0.000 C 
ENDROOT
BRANCH   1   2
ATOM      2  C   UNL     1       5.007  -4.098  49.162  1.00  0.00     0.000 C 
BRANCH   2   3
ATOM      3  C   UNL     1       4.524  -3.195  48.017  1.00  0.00     0.006 C 
BRANCH   3   4
ATOM      4  C   UNL     1       5.451  -3.307  46.803  1.00  0.00     0.053 C 
BRANCH   4   5
ATOM      5  C   UNL     1       5.349  -2.083  45.950  1.00  0.00     0.041 C 
ATOM      6  O   UNL     1       4.761  -2.132  44.837  1.00  0.00    -0.550 OA
ATOM      7  O   UNL     1       5.946  -0.898  46.360  1.00  0.00    -0.550 OA
ENDBRANCH   4   5
ENDBRANCH   3   4
ENDBRANCH   2   3
ENDBRANCH   1   2
BRANCH   1   8
ATOM      8  C   UNL     1       5.922  -1.951  50.207  1.00  0.00     0.000 C 
BRANCH   8   9
ATOM      9  C   UNL     1       7.448  -2.038  50.330  1.00  0.00    -0.000 C 
BRANCH   9  10
ATOM     10  C   UNL     1       8.113  -2.035  48.948  1.00  0.00    -0.000 C 
BRANCH  10  11
ATOM     11  C   UNL     1       9.529  -2.621  49.017  1.00  0.00    -0.000 C 
BRANCH  11  12
ATOM     12  C   UNL     1       9.660  -3.846  48.105  1.00  0.00    -0.003 C 
ATOM     13  C   UNL     1       8.545  -4.853  48.370  1.00  0.00     0.004 C 
ENDBRANCH  11  12
ENDBRANCH  10  11
ENDBRANCH   9  10
ENDBRANCH   8   9
ENDBRANCH   1   8
TORSDOF 9
ENDMDL
MODEL 5
REMARK VINA RESULT:    -4.120      1.617      2.218
REMARK INTER + INTRA:          -7.575
REMARK INTER:                  -6.445
REMARK INTRA:                  -1.130
REMARK UNBOUND:                -1.288
REMARK SMILES CCCCCCCCCCC(=O)[O-]
REMARK SMILES IDX 7 1 8 2 9 3 10 4 11 5 12 6 13 7 6 8 5 9 4 10 3 11 2 12 1 13
REMARK H PARENT
REMARK Flexibility Score: inf
ROOT
ATOM      1  C   UNL     1       8.007  -2.086  47.102  1.00  0.00     0.000 C 
ENDROOT
BRANCH   1   2
ATOM      2  C   UNL     1       7.317  -0.727  46.907  1.00  0.00     0.000 C 
BRANCH   2   3
ATOM      3  C   UNL     1       5.876  -0.862  46.394  1.00  0.00     0.006 C 
BRANCH   3   4
ATOM      4  C   UNL     1       5.603  -2.284  45.894  1.00  0.00     0.053 C 
BRANCH   4   5
ATOM      5  C   UNL     1       4.816  -2.252  44.623  1.00  0.00     0.041 C 
ATOM      6  O   UNL     1       4.480  -1.151  44.112  1.00  0.00    -0.550 OA
ATOM      7  O   UNL     1       4.407  -3.439  44.028  1.00  0.00    -0.550 OA
ENDBRANCH   4   5
ENDBRANCH   3   4
ENDBRANCH   2   3
ENDBRANCH   1   2
BRANCH   1   8
ATOM      8  C   UNL     1       8.870  -2.136  48.372  1.00  0.00     0.000 C 
BRANCH   8   9
ATOM      9  C   UNL     1       8.627  -3.436  49.148  1.00  0.00    -0.000 C 
BRANCH   9  10
ATOM     10  C   UNL     1       7.871  -4.458  48.290  1.00  0.00    -0.000 C 
BRANCH  10  11
ATOM     11  C   UNL     1       6.595  -4.933  48.995  1.00  0.00    -0.000 C 
BRANCH  11  12
ATOM     12  C   UNL     1       6.104  -3.887  50.002  1.00  0.00    -0.003 C 
ATOM     13  C   UNL     1       5.022  -3.000  49.393  1.00  0.00     0.004 C 
ENDBRANCH  11  12
ENDBRANCH  10  11
ENDBRANCH   9  10
ENDBRANCH   8   9
ENDBRANCH   1   8
TORSDOF 9
ENDMDL
MODEL 6
REMARK VINA RESULT:    -4.116      1.332      2.916
REMARK INTER + INTRA:          -7.570
REMARK INTER:                  -6.372
REMARK INTRA:                  -1.198
REMARK UNBOUND:                -1.288
REMARK SMILES CCCCCCCCCCC(=O)[O-]
REMARK SMILES IDX 7 1 8 2 9 3 10 4 11 5 12 6 13 7 6 8 5 9 4 10 3 11 2 12 1 13
REMARK H PARENT
REMARK Flexibility Score: inf
ROOT
ATOM      1  C   UNL     1       5.273  -2.869  49.454  1.00  0.00     0.000 C 
ENDROOT
BRANCH   1   2
ATOM      2  C   UNL     1       6.122  -1.615  49.194  1.00  0.00     0.000 C 
BRANCH   2   3
ATOM      3  C   UNL     1       5.872  -1.008  47.805  1.00  0.00     0.006 C 
BRANCH   3   4
ATOM      4  C   UNL     1       6.512  -1.866  46.710  1.00  0.00     0.053 C 
BRANCH   4   5
ATOM      5  C   UNL     1       5.459  -2.522  45.875  1.00  0.00     0.041 C 
ATOM      6  O   UNL     1       5.204  -3.747  46.021  1.00  0.00    -0.550 OA
ATOM      7  O   UNL     1       4.791  -1.794  44.898  1.00  0.00    -0.550 OA
ENDBRANCH   4   5
ENDBRANCH   3   4
ENDBRANCH   2   3
ENDBRANCH   1   2
BRANCH   1   8
ATOM      8  C   UNL     1       5.971  -3.874  50.383  1.00  0.00     0.000 C 
BRANCH   8   9
ATOM      9  C   UNL     1       6.502  -5.075  49.591  1.00  0.00    -0.000 C 
BRANCH   9  10
ATOM     10  C   UNL     1       8.030  -5.019  49.463  1.00  0.00    -0.000 C 
BRANCH  10  11
ATOM     11  C   UNL     1       8.449  -4.642  48.037  1.00  0.00    -0.000 C 
BRANCH  11  12
ATOM     12  C   UNL     1       9.698  -3.753  48.050  1.00  0.00    -0.003 C 
ATOM     13  C   UNL     1       9.601  -2.681  49.131  1.00  0.00     0.004 C 
ENDBRANCH  11  12
ENDBRANCH  10  11
ENDBRANCH   9  10
ENDBRANCH   8   9
ENDBRANCH   1   8
TORSDOF 9
ENDMDL
MODEL 7
REMARK VINA RESULT:    -4.112      1.855      3.953
REMARK INTER + INTRA:          -7.564
REMARK INTER:                  -6.402
REMARK INTRA:                  -1.162
REMARK UNBOUND:                -1.288
REMARK SMILES CCCCCCCCCCC(=O)[O-]
REMARK SMILES IDX 7 1 8 2 9 3 10 4 11 5 12 6 13 7 6 8 5 9 4 10 3 11 2 12 1 13
REMARK H PARENT
REMARK Flexibility Score: inf
ROOT
ATOM      1  C   UNL     1       8.644  -4.502  48.287  1.00  0.00     0.000 C 
ENDROOT
BRANCH   1   2
ATOM      2  C   UNL     1       7.981  -5.381  49.358  1.00  0.00     0.000 C 
BRANCH   2   3
ATOM      3  C   UNL     1       6.457  -5.200  49.412  1.00  0.00     0.006 C 
BRANCH   3   4
ATOM      4  C   UNL     1       6.065  -4.161  50.467  1.00  0.00     0.053 C 
BRANCH   4   5
ATOM      5  C   UNL     1       5.348  -3.013  49.832  1.00  0.00     0.041 C 
ATOM      6  O   UNL     1       4.392  -3.223  49.039  1.00  0.00    -0.550 OA
ATOM      7  O   UNL     1       5.765  -1.711  50.077  1.00  0.00    -0.550 OA
ENDBRANCH   4   5
ENDBRANCH   3   4
ENDBRANCH   2   3
ENDBRANCH   1   2
BRANCH   1   8
ATOM      8  C   UNL     1       9.514  -3.388  48.891  1.00  0.00     0.000 C 
BRANCH   8   9
ATOM      9  C   UNL     1       8.995  -2.004  48.481  1.00  0.00    -0.000 C 
BRANCH   9  10
ATOM     10  C   UNL     1       8.066  -2.102  47.265  1.00  0.00    -0.000 C 
BRANCH  10  11
ATOM     11  C   UNL     1       7.343  -0.772  47.017  1.00  0.00    -0.000 C 
BRANCH  11  12
ATOM     12  C   UNL     1       5.904  -1.010  46.546  1.00  0.00    -0.003 C 
ATOM     13  C   UNL     1       5.726  -2.428  46.012  1.00  0.00     0.004 C 
ENDBRANCH  11  12
ENDBRANCH  10  11
ENDBRANCH   9  10
ENDBRANCH   8   9
ENDBRANCH   1   8
TORSDOF 9
ENDMDL
MODEL 8
REMARK VINA RESULT:    -4.059      1.449      3.666
REMARK INTER + INTRA:          -7.482
REMARK INTER:                  -6.097
REMARK INTRA:                  -1.385
REMARK UNBOUND:                -1.288
REMARK SMILES CCCCCCCCCCC(=O)[O-]
REMARK SMILES IDX 7 1 8 2 9 3 10 4 11 5 12 6 13 7 6 8 5 9 4 10 3 11 2 12 1 13
REMARK H PARENT
REMARK Flexibility Score: inf
ROOT
ATOM      1  C   UNL     1       4.258  -4.221  48.966  1.00  0.00     0.000 C 
ENDROOT
BRANCH   1   2
ATOM      2  C   UNL     1       5.058  -4.768  47.774  1.00  0.00     0.000 C 
BRANCH   2   3
ATOM      3  C   UNL     1       5.441  -3.675  46.766  1.00  0.00     0.006 C 
BRANCH   3   4
ATOM      4  C   UNL     1       5.096  -2.284  47.308  1.00  0.00     0.053 C 
BRANCH   4   5
ATOM      5  C   UNL     1       5.553  -1.223  46.359  1.00  0.00     0.041 C 
ATOM      6  O   UNL     1       5.249  -1.289  45.139  1.00  0.00    -0.550 OA
ATOM      7  O   UNL     1       6.357  -0.185  46.812  1.00  0.00    -0.550 OA
ENDBRANCH   4   5
ENDBRANCH   3   4
ENDBRANCH   2   3
ENDBRANCH   1   2
BRANCH   1   8
ATOM      8  C   UNL     1       4.671  -4.861  50.301  1.00  0.00     0.000 C 
BRANCH   8   9
ATOM      9  C   UNL     1       6.004  -4.286  50.794  1.00  0.00    -0.000 C 
BRANCH   9  10
ATOM     10  C   UNL     1       5.908  -2.770  51.005  1.00  0.00    -0.000 C 
BRANCH  10  11
ATOM     11  C   UNL     1       7.103  -2.049  50.371  1.00  0.00    -0.000 C 
BRANCH  11  12
ATOM     12  C   UNL     1       7.957  -3.020  49.549  1.00  0.00    -0.003 C 
ATOM     13  C   UNL     1       8.768  -2.281  48.489  1.00  0.00     0.004 C 
ENDBRANCH  11  12
ENDBRANCH  10  11
ENDBRANCH   9  10
ENDBRANCH   8   9
ENDBRANCH   1   8
TORSDOF 9
ENDMDL
MODEL 9
REMARK VINA RESULT:    -3.950      1.527      2.826
REMARK INTER + INTRA:          -7.317
REMARK INTER:                  -6.018
REMARK INTRA:                  -1.299
REMARK UNBOUND:                -1.288
REMARK SMILES CCCCCCCCCCC(=O)[O-]
REMARK SMILES IDX 7 1 8 2 9 3 10 4 11 5 12 6 13 7 6 8 5 9 4 10 3 11 2 12 1 13
REMARK H PARENT
REMARK Flexibility Score: inf
ROOT
ATOM      1  C   UNL     1       7.212  -2.091  50.147  1.00  0.00     0.000 C 
ENDROOT
BRANCH   1   2
ATOM      2  C   UNL     1       8.323  -2.493  49.166  1.00  0.00     0.000 C 
BRANCH   2   3
ATOM      3  C   UNL     1       8.349  -1.615  47.907  1.00  0.00     0.006 C 
BRANCH   3   4
ATOM      4  C   UNL     1       7.453  -2.201  46.812  1.00  0.00     0.053 C 
BRANCH   4   5
ATOM      5  C   UNL     1       6.313  -1.280  46.516  1.00  0.00     0.041 C 
ATOM      6  O   UNL     1       5.328  -1.685  45.844  1.00  0.00    -0.550 OA
ATOM      7  O   UNL     1       6.359   0.042  46.940  1.00  0.00    -0.550 OA
ENDBRANCH   4   5
ENDBRANCH   3   4
ENDBRANCH   2   3
ENDBRANCH   1   2
BRANCH   1   8
ATOM      8  C   UNL     1       6.208  -3.226  50.404  1.00  0.00     0.000 C 
BRANCH   8   9
ATOM      9  C   UNL     1       4.944  -3.042  49.557  1.00  0.00    -0.000 C 
BRANCH   9  10
ATOM     10  C   UNL     1       4.611  -4.322  48.779  1.00  0.00    -0.000 C 
BRANCH  10  11
ATOM     11  C   UNL     1       5.840  -5.231  48.663  1.00  0.00    -0.000 C 
BRANCH  11  12
ATOM     12  C   UNL     1       6.126  -5.584  47.199  1.00  0.00    -0.003 C 
ATOM     13  C   UNL     1       4.949  -5.211  46.303  1.00  0.00     0.004 C 
ENDBRANCH  11  12
ENDBRANCH  10  11
ENDBRANCH   9  10
ENDBRANCH   8   9
ENDBRANCH   1   8
TORSDOF 9
ENDMDL
