MODEL 1
REMARK VINA RESULT:    -6.446      0.000      0.000
REMARK INTER + INTRA:          -7.183
REMARK INTER:                  -7.011
REMARK INTRA:                  -0.172
REMARK UNBOUND:                -0.172
REMARK SMILES CC(=O)[C@@H]1CC[C@@H]2[C@H]3CC=C4C[C@H](O)CC[C@@]4(C)[C@@H]3CC[C@@]21C
REMARK SMILES IDX 4 1 5 2 6 3 7 4 22 5 21 6 20 7 19 8 8 9 9 10 10 11 11 12
REMARK SMILES IDX 17 13 16 14 15 15 13 16 12 17 18 18 23 19 2 20 1 21 3 22
REMARK SMILES IDX 14 23
REMARK H PARENT 14 24
REMARK Flexibility Score: inf
ROOT
ATOM      1  C   UNL     1     141.322 132.146 150.382  1.00  0.00     0.062 C 
ATOM      2  C   UNL     1     142.137 132.219 151.665  1.00  0.00     0.012 C 
ATOM      3  C   UNL     1     143.571 132.063 151.204  1.00  0.00     0.005 C 
ATOM      4  C   UNL     1     143.653 132.722 149.811  1.00  0.00    -0.001 C 
ATOM      5  C   UNL     1     142.177 132.900 149.321  1.00  0.00    -0.020 C 
ATOM      6  C   UNL     1     141.799 134.405 149.250  1.00  0.00     0.008 C 
ATOM      7  C   UNL     1     142.744 135.206 148.349  1.00  0.00     0.005 C 
ATOM      8  C   UNL     1     144.256 134.944 148.625  1.00  0.00     0.003 C 
ATOM      9  C   UNL     1     144.501 134.038 149.860  1.00  0.00     0.000 C 
ATOM     10  C   UNL     1     146.002 133.684 149.963  1.00  0.00     0.031 C 
ATOM     11  C   UNL     1     146.935 134.828 149.680  1.00  0.00    -0.027 C 
ATOM     12  C   UNL     1     146.591 135.919 148.966  1.00  0.00    -0.065 C 
ATOM     13  C   UNL     1     145.123 136.263 148.682  1.00  0.00    -0.008 C 
ATOM     14  C   UNL     1     145.023 136.983 147.300  1.00  0.00     0.014 C 
ATOM     15  C   UNL     1     146.062 138.093 147.098  1.00  0.00     0.033 C 
ATOM     16  C   UNL     1     147.482 137.550 147.270  1.00  0.00     0.118 C 
ATOM     17  C   UNL     1     147.661 136.953 148.671  1.00  0.00     0.063 C 
ATOM     18  C   UNL     1     144.653 137.224 149.814  1.00  0.00     0.016 C 
ATOM     19  C   UNL     1     141.978 132.241 147.932  1.00  0.00     0.012 C 
ENDROOT
BRANCH   1  20
ATOM     20  C   UNL     1     139.878 132.610 150.508  1.00  0.00     0.133 C 
ATOM     21  C   UNL     1     139.381 133.407 151.682  1.00  0.00     0.088 C 
ATOM     22  O   UNL     1     139.086 132.312 149.625  1.00  0.00    -0.300 OA
ENDBRANCH   1  20
BRANCH  16  23
ATOM     23  O   UNL     1     148.399 138.595 147.076  1.00  0.00    -0.393 OA
ATOM     24  H   UNL     1     148.286 138.905 146.140  1.00  0.00     0.210 HD
ENDBRANCH  16  23
TORSDOF 2
ENDMDL
MODEL 2
REMARK VINA RESULT:    -6.233      4.545      7.888
REMARK INTER + INTRA:          -6.952
REMARK INTER:                  -6.817
REMARK INTRA:                  -0.135
REMARK UNBOUND:                -0.172
REMARK SMILES CC(=O)[C@@H]1CC[C@@H]2[C@H]3CC=C4C[C@H](O)CC[C@@]4(C)[C@@H]3CC[C@@]21C
REMARK SMILES IDX 4 1 5 2 6 3 7 4 22 5 21 6 20 7 19 8 8 9 9 10 10 11 11 12
REMARK SMILES IDX 17 13 16 14 15 15 13 16 12 17 18 18 23 19 2 20 1 21 3 22
REMARK SMILES IDX 14 23
REMARK H PARENT 14 24
REMARK Flexibility Score: inf
ROOT
ATOM      1  C   UNL     1     147.923 137.398 146.456  1.00  0.00     0.062 C 
ATOM      2  C   UNL     1     146.834 137.840 147.423  1.00  0.00     0.012 C 
ATOM      3  C   UNL     1     146.265 136.542 147.958  1.00  0.00     0.005 C 
ATOM      4  C   UNL     1     147.438 135.541 148.009  1.00  0.00    -0.001 C 
ATOM      5  C   UNL     1     148.580 136.157 147.132  1.00  0.00    -0.020 C 
ATOM      6  C   UNL     1     149.792 136.564 148.015  1.00  0.00     0.008 C 
ATOM      7  C   UNL     1     150.343 135.392 148.832  1.00  0.00     0.005 C 
ATOM      8  C   UNL     1     149.249 134.580 149.592  1.00  0.00     0.003 C 
ATOM      9  C   UNL     1     147.837 135.216 149.488  1.00  0.00     0.000 C 
ATOM     10  C   UNL     1     146.787 134.269 150.112  1.00  0.00     0.031 C 
ATOM     11  C   UNL     1     147.219 133.615 151.395  1.00  0.00    -0.027 C 
ATOM     12  C   UNL     1     148.507 133.460 151.762  1.00  0.00    -0.065 C 
ATOM     13  C   UNL     1     149.636 134.248 151.086  1.00  0.00    -0.008 C 
ATOM     14  C   UNL     1     150.935 133.382 151.082  1.00  0.00     0.014 C 
ATOM     15  C   UNL     1     151.246 132.715 152.428  1.00  0.00     0.033 C 
ATOM     16  C   UNL     1     150.074 131.846 152.889  1.00  0.00     0.118 C 
ATOM     17  C   UNL     1     148.804 132.692 153.037  1.00  0.00     0.063 C 
ATOM     18  C   UNL     1     149.862 135.536 151.932  1.00  0.00     0.016 C 
ATOM     19  C   UNL     1     149.036 135.155 146.042  1.00  0.00     0.012 C 
ENDROOT
BRANCH   1  20
ATOM     20  C   UNL     1     148.888 138.495 146.027  1.00  0.00     0.133 C 
ATOM     21  C   UNL     1     149.771 138.371 144.816  1.00  0.00     0.088 C 
ATOM     22  O   UNL     1     148.958 139.512 146.702  1.00  0.00    -0.300 OA
ENDBRANCH   1  20
BRANCH  16  23
ATOM     23  O   UNL     1     150.398 131.255 154.120  1.00  0.00    -0.393 OA
ATOM     24  H   UNL     1     149.888 131.746 154.817  1.00  0.00     0.210 HD
ENDBRANCH  16  23
TORSDOF 2
ENDMDL
MODEL 3
REMARK VINA RESULT:    -6.207      5.912      7.176
REMARK INTER + INTRA:          -6.924
REMARK INTER:                  -6.791
REMARK INTRA:                  -0.132
REMARK UNBOUND:                -0.172
REMARK SMILES CC(=O)[C@@H]1CC[C@@H]2[C@H]3CC=C4C[C@H](O)CC[C@@]4(C)[C@@H]3CC[C@@]21C
REMARK SMILES IDX 4 1 5 2 6 3 7 4 22 5 21 6 20 7 19 8 8 9 9 10 10 11 11 12
REMARK SMILES IDX 17 13 16 14 15 15 13 16 12 17 18 18 23 19 2 20 1 21 3 22
REMARK SMILES IDX 14 23
REMARK H PARENT 14 24
REMARK Flexibility Score: inf
ROOT
ATOM      1  C   UNL     1     150.344 133.832 153.143  1.00  0.00     0.062 C 
ATOM      2  C   UNL     1     150.100 135.156 153.852  1.00  0.00     0.012 C 
ATOM      3  C   UNL     1     151.056 136.119 153.179  1.00  0.00     0.005 C 
ATOM      4  C   UNL     1     151.166 135.665 151.709  1.00  0.00    -0.001 C 
ATOM      5  C   UNL     1     150.580 134.214 151.651  1.00  0.00    -0.020 C 
ATOM      6  C   UNL     1     149.256 134.189 150.840  1.00  0.00     0.008 C 
ATOM      7  C   UNL     1     149.427 134.734 149.419  1.00  0.00     0.005 C 
ATOM      8  C   UNL     1     150.186 136.094 149.350  1.00  0.00     0.003 C 
ATOM      9  C   UNL     1     150.483 136.697 150.748  1.00  0.00     0.000 C 
ATOM     10  C   UNL     1     151.384 137.945 150.603  1.00  0.00     0.031 C 
ATOM     11  C   UNL     1     151.016 138.852 149.462  1.00  0.00    -0.027 C 
ATOM     12  C   UNL     1     150.307 138.455 148.386  1.00  0.00    -0.065 C 
ATOM     13  C   UNL     1     149.506 137.147 148.389  1.00  0.00    -0.008 C 
ATOM     14  C   UNL     1     149.483 136.556 146.943  1.00  0.00     0.014 C 
ATOM     15  C   UNL     1     149.154 137.585 145.853  1.00  0.00     0.033 C 
ATOM     16  C   UNL     1     150.139 138.755 145.893  1.00  0.00     0.118 C 
ATOM     17  C   UNL     1     150.092 139.449 147.260  1.00  0.00     0.063 C 
ATOM     18  C   UNL     1     148.058 137.500 148.838  1.00  0.00     0.016 C 
ATOM     19  C   UNL     1     151.603 133.235 151.021  1.00  0.00     0.012 C 
ENDROOT
BRANCH   1  20
ATOM     20  C   UNL     1     149.284 132.767 153.384  1.00  0.00     0.133 C 
ATOM     21  C   UNL     1     149.544 131.301 153.174  1.00  0.00     0.088 C 
ATOM     22  O   UNL     1     148.171 133.117 153.750  1.00  0.00    -0.300 OA
ENDBRANCH   1  20
BRANCH  16  23
ATOM     23  O   UNL     1     149.804 139.670 144.883  1.00  0.00    -0.393 OA
ATOM     24  H   UNL     1     150.103 139.270 144.024  1.00  0.00     0.210 HD
ENDBRANCH  16  23
TORSDOF 2
ENDMDL
MODEL 4
REMARK VINA RESULT:    -6.175      3.341      5.312
REMARK INTER + INTRA:          -6.889
REMARK INTER:                  -6.759
REMARK INTRA:                  -0.130
REMARK UNBOUND:                -0.172
REMARK SMILES CC(=O)[C@@H]1CC[C@@H]2[C@H]3CC=C4C[C@H](O)CC[C@@]4(C)[C@@H]3CC[C@@]21C
REMARK SMILES IDX 4 1 5 2 6 3 7 4 22 5 21 6 20 7 19 8 8 9 9 10 10 11 11 12
REMARK SMILES IDX 17 13 16 14 15 15 13 16 12 17 18 18 23 19 2 20 1 21 3 22
REMARK SMILES IDX 14 23
REMARK H PARENT 14 24
REMARK Flexibility Score: inf
ROOT
ATOM      1  C   UNL     1     139.029 133.118 148.631  1.00  0.00     0.062 C 
ATOM      2  C   UNL     1     139.972 133.159 147.438  1.00  0.00     0.012 C 
ATOM      3  C   UNL     1     141.129 134.016 147.908  1.00  0.00     0.005 C 
ATOM      4  C   UNL     1     141.282 133.748 149.420  1.00  0.00    -0.001 C 
ATOM      5  C   UNL     1     139.962 133.040 149.877  1.00  0.00    -0.020 C 
ATOM      6  C   UNL     1     140.241 131.569 150.288  1.00  0.00     0.008 C 
ATOM      7  C   UNL     1     141.296 131.458 151.392  1.00  0.00     0.005 C 
ATOM      8  C   UNL     1     142.584 132.297 151.125  1.00  0.00     0.003 C 
ATOM      9  C   UNL     1     142.599 132.956 149.721  1.00  0.00     0.000 C 
ATOM     10  C   UNL     1     143.814 133.905 149.599  1.00  0.00     0.031 C 
ATOM     11  C   UNL     1     145.089 133.366 150.185  1.00  0.00    -0.027 C 
ATOM     12  C   UNL     1     145.134 132.399 151.123  1.00  0.00    -0.065 C 
ATOM     13  C   UNL     1     143.920 131.509 151.420  1.00  0.00    -0.008 C 
ATOM     14  C   UNL     1     143.936 131.106 152.928  1.00  0.00     0.014 C 
ATOM     15  C   UNL     1     145.304 130.627 153.432  1.00  0.00     0.033 C 
ATOM     16  C   UNL     1     146.376 131.693 153.194  1.00  0.00     0.118 C 
ATOM     17  C   UNL     1     146.485 132.020 151.700  1.00  0.00     0.063 C 
ATOM     18  C   UNL     1     144.059 130.238 150.531  1.00  0.00     0.016 C 
ATOM     19  C   UNL     1     139.312 133.804 151.059  1.00  0.00     0.012 C 
ENDROOT
BRANCH   1  20
ATOM     20  C   UNL     1     137.944 132.053 148.560  1.00  0.00     0.133 C 
ATOM     21  C   UNL     1     136.744 132.054 149.467  1.00  0.00     0.088 C 
ATOM     22  O   UNL     1     138.059 131.151 147.742  1.00  0.00    -0.300 OA
ENDBRANCH   1  20
BRANCH  16  23
ATOM     23  O   UNL     1     147.608 131.217 153.669  1.00  0.00    -0.393 OA
ATOM     24  H   UNL     1     147.408 130.622 154.439  1.00  0.00     0.210 HD
ENDBRANCH  16  23
TORSDOF 2
ENDMDL
MODEL 5
REMARK VINA RESULT:    -6.097      4.709      7.919
REMARK INTER + INTRA:          -6.803
REMARK INTER:                  -6.631
REMARK INTRA:                  -0.172
REMARK UNBOUND:                -0.172
REMARK SMILES CC(=O)[C@@H]1CC[C@@H]2[C@H]3CC=C4C[C@H](O)CC[C@@]4(C)[C@@H]3CC[C@@]21C
REMARK SMILES IDX 4 1 5 2 6 3 7 4 22 5 21 6 20 7 19 8 8 9 9 10 10 11 11 12
REMARK SMILES IDX 17 13 16 14 15 15 13 16 12 17 18 18 23 19 2 20 1 21 3 22
REMARK SMILES IDX 14 23
REMARK H PARENT 14 24
REMARK Flexibility Score: inf
ROOT
ATOM      1  C   UNL     1     138.526 133.683 142.860  1.00  0.00     0.062 C 
ATOM      2  C   UNL     1     140.021 133.404 142.875  1.00  0.00     0.012 C 
ATOM      3  C   UNL     1     140.566 134.358 143.917  1.00  0.00     0.005 C 
ATOM      4  C   UNL     1     139.467 134.506 144.989  1.00  0.00    -0.001 C 
ATOM      5  C   UNL     1     138.152 133.944 144.350  1.00  0.00    -0.020 C 
ATOM      6  C   UNL     1     137.709 132.638 145.064  1.00  0.00     0.008 C 
ATOM      7  C   UNL     1     137.511 132.829 146.570  1.00  0.00     0.005 C 
ATOM      8  C   UNL     1     138.689 133.568 147.275  1.00  0.00     0.003 C 
ATOM      9  C   UNL     1     139.895 133.827 146.334  1.00  0.00     0.000 C 
ATOM     10  C   UNL     1     140.942 134.710 147.050  1.00  0.00     0.031 C 
ATOM     11  C   UNL     1     141.182 134.351 148.490  1.00  0.00    -0.027 C 
ATOM     12  C   UNL     1     140.301 133.672 149.251  1.00  0.00    -0.065 C 
ATOM     13  C   UNL     1     139.136 132.892 148.630  1.00  0.00    -0.008 C 
ATOM     14  C   UNL     1     137.924 132.908 149.615  1.00  0.00     0.014 C 
ATOM     15  C   UNL     1     138.297 132.585 151.069  1.00  0.00     0.033 C 
ATOM     16  C   UNL     1     139.366 133.550 151.584  1.00  0.00     0.118 C 
ATOM     17  C   UNL     1     140.629 133.464 150.718  1.00  0.00     0.063 C 
ATOM     18  C   UNL     1     139.626 131.429 148.420  1.00  0.00     0.016 C 
ATOM     19  C   UNL     1     137.015 134.995 144.422  1.00  0.00     0.012 C 
ENDROOT
BRANCH   1  20
ATOM     20  C   UNL     1     137.681 132.635 142.149  1.00  0.00     0.133 C 
ATOM     21  C   UNL     1     138.202 131.266 141.809  1.00  0.00     0.088 C 
ATOM     22  O   UNL     1     136.536 132.922 141.828  1.00  0.00    -0.300 OA
ENDBRANCH   1  20
BRANCH  16  23
ATOM     23  O   UNL     1     139.677 133.222 152.913  1.00  0.00    -0.393 OA
ATOM     24  H   UNL     1     140.413 132.557 152.880  1.00  0.00     0.210 HD
ENDBRANCH  16  23
TORSDOF 2
ENDMDL
MODEL 6
REMARK VINA RESULT:    -6.071      1.506      7.128
REMARK INTER + INTRA:          -6.776
REMARK INTER:                  -6.659
REMARK INTRA:                  -0.117
REMARK UNBOUND:                -0.172
REMARK SMILES CC(=O)[C@@H]1CC[C@@H]2[C@H]3CC=C4C[C@H](O)CC[C@@]4(C)[C@@H]3CC[C@@]21C
REMARK SMILES IDX 4 1 5 2 6 3 7 4 22 5 21 6 20 7 19 8 8 9 9 10 10 11 11 12
REMARK SMILES IDX 17 13 16 14 15 15 13 16 12 17 18 18 23 19 2 20 1 21 3 22
REMARK SMILES IDX 14 23
REMARK H PARENT 14 24
REMARK Flexibility Score: inf
ROOT
ATOM      1  C   UNL     1     149.212 137.034 147.651  1.00  0.00     0.062 C 
ATOM      2  C   UNL     1     149.699 135.604 147.829  1.00  0.00     0.012 C 
ATOM      3  C   UNL     1     149.022 135.136 149.100  1.00  0.00     0.005 C 
ATOM      4  C   UNL     1     147.651 135.842 149.146  1.00  0.00    -0.001 C 
ATOM      5  C   UNL     1     147.721 137.008 148.104  1.00  0.00    -0.020 C 
ATOM      6  C   UNL     1     146.768 136.735 146.909  1.00  0.00     0.008 C 
ATOM      7  C   UNL     1     145.317 136.525 147.351  1.00  0.00     0.005 C 
ATOM      8  C   UNL     1     145.154 135.521 148.534  1.00  0.00     0.003 C 
ATOM      9  C   UNL     1     146.483 134.821 148.925  1.00  0.00     0.000 C 
ATOM     10  C   UNL     1     146.279 133.981 150.206  1.00  0.00     0.031 C 
ATOM     11  C   UNL     1     144.989 133.211 150.248  1.00  0.00    -0.027 C 
ATOM     12  C   UNL     1     143.899 133.529 149.521  1.00  0.00    -0.065 C 
ATOM     13  C   UNL     1     143.984 134.482 148.322  1.00  0.00    -0.008 C 
ATOM     14  C   UNL     1     142.641 135.268 148.195  1.00  0.00     0.014 C 
ATOM     15  C   UNL     1     141.389 134.388 148.312  1.00  0.00     0.033 C 
ATOM     16  C   UNL     1     141.387 133.616 149.633  1.00  0.00     0.118 C 
ATOM     17  C   UNL     1     142.631 132.725 149.735  1.00  0.00     0.063 C 
ATOM     18  C   UNL     1     144.204 133.603 147.056  1.00  0.00     0.016 C 
ATOM     19  C   UNL     1     147.359 138.361 148.769  1.00  0.00     0.012 C 
ENDROOT
BRANCH   1  20
ATOM     20  C   UNL     1     149.466 137.636 146.277  1.00  0.00     0.133 C 
ATOM     21  C   UNL     1     149.291 139.102 145.987  1.00  0.00     0.088 C 
ATOM     22  O   UNL     1     149.814 136.897 145.367  1.00  0.00    -0.300 OA
ENDBRANCH   1  20
BRANCH  16  23
ATOM     23  O   UNL     1     140.229 132.827 149.701  1.00  0.00    -0.393 OA
ATOM     24  H   UNL     1     140.470 131.931 149.346  1.00  0.00     0.210 HD
ENDBRANCH  16  23
TORSDOF 2
ENDMDL
MODEL 7
REMARK VINA RESULT:    -6.018      1.196      6.803
REMARK INTER + INTRA:          -6.718
REMARK INTER:                  -6.584
REMARK INTRA:                  -0.134
REMARK UNBOUND:                -0.172
REMARK SMILES CC(=O)[C@@H]1CC[C@@H]2[C@H]3CC=C4C[C@H](O)CC[C@@]4(C)[C@@H]3CC[C@@]21C
REMARK SMILES IDX 4 1 5 2 6 3 7 4 22 5 21 6 20 7 19 8 8 9 9 10 10 11 11 12
REMARK SMILES IDX 17 13 16 14 15 15 13 16 12 17 18 18 23 19 2 20 1 21 3 22
REMARK SMILES IDX 14 23
REMARK H PARENT 14 24
REMARK Flexibility Score: inf
ROOT
ATOM      1  C   UNL     1     146.536 136.377 148.369  1.00  0.00     0.062 C 
ATOM      2  C   UNL     1     147.246 135.034 148.305  1.00  0.00     0.012 C 
ATOM      3  C   UNL     1     146.819 134.327 149.575  1.00  0.00     0.005 C 
ATOM      4  C   UNL     1     145.378 134.795 149.868  1.00  0.00    -0.001 C 
ATOM      5  C   UNL     1     145.138 136.063 148.982  1.00  0.00    -0.020 C 
ATOM      6  C   UNL     1     144.085 135.772 147.879  1.00  0.00     0.008 C 
ATOM      7  C   UNL     1     142.752 135.283 148.454  1.00  0.00     0.005 C 
ATOM      8  C   UNL     1     142.897 134.144 149.509  1.00  0.00     0.003 C 
ATOM      9  C   UNL     1     144.354 133.630 149.653  1.00  0.00     0.000 C 
ATOM     10  C   UNL     1     144.446 132.634 150.831  1.00  0.00     0.031 C 
ATOM     11  C   UNL     1     143.299 131.666 150.922  1.00  0.00    -0.027 C 
ATOM     12  C   UNL     1     142.088 131.882 150.371  1.00  0.00    -0.065 C 
ATOM     13  C   UNL     1     141.873 132.960 149.302  1.00  0.00    -0.008 C 
ATOM     14  C   UNL     1     140.424 133.529 149.431  1.00  0.00     0.014 C 
ATOM     15  C   UNL     1     139.341 132.451 149.577  1.00  0.00     0.033 C 
ATOM     16  C   UNL     1     139.628 131.551 150.780  1.00  0.00     0.118 C 
ATOM     17  C   UNL     1     140.991 130.866 150.625  1.00  0.00     0.063 C 
ATOM     18  C   UNL     1     142.048 132.271 147.917  1.00  0.00     0.016 C 
ATOM     19  C   UNL     1     144.674 137.259 149.851  1.00  0.00     0.012 C 
ENDROOT
BRANCH   1  20
ATOM     20  C   UNL     1     146.515 137.158 147.062  1.00  0.00     0.133 C 
ATOM     21  C   UNL     1     146.186 138.624 146.998  1.00  0.00     0.088 C 
ATOM     22  O   UNL     1     146.762 136.567 146.021  1.00  0.00    -0.300 OA
ENDBRANCH   1  20
BRANCH  16  23
ATOM     23  O   UNL     1     138.616 130.583 150.879  1.00  0.00    -0.393 OA
ATOM     24  H   UNL     1     139.063 129.722 151.095  1.00  0.00     0.210 HD
ENDBRANCH  16  23
TORSDOF 2
ENDMDL
MODEL 8
REMARK VINA RESULT:    -5.983      4.269      7.398
REMARK INTER + INTRA:          -6.680
REMARK INTER:                  -6.618
REMARK INTRA:                  -0.062
REMARK UNBOUND:                -0.172
REMARK SMILES CC(=O)[C@@H]1CC[C@@H]2[C@H]3CC=C4C[C@H](O)CC[C@@]4(C)[C@@H]3CC[C@@]21C
REMARK SMILES IDX 4 1 5 2 6 3 7 4 22 5 21 6 20 7 19 8 8 9 9 10 10 11 11 12
REMARK SMILES IDX 17 13 16 14 15 15 13 16 12 17 18 18 23 19 2 20 1 21 3 22
REMARK SMILES IDX 14 23
REMARK H PARENT 14 24
REMARK Flexibility Score: inf
ROOT
ATOM      1  C   UNL     1     138.575 133.649 143.735  1.00  0.00     0.062 C 
ATOM      2  C   UNL     1     137.749 134.762 144.362  1.00  0.00     0.012 C 
ATOM      3  C   UNL     1     137.132 134.121 145.587  1.00  0.00     0.005 C 
ATOM      4  C   UNL     1     138.159 133.092 146.104  1.00  0.00    -0.001 C 
ATOM      5  C   UNL     1     139.186 132.875 144.942  1.00  0.00    -0.020 C 
ATOM      6  C   UNL     1     140.582 133.435 145.330  1.00  0.00     0.008 C 
ATOM      7  C   UNL     1     141.124 132.816 146.621  1.00  0.00     0.005 C 
ATOM      8  C   UNL     1     140.098 132.800 147.796  1.00  0.00     0.003 C 
ATOM      9  C   UNL     1     138.782 133.553 147.465  1.00  0.00     0.000 C 
ATOM     10  C   UNL     1     137.757 133.345 148.602  1.00  0.00     0.031 C 
ATOM     11  C   UNL     1     138.334 133.426 149.987  1.00  0.00    -0.027 C 
ATOM     12  C   UNL     1     139.638 133.232 150.269  1.00  0.00    -0.065 C 
ATOM     13  C   UNL     1     140.712 133.267 149.174  1.00  0.00    -0.008 C 
ATOM     14  C   UNL     1     141.869 132.291 149.558  1.00  0.00     0.014 C 
ATOM     15  C   UNL     1     142.338 132.422 151.013  1.00  0.00     0.033 C 
ATOM     16  C   UNL     1     141.173 132.213 151.983  1.00  0.00     0.118 C 
ATOM     17  C   UNL     1     140.069 133.244 151.724  1.00  0.00     0.063 C 
ATOM     18  C   UNL     1     141.250 134.727 149.110  1.00  0.00     0.016 C 
ATOM     19  C   UNL     1     139.302 131.370 144.587  1.00  0.00     0.012 C 
ENDROOT
BRANCH   1  20
ATOM     20  C   UNL     1     139.573 134.103 142.679  1.00  0.00     0.133 C 
ATOM     21  C   UNL     1     139.961 133.244 141.507  1.00  0.00     0.088 C 
ATOM     22  O   UNL     1     140.090 135.204 142.794  1.00  0.00    -0.300 OA
ENDBRANCH   1  20
BRANCH  16  23
ATOM     23  O   UNL     1     141.645 132.339 153.299  1.00  0.00    -0.393 OA
ATOM     24  H   UNL     1     142.429 132.947 153.265  1.00  0.00     0.210 HD
ENDBRANCH  16  23
TORSDOF 2
ENDMDL
MODEL 9
REMARK VINA RESULT:    -5.878      6.016      8.757
REMARK INTER + INTRA:          -6.566
REMARK INTER:                  -6.434
REMARK INTRA:                  -0.131
REMARK UNBOUND:                -0.172
REMARK SMILES CC(=O)[C@@H]1CC[C@@H]2[C@H]3CC=C4C[C@H](O)CC[C@@]4(C)[C@@H]3CC[C@@]21C
REMARK SMILES IDX 4 1 5 2 6 3 7 4 22 5 21 6 20 7 19 8 8 9 9 10 10 11 11 12
REMARK SMILES IDX 17 13 16 14 15 15 13 16 12 17 18 18 23 19 2 20 1 21 3 22
REMARK SMILES IDX 14 23
REMARK H PARENT 14 24
REMARK Flexibility Score: inf
ROOT
ATOM      1  C   UNL     1     149.480 139.264 146.820  1.00  0.00     0.062 C 
ATOM      2  C   UNL     1     150.999 139.300 146.903  1.00  0.00     0.012 C 
ATOM      3  C   UNL     1     151.286 139.445 148.383  1.00  0.00     0.005 C 
ATOM      4  C   UNL     1     150.164 138.684 149.120  1.00  0.00    -0.001 C 
ATOM      5  C   UNL     1     149.030 138.445 148.067  1.00  0.00    -0.020 C 
ATOM      6  C   UNL     1     148.896 136.933 147.737  1.00  0.00     0.008 C 
ATOM      7  C   UNL     1     148.633 136.081 148.982  1.00  0.00     0.005 C 
ATOM      8  C   UNL     1     149.592 136.388 150.174  1.00  0.00     0.003 C 
ATOM      9  C   UNL     1     150.718 137.389 149.806  1.00  0.00     0.000 C 
ATOM     10  C   UNL     1     151.515 137.774 151.073  1.00  0.00     0.031 C 
ATOM     11  C   UNL     1     151.808 136.627 151.999  1.00  0.00    -0.027 C 
ATOM     12  C   UNL     1     151.100 135.480 152.022  1.00  0.00    -0.065 C 
ATOM     13  C   UNL     1     150.162 135.092 150.872  1.00  0.00    -0.008 C 
ATOM     14  C   UNL     1     148.964 134.268 151.443  1.00  0.00     0.014 C 
ATOM     15  C   UNL     1     149.378 133.162 152.423  1.00  0.00     0.033 C 
ATOM     16  C   UNL     1     150.181 133.740 153.590  1.00  0.00     0.118 C 
ATOM     17  C   UNL     1     151.442 134.444 153.077  1.00  0.00     0.063 C 
ATOM     18  C   UNL     1     150.988 134.212 149.888  1.00  0.00     0.016 C 
ATOM     19  C   UNL     1     147.676 138.993 148.585  1.00  0.00     0.012 C 
ENDROOT
BRANCH   1  20
ATOM     20  C   UNL     1     148.919 138.786 145.488  1.00  0.00     0.133 C 
ATOM     21  C   UNL     1     147.484 138.997 145.089  1.00  0.00     0.088 C 
ATOM     22  O   UNL     1     149.660 138.195 144.716  1.00  0.00    -0.300 OA
ENDBRANCH   1  20
BRANCH  16  23
ATOM     23  O   UNL     1     150.538 132.699 154.461  1.00  0.00    -0.393 OA
ATOM     24  H   UNL     1     149.704 132.407 154.915  1.00  0.00     0.210 HD
ENDBRANCH  16  23
TORSDOF 2
ENDMDL
