MODEL 1
REMARK VINA RESULT:    -6.056      0.000      0.000
REMARK INTER + INTRA:         -15.597
REMARK INTER:                 -13.137
REMARK INTRA:                  -2.460
REMARK UNBOUND:                -2.460
REMARK SMILES CCCCCCCCCCCCCCCCCCCCCC(=O)[O-]
REMARK SMILES IDX 12 1 11 2 10 3 9 4 8 5 7 6 6 7 5 8 4 9 3 10 2 11 1 12 13 13
REMARK SMILES IDX 14 14 15 15 16 16 17 17 18 18 19 19 20 20 21 21 22 22 23 23
REMARK SMILES IDX 24 24
REMARK H PARENT
REMARK Flexibility Score: inf
ROOT
ATOM      1  C   UNL     1      12.395   5.202  53.424  1.00  0.00     0.000 C 
ENDROOT
BRANCH   1   2
ATOM      2  C   UNL     1      11.794   3.837  53.049  1.00  0.00     0.000 C 
BRANCH   2   3
ATOM      3  C   UNL     1      10.967   3.224  54.194  1.00  0.00     0.000 C 
BRANCH   3   4
ATOM      4  C   UNL     1       9.954   4.215  54.787  1.00  0.00    -0.000 C 
BRANCH   4   5
ATOM      5  C   UNL     1       9.994   4.265  56.323  1.00  0.00    -0.000 C 
BRANCH   5   6
ATOM      6  C   UNL     1      11.386   4.672  56.820  1.00  0.00    -0.000 C 
BRANCH   6   7
ATOM      7  C   UNL     1      12.003   3.579  57.704  1.00  0.00    -0.000 C 
BRANCH   7   8
ATOM      8  C   UNL     1      13.154   2.827  57.012  1.00  0.00    -0.000 C 
BRANCH   8   9
ATOM      9  C   UNL     1      13.341   1.368  57.468  1.00  0.00    -0.000 C 
BRANCH   9  10
ATOM     10  C   UNL     1      14.821   0.980  57.627  1.00  0.00    -0.000 C 
BRANCH  10  11
ATOM     11  C   UNL     1      15.641   1.250  56.356  1.00  0.00    -0.003 C 
ATOM     12  C   UNL     1      16.524   0.068  55.960  1.00  0.00     0.004 C 
ENDBRANCH  10  11
ENDBRANCH   9  10
ENDBRANCH   8   9
ENDBRANCH   7   8
ENDBRANCH   6   7
ENDBRANCH   5   6
ENDBRANCH   4   5
ENDBRANCH   3   4
ENDBRANCH   2   3
ENDBRANCH   1   2
BRANCH   1  13
ATOM     13  C   UNL     1      11.764   6.361  52.629  1.00  0.00     0.000 C 
BRANCH  13  14
ATOM     14  C   UNL     1      11.862   7.707  53.367  1.00  0.00     0.000 C 
BRANCH  14  15
ATOM     15  C   UNL     1      11.370   7.624  54.821  1.00  0.00     0.000 C 
BRANCH  15  16
ATOM     16  C   UNL     1      11.296   9.022  55.454  1.00  0.00     0.000 C 
BRANCH  16  17
ATOM     17  C   UNL     1       9.849   9.482  55.694  1.00  0.00     0.000 C 
BRANCH  17  18
ATOM     18  C   UNL     1       8.816   8.423  55.277  1.00  0.00     0.000 C 
BRANCH  18  19
ATOM     19  C   UNL     1       7.505   9.086  54.827  1.00  0.00     0.000 C 
BRANCH  19  20
ATOM     20  C   UNL     1       7.197   8.852  53.340  1.00  0.00     0.006 C 
BRANCH  20  21
ATOM     21  C   UNL     1       8.254   7.982  52.644  1.00  0.00     0.053 C 
BRANCH  21  22
ATOM     22  C   UNL     1       8.630   8.575  51.323  1.00  0.00     0.041 C 
ATOM     23  O   UNL     1       8.100   9.648  50.935  1.00  0.00    -0.550 OA
ATOM     24  O   UNL     1       9.530   7.914  50.494  1.00  0.00    -0.550 OA
ENDBRANCH  21  22
ENDBRANCH  20  21
ENDBRANCH  19  20
ENDBRANCH  18  19
ENDBRANCH  17  18
ENDBRANCH  16  17
ENDBRANCH  15  16
ENDBRANCH  14  15
ENDBRANCH  13  14
ENDBRANCH   1  13
TORSDOF 20
ENDMDL
MODEL 2
REMARK VINA RESULT:    -5.910      3.941      8.485
REMARK INTER + INTRA:         -15.279
REMARK INTER:                 -12.460
REMARK INTRA:                  -2.820
REMARK UNBOUND:                -2.460
REMARK SMILES CCCCCCCCCCCCCCCCCCCCCC(=O)[O-]
REMARK SMILES IDX 12 1 11 2 10 3 9 4 8 5 7 6 6 7 5 8 4 9 3 10 2 11 1 12 13 13
REMARK SMILES IDX 14 14 15 15 16 16 17 17 18 18 19 19 20 20 21 21 22 22 23 23
REMARK SMILES IDX 24 24
REMARK H PARENT
REMARK Flexibility Score: inf
ROOT
ATOM      1  C   UNL     1      11.069   3.230  54.139  1.00  0.00     0.000 C 
ENDROOT
BRANCH   1   2
ATOM      2  C   UNL     1      11.776   3.997  53.008  1.00  0.00     0.000 C 
BRANCH   2   3
ATOM      3  C   UNL     1      12.146   5.435  53.415  1.00  0.00     0.000 C 
BRANCH   3   4
ATOM      4  C   UNL     1      11.371   6.493  52.613  1.00  0.00    -0.000 C 
BRANCH   4   5
ATOM      5  C   UNL     1      11.361   7.870  53.295  1.00  0.00    -0.000 C 
BRANCH   5   6
ATOM      6  C   UNL     1      10.822   7.768  54.727  1.00  0.00    -0.000 C 
BRANCH   6   7
ATOM      7  C   UNL     1       9.311   7.498  54.734  1.00  0.00    -0.000 C 
BRANCH   7   8
ATOM      8  C   UNL     1       8.484   8.736  55.126  1.00  0.00    -0.000 C 
BRANCH   8   9
ATOM      9  C   UNL     1       8.111   9.663  53.955  1.00  0.00    -0.000 C 
BRANCH   9  10
ATOM     10  C   UNL     1       7.042   9.055  53.031  1.00  0.00    -0.000 C 
BRANCH  10  11
ATOM     11  C   UNL     1       7.327   9.324  51.545  1.00  0.00    -0.003 C 
ATOM     12  C   UNL     1       8.639   8.700  51.073  1.00  0.00     0.004 C 
ENDBRANCH  10  11
ENDBRANCH   9  10
ENDBRANCH   8   9
ENDBRANCH   7   8
ENDBRANCH   6   7
ENDBRANCH   5   6
ENDBRANCH   4   5
ENDBRANCH   3   4
ENDBRANCH   2   3
ENDBRANCH   1   2
BRANCH   1  13
ATOM     13  C   UNL     1       9.719   3.862  54.525  1.00  0.00     0.000 C 
BRANCH  13  14
ATOM     14  C   UNL     1       9.621   4.176  56.027  1.00  0.00     0.000 C 
BRANCH  14  15
ATOM     15  C   UNL     1      10.938   4.714  56.608  1.00  0.00     0.000 C 
BRANCH  15  16
ATOM     16  C   UNL     1      11.528   3.730  57.631  1.00  0.00     0.000 C 
BRANCH  16  17
ATOM     17  C   UNL     1      13.020   3.454  57.387  1.00  0.00     0.000 C 
BRANCH  17  18
ATOM     18  C   UNL     1      13.639   4.417  56.361  1.00  0.00     0.000 C 
BRANCH  18  19
ATOM     19  C   UNL     1      14.854   3.775  55.672  1.00  0.00     0.000 C 
BRANCH  19  20
ATOM     20  C   UNL     1      15.027   2.291  56.029  1.00  0.00     0.006 C 
BRANCH  20  21
ATOM     21  C   UNL     1      16.387   1.729  55.591  1.00  0.00     0.053 C 
BRANCH  21  22
ATOM     22  C   UNL     1      16.662   0.430  56.282  1.00  0.00     0.041 C 
ATOM     23  O   UNL     1      16.595  -0.653  55.645  1.00  0.00    -0.550 OA
ATOM     24  O   UNL     1      16.944   0.411  57.643  1.00  0.00    -0.550 OA
ENDBRANCH  21  22
ENDBRANCH  20  21
ENDBRANCH  19  20
ENDBRANCH  18  19
ENDBRANCH  17  18
ENDBRANCH  16  17
ENDBRANCH  15  16
ENDBRANCH  14  15
ENDBRANCH  13  14
ENDBRANCH   1  13
TORSDOF 20
ENDMDL
MODEL 3
REMARK VINA RESULT:    -5.779      1.231      2.280
REMARK INTER + INTRA:         -14.996
REMARK INTER:                 -12.177
REMARK INTRA:                  -2.820
REMARK UNBOUND:                -2.460
REMARK SMILES CCCCCCCCCCCCCCCCCCCCCC(=O)[O-]
REMARK SMILES IDX 12 1 11 2 10 3 9 4 8 5 7 6 6 7 5 8 4 9 3 10 2 11 1 12 13 13
REMARK SMILES IDX 14 14 15 15 16 16 17 17 18 18 19 19 20 20 21 21 22 22 23 23
REMARK SMILES IDX 24 24
REMARK H PARENT
REMARK Flexibility Score: inf
ROOT
ATOM      1  C   UNL     1      10.849   3.072  54.287  1.00  0.00     0.000 C 
ENDROOT
BRANCH   1   2
ATOM      2  C   UNL     1      11.683   3.977  53.364  1.00  0.00     0.000 C 
BRANCH   2   3
ATOM      3  C   UNL     1      12.843   4.664  54.107  1.00  0.00     0.000 C 
BRANCH   3   4
ATOM      4  C   UNL     1      13.414   3.799  55.241  1.00  0.00    -0.000 C 
BRANCH   4   5
ATOM      5  C   UNL     1      13.267   4.454  56.624  1.00  0.00    -0.000 C 
BRANCH   5   6
ATOM      6  C   UNL     1      12.599   3.493  57.616  1.00  0.00    -0.000 C 
BRANCH   6   7
ATOM      7  C   UNL     1      12.926   2.032  57.280  1.00  0.00    -0.000 C 
BRANCH   7   8
ATOM      8  C   UNL     1      13.610   1.289  58.442  1.00  0.00    -0.000 C 
BRANCH   8   9
ATOM      9  C   UNL     1      15.089   0.932  58.202  1.00  0.00    -0.000 C 
BRANCH   9  10
ATOM     10  C   UNL     1      15.361   0.457  56.764  1.00  0.00    -0.000 C 
BRANCH  10  11
ATOM     11  C   UNL     1      16.675   1.014  56.198  1.00  0.00    -0.003 C 
ATOM     12  C   UNL     1      16.500   2.379  55.534  1.00  0.00     0.004 C 
ENDBRANCH  10  11
ENDBRANCH   9  10
ENDBRANCH   8   9
ENDBRANCH   7   8
ENDBRANCH   6   7
ENDBRANCH   5   6
ENDBRANCH   4   5
ENDBRANCH   3   4
ENDBRANCH   2   3
ENDBRANCH   1   2
BRANCH   1  13
ATOM     13  C   UNL     1       9.538   3.742  54.740  1.00  0.00     0.000 C 
BRANCH  13  14
ATOM     14  C   UNL     1       9.775   4.899  55.725  1.00  0.00     0.000 C 
BRANCH  14  15
ATOM     15  C   UNL     1       9.419   6.270  55.129  1.00  0.00     0.000 C 
BRANCH  15  16
ATOM     16  C   UNL     1      10.585   7.258  55.292  1.00  0.00     0.000 C 
BRANCH  16  17
ATOM     17  C   UNL     1      10.113   8.719  55.343  1.00  0.00     0.000 C 
BRANCH  17  18
ATOM     18  C   UNL     1       8.590   8.855  55.174  1.00  0.00     0.000 C 
BRANCH  18  19
ATOM     19  C   UNL     1       8.248   9.981  54.186  1.00  0.00     0.000 C 
BRANCH  19  20
ATOM     20  C   UNL     1       8.835   9.745  52.786  1.00  0.00     0.006 C 
BRANCH  20  21
ATOM     21  C   UNL     1       8.469   8.369  52.213  1.00  0.00     0.053 C 
BRANCH  21  22
ATOM     22  C   UNL     1       9.567   7.862  51.331  1.00  0.00     0.041 C 
ATOM     23  O   UNL     1      10.487   7.149  51.811  1.00  0.00    -0.550 OA
ATOM     24  O   UNL     1       9.605   8.219  49.988  1.00  0.00    -0.550 OA
ENDBRANCH  21  22
ENDBRANCH  20  21
ENDBRANCH  19  20
ENDBRANCH  18  19
ENDBRANCH  17  18
ENDBRANCH  16  17
ENDBRANCH  15  16
ENDBRANCH  14  15
ENDBRANCH  13  14
ENDBRANCH   1  13
TORSDOF 20
ENDMDL
MODEL 4
REMARK VINA RESULT:    -5.237      3.350      8.404
REMARK INTER + INTRA:         -13.821
REMARK INTER:                 -11.314
REMARK INTRA:                  -2.507
REMARK UNBOUND:                -2.460
REMARK SMILES CCCCCCCCCCCCCCCCCCCCCC(=O)[O-]
REMARK SMILES IDX 12 1 11 2 10 3 9 4 8 5 7 6 6 7 5 8 4 9 3 10 2 11 1 12 13 13
REMARK SMILES IDX 14 14 15 15 16 16 17 17 18 18 19 19 20 20 21 21 22 22 23 23
REMARK SMILES IDX 24 24
REMARK H PARENT
REMARK Flexibility Score: inf
ROOT
ATOM      1  C   UNL     1      11.993   4.623  52.668  1.00  0.00     0.000 C 
ENDROOT
BRANCH   1   2
ATOM      2  C   UNL     1      12.393   6.059  53.043  1.00  0.00     0.000 C 
BRANCH   2   3
ATOM      3  C   UNL     1      11.173   6.976  53.245  1.00  0.00     0.000 C 
BRANCH   3   4
ATOM      4  C   UNL     1      11.485   8.185  54.142  1.00  0.00    -0.000 C 
BRANCH   4   5
ATOM      5  C   UNL     1      10.555   8.280  55.361  1.00  0.00    -0.000 C 
BRANCH   5   6
ATOM      6  C   UNL     1       9.467   9.338  55.138  1.00  0.00    -0.000 C 
BRANCH   6   7
ATOM      7  C   UNL     1       8.065   8.717  55.211  1.00  0.00    -0.000 C 
BRANCH   7   8
ATOM      8  C   UNL     1       7.221   8.996  53.954  1.00  0.00    -0.000 C 
BRANCH   8   9
ATOM      9  C   UNL     1       7.865   8.551  52.628  1.00  0.00    -0.000 C 
BRANCH   9  10
ATOM     10  C   UNL     1       7.998   9.701  51.615  1.00  0.00    -0.000 C 
BRANCH  10  11
ATOM     11  C   UNL     1       9.461  10.004  51.257  1.00  0.00    -0.003 C 
ATOM     12  C   UNL     1       9.688  10.125  49.751  1.00  0.00     0.004 C 
ENDBRANCH  10  11
ENDBRANCH   9  10
ENDBRANCH   8   9
ENDBRANCH   7   8
ENDBRANCH   6   7
ENDBRANCH   5   6
ENDBRANCH   4   5
ENDBRANCH   3   4
ENDBRANCH   2   3
ENDBRANCH   1   2
BRANCH   1  13
ATOM     13  C   UNL     1      11.790   3.726  53.904  1.00  0.00     0.000 C 
BRANCH  13  14
ATOM     14  C   UNL     1      10.315   3.621  54.323  1.00  0.00     0.000 C 
BRANCH  14  15
ATOM     15  C   UNL     1      10.073   4.086  55.767  1.00  0.00     0.000 C 
BRANCH  15  16
ATOM     16  C   UNL     1      11.312   4.802  56.328  1.00  0.00     0.000 C 
BRANCH  16  17
ATOM     17  C   UNL     1      11.644   4.362  57.762  1.00  0.00     0.000 C 
BRANCH  17  18
ATOM     18  C   UNL     1      12.063   2.885  57.846  1.00  0.00     0.000 C 
BRANCH  18  19
ATOM     19  C   UNL     1      13.337   2.631  57.025  1.00  0.00     0.000 C 
BRANCH  19  20
ATOM     20  C   UNL     1      13.839   1.183  57.133  1.00  0.00     0.006 C 
BRANCH  20  21
ATOM     21  C   UNL     1      15.341   1.096  57.436  1.00  0.00     0.053 C 
BRANCH  21  22
ATOM     22  C   UNL     1      16.127   1.021  56.165  1.00  0.00     0.041 C 
ATOM     23  O   UNL     1      16.374   2.066  55.509  1.00  0.00    -0.550 OA
ATOM     24  O   UNL     1      16.543  -0.212  55.674  1.00  0.00    -0.550 OA
ENDBRANCH  21  22
ENDBRANCH  20  21
ENDBRANCH  19  20
ENDBRANCH  18  19
ENDBRANCH  17  18
ENDBRANCH  16  17
ENDBRANCH  15  16
ENDBRANCH  14  15
ENDBRANCH  13  14
ENDBRANCH   1  13
TORSDOF 20
ENDMDL
MODEL 5
REMARK VINA RESULT:    -5.093      3.825      8.583
REMARK INTER + INTRA:         -13.508
REMARK INTER:                 -11.309
REMARK INTRA:                  -2.199
REMARK UNBOUND:                -2.460
REMARK SMILES CCCCCCCCCCCCCCCCCCCCCC(=O)[O-]
REMARK SMILES IDX 12 1 11 2 10 3 9 4 8 5 7 6 6 7 5 8 4 9 3 10 2 11 1 12 13 13
REMARK SMILES IDX 14 14 15 15 16 16 17 17 18 18 19 19 20 20 21 21 22 22 23 23
REMARK SMILES IDX 24 24
REMARK H PARENT
REMARK Flexibility Score: inf
ROOT
ATOM      1  C   UNL     1      11.956   5.404  52.577  1.00  0.00     0.000 C 
ENDROOT
BRANCH   1   2
ATOM      2  C   UNL     1      11.543   6.883  52.650  1.00  0.00     0.000 C 
BRANCH   2   3
ATOM      3  C   UNL     1      10.194   7.153  51.960  1.00  0.00     0.000 C 
BRANCH   3   4
ATOM      4  C   UNL     1       9.864   8.651  51.873  1.00  0.00    -0.000 C 
BRANCH   4   5
ATOM      5  C   UNL     1       8.770   8.964  50.840  1.00  0.00    -0.000 C 
BRANCH   5   6
ATOM      6  C   UNL     1       7.390   9.028  51.507  1.00  0.00    -0.000 C 
BRANCH   6   7
ATOM      7  C   UNL     1       7.414   9.933  52.747  1.00  0.00    -0.000 C 
BRANCH   7   8
ATOM      8  C   UNL     1       6.875   9.234  54.008  1.00  0.00    -0.000 C 
BRANCH   8   9
ATOM      9  C   UNL     1       7.678   9.508  55.294  1.00  0.00    -0.000 C 
BRANCH   9  10
ATOM     10  C   UNL     1       9.047   8.807  55.301  1.00  0.00    -0.000 C 
BRANCH  10  11
ATOM     11  C   UNL     1      10.216   9.798  55.190  1.00  0.00    -0.003 C 
ATOM     12  C   UNL     1      11.546   9.196  55.643  1.00  0.00     0.004 C 
ENDBRANCH  10  11
ENDBRANCH   9  10
ENDBRANCH   8   9
ENDBRANCH   7   8
ENDBRANCH   6   7
ENDBRANCH   5   6
ENDBRANCH   4   5
ENDBRANCH   3   4
ENDBRANCH   2   3
ENDBRANCH   1   2
BRANCH   1  13
ATOM     13  C   UNL     1      11.694   4.653  53.896  1.00  0.00     0.000 C 
BRANCH  13  14
ATOM     14  C   UNL     1      11.773   5.572  55.126  1.00  0.00     0.000 C 
BRANCH  14  15
ATOM     15  C   UNL     1      11.457   4.838  56.439  1.00  0.00     0.000 C 
BRANCH  15  16
ATOM     16  C   UNL     1      11.466   3.316  56.231  1.00  0.00     0.000 C 
BRANCH  16  17
ATOM     17  C   UNL     1      12.746   2.657  56.768  1.00  0.00     0.000 C 
BRANCH  17  18
ATOM     18  C   UNL     1      13.954   3.608  56.744  1.00  0.00     0.000 C 
BRANCH  18  19
ATOM     19  C   UNL     1      14.782   3.408  55.465  1.00  0.00     0.000 C 
BRANCH  19  20
ATOM     20  C   UNL     1      16.189   2.860  55.744  1.00  0.00     0.006 C 
BRANCH  20  21
ATOM     21  C   UNL     1      16.263   1.331  55.641  1.00  0.00     0.053 C 
BRANCH  21  22
ATOM     22  C   UNL     1      16.376   0.720  57.003  1.00  0.00     0.041 C 
ATOM     23  O   UNL     1      17.458   0.197  57.375  1.00  0.00    -0.550 OA
ATOM     24  O   UNL     1      15.269   0.683  57.844  1.00  0.00    -0.550 OA
ENDBRANCH  21  22
ENDBRANCH  20  21
ENDBRANCH  19  20
ENDBRANCH  18  19
ENDBRANCH  17  18
ENDBRANCH  16  17
ENDBRANCH  15  16
ENDBRANCH  14  15
ENDBRANCH  13  14
ENDBRANCH   1  13
TORSDOF 20
ENDMDL
MODEL 6
REMARK VINA RESULT:    -5.062      3.809      8.219
REMARK INTER + INTRA:         -13.440
REMARK INTER:                 -11.105
REMARK INTRA:                  -2.335
REMARK UNBOUND:                -2.460
REMARK SMILES CCCCCCCCCCCCCCCCCCCCCC(=O)[O-]
REMARK SMILES IDX 12 1 11 2 10 3 9 4 8 5 7 6 6 7 5 8 4 9 3 10 2 11 1 12 13 13
REMARK SMILES IDX 14 14 15 15 16 16 17 17 18 18 19 19 20 20 21 21 22 22 23 23
REMARK SMILES IDX 24 24
REMARK H PARENT
REMARK Flexibility Score: inf
ROOT
ATOM      1  C   UNL     1       9.524   6.381  55.222  1.00  0.00     0.000 C 
ENDROOT
BRANCH   1   2
ATOM      2  C   UNL     1       8.772   7.652  55.653  1.00  0.00     0.000 C 
BRANCH   2   3
ATOM      3  C   UNL     1       9.622   8.924  55.487  1.00  0.00     0.000 C 
BRANCH   3   4
ATOM      4  C   UNL     1       8.983   9.939  54.525  1.00  0.00    -0.000 C 
BRANCH   4   5
ATOM      5  C   UNL     1       8.449   9.289  53.239  1.00  0.00    -0.000 C 
BRANCH   5   6
ATOM      6  C   UNL     1       9.489   9.366  52.114  1.00  0.00    -0.000 C 
BRANCH   6   7
ATOM      7  C   UNL     1       9.453   8.106  51.238  1.00  0.00    -0.000 C 
BRANCH   7   8
ATOM      8  C   UNL     1      10.469   7.039  51.682  1.00  0.00    -0.000 C 
BRANCH   8   9
ATOM      9  C   UNL     1      11.473   7.506  52.752  1.00  0.00    -0.000 C 
BRANCH   9  10
ATOM     10  C   UNL     1      12.313   6.351  53.325  1.00  0.00    -0.000 C 
BRANCH  10  11
ATOM     11  C   UNL     1      12.353   5.133  52.391  1.00  0.00    -0.003 C 
ATOM     12  C   UNL     1      11.855   3.855  53.064  1.00  0.00     0.004 C 
ENDBRANCH  10  11
ENDBRANCH   9  10
ENDBRANCH   8   9
ENDBRANCH   7   8
ENDBRANCH   6   7
ENDBRANCH   5   6
ENDBRANCH   4   5
ENDBRANCH   3   4
ENDBRANCH   2   3
ENDBRANCH   1   2
BRANCH   1  13
ATOM     13  C   UNL     1       9.387   5.239  56.246  1.00  0.00     0.000 C 
BRANCH  13  14
ATOM     14  C   UNL     1      10.431   4.130  56.038  1.00  0.00     0.000 C 
BRANCH  14  15
ATOM     15  C   UNL     1      11.505   4.111  57.137  1.00  0.00     0.000 C 
BRANCH  15  16
ATOM     16  C   UNL     1      12.720   3.276  56.702  1.00  0.00     0.000 C 
BRANCH  16  17
ATOM     17  C   UNL     1      13.980   4.133  56.502  1.00  0.00     0.000 C 
BRANCH  17  18
ATOM     18  C   UNL     1      14.778   3.727  55.252  1.00  0.00     0.000 C 
BRANCH  18  19
ATOM     19  C   UNL     1      16.118   3.086  55.643  1.00  0.00     0.000 C 
BRANCH  19  20
ATOM     20  C   UNL     1      16.100   1.553  55.541  1.00  0.00     0.006 C 
BRANCH  20  21
ATOM     21  C   UNL     1      16.859   0.872  56.688  1.00  0.00     0.053 C 
BRANCH  21  22
ATOM     22  C   UNL     1      15.938   0.603  57.837  1.00  0.00     0.041 C 
ATOM     23  O   UNL     1      14.692   0.685  57.683  1.00  0.00    -0.550 OA
ATOM     24  O   UNL     1      16.458   0.313  59.094  1.00  0.00    -0.550 OA
ENDBRANCH  21  22
ENDBRANCH  20  21
ENDBRANCH  19  20
ENDBRANCH  18  19
ENDBRANCH  17  18
ENDBRANCH  16  17
ENDBRANCH  15  16
ENDBRANCH  14  15
ENDBRANCH  13  14
ENDBRANCH   1  13
TORSDOF 20
ENDMDL
MODEL 7
REMARK VINA RESULT:    -5.006      1.969      3.615
REMARK INTER + INTRA:         -13.318
REMARK INTER:                 -11.362
REMARK INTRA:                  -1.956
REMARK UNBOUND:                -2.460
REMARK SMILES CCCCCCCCCCCCCCCCCCCCCC(=O)[O-]
REMARK SMILES IDX 12 1 11 2 10 3 9 4 8 5 7 6 6 7 5 8 4 9 3 10 2 11 1 12 13 13
REMARK SMILES IDX 14 14 15 15 16 16 17 17 18 18 19 19 20 20 21 21 22 22 23 23
REMARK SMILES IDX 24 24
REMARK H PARENT
REMARK Flexibility Score: inf
ROOT
ATOM      1  C   UNL     1      10.610   4.096  55.218  1.00  0.00     0.000 C 
ENDROOT
BRANCH   1   2
ATOM      2  C   UNL     1      10.892   3.908  56.718  1.00  0.00     0.000 C 
BRANCH   2   3
ATOM      3  C   UNL     1      12.396   3.786  57.024  1.00  0.00     0.000 C 
BRANCH   3   4
ATOM      4  C   UNL     1      13.269   4.508  55.986  1.00  0.00    -0.000 C 
BRANCH   4   5
ATOM      5  C   UNL     1      14.258   3.567  55.279  1.00  0.00    -0.000 C 
BRANCH   5   6
ATOM      6  C   UNL     1      15.411   3.183  56.215  1.00  0.00    -0.000 C 
BRANCH   6   7
ATOM      7  C   UNL     1      16.471   2.352  55.478  1.00  0.00    -0.000 C 
BRANCH   7   8
ATOM      8  C   UNL     1      16.345   0.843  55.753  1.00  0.00    -0.000 C 
BRANCH   8   9
ATOM      9  C   UNL     1      16.294   0.457  57.243  1.00  0.00    -0.000 C 
BRANCH   9  10
ATOM     10  C   UNL     1      17.660   0.010  57.790  1.00  0.00    -0.000 C 
BRANCH  10  11
ATOM     11  C   UNL     1      17.692  -0.041  59.325  1.00  0.00    -0.003 C 
ATOM     12  C   UNL     1      16.347   0.317  59.956  1.00  0.00     0.004 C 
ENDBRANCH  10  11
ENDBRANCH   9  10
ENDBRANCH   8   9
ENDBRANCH   7   8
ENDBRANCH   6   7
ENDBRANCH   5   6
ENDBRANCH   4   5
ENDBRANCH   3   4
ENDBRANCH   2   3
ENDBRANCH   1   2
BRANCH   1  13
ATOM     13  C   UNL     1       9.460   5.086  54.954  1.00  0.00     0.000 C 
BRANCH  13  14
ATOM     14  C   UNL     1       9.283   6.104  56.093  1.00  0.00     0.000 C 
BRANCH  14  15
ATOM     15  C   UNL     1       9.617   7.541  55.663  1.00  0.00     0.000 C 
BRANCH  15  16
ATOM     16  C   UNL     1       8.376   8.245  55.092  1.00  0.00     0.000 C 
BRANCH  16  17
ATOM     17  C   UNL     1       8.739   9.368  54.107  1.00  0.00     0.000 C 
BRANCH  17  18
ATOM     18  C   UNL     1       7.828   9.386  52.869  1.00  0.00     0.000 C 
BRANCH  18  19
ATOM     19  C   UNL     1       8.479   8.630  51.701  1.00  0.00     0.000 C 
BRANCH  19  20
ATOM     20  C   UNL     1       9.992   8.437  51.883  1.00  0.00     0.006 C 
BRANCH  20  21
ATOM     21  C   UNL     1      10.403   6.959  51.917  1.00  0.00     0.053 C 
BRANCH  21  22
ATOM     22  C   UNL     1      11.665   6.785  52.703  1.00  0.00     0.041 C 
ATOM     23  O   UNL     1      12.068   7.702  53.465  1.00  0.00    -0.550 OA
ATOM     24  O   UNL     1      12.425   5.630  52.555  1.00  0.00    -0.550 OA
ENDBRANCH  21  22
ENDBRANCH  20  21
ENDBRANCH  19  20
ENDBRANCH  18  19
ENDBRANCH  17  18
ENDBRANCH  16  17
ENDBRANCH  15  16
ENDBRANCH  14  15
ENDBRANCH  13  14
ENDBRANCH   1  13
TORSDOF 20
ENDMDL
MODEL 8
REMARK VINA RESULT:    -4.938      3.540      8.311
REMARK INTER + INTRA:         -13.171
REMARK INTER:                 -10.488
REMARK INTRA:                  -2.683
REMARK UNBOUND:                -2.460
REMARK SMILES CCCCCCCCCCCCCCCCCCCCCC(=O)[O-]
REMARK SMILES IDX 12 1 11 2 10 3 9 4 8 5 7 6 6 7 5 8 4 9 3 10 2 11 1 12 13 13
REMARK SMILES IDX 14 14 15 15 16 16 17 17 18 18 19 19 20 20 21 21 22 22 23 23
REMARK SMILES IDX 24 24
REMARK H PARENT
REMARK Flexibility Score: inf
ROOT
ATOM      1  C   UNL     1      12.682   4.529  54.119  1.00  0.00     0.000 C 
ENDROOT
BRANCH   1   2
ATOM      2  C   UNL     1      11.618   3.813  53.270  1.00  0.00     0.000 C 
BRANCH   2   3
ATOM      3  C   UNL     1      10.643   2.984  54.125  1.00  0.00     0.000 C 
BRANCH   3   4
ATOM      4  C   UNL     1       9.466   3.819  54.656  1.00  0.00    -0.000 C 
BRANCH   4   5
ATOM      5  C   UNL     1       9.581   4.125  56.158  1.00  0.00    -0.000 C 
BRANCH   5   6
ATOM      6  C   UNL     1       9.601   5.639  56.407  1.00  0.00    -0.000 C 
BRANCH   6   7
ATOM      7  C   UNL     1       9.492   6.420  55.090  1.00  0.00    -0.000 C 
BRANCH   7   8
ATOM      8  C   UNL     1      10.312   7.723  55.097  1.00  0.00    -0.000 C 
BRANCH   8   9
ATOM      9  C   UNL     1      11.263   7.897  53.898  1.00  0.00    -0.000 C 
BRANCH   9  10
ATOM     10  C   UNL     1      10.676   7.345  52.588  1.00  0.00    -0.000 C 
BRANCH  10  11
ATOM     11  C   UNL     1       9.861   8.395  51.819  1.00  0.00    -0.003 C 
ATOM     12  C   UNL     1       8.357   8.270  52.063  1.00  0.00     0.004 C 
ENDBRANCH  10  11
ENDBRANCH   9  10
ENDBRANCH   8   9
ENDBRANCH   7   8
ENDBRANCH   6   7
ENDBRANCH   5   6
ENDBRANCH   4   5
ENDBRANCH   3   4
ENDBRANCH   2   3
ENDBRANCH   1   2
BRANCH   1  13
ATOM     13  C   UNL     1      13.037   3.749  55.399  1.00  0.00     0.000 C 
BRANCH  13  14
ATOM     14  C   UNL     1      13.861   4.586  56.392  1.00  0.00     0.000 C 
BRANCH  14  15
ATOM     15  C   UNL     1      15.368   4.303  56.300  1.00  0.00     0.000 C 
BRANCH  15  16
ATOM     16  C   UNL     1      15.667   3.270  55.202  1.00  0.00     0.000 C 
BRANCH  16  17
ATOM     17  C   UNL     1      16.873   2.381  55.545  1.00  0.00     0.000 C 
BRANCH  17  18
ATOM     18  C   UNL     1      16.479   0.913  55.771  1.00  0.00     0.000 C 
BRANCH  18  19
ATOM     19  C   UNL     1      16.914   0.440  57.167  1.00  0.00     0.000 C 
BRANCH  19  20
ATOM     20  C   UNL     1      15.741   0.333  58.154  1.00  0.00     0.006 C 
BRANCH  20  21
ATOM     21  C   UNL     1      14.430   0.886  57.580  1.00  0.00     0.053 C 
BRANCH  21  22
ATOM     22  C   UNL     1      13.617   1.529  58.660  1.00  0.00     0.041 C 
ATOM     23  O   UNL     1      12.616   2.234  58.366  1.00  0.00    -0.550 OA
ATOM     24  O   UNL     1      13.995   1.394  59.991  1.00  0.00    -0.550 OA
ENDBRANCH  21  22
ENDBRANCH  20  21
ENDBRANCH  19  20
ENDBRANCH  18  19
ENDBRANCH  17  18
ENDBRANCH  16  17
ENDBRANCH  15  16
ENDBRANCH  14  15
ENDBRANCH  13  14
ENDBRANCH   1  13
TORSDOF 20
ENDMDL
MODEL 9
REMARK VINA RESULT:    -4.880      1.766      2.688
REMARK INTER + INTRA:         -13.047
REMARK INTER:                 -11.085
REMARK INTRA:                  -1.962
REMARK UNBOUND:                -2.460
REMARK SMILES CCCCCCCCCCCCCCCCCCCCCC(=O)[O-]
REMARK SMILES IDX 12 1 11 2 10 3 9 4 8 5 7 6 6 7 5 8 4 9 3 10 2 11 1 12 13 13
REMARK SMILES IDX 14 14 15 15 16 16 17 17 18 18 19 19 20 20 21 21 22 22 23 23
REMARK SMILES IDX 24 24
REMARK H PARENT
REMARK Flexibility Score: inf
ROOT
ATOM      1  C   UNL     1      12.370   4.938  52.846  1.00  0.00     0.000 C 
ENDROOT
BRANCH   1   2
ATOM      2  C   UNL     1      12.101   3.974  54.014  1.00  0.00     0.000 C 
BRANCH   2   3
ATOM      3  C   UNL     1      10.599   3.722  54.236  1.00  0.00     0.000 C 
BRANCH   3   4
ATOM      4  C   UNL     1      10.096   4.294  55.571  1.00  0.00    -0.000 C 
BRANCH   4   5
ATOM      5  C   UNL     1      11.239   4.733  56.501  1.00  0.00    -0.000 C 
BRANCH   5   6
ATOM      6  C   UNL     1      11.484   3.689  57.597  1.00  0.00    -0.000 C 
BRANCH   6   7
ATOM      7  C   UNL     1      12.984   3.422  57.784  1.00  0.00    -0.000 C 
BRANCH   7   8
ATOM      8  C   UNL     1      13.581   2.548  56.666  1.00  0.00    -0.000 C 
BRANCH   8   9
ATOM      9  C   UNL     1      14.844   1.761  57.063  1.00  0.00    -0.000 C 
BRANCH   9  10
ATOM     10  C   UNL     1      15.833   1.595  55.897  1.00  0.00    -0.000 C 
BRANCH  10  11
ATOM     11  C   UNL     1      16.609   0.271  55.967  1.00  0.00    -0.003 C 
ATOM     12  C   UNL     1      17.270   0.046  57.326  1.00  0.00     0.004 C 
ENDBRANCH  10  11
ENDBRANCH   9  10
ENDBRANCH   8   9
ENDBRANCH   7   8
ENDBRANCH   6   7
ENDBRANCH   5   6
ENDBRANCH   4   5
ENDBRANCH   3   4
ENDBRANCH   2   3
ENDBRANCH   1   2
BRANCH   1  13
ATOM     13  C   UNL     1      11.887   6.371  53.142  1.00  0.00     0.000 C 
BRANCH  13  14
ATOM     14  C   UNL     1      11.167   7.011  51.944  1.00  0.00     0.000 C 
BRANCH  14  15
ATOM     15  C   UNL     1       9.743   7.477  52.287  1.00  0.00     0.000 C 
BRANCH  15  16
ATOM     16  C   UNL     1       9.369   8.732  51.482  1.00  0.00     0.000 C 
BRANCH  16  17
ATOM     17  C   UNL     1       7.889   9.114  51.645  1.00  0.00     0.000 C 
BRANCH  17  18
ATOM     18  C   UNL     1       7.307   8.660  52.994  1.00  0.00     0.000 C 
BRANCH  18  19
ATOM     19  C   UNL     1       7.022   9.868  53.900  1.00  0.00     0.000 C 
BRANCH  19  20
ATOM     20  C   UNL     1       7.825   9.835  55.210  1.00  0.00     0.006 C 
BRANCH  20  21
ATOM     21  C   UNL     1       9.325  10.079  54.994  1.00  0.00     0.053 C 
BRANCH  21  22
ATOM     22  C   UNL     1      10.115   8.876  55.403  1.00  0.00     0.041 C 
ATOM     23  O   UNL     1       9.529   7.796  55.676  1.00  0.00    -0.550 OA
ATOM     24  O   UNL     1      11.496   8.960  55.534  1.00  0.00    -0.550 OA
ENDBRANCH  21  22
ENDBRANCH  20  21
ENDBRANCH  19  20
ENDBRANCH  18  19
ENDBRANCH  17  18
ENDBRANCH  16  17
ENDBRANCH  15  16
ENDBRANCH  14  15
ENDBRANCH  13  14
ENDBRANCH   1  13
TORSDOF 20
ENDMDL
