MODEL 1
REMARK VINA RESULT:    -7.539      0.000      0.000
REMARK INTER + INTRA:          -9.048
REMARK INTER:                  -8.641
REMARK INTRA:                  -0.407
REMARK UNBOUND:                -0.407
REMARK SMILES C=C(C)[C@H]1CC[C@@]2(C(=O)[O-])CC[C@@]3(C)[C@H](CC[C@@H]4[C@@]5(C)CC[C@@H](O)C(C)(C)[C@H]5CC[C@]43C)[C@@H]12
REMARK SMILES IDX 7 1 6 2 33 3 11 4 5 5 15 6 4 7 12 8 16 9 13 10 17 11 31 12
REMARK SMILES IDX 14 13 18 14 30 15 32 16 19 17 29 18 21 19 20 20 28 21 22 22
REMARK SMILES IDX 25 23 23 24 26 25 27 26 8 27 9 28 10 29 2 30 3 31 1 32 24 33
REMARK H PARENT 24 34
REMARK Flexibility Score: inf
ROOT
ATOM      1  C   UNL     1      31.434  30.396 -12.840  1.00  0.00     0.014 C 
ATOM      2  C   UNL     1      32.925  30.293 -13.248  1.00  0.00     0.014 C 
ATOM      3  C   UNL     1      31.478  31.118 -11.453  1.00  0.00     0.012 C 
ATOM      4  C   UNL     1      30.850  28.951 -12.780  1.00  0.00     0.014 C 
ATOM      5  C   UNL     1      33.697  30.149 -11.945  1.00  0.00     0.009 C 
ATOM      6  C   UNL     1      30.308  30.765 -10.447  1.00  0.00     0.000 C 
ATOM      7  C   UNL     1      32.965  31.069 -10.966  1.00  0.00     0.018 C 
ATOM      8  C   UNL     1      29.611  28.806 -11.888  1.00  0.00     0.008 C 
ATOM      9  C   UNL     1      29.110  31.714 -10.742  1.00  0.00     0.005 C 
ATOM     10  C   UNL     1      29.858  29.247 -10.402  1.00  0.00    -0.024 C 
ATOM     11  C   UNL     1      27.886  31.490  -9.849  1.00  0.00     0.005 C 
ATOM     12  C   UNL     1      28.552  29.072  -9.443  1.00  0.00    -0.024 C 
ATOM     13  C   UNL     1      31.004  28.338  -9.846  1.00  0.00     0.012 C 
ATOM     14  C   UNL     1      27.393  30.023  -9.928  1.00  0.00     0.002 C 
ATOM     15  C   UNL     1      28.025  27.606  -9.485  1.00  0.00     0.008 C 
ATOM     16  C   UNL     1      28.940  29.395  -7.946  1.00  0.00     0.012 C 
ATOM     17  C   UNL     1      25.909  29.766  -9.359  1.00  0.00    -0.026 C 
ATOM     18  C   UNL     1      26.735  27.406  -8.691  1.00  0.00     0.005 C 
ATOM     19  C   UNL     1      24.868  30.462 -10.296  1.00  0.00     0.010 C 
ATOM     20  C   UNL     1      25.700  30.413  -7.954  1.00  0.00     0.012 C 
ATOM     21  C   UNL     1      25.541  28.222  -9.242  1.00  0.00     0.003 C 
ATOM     22  C   UNL     1      24.751  29.860 -11.710  1.00  0.00     0.033 C 
ATOM     23  C   UNL     1      24.731  27.578 -10.469  1.00  0.00    -0.006 C 
ATOM     24  C   UNL     1      24.982  28.335 -11.808  1.00  0.00     0.120 C 
ATOM     25  C   UNL     1      25.047  26.072 -10.699  1.00  0.00     0.014 C 
ATOM     26  C   UNL     1      23.198  27.602 -10.157  1.00  0.00     0.014 C 
ENDROOT
BRANCH   1  27
ATOM     27  C   UNL     1      30.686  31.244 -13.861  1.00  0.00     0.048 C 
ATOM     28  O   UNL     1      29.444  31.105 -14.057  1.00  0.00    -0.550 OA
ATOM     29  O   UNL     1      31.355  32.246 -14.554  1.00  0.00    -0.550 OA
ENDBRANCH   1  27
BRANCH   7  30
ATOM     30  C   UNL     1      33.245  30.892  -9.471  1.00  0.00    -0.077 C 
ATOM     31  C   UNL     1      32.692  31.917  -8.510  1.00  0.00     0.039 C 
ATOM     32  C   UNL     1      34.068  29.949  -8.973  1.00  0.00     0.008 C 
ENDBRANCH   7  30
BRANCH  24  33
ATOM     33  O   UNL     1      26.288  28.089 -12.281  1.00  0.00    -0.393 OA
ATOM     34  H   UNL     1      26.248  27.991 -13.266  1.00  0.00     0.210 HD
ENDBRANCH  24  33
TORSDOF 3
ENDMDL
MODEL 2
REMARK VINA RESULT:    -7.016      1.929      7.425
REMARK INTER + INTRA:          -8.449
REMARK INTER:                  -8.782
REMARK INTRA:                   0.333
REMARK UNBOUND:                -0.407
REMARK SMILES C=C(C)[C@H]1CC[C@@]2(C(=O)[O-])CC[C@@]3(C)[C@H](CC[C@@H]4[C@@]5(C)CC[C@@H](O)C(C)(C)[C@H]5CC[C@]43C)[C@@H]12
REMARK SMILES IDX 7 1 6 2 33 3 11 4 5 5 15 6 4 7 12 8 16 9 13 10 17 11 31 12
REMARK SMILES IDX 14 13 18 14 30 15 32 16 19 17 29 18 21 19 20 20 28 21 22 22
REMARK SMILES IDX 25 23 23 24 26 25 27 26 8 27 9 28 10 29 2 30 3 31 1 32 24 33
REMARK H PARENT 24 34
REMARK Flexibility Score: inf
ROOT
ATOM      1  C   UNL     1      23.311  29.042 -13.016  1.00  0.00     0.014 C 
ATOM      2  C   UNL     1      21.852  29.262 -13.488  1.00  0.00     0.014 C 
ATOM      3  C   UNL     1      23.163  28.092 -11.782  1.00  0.00     0.012 C 
ATOM      4  C   UNL     1      23.920  30.436 -12.669  1.00  0.00     0.014 C 
ATOM      5  C   UNL     1      21.001  29.203 -12.229  1.00  0.00     0.009 C 
ATOM      6  C   UNL     1      24.272  28.228 -10.662  1.00  0.00     0.000 C 
ATOM      7  C   UNL     1      21.649  28.103 -11.384  1.00  0.00     0.018 C 
ATOM      8  C   UNL     1      25.102  30.384 -11.692  1.00  0.00     0.008 C 
ATOM      9  C   UNL     1      25.466  27.307 -11.046  1.00  0.00     0.005 C 
ATOM     10  C   UNL     1      24.750  29.700 -10.324  1.00  0.00    -0.024 C 
ATOM     11  C   UNL     1      26.635  27.333 -10.057  1.00  0.00     0.005 C 
ATOM     12  C   UNL     1      25.995  29.663  -9.273  1.00  0.00    -0.024 C 
ATOM     13  C   UNL     1      23.590  30.534  -9.688  1.00  0.00     0.012 C 
ATOM     14  C   UNL     1      27.163  28.775  -9.847  1.00  0.00     0.002 C 
ATOM     15  C   UNL     1      26.554  31.098  -9.026  1.00  0.00     0.008 C 
ATOM     16  C   UNL     1      25.505  29.098  -7.882  1.00  0.00     0.012 C 
ATOM     17  C   UNL     1      28.612  28.882  -9.155  1.00  0.00    -0.026 C 
ATOM     18  C   UNL     1      27.794  31.115  -8.133  1.00  0.00     0.005 C 
ATOM     19  C   UNL     1      29.697  28.327 -10.135  1.00  0.00     0.010 C 
ATOM     20  C   UNL     1      28.716  27.994  -7.875  1.00  0.00     0.012 C 
ATOM     21  C   UNL     1      29.004  30.369  -8.747  1.00  0.00     0.003 C 
ATOM     22  C   UNL     1      29.917  29.161 -11.412  1.00  0.00     0.033 C 
ATOM     23  C   UNL     1      29.905  31.191  -9.792  1.00  0.00    -0.006 C 
ATOM     24  C   UNL     1      29.724  30.686 -11.255  1.00  0.00     0.120 C 
ATOM     25  C   UNL     1      29.636  32.724  -9.772  1.00  0.00     0.014 C 
ATOM     26  C   UNL     1      31.414  31.064  -9.397  1.00  0.00     0.014 C 
ENDROOT
BRANCH   1  27
ATOM     27  C   UNL     1      24.105  28.361 -14.124  1.00  0.00     0.048 C 
ATOM     28  O   UNL     1      23.637  27.377 -14.766  1.00  0.00    -0.550 OA
ATOM     29  O   UNL     1      25.346  28.864 -14.498  1.00  0.00    -0.550 OA
ENDBRANCH   1  27
BRANCH   7  30
ATOM     30  C   UNL     1      21.277  28.027  -9.901  1.00  0.00    -0.077 C 
ATOM     31  C   UNL     1      19.899  28.478  -9.482  1.00  0.00     0.039 C 
ATOM     32  C   UNL     1      22.151  27.704  -8.928  1.00  0.00     0.008 C 
ENDBRANCH   7  30
BRANCH  24  33
ATOM     33  O   UNL     1      28.458  31.052 -11.755  1.00  0.00    -0.393 OA
ATOM     34  H   UNL     1      28.591  31.662 -12.524  1.00  0.00     0.210 HD
ENDBRANCH  24  33
TORSDOF 3
ENDMDL
MODEL 3
REMARK VINA RESULT:    -5.222      2.845      7.728
REMARK INTER + INTRA:          -6.392
REMARK INTER:                  -6.531
REMARK INTRA:                   0.138
REMARK UNBOUND:                -0.407
REMARK SMILES C=C(C)[C@H]1CC[C@@]2(C(=O)[O-])CC[C@@]3(C)[C@H](CC[C@@H]4[C@@]5(C)CC[C@@H](O)C(C)(C)[C@H]5CC[C@]43C)[C@@H]12
REMARK SMILES IDX 7 1 6 2 33 3 11 4 5 5 15 6 4 7 12 8 16 9 13 10 17 11 31 12
REMARK SMILES IDX 14 13 18 14 30 15 32 16 19 17 29 18 21 19 20 20 28 21 22 22
REMARK SMILES IDX 25 23 23 24 26 25 27 26 8 27 9 28 10 29 2 30 3 31 1 32 24 33
REMARK H PARENT 24 34
REMARK Flexibility Score: inf
ROOT
ATOM      1  C   UNL     1      23.582  28.914 -14.829  1.00  0.00     0.014 C 
ATOM      2  C   UNL     1      22.508  29.257 -15.892  1.00  0.00     0.014 C 
ATOM      3  C   UNL     1      22.834  27.959 -13.842  1.00  0.00     0.012 C 
ATOM      4  C   UNL     1      24.058  30.249 -14.178  1.00  0.00     0.014 C 
ATOM      5  C   UNL     1      21.180  29.246 -15.151  1.00  0.00     0.009 C 
ATOM      6  C   UNL     1      23.328  27.987 -12.339  1.00  0.00     0.000 C 
ATOM      7  C   UNL     1      21.307  28.084 -14.162  1.00  0.00     0.018 C 
ATOM      8  C   UNL     1      24.669  30.087 -12.780  1.00  0.00     0.008 C 
ATOM      9  C   UNL     1      24.506  26.981 -12.194  1.00  0.00     0.005 C 
ATOM     10  C   UNL     1      23.697  29.411 -11.749  1.00  0.00    -0.024 C 
ATOM     11  C   UNL     1      25.104  26.897 -10.787  1.00  0.00     0.005 C 
ATOM     12  C   UNL     1      24.331  29.258 -10.256  1.00  0.00    -0.024 C 
ATOM     13  C   UNL     1      22.431  30.325 -11.657  1.00  0.00     0.012 C 
ATOM     14  C   UNL     1      25.573  28.289 -10.291  1.00  0.00     0.002 C 
ATOM     15  C   UNL     1      24.810  30.639  -9.713  1.00  0.00     0.008 C 
ATOM     16  C   UNL     1      23.233  28.711  -9.261  1.00  0.00     0.012 C 
ATOM     17  C   UNL     1      26.559  28.268  -9.020  1.00  0.00    -0.026 C 
ATOM     18  C   UNL     1      25.515  30.543  -8.361  1.00  0.00     0.005 C 
ATOM     19  C   UNL     1      27.931  27.644  -9.439  1.00  0.00     0.010 C 
ATOM     20  C   UNL     1      26.021  27.355  -7.875  1.00  0.00     0.012 C 
ATOM     21  C   UNL     1      26.822  29.713  -8.406  1.00  0.00     0.003 C 
ATOM     22  C   UNL     1      28.755  28.478 -10.439  1.00  0.00     0.033 C 
ATOM     23  C   UNL     1      28.146  30.477  -8.895  1.00  0.00    -0.006 C 
ATOM     24  C   UNL     1      28.611  30.011 -10.308  1.00  0.00     0.120 C 
ATOM     25  C   UNL     1      27.996  32.025  -8.921  1.00  0.00     0.014 C 
ATOM     26  C   UNL     1      29.305  30.223  -7.875  1.00  0.00     0.014 C 
ENDROOT
BRANCH   1  27
ATOM     27  C   UNL     1      24.744  28.189 -15.498  1.00  0.00     0.048 C 
ATOM     28  O   UNL     1      25.798  28.800 -15.840  1.00  0.00    -0.550 OA
ATOM     29  O   UNL     1      24.690  26.813 -15.683  1.00  0.00    -0.550 OA
ENDBRANCH   1  27
BRANCH   7  30
ATOM     30  C   UNL     1      20.304  28.014 -13.008  1.00  0.00    -0.077 C 
ATOM     31  C   UNL     1      18.929  28.600 -13.214  1.00  0.00     0.039 C 
ATOM     32  C   UNL     1      20.618  27.578 -11.772  1.00  0.00     0.008 C 
ENDBRANCH   7  30
BRANCH  24  33
ATOM     33  O   UNL     1      27.730  30.485 -11.302  1.00  0.00    -0.393 OA
ATOM     34  H   UNL     1      28.170  30.380 -12.184  1.00  0.00     0.210 HD
ENDBRANCH  24  33
TORSDOF 3
ENDMDL
MODEL 4
REMARK VINA RESULT:    -5.219      1.608      2.861
REMARK INTER + INTRA:          -6.389
REMARK INTER:                  -6.499
REMARK INTRA:                   0.110
REMARK UNBOUND:                -0.407
REMARK SMILES C=C(C)[C@H]1CC[C@@]2(C(=O)[O-])CC[C@@]3(C)[C@H](CC[C@@H]4[C@@]5(C)CC[C@@H](O)C(C)(C)[C@H]5CC[C@]43C)[C@@H]12
REMARK SMILES IDX 7 1 6 2 33 3 11 4 5 5 15 6 4 7 12 8 16 9 13 10 17 11 31 12
REMARK SMILES IDX 14 13 18 14 30 15 32 16 19 17 29 18 21 19 20 20 28 21 22 22
REMARK SMILES IDX 25 23 23 24 26 25 27 26 8 27 9 28 10 29 2 30 3 31 1 32 24 33
REMARK H PARENT 24 34
REMARK Flexibility Score: inf
ROOT
ATOM      1  C   UNL     1      30.716  30.843 -15.214  1.00  0.00     0.014 C 
ATOM      2  C   UNL     1      31.674  30.754 -16.429  1.00  0.00     0.014 C 
ATOM      3  C   UNL     1      31.578  31.547 -14.114  1.00  0.00     0.012 C 
ATOM      4  C   UNL     1      30.277  29.394 -14.839  1.00  0.00     0.014 C 
ATOM      5  C   UNL     1      33.068  30.596 -15.841  1.00  0.00     0.009 C 
ATOM      6  C   UNL     1      31.233  31.174 -12.615  1.00  0.00     0.000 C 
ATOM      7  C   UNL     1      33.064  31.500 -14.606  1.00  0.00     0.018 C 
ATOM      8  C   UNL     1      29.809  29.231 -13.387  1.00  0.00     0.008 C 
ATOM      9  C   UNL     1      30.097  32.120 -12.128  1.00  0.00     0.005 C 
ATOM     10  C   UNL     1      30.892  29.654 -12.333  1.00  0.00    -0.024 C 
ATOM     11  C   UNL     1      29.641  31.878 -10.686  1.00  0.00     0.005 C 
ATOM     12  C   UNL     1      30.410  29.460 -10.788  1.00  0.00    -0.024 C 
ATOM     13  C   UNL     1      32.141  28.744 -12.578  1.00  0.00     0.012 C 
ATOM     14  C   UNL     1      29.192  30.410 -10.477  1.00  0.00     0.002 C 
ATOM     15  C   UNL     1      29.956  27.991 -10.529  1.00  0.00     0.008 C 
ATOM     16  C   UNL     1      31.611  29.765  -9.809  1.00  0.00     0.012 C 
ATOM     17  C   UNL     1      28.335  30.138  -9.142  1.00  0.00    -0.026 C 
ATOM     18  C   UNL     1      29.388  27.773  -9.127  1.00  0.00     0.005 C 
ATOM     19  C   UNL     1      26.943  30.840  -9.268  1.00  0.00     0.010 C 
ATOM     20  C   UNL     1      29.003  30.765  -7.879  1.00  0.00     0.012 C 
ATOM     21  C   UNL     1      28.102  28.591  -8.851  1.00  0.00     0.003 C 
ATOM     22  C   UNL     1      26.007  30.257 -10.345  1.00  0.00     0.033 C 
ATOM     23  C   UNL     1      26.720  27.959  -9.366  1.00  0.00    -0.006 C 
ATOM     24  C   UNL     1      26.130  28.735 -10.583  1.00  0.00     0.120 C 
ATOM     25  C   UNL     1      26.832  26.457  -9.760  1.00  0.00     0.014 C 
ATOM     26  C   UNL     1      25.672  27.971  -8.205  1.00  0.00     0.014 C 
ENDROOT
BRANCH   1  27
ATOM     27  C   UNL     1      29.511  31.701 -15.580  1.00  0.00     0.048 C 
ATOM     28  O   UNL     1      29.487  32.944 -15.348  1.00  0.00    -0.550 OA
ATOM     29  O   UNL     1      28.433  31.133 -16.248  1.00  0.00    -0.550 OA
ENDBRANCH   1  27
BRANCH   7  30
ATOM     30  C   UNL     1      34.176  31.304 -13.572  1.00  0.00    -0.077 C 
ATOM     31  C   UNL     1      35.499  30.746 -14.037  1.00  0.00     0.039 C 
ATOM     32  C   UNL     1      34.002  31.477 -12.247  1.00  0.00     0.008 C 
ENDBRANCH   7  30
BRANCH  24  33
ATOM     33  O   UNL     1      26.899  28.502 -11.741  1.00  0.00    -0.393 OA
ATOM     34  H   UNL     1      26.629  29.161 -12.431  1.00  0.00     0.210 HD
ENDBRANCH  24  33
TORSDOF 3
ENDMDL
