MODEL 1
REMARK VINA RESULT:    -4.291      0.000      0.000
REMARK INTER + INTRA:          -4.880
REMARK INTER:                  -4.667
REMARK INTRA:                  -0.213
REMARK UNBOUND:                -0.213
REMARK SMILES O=C([O-])c1ccccc1O
REMARK SMILES IDX 4 1 9 2 5 3 8 4 6 5 7 6 2 7 1 8 3 9 10 10
REMARK H PARENT 10 11
REMARK Flexibility Score: inf
ROOT
ATOM      1  C   UNL     1       1.444   8.215  -7.141  1.00  0.00     0.039 A 
ATOM      2  C   UNL     1       2.324   7.198  -6.700  1.00  0.00     0.124 A 
ATOM      3  C   UNL     1       1.649   8.786  -8.411  1.00  0.00     0.014 A 
ATOM      4  C   UNL     1       3.377   6.778  -7.527  1.00  0.00     0.047 A 
ATOM      5  C   UNL     1       2.701   8.358  -9.224  1.00  0.00     0.001 A 
ATOM      6  C   UNL     1       3.564   7.356  -8.783  1.00  0.00     0.004 A 
ENDROOT
BRANCH   1   7
ATOM      7  C   UNL     1       0.315   8.695  -6.304  1.00  0.00     0.075 C 
ATOM      8  O   UNL     1      -0.171   9.845  -6.465  1.00  0.00    -0.545 OA
ATOM      9  O   UNL     1      -0.226   7.873  -5.320  1.00  0.00    -0.545 OA
ENDBRANCH   1   7
BRANCH   2  10
ATOM     10  O   UNL     1       2.159   6.603  -5.449  1.00  0.00    -0.507 OA
ATOM     11  H   UNL     1       2.801   5.900  -5.103  1.00  0.00     0.293 HD
ENDBRANCH   2  10
TORSDOF 2
ENDMDL
MODEL 2
REMARK VINA RESULT:    -4.257      0.954      2.178
REMARK INTER + INTRA:          -4.843
REMARK INTER:                  -4.629
REMARK INTRA:                  -0.214
REMARK UNBOUND:                -0.213
REMARK SMILES O=C([O-])c1ccccc1O
REMARK SMILES IDX 4 1 9 2 5 3 8 4 6 5 7 6 2 7 1 8 3 9 10 10
REMARK H PARENT 10 11
REMARK Flexibility Score: inf
ROOT
ATOM      1  C   UNL     1       1.401   8.249  -7.111  1.00  0.00     0.039 A 
ATOM      2  C   UNL     1       1.818   8.843  -8.326  1.00  0.00     0.124 A 
ATOM      3  C   UNL     1       2.113   7.138  -6.620  1.00  0.00     0.014 A 
ATOM      4  C   UNL     1       2.923   8.322  -9.017  1.00  0.00     0.047 A 
ATOM      5  C   UNL     1       3.212   6.629  -7.317  1.00  0.00     0.001 A 
ATOM      6  C   UNL     1       3.616   7.220  -8.514  1.00  0.00     0.004 A 
ENDROOT
BRANCH   1   7
ATOM      7  C   UNL     1       0.238   8.762  -6.344  1.00  0.00     0.075 C 
ATOM      8  O   UNL     1      -0.134   9.960  -6.452  1.00  0.00    -0.545 OA
ATOM      9  O   UNL     1      -0.462   7.921  -5.486  1.00  0.00    -0.545 OA
ENDBRANCH   1   7
BRANCH   2  10
ATOM     10  O   UNL     1       1.143   9.945  -8.851  1.00  0.00    -0.507 OA
ATOM     11  H   UNL     1       1.413  10.895  -8.624  1.00  0.00     0.293 HD
ENDBRANCH   2  10
TORSDOF 2
ENDMDL
MODEL 3
REMARK VINA RESULT:    -4.243      3.965      6.347
REMARK INTER + INTRA:          -4.828
REMARK INTER:                  -4.620
REMARK INTRA:                  -0.208
REMARK UNBOUND:                -0.213
REMARK SMILES O=C([O-])c1ccccc1O
REMARK SMILES IDX 4 1 9 2 5 3 8 4 6 5 7 6 2 7 1 8 3 9 10 10
REMARK H PARENT 10 11
REMARK Flexibility Score: inf
ROOT
ATOM      1  C   UNL     1      -2.744   9.014  -5.165  1.00  0.00     0.039 A 
ATOM      2  C   UNL     1      -2.712   9.225  -3.765  1.00  0.00     0.124 A 
ATOM      3  C   UNL     1      -3.938   9.278  -5.864  1.00  0.00     0.014 A 
ATOM      4  C   UNL     1      -3.858   9.689  -3.102  1.00  0.00     0.047 A 
ATOM      5  C   UNL     1      -5.072   9.740  -5.190  1.00  0.00     0.001 A 
ATOM      6  C   UNL     1      -5.032   9.945  -3.812  1.00  0.00     0.004 A 
ENDROOT
BRANCH   1   7
ATOM      7  C   UNL     1      -1.559   8.524  -5.913  1.00  0.00     0.075 C 
ATOM      8  O   UNL     1      -0.638   7.892  -5.330  1.00  0.00    -0.545 OA
ATOM      9  O   UNL     1      -1.446   8.759  -7.279  1.00  0.00    -0.545 OA
ENDBRANCH   1   7
BRANCH   2  10
ATOM     10  O   UNL     1      -1.552   8.977  -3.032  1.00  0.00    -0.507 OA
ATOM     11  H   UNL     1      -1.153   8.048  -2.961  1.00  0.00     0.293 HD
ENDBRANCH   2  10
TORSDOF 2
ENDMDL
MODEL 4
REMARK VINA RESULT:    -4.077      4.062      6.408
REMARK INTER + INTRA:          -4.647
REMARK INTER:                  -4.402
REMARK INTRA:                  -0.246
REMARK UNBOUND:                -0.213
REMARK SMILES O=C([O-])c1ccccc1O
REMARK SMILES IDX 4 1 9 2 5 3 8 4 6 5 7 6 2 7 1 8 3 9 10 10
REMARK H PARENT 10 11
REMARK Flexibility Score: inf
ROOT
ATOM      1  C   UNL     1      -2.514   9.076  -4.703  1.00  0.00     0.039 A 
ATOM      2  C   UNL     1      -3.441   8.234  -5.361  1.00  0.00     0.124 A 
ATOM      3  C   UNL     1      -2.994  10.020  -3.775  1.00  0.00     0.014 A 
ATOM      4  C   UNL     1      -4.812   8.350  -5.082  1.00  0.00     0.047 A 
ATOM      5  C   UNL     1      -4.361  10.125  -3.506  1.00  0.00     0.001 A 
ATOM      6  C   UNL     1      -5.268   9.292  -4.159  1.00  0.00     0.004 A 
ENDROOT
BRANCH   1   7
ATOM      7  C   UNL     1      -1.054   8.993  -4.963  1.00  0.00     0.075 C 
ATOM      8  O   UNL     1      -0.433   7.905  -4.837  1.00  0.00    -0.545 OA
ATOM      9  O   UNL     1      -0.346  10.125  -5.353  1.00  0.00    -0.545 OA
ENDBRANCH   1   7
BRANCH   2  10
ATOM     10  O   UNL     1      -3.012   7.284  -6.288  1.00  0.00    -0.507 OA
ATOM     11  H   UNL     1      -2.093   6.861  -6.232  1.00  0.00     0.293 HD
ENDBRANCH   2  10
TORSDOF 2
ENDMDL
MODEL 5
REMARK VINA RESULT:    -3.987      5.383      6.765
REMARK INTER + INTRA:          -4.550
REMARK INTER:                  -4.295
REMARK INTRA:                  -0.254
REMARK UNBOUND:                -0.213
REMARK SMILES O=C([O-])c1ccccc1O
REMARK SMILES IDX 4 1 9 2 5 3 8 4 6 5 7 6 2 7 1 8 3 9 10 10
REMARK H PARENT 10 11
REMARK Flexibility Score: inf
ROOT
ATOM      1  C   UNL     1      -4.130   8.284  -5.438  1.00  0.00     0.039 A 
ATOM      2  C   UNL     1      -2.889   8.506  -4.793  1.00  0.00     0.124 A 
ATOM      3  C   UNL     1      -5.270   8.964  -4.970  1.00  0.00     0.014 A 
ATOM      4  C   UNL     1      -2.815   9.391  -3.706  1.00  0.00     0.047 A 
ATOM      5  C   UNL     1      -5.182   9.843  -3.887  1.00  0.00     0.001 A 
ATOM      6  C   UNL     1      -3.957  10.056  -3.256  1.00  0.00     0.004 A 
ENDROOT
BRANCH   1   7
ATOM      7  C   UNL     1      -4.260   7.358  -6.592  1.00  0.00     0.075 C 
ATOM      8  O   UNL     1      -4.858   7.709  -7.643  1.00  0.00    -0.545 OA
ATOM      9  O   UNL     1      -3.721   6.077  -6.526  1.00  0.00    -0.545 OA
ENDBRANCH   1   7
BRANCH   2  10
ATOM     10  O   UNL     1      -1.733   7.854  -5.222  1.00  0.00    -0.507 OA
ATOM     11  H   UNL     1      -1.736   7.235  -6.025  1.00  0.00     0.293 HD
ENDBRANCH   2  10
TORSDOF 2
ENDMDL
MODEL 6
REMARK VINA RESULT:    -3.924      4.449      5.974
REMARK INTER + INTRA:          -4.481
REMARK INTER:                  -4.233
REMARK INTRA:                  -0.248
REMARK UNBOUND:                -0.213
REMARK SMILES O=C([O-])c1ccccc1O
REMARK SMILES IDX 4 1 9 2 5 3 8 4 6 5 7 6 2 7 1 8 3 9 10 10
REMARK H PARENT 10 11
REMARK Flexibility Score: inf
ROOT
ATOM      1  C   UNL     1      -3.782   8.196  -5.119  1.00  0.00     0.039 A 
ATOM      2  C   UNL     1      -2.773   7.779  -6.020  1.00  0.00     0.124 A 
ATOM      3  C   UNL     1      -3.416   8.969  -4.000  1.00  0.00     0.014 A 
ATOM      4  C   UNL     1      -1.437   8.139  -5.788  1.00  0.00     0.047 A 
ATOM      5  C   UNL     1      -2.082   9.320  -3.782  1.00  0.00     0.001 A 
ATOM      6  C   UNL     1      -1.094   8.905  -4.674  1.00  0.00     0.004 A 
ENDROOT
BRANCH   1   7
ATOM      7  C   UNL     1      -5.210   7.841  -5.320  1.00  0.00     0.075 C 
ATOM      8  O   UNL     1      -6.103   8.729  -5.346  1.00  0.00    -0.545 OA
ATOM      9  O   UNL     1      -5.586   6.512  -5.482  1.00  0.00    -0.545 OA
ENDBRANCH   1   7
BRANCH   2  10
ATOM     10  O   UNL     1      -3.089   7.012  -7.142  1.00  0.00    -0.507 OA
ATOM     11  H   UNL     1      -2.376   6.684  -7.782  1.00  0.00     0.293 HD
ENDBRANCH   2  10
TORSDOF 2
ENDMDL
MODEL 7
REMARK VINA RESULT:    -3.871      5.471      7.503
REMARK INTER + INTRA:          -4.423
REMARK INTER:                  -4.189
REMARK INTRA:                  -0.234
REMARK UNBOUND:                -0.213
REMARK SMILES O=C([O-])c1ccccc1O
REMARK SMILES IDX 4 1 9 2 5 3 8 4 6 5 7 6 2 7 1 8 3 9 10 10
REMARK H PARENT 10 11
REMARK Flexibility Score: inf
ROOT
ATOM      1  C   UNL     1      -4.473   7.980  -5.240  1.00  0.00     0.039 A 
ATOM      2  C   UNL     1      -4.962   6.685  -5.536  1.00  0.00     0.124 A 
ATOM      3  C   UNL     1      -5.388   8.980  -4.859  1.00  0.00     0.014 A 
ATOM      4  C   UNL     1      -6.337   6.420  -5.446  1.00  0.00     0.047 A 
ATOM      5  C   UNL     1      -6.754   8.702  -4.773  1.00  0.00     0.001 A 
ATOM      6  C   UNL     1      -7.228   7.424  -5.067  1.00  0.00     0.004 A 
ENDROOT
BRANCH   1   7
ATOM      7  C   UNL     1      -3.028   8.312  -5.320  1.00  0.00     0.075 C 
ATOM      8  O   UNL     1      -2.285   7.777  -6.185  1.00  0.00    -0.545 OA
ATOM      9  O   UNL     1      -2.468   9.224  -4.433  1.00  0.00    -0.545 OA
ENDBRANCH   1   7
BRANCH   2  10
ATOM     10  O   UNL     1      -4.092   5.663  -5.918  1.00  0.00    -0.507 OA
ATOM     11  H   UNL     1      -3.824   5.525  -6.885  1.00  0.00     0.293 HD
ENDBRANCH   2  10
TORSDOF 2
ENDMDL
MODEL 8
REMARK VINA RESULT:    -3.745      3.821      5.173
REMARK INTER + INTRA:          -4.286
REMARK INTER:                  -4.032
REMARK INTRA:                  -0.254
REMARK UNBOUND:                -0.213
REMARK SMILES O=C([O-])c1ccccc1O
REMARK SMILES IDX 4 1 9 2 5 3 8 4 6 5 7 6 2 7 1 8 3 9 10 10
REMARK H PARENT 10 11
REMARK Flexibility Score: inf
ROOT
ATOM      1  C   UNL     1      -3.101   9.181  -5.060  1.00  0.00     0.039 A 
ATOM      2  C   UNL     1      -1.911   8.820  -4.385  1.00  0.00     0.124 A 
ATOM      3  C   UNL     1      -3.066   9.344  -6.458  1.00  0.00     0.014 A 
ATOM      4  C   UNL     1      -0.725   8.630  -5.112  1.00  0.00     0.047 A 
ATOM      5  C   UNL     1      -1.879   9.152  -7.169  1.00  0.00     0.001 A 
ATOM      6  C   UNL     1      -0.710   8.796  -6.497  1.00  0.00     0.004 A 
ENDROOT
BRANCH   1   7
ATOM      7  C   UNL     1      -4.381   9.393  -4.337  1.00  0.00     0.075 C 
ATOM      8  O   UNL     1      -5.462   8.920  -4.776  1.00  0.00    -0.545 OA
ATOM      9  O   UNL     1      -4.404  10.125  -3.155  1.00  0.00    -0.545 OA
ENDBRANCH   1   7
BRANCH   2  10
ATOM     10  O   UNL     1      -1.898   8.648  -3.001  1.00  0.00    -0.507 OA
ATOM     11  H   UNL     1      -2.231   7.795  -2.566  1.00  0.00     0.293 HD
ENDBRANCH   2  10
TORSDOF 2
ENDMDL
MODEL 9
REMARK VINA RESULT:    -3.744     20.637     21.881
REMARK INTER + INTRA:          -4.286
REMARK INTER:                  -4.062
REMARK INTRA:                  -0.224
REMARK UNBOUND:                -0.213
REMARK SMILES O=C([O-])c1ccccc1O
REMARK SMILES IDX 4 1 9 2 5 3 8 4 6 5 7 6 2 7 1 8 3 9 10 10
REMARK H PARENT 10 11
REMARK Flexibility Score: inf
ROOT
ATOM      1  C   UNL     1      -2.477  -7.898   6.417  1.00  0.00     0.039 A 
ATOM      2  C   UNL     1      -3.499  -8.753   6.895  1.00  0.00     0.124 A 
ATOM      3  C   UNL     1      -1.784  -7.088   7.337  1.00  0.00     0.014 A 
ATOM      4  C   UNL     1      -3.802  -8.781   8.265  1.00  0.00     0.047 A 
ATOM      5  C   UNL     1      -2.097  -7.126   8.698  1.00  0.00     0.001 A 
ATOM      6  C   UNL     1      -3.105  -7.971   9.161  1.00  0.00     0.004 A 
ENDROOT
BRANCH   1   7
ATOM      7  C   UNL     1      -2.118  -7.831   4.977  1.00  0.00     0.075 C 
ATOM      8  O   UNL     1      -1.655  -8.836   4.376  1.00  0.00    -0.545 OA
ATOM      9  O   UNL     1      -2.289  -6.648   4.267  1.00  0.00    -0.545 OA
ENDBRANCH   1   7
BRANCH   2  10
ATOM     10  O   UNL     1      -4.212  -9.573   6.020  1.00  0.00    -0.507 OA
ATOM     11  H   UNL     1      -4.170 -10.584   6.082  1.00  0.00     0.293 HD
ENDBRANCH   2  10
TORSDOF 2
ENDMDL
