MODEL 1
REMARK VINA RESULT:    -2.671      0.000      0.000
REMARK INTER + INTRA:          -5.939
REMARK INTER:                  -4.545
REMARK INTRA:                  -1.394
REMARK UNBOUND:                -1.394
REMARK SMILES CCCCCCCCCCCCCC(=O)[O-]
REMARK SMILES IDX 8 1 9 2 10 3 11 4 12 5 13 6 14 7 15 8 16 9 7 10 6 11 5 12
REMARK SMILES IDX 4 13 3 14 2 15 1 16
REMARK H PARENT
REMARK Flexibility Score: inf
ROOT
ATOM      1  C   UNL     1      22.833 -15.738  13.587  1.00  0.00     0.000 C 
ENDROOT
BRANCH   1   2
ATOM      2  C   UNL     1      22.805 -17.263  13.799  1.00  0.00     0.000 C 
BRANCH   2   3
ATOM      3  C   UNL     1      21.719 -17.961  12.965  1.00  0.00     0.000 C 
BRANCH   3   4
ATOM      4  C   UNL     1      21.870 -17.696  11.458  1.00  0.00     0.000 C 
BRANCH   4   5
ATOM      5  C   UNL     1      20.559 -17.898  10.685  1.00  0.00     0.006 C 
BRANCH   5   6
ATOM      6  C   UNL     1      19.503 -16.876  11.119  1.00  0.00     0.053 C 
BRANCH   6   7
ATOM      7  C   UNL     1      18.575 -16.566   9.987  1.00  0.00     0.041 C 
ATOM      8  O   UNL     1      17.723 -17.416   9.616  1.00  0.00    -0.550 OA
ATOM      9  O   UNL     1      18.684 -15.358   9.311  1.00  0.00    -0.550 OA
ENDBRANCH   6   7
ENDBRANCH   5   6
ENDBRANCH   4   5
ENDBRANCH   3   4
ENDBRANCH   2   3
ENDBRANCH   1   2
BRANCH   1  10
ATOM     10  C   UNL     1      22.104 -14.914  14.668  1.00  0.00     0.000 C 
BRANCH  10  11
ATOM     11  C   UNL     1      21.984 -15.598  16.045  1.00  0.00    -0.000 C 
BRANCH  11  12
ATOM     12  C   UNL     1      20.603 -16.205  16.348  1.00  0.00    -0.000 C 
BRANCH  12  13
ATOM     13  C   UNL     1      19.519 -15.743  15.359  1.00  0.00    -0.000 C 
BRANCH  13  14
ATOM     14  C   UNL     1      18.600 -16.901  14.918  1.00  0.00    -0.000 C 
BRANCH  14  15
ATOM     15  C   UNL     1      17.474 -16.463  13.966  1.00  0.00    -0.003 C 
ATOM     16  C   UNL     1      16.678 -17.638  13.398  1.00  0.00     0.004 C 
ENDBRANCH  14  15
ENDBRANCH  13  14
ENDBRANCH  12  13
ENDBRANCH  11  12
ENDBRANCH  10  11
ENDBRANCH   1  10
TORSDOF 12
ENDMDL
MODEL 2
REMARK VINA RESULT:    -2.574      1.147      3.804
REMARK INTER + INTRA:          -5.773
REMARK INTER:                  -4.391
REMARK INTRA:                  -1.382
REMARK UNBOUND:                -1.394
REMARK SMILES CCCCCCCCCCCCCC(=O)[O-]
REMARK SMILES IDX 8 1 9 2 10 3 11 4 12 5 13 6 14 7 15 8 16 9 7 10 6 11 5 12
REMARK SMILES IDX 4 13 3 14 2 15 1 16
REMARK H PARENT
REMARK Flexibility Score: inf
ROOT
ATOM      1  C   UNL     1      18.609 -15.873  15.240  1.00  0.00     0.000 C 
ENDROOT
BRANCH   1   2
ATOM      2  C   UNL     1      17.465 -16.864  14.960  1.00  0.00     0.000 C 
BRANCH   2   3
ATOM      3  C   UNL     1      17.110 -16.959  13.467  1.00  0.00     0.000 C 
BRANCH   3   4
ATOM      4  C   UNL     1      18.198 -17.669  12.646  1.00  0.00     0.000 C 
BRANCH   4   5
ATOM      5  C   UNL     1      19.239 -16.697  12.072  1.00  0.00     0.006 C 
BRANCH   5   6
ATOM      6  C   UNL     1      19.571 -17.047  10.617  1.00  0.00     0.053 C 
BRANCH   6   7
ATOM      7  C   UNL     1      18.523 -16.507   9.696  1.00  0.00     0.041 C 
ATOM      8  O   UNL     1      18.582 -15.313   9.302  1.00  0.00    -0.550 OA
ATOM      9  O   UNL     1      17.457 -17.308   9.311  1.00  0.00    -0.550 OA
ENDBRANCH   6   7
ENDBRANCH   5   6
ENDBRANCH   4   5
ENDBRANCH   3   4
ENDBRANCH   2   3
ENDBRANCH   1   2
BRANCH   1  10
ATOM     10  C   UNL     1      19.378 -16.115  16.556  1.00  0.00     0.000 C 
BRANCH  10  11
ATOM     11  C   UNL     1      20.190 -17.426  16.609  1.00  0.00    -0.000 C 
BRANCH  11  12
ATOM     12  C   UNL     1      20.760 -17.889  15.257  1.00  0.00    -0.000 C 
BRANCH  12  13
ATOM     13  C   UNL     1      22.182 -17.360  14.997  1.00  0.00    -0.000 C 
BRANCH  13  14
ATOM     14  C   UNL     1      22.214 -16.298  13.878  1.00  0.00    -0.000 C 
BRANCH  14  15
ATOM     15  C   UNL     1      22.440 -14.868  14.396  1.00  0.00    -0.003 C 
ATOM     16  C   UNL     1      22.873 -14.821  15.860  1.00  0.00     0.004 C 
ENDBRANCH  14  15
ENDBRANCH  13  14
ENDBRANCH  12  13
ENDBRANCH  11  12
ENDBRANCH  10  11
ENDBRANCH   1  10
TORSDOF 12
ENDMDL
MODEL 3
REMARK VINA RESULT:    -2.533      2.975      4.741
REMARK INTER + INTRA:          -5.704
REMARK INTER:                  -4.462
REMARK INTRA:                  -1.242
REMARK UNBOUND:                -1.394
REMARK SMILES CCCCCCCCCCCCCC(=O)[O-]
REMARK SMILES IDX 8 1 9 2 10 3 11 4 12 5 13 6 14 7 15 8 16 9 7 10 6 11 5 12
REMARK SMILES IDX 4 13 3 14 2 15 1 16
REMARK H PARENT
REMARK Flexibility Score: inf
ROOT
ATOM      1  C   UNL     1      18.655 -16.883  10.686  1.00  0.00     0.000 C 
ENDROOT
BRANCH   1   2
ATOM      2  C   UNL     1      20.033 -17.564  10.597  1.00  0.00     0.000 C 
BRANCH   2   3
ATOM      3  C   UNL     1      20.638 -17.870  11.977  1.00  0.00     0.000 C 
BRANCH   3   4
ATOM      4  C   UNL     1      22.131 -17.513  12.059  1.00  0.00     0.000 C 
BRANCH   4   5
ATOM      5  C   UNL     1      22.493 -16.769  13.353  1.00  0.00     0.006 C 
BRANCH   5   6
ATOM      6  C   UNL     1      21.252 -16.127  13.982  1.00  0.00     0.053 C 
BRANCH   6   7
ATOM      7  C   UNL     1      21.577 -15.567  15.330  1.00  0.00     0.041 C 
ATOM      8  O   UNL     1      21.125 -16.116  16.369  1.00  0.00    -0.550 OA
ATOM      9  O   UNL     1      22.338 -14.411  15.437  1.00  0.00    -0.550 OA
ENDBRANCH   6   7
ENDBRANCH   5   6
ENDBRANCH   4   5
ENDBRANCH   3   4
ENDBRANCH   2   3
ENDBRANCH   1   2
BRANCH   1  10
ATOM     10  C   UNL     1      17.463 -17.841  10.892  1.00  0.00     0.000 C 
BRANCH  10  11
ATOM     11  C   UNL     1      16.946 -17.942  12.341  1.00  0.00    -0.000 C 
BRANCH  11  12
ATOM     12  C   UNL     1      17.244 -16.716  13.222  1.00  0.00    -0.000 C 
BRANCH  12  13
ATOM     13  C   UNL     1      17.722 -17.098  14.634  1.00  0.00    -0.000 C 
BRANCH  13  14
ATOM     14  C   UNL     1      17.788 -15.879  15.577  1.00  0.00    -0.000 C 
BRANCH  14  15
ATOM     15  C   UNL     1      16.899 -16.018  16.824  1.00  0.00    -0.003 C 
ATOM     16  C   UNL     1      15.938 -17.203  16.746  1.00  0.00     0.004 C 
ENDBRANCH  14  15
ENDBRANCH  13  14
ENDBRANCH  12  13
ENDBRANCH  11  12
ENDBRANCH  10  11
ENDBRANCH   1  10
TORSDOF 12
ENDMDL
MODEL 4
REMARK VINA RESULT:    -2.399      2.661      5.256
REMARK INTER + INTRA:          -5.477
REMARK INTER:                  -4.287
REMARK INTRA:                  -1.189
REMARK UNBOUND:                -1.394
REMARK SMILES CCCCCCCCCCCCCC(=O)[O-]
REMARK SMILES IDX 8 1 9 2 10 3 11 4 12 5 13 6 14 7 15 8 16 9 7 10 6 11 5 12
REMARK SMILES IDX 4 13 3 14 2 15 1 16
REMARK H PARENT
REMARK Flexibility Score: inf
ROOT
ATOM      1  C   UNL     1      17.452 -16.055  15.679  1.00  0.00     0.000 C 
ENDROOT
BRANCH   1   2
ATOM      2  C   UNL     1      18.468 -16.106  16.836  1.00  0.00     0.000 C 
BRANCH   2   3
ATOM      3  C   UNL     1      19.923 -15.976  16.358  1.00  0.00     0.000 C 
BRANCH   3   4
ATOM      4  C   UNL     1      20.670 -17.320  16.369  1.00  0.00     0.000 C 
BRANCH   4   5
ATOM      5  C   UNL     1      22.196 -17.152  16.346  1.00  0.00     0.006 C 
BRANCH   5   6
ATOM      6  C   UNL     1      22.587 -15.763  15.829  1.00  0.00     0.053 C 
BRANCH   6   7
ATOM      7  C   UNL     1      22.931 -15.822  14.375  1.00  0.00     0.041 C 
ATOM      8  O   UNL     1      23.089 -16.934  13.807  1.00  0.00    -0.550 OA
ATOM      9  O   UNL     1      23.125 -14.648  13.659  1.00  0.00    -0.550 OA
ENDBRANCH   6   7
ENDBRANCH   5   6
ENDBRANCH   4   5
ENDBRANCH   3   4
ENDBRANCH   2   3
ENDBRANCH   1   2
BRANCH   1  10
ATOM     10  C   UNL     1      17.191 -17.403  14.976  1.00  0.00     0.000 C 
BRANCH  10  11
ATOM     11  C   UNL     1      18.030 -17.654  13.707  1.00  0.00    -0.000 C 
BRANCH  11  12
ATOM     12  C   UNL     1      18.469 -16.383  12.959  1.00  0.00    -0.000 C 
BRANCH  12  13
ATOM     13  C   UNL     1      19.731 -16.599  12.106  1.00  0.00    -0.000 C 
BRANCH  13  14
ATOM     14  C   UNL     1      19.442 -17.423  10.833  1.00  0.00    -0.000 C 
BRANCH  14  15
ATOM     15  C   UNL     1      18.246 -16.898  10.021  1.00  0.00    -0.003 C 
ATOM     16  C   UNL     1      18.565 -15.626   9.237  1.00  0.00     0.004 C 
ENDBRANCH  14  15
ENDBRANCH  13  14
ENDBRANCH  12  13
ENDBRANCH  11  12
ENDBRANCH  10  11
ENDBRANCH   1  10
TORSDOF 12
ENDMDL
MODEL 5
REMARK VINA RESULT:    -2.374      3.031      5.687
REMARK INTER + INTRA:          -5.434
REMARK INTER:                  -4.051
REMARK INTRA:                  -1.383
REMARK UNBOUND:                -1.394
REMARK SMILES CCCCCCCCCCCCCC(=O)[O-]
REMARK SMILES IDX 8 1 9 2 10 3 11 4 12 5 13 6 14 7 15 8 16 9 7 10 6 11 5 12
REMARK SMILES IDX 4 13 3 14 2 15 1 16
REMARK H PARENT
REMARK Flexibility Score: inf
ROOT
ATOM      1  C   UNL     1      18.910 -15.907  12.319  1.00  0.00     0.000 C 
ENDROOT
BRANCH   1   2
ATOM      2  C   UNL     1      17.694 -16.076  13.249  1.00  0.00     0.000 C 
BRANCH   2   3
ATOM      3  C   UNL     1      17.560 -17.505  13.801  1.00  0.00     0.000 C 
BRANCH   3   4
ATOM      4  C   UNL     1      18.819 -17.967  14.553  1.00  0.00     0.000 C 
BRANCH   4   5
ATOM      5  C   UNL     1      18.604 -18.065  16.070  1.00  0.00     0.006 C 
BRANCH   5   6
ATOM      6  C   UNL     1      17.252 -17.465  16.471  1.00  0.00     0.053 C 
BRANCH   6   7
ATOM      7  C   UNL     1      17.422 -16.052  16.931  1.00  0.00     0.041 C 
ATOM      8  O   UNL     1      16.414 -15.317  17.102  1.00  0.00    -0.550 OA
ATOM      9  O   UNL     1      18.695 -15.532  17.125  1.00  0.00    -0.550 OA
ENDBRANCH   6   7
ENDBRANCH   5   6
ENDBRANCH   4   5
ENDBRANCH   3   4
ENDBRANCH   2   3
ENDBRANCH   1   2
BRANCH   1  10
ATOM     10  C   UNL     1      18.820 -16.668  10.979  1.00  0.00     0.000 C 
BRANCH  10  11
ATOM     11  C   UNL     1      19.717 -17.918  10.874  1.00  0.00    -0.000 C 
BRANCH  11  12
ATOM     12  C   UNL     1      21.224 -17.648  11.027  1.00  0.00    -0.000 C 
BRANCH  12  13
ATOM     13  C   UNL     1      21.781 -18.123  12.381  1.00  0.00    -0.000 C 
BRANCH  13  14
ATOM     14  C   UNL     1      22.681 -17.062  13.046  1.00  0.00    -0.000 C 
BRANCH  14  15
ATOM     15  C   UNL     1      21.999 -16.318  14.206  1.00  0.00    -0.003 C 
ATOM     16  C   UNL     1      22.251 -14.811  14.183  1.00  0.00     0.004 C 
ENDBRANCH  14  15
ENDBRANCH  13  14
ENDBRANCH  12  13
ENDBRANCH  11  12
ENDBRANCH  10  11
ENDBRANCH   1  10
TORSDOF 12
ENDMDL
MODEL 6
REMARK VINA RESULT:    -2.174      3.086      5.915
REMARK INTER + INTRA:          -5.093
REMARK INTER:                  -3.862
REMARK INTRA:                  -1.231
REMARK UNBOUND:                -1.394
REMARK SMILES CCCCCCCCCCCCCC(=O)[O-]
REMARK SMILES IDX 8 1 9 2 10 3 11 4 12 5 13 6 14 7 15 8 16 9 7 10 6 11 5 12
REMARK SMILES IDX 4 13 3 14 2 15 1 16
REMARK H PARENT
REMARK Flexibility Score: inf
ROOT
ATOM      1  C   UNL     1      18.784 -15.592  13.330  1.00  0.00     0.000 C 
ENDROOT
BRANCH   1   2
ATOM      2  C   UNL     1      18.027 -16.097  14.572  1.00  0.00     0.000 C 
BRANCH   2   3
ATOM      3  C   UNL     1      18.920 -16.188  15.820  1.00  0.00     0.000 C 
BRANCH   3   4
ATOM      4  C   UNL     1      18.108 -16.270  17.122  1.00  0.00     0.000 C 
BRANCH   4   5
ATOM      5  C   UNL     1      16.592 -16.286  16.878  1.00  0.00     0.006 C 
BRANCH   5   6
ATOM      6  C   UNL     1      16.023 -17.698  17.052  1.00  0.00     0.053 C 
BRANCH   6   7
ATOM      7  C   UNL     1      14.827 -17.894  16.176  1.00  0.00     0.041 C 
ATOM      8  O   UNL     1      14.972 -18.125  14.947  1.00  0.00    -0.550 OA
ATOM      9  O   UNL     1      13.550 -17.773  16.708  1.00  0.00    -0.550 OA
ENDBRANCH   6   7
ENDBRANCH   5   6
ENDBRANCH   4   5
ENDBRANCH   3   4
ENDBRANCH   2   3
ENDBRANCH   1   2
BRANCH   1  10
ATOM     10  C   UNL     1      18.607 -16.450  12.061  1.00  0.00     0.000 C 
BRANCH  10  11
ATOM     11  C   UNL     1      19.796 -17.371  11.720  1.00  0.00    -0.000 C 
BRANCH  11  12
ATOM     12  C   UNL     1      20.575 -17.898  12.938  1.00  0.00    -0.000 C 
BRANCH  12  13
ATOM     13  C   UNL     1      22.097 -17.728  12.792  1.00  0.00    -0.000 C 
BRANCH  13  14
ATOM     14  C   UNL     1      22.582 -16.353  13.298  1.00  0.00    -0.000 C 
BRANCH  14  15
ATOM     15  C   UNL     1      22.514 -16.203  14.826  1.00  0.00    -0.003 C 
ATOM     16  C   UNL     1      22.370 -14.751  15.281  1.00  0.00     0.004 C 
ENDBRANCH  14  15
ENDBRANCH  13  14
ENDBRANCH  12  13
ENDBRANCH  11  12
ENDBRANCH  10  11
ENDBRANCH   1  10
TORSDOF 12
ENDMDL
MODEL 7
REMARK VINA RESULT:    -2.171      3.012      6.020
REMARK INTER + INTRA:          -5.088
REMARK INTER:                  -3.978
REMARK INTRA:                  -1.110
REMARK UNBOUND:                -1.394
REMARK SMILES CCCCCCCCCCCCCC(=O)[O-]
REMARK SMILES IDX 8 1 9 2 10 3 11 4 12 5 13 6 14 7 15 8 16 9 7 10 6 11 5 12
REMARK SMILES IDX 4 13 3 14 2 15 1 16
REMARK H PARENT
REMARK Flexibility Score: inf
ROOT
ATOM      1  C   UNL     1      17.470 -18.076  14.259  1.00  0.00     0.000 C 
ENDROOT
BRANCH   1   2
ATOM      2  C   UNL     1      17.278 -17.306  15.579  1.00  0.00     0.000 C 
BRANCH   2   3
ATOM      3  C   UNL     1      17.864 -15.886  15.531  1.00  0.00     0.000 C 
BRANCH   3   4
ATOM      4  C   UNL     1      19.398 -15.876  15.628  1.00  0.00     0.000 C 
BRANCH   4   5
ATOM      5  C   UNL     1      20.074 -15.434  14.322  1.00  0.00     0.006 C 
BRANCH   5   6
ATOM      6  C   UNL     1      21.486 -16.019  14.211  1.00  0.00     0.053 C 
BRANCH   6   7
ATOM      7  C   UNL     1      22.235 -15.826  15.491  1.00  0.00     0.041 C 
ATOM      8  O   UNL     1      22.585 -14.672  15.853  1.00  0.00    -0.550 OA
ATOM      9  O   UNL     1      22.589 -16.927  16.261  1.00  0.00    -0.550 OA
ENDBRANCH   6   7
ENDBRANCH   5   6
ENDBRANCH   4   5
ENDBRANCH   3   4
ENDBRANCH   2   3
ENDBRANCH   1   2
BRANCH   1  10
ATOM     10  C   UNL     1      17.012 -17.327  12.991  1.00  0.00     0.000 C 
BRANCH  10  11
ATOM     11  C   UNL     1      17.135 -18.125  11.677  1.00  0.00    -0.000 C 
BRANCH  11  12
ATOM     12  C   UNL     1      17.899 -17.405  10.552  1.00  0.00    -0.000 C 
BRANCH  12  13
ATOM     13  C   UNL     1      19.285 -16.905  10.998  1.00  0.00    -0.000 C 
BRANCH  13  14
ATOM     14  C   UNL     1      20.430 -17.747  10.400  1.00  0.00    -0.000 C 
BRANCH  14  15
ATOM     15  C   UNL     1      21.648 -17.877  11.329  1.00  0.00    -0.003 C 
ATOM     16  C   UNL     1      22.981 -17.759  10.592  1.00  0.00     0.004 C 
ENDBRANCH  14  15
ENDBRANCH  13  14
ENDBRANCH  12  13
ENDBRANCH  11  12
ENDBRANCH  10  11
ENDBRANCH   1  10
TORSDOF 12
ENDMDL
MODEL 8
REMARK VINA RESULT:    -2.130      2.797      4.050
REMARK INTER + INTRA:          -5.018
REMARK INTER:                  -3.673
REMARK INTRA:                  -1.345
REMARK UNBOUND:                -1.394
REMARK SMILES CCCCCCCCCCCCCC(=O)[O-]
REMARK SMILES IDX 8 1 9 2 10 3 11 4 12 5 13 6 14 7 15 8 16 9 7 10 6 11 5 12
REMARK SMILES IDX 4 13 3 14 2 15 1 16
REMARK H PARENT
REMARK Flexibility Score: inf
ROOT
ATOM      1  C   UNL     1      18.629 -16.378  12.533  1.00  0.00     0.000 C 
ENDROOT
BRANCH   1   2
ATOM      2  C   UNL     1      19.057 -16.849  11.131  1.00  0.00     0.000 C 
BRANCH   2   3
ATOM      3  C   UNL     1      19.967 -18.088  11.170  1.00  0.00     0.000 C 
BRANCH   3   4
ATOM      4  C   UNL     1      21.346 -17.826  10.544  1.00  0.00     0.000 C 
BRANCH   4   5
ATOM      5  C   UNL     1      22.463 -17.715  11.592  1.00  0.00     0.006 C 
BRANCH   5   6
ATOM      6  C   UNL     1      21.936 -18.050  12.991  1.00  0.00     0.053 C 
BRANCH   6   7
ATOM      7  C   UNL     1      22.280 -16.960  13.956  1.00  0.00     0.041 C 
ATOM      8  O   UNL     1      22.986 -17.209  14.968  1.00  0.00    -0.550 OA
ATOM      9  O   UNL     1      21.779 -15.679  13.764  1.00  0.00    -0.550 OA
ENDBRANCH   6   7
ENDBRANCH   5   6
ENDBRANCH   4   5
ENDBRANCH   3   4
ENDBRANCH   2   3
ENDBRANCH   1   2
BRANCH   1  10
ATOM     10  C   UNL     1      17.938 -17.449  13.401  1.00  0.00     0.000 C 
BRANCH  10  11
ATOM     11  C   UNL     1      18.700 -17.846  14.682  1.00  0.00    -0.000 C 
BRANCH  11  12
ATOM     12  C   UNL     1      18.732 -16.766  15.777  1.00  0.00    -0.000 C 
BRANCH  12  13
ATOM     13  C   UNL     1      17.443 -15.926  15.825  1.00  0.00    -0.000 C 
BRANCH  13  14
ATOM     14  C   UNL     1      16.575 -16.259  17.056  1.00  0.00    -0.000 C 
BRANCH  14  15
ATOM     15  C   UNL     1      16.146 -17.734  17.125  1.00  0.00    -0.003 C 
ATOM     16  C   UNL     1      15.163 -18.125  16.022  1.00  0.00     0.004 C 
ENDBRANCH  14  15
ENDBRANCH  13  14
ENDBRANCH  12  13
ENDBRANCH  11  12
ENDBRANCH  10  11
ENDBRANCH   1  10
TORSDOF 12
ENDMDL
MODEL 9
REMARK VINA RESULT:    -2.055      2.549      4.688
REMARK INTER + INTRA:          -4.890
REMARK INTER:                  -3.546
REMARK INTRA:                  -1.344
REMARK UNBOUND:                -1.394
REMARK SMILES CCCCCCCCCCCCCC(=O)[O-]
REMARK SMILES IDX 8 1 9 2 10 3 11 4 12 5 13 6 14 7 15 8 16 9 7 10 6 11 5 12
REMARK SMILES IDX 4 13 3 14 2 15 1 16
REMARK H PARENT
REMARK Flexibility Score: inf
ROOT
ATOM      1  C   UNL     1      21.968 -15.545  13.561  1.00  0.00     0.000 C 
ENDROOT
BRANCH   1   2
ATOM      2  C   UNL     1      22.147 -15.006  14.992  1.00  0.00     0.000 C 
BRANCH   2   3
ATOM      3  C   UNL     1      21.876 -16.070  16.068  1.00  0.00     0.000 C 
BRANCH   3   4
ATOM      4  C   UNL     1      20.866 -15.596  17.125  1.00  0.00     0.000 C 
BRANCH   4   5
ATOM      5  C   UNL     1      19.545 -16.379  17.078  1.00  0.00     0.006 C 
BRANCH   5   6
ATOM      6  C   UNL     1      18.624 -15.834  15.981  1.00  0.00     0.053 C 
BRANCH   6   7
ATOM      7  C   UNL     1      17.315 -16.557  15.988  1.00  0.00     0.041 C 
ATOM      8  O   UNL     1      17.137 -17.551  15.236  1.00  0.00    -0.550 OA
ATOM      9  O   UNL     1      16.275 -16.104  16.790  1.00  0.00    -0.550 OA
ENDBRANCH   6   7
ENDBRANCH   5   6
ENDBRANCH   4   5
ENDBRANCH   3   4
ENDBRANCH   2   3
ENDBRANCH   1   2
BRANCH   1  10
ATOM     10  C   UNL     1      22.665 -16.892  13.276  1.00  0.00     0.000 C 
BRANCH  10  11
ATOM     11  C   UNL     1      21.716 -18.081  13.021  1.00  0.00    -0.000 C 
BRANCH  11  12
ATOM     12  C   UNL     1      20.238 -17.813  13.357  1.00  0.00    -0.000 C 
BRANCH  12  13
ATOM     13  C   UNL     1      19.293 -18.124  12.183  1.00  0.00    -0.000 C 
BRANCH  13  14
ATOM     14  C   UNL     1      18.370 -16.935  11.846  1.00  0.00    -0.000 C 
BRANCH  14  15
ATOM     15  C   UNL     1      18.863 -16.092  10.658  1.00  0.00    -0.003 C 
ATOM     16  C   UNL     1      18.148 -16.425   9.349  1.00  0.00     0.004 C 
ENDBRANCH  14  15
ENDBRANCH  13  14
ENDBRANCH  12  13
ENDBRANCH  11  12
ENDBRANCH  10  11
ENDBRANCH   1  10
TORSDOF 12
ENDMDL
