MODEL 1
REMARK VINA RESULT:    -2.947      0.000      0.000
REMARK INTER + INTRA:          -3.610
REMARK INTER:                  -3.464
REMARK INTRA:                  -0.145
REMARK UNBOUND:                -0.145
REMARK SMILES O=C([O-])CCC(=O)[O-]
REMARK SMILES IDX 4 1 2 2 1 3 3 4 5 5 6 6 7 7 8 8
REMARK H PARENT
REMARK Flexibility Score: inf
ROOT
ATOM      1  C   UNL     1     186.161 180.912 201.392  1.00  0.00     0.059 C 
ENDROOT
BRANCH   1   2
ATOM      2  C   UNL     1     184.821 181.568 201.289  1.00  0.00     0.042 C 
ATOM      3  O   UNL     1     183.798 180.882 201.028  1.00  0.00    -0.550 OA
ATOM      4  O   UNL     1     184.708 182.945 201.432  1.00  0.00    -0.550 OA
ENDBRANCH   1   2
BRANCH   1   5
ATOM      5  C   UNL     1     187.123 181.491 200.353  1.00  0.00     0.059 C 
BRANCH   5   6
ATOM      6  C   UNL     1     186.773 181.002 198.984  1.00  0.00     0.042 C 
ATOM      7  O   UNL     1     186.942 181.747 197.983  1.00  0.00    -0.550 OA
ATOM      8  O   UNL     1     186.306 179.707 198.806  1.00  0.00    -0.550 OA
ENDBRANCH   5   6
ENDBRANCH   1   5
TORSDOF 3
ENDMDL
MODEL 2
REMARK VINA RESULT:    -2.938     17.048     18.058
REMARK INTER + INTRA:          -3.598
REMARK INTER:                  -3.484
REMARK INTRA:                  -0.114
REMARK UNBOUND:                -0.145
REMARK SMILES O=C([O-])CCC(=O)[O-]
REMARK SMILES IDX 4 1 2 2 1 3 3 4 5 5 6 6 7 7 8 8
REMARK H PARENT
REMARK Flexibility Score: inf
ROOT
ATOM      1  C   UNL     1     185.258 194.587 189.967  1.00  0.00     0.059 C 
ENDROOT
BRANCH   1   2
ATOM      2  C   UNL     1     186.420 195.325 189.382  1.00  0.00     0.042 C 
ATOM      3  O   UNL     1     186.273 196.009 188.335  1.00  0.00    -0.550 OA
ATOM      4  O   UNL     1     187.677 195.218 189.962  1.00  0.00    -0.550 OA
ENDBRANCH   1   2
BRANCH   1   5
ATOM      5  C   UNL     1     183.942 195.122 189.400  1.00  0.00     0.059 C 
BRANCH   5   6
ATOM      6  C   UNL     1     183.316 196.091 190.351  1.00  0.00     0.042 C 
ATOM      7  O   UNL     1     183.684 197.295 190.363  1.00  0.00    -0.550 OA
ATOM      8  O   UNL     1     182.291 195.677 191.192  1.00  0.00    -0.550 OA
ENDBRANCH   5   6
ENDBRANCH   1   5
TORSDOF 3
ENDMDL
MODEL 3
REMARK VINA RESULT:    -2.924      0.196      3.575
REMARK INTER + INTRA:          -3.582
REMARK INTER:                  -3.424
REMARK INTRA:                  -0.158
REMARK UNBOUND:                -0.145
REMARK SMILES O=C([O-])CCC(=O)[O-]
REMARK SMILES IDX 4 1 2 2 1 3 3 4 5 5 6 6 7 7 8 8
REMARK H PARENT
REMARK Flexibility Score: inf
ROOT
ATOM      1  C   UNL     1     187.139 181.536 200.394  1.00  0.00     0.059 C 
ENDROOT
BRANCH   1   2
ATOM      2  C   UNL     1     186.801 181.051 199.020  1.00  0.00     0.042 C 
ATOM      3  O   UNL     1     186.894 181.828 198.033  1.00  0.00    -0.550 OA
ATOM      4  O   UNL     1     186.336 179.756 198.834  1.00  0.00    -0.550 OA
ENDBRANCH   1   2
BRANCH   1   5
ATOM      5  C   UNL     1     186.089 181.066 201.402  1.00  0.00     0.059 C 
BRANCH   5   6
ATOM      6  C   UNL     1     184.787 181.764 201.167  1.00  0.00     0.042 C 
ATOM      7  O   UNL     1     183.722 181.100 201.062  1.00  0.00    -0.550 OA
ATOM      8  O   UNL     1     184.741 183.151 201.115  1.00  0.00    -0.550 OA
ENDBRANCH   5   6
ENDBRANCH   1   5
TORSDOF 3
ENDMDL
MODEL 4
REMARK VINA RESULT:    -2.916     17.018     17.779
REMARK INTER + INTRA:          -3.572
REMARK INTER:                  -3.459
REMARK INTRA:                  -0.113
REMARK UNBOUND:                -0.145
REMARK SMILES O=C([O-])CCC(=O)[O-]
REMARK SMILES IDX 4 1 2 2 1 3 3 4 5 5 6 6 7 7 8 8
REMARK H PARENT
REMARK Flexibility Score: inf
ROOT
ATOM      1  C   UNL     1     183.904 195.072 189.397  1.00  0.00     0.059 C 
ENDROOT
BRANCH   1   2
ATOM      2  C   UNL     1     183.263 196.048 190.331  1.00  0.00     0.042 C 
ATOM      3  O   UNL     1     183.659 197.243 190.367  1.00  0.00    -0.550 OA
ATOM      4  O   UNL     1     182.263 195.628 191.198  1.00  0.00    -0.550 OA
ENDBRANCH   1   2
BRANCH   1   5
ATOM      5  C   UNL     1     185.220 194.555 189.981  1.00  0.00     0.059 C 
BRANCH   5   6
ATOM      6  C   UNL     1     186.382 195.272 189.372  1.00  0.00     0.042 C 
ATOM      7  O   UNL     1     186.223 195.971 188.337  1.00  0.00    -0.550 OA
ATOM      8  O   UNL     1     187.631 195.212 189.976  1.00  0.00    -0.550 OA
ENDBRANCH   5   6
ENDBRANCH   1   5
TORSDOF 3
ENDMDL
MODEL 5
REMARK VINA RESULT:    -2.864      1.991      2.765
REMARK INTER + INTRA:          -3.512
REMARK INTER:                  -3.405
REMARK INTRA:                  -0.106
REMARK UNBOUND:                -0.145
REMARK SMILES O=C([O-])CCC(=O)[O-]
REMARK SMILES IDX 4 1 2 2 1 3 3 4 5 5 6 6 7 7 8 8
REMARK H PARENT
REMARK Flexibility Score: inf
ROOT
ATOM      1  C   UNL     1     187.139 181.307 201.489  1.00  0.00     0.059 C 
ENDROOT
BRANCH   1   2
ATOM      2  C   UNL     1     187.595 182.700 201.189  1.00  0.00     0.042 C 
ATOM      3  O   UNL     1     186.833 183.498 200.582  1.00  0.00    -0.550 OA
ATOM      4  O   UNL     1     188.878 183.101 201.533  1.00  0.00    -0.550 OA
ENDBRANCH   1   2
BRANCH   1   5
ATOM      5  C   UNL     1     185.785 181.032 200.831  1.00  0.00     0.059 C 
BRANCH   5   6
ATOM      6  C   UNL     1     185.952 180.144 199.639  1.00  0.00     0.042 C 
ATOM      7  O   UNL     1     185.317 179.059 199.565  1.00  0.00    -0.550 OA
ATOM      8  O   UNL     1     186.769 180.536 198.588  1.00  0.00    -0.550 OA
ENDBRANCH   5   6
ENDBRANCH   1   5
TORSDOF 3
ENDMDL
MODEL 6
REMARK VINA RESULT:    -2.846      1.908      2.721
REMARK INTER + INTRA:          -3.490
REMARK INTER:                  -3.398
REMARK INTRA:                  -0.092
REMARK UNBOUND:                -0.145
REMARK SMILES O=C([O-])CCC(=O)[O-]
REMARK SMILES IDX 4 1 2 2 1 3 3 4 5 5 6 6 7 7 8 8
REMARK H PARENT
REMARK Flexibility Score: inf
ROOT
ATOM      1  C   UNL     1     185.875 180.168 201.984  1.00  0.00     0.059 C 
ENDROOT
BRANCH   1   2
ATOM      2  C   UNL     1     184.936 179.922 200.845  1.00  0.00     0.042 C 
ATOM      3  O   UNL     1     183.739 180.307 200.917  1.00  0.00    -0.550 OA
ATOM      4  O   UNL     1     185.368 179.224 199.725  1.00  0.00    -0.550 OA
ENDBRANCH   1   2
BRANCH   1   5
ATOM      5  C   UNL     1     186.253 181.648 202.057  1.00  0.00     0.059 C 
BRANCH   5   6
ATOM      6  C   UNL     1     187.560 181.890 201.371  1.00  0.00     0.042 C 
ATOM      7  O   UNL     1     188.596 182.123 202.046  1.00  0.00    -0.550 OA
ATOM      8  O   UNL     1     187.644 181.809 199.987  1.00  0.00    -0.550 OA
ENDBRANCH   5   6
ENDBRANCH   1   5
TORSDOF 3
ENDMDL
MODEL 7
REMARK VINA RESULT:    -2.832     17.872     18.607
REMARK INTER + INTRA:          -3.474
REMARK INTER:                  -3.385
REMARK INTRA:                  -0.089
REMARK UNBOUND:                -0.145
REMARK SMILES O=C([O-])CCC(=O)[O-]
REMARK SMILES IDX 4 1 2 2 1 3 3 4 5 5 6 6 7 7 8 8
REMARK H PARENT
REMARK Flexibility Score: inf
ROOT
ATOM      1  C   UNL     1     194.904 198.325 200.858  1.00  0.00     0.059 C 
ENDROOT
BRANCH   1   2
ATOM      2  C   UNL     1     193.670 197.583 200.455  1.00  0.00     0.042 C 
ATOM      3  O   UNL     1     192.676 197.541 201.228  1.00  0.00    -0.550 OA
ATOM      4  O   UNL     1     193.633 196.896 199.250  1.00  0.00    -0.550 OA
ENDBRANCH   1   2
BRANCH   1   5
ATOM      5  C   UNL     1     195.507 197.716 202.125  1.00  0.00     0.059 C 
BRANCH   5   6
ATOM      6  C   UNL     1     196.625 196.785 201.778  1.00  0.00     0.042 C 
ATOM      7  O   UNL     1     197.661 197.222 201.212  1.00  0.00    -0.550 OA
ATOM      8  O   UNL     1     196.545 195.442 202.124  1.00  0.00    -0.550 OA
ENDBRANCH   5   6
ENDBRANCH   1   5
TORSDOF 3
ENDMDL
MODEL 8
REMARK VINA RESULT:    -2.771     17.871     18.629
REMARK INTER + INTRA:          -3.402
REMARK INTER:                  -3.292
REMARK INTRA:                  -0.110
REMARK UNBOUND:                -0.145
REMARK SMILES O=C([O-])CCC(=O)[O-]
REMARK SMILES IDX 4 1 2 2 1 3 3 4 5 5 6 6 7 7 8 8
REMARK H PARENT
REMARK Flexibility Score: inf
ROOT
ATOM      1  C   UNL     1     194.901 197.926 202.010  1.00  0.00     0.059 C 
ENDROOT
BRANCH   1   2
ATOM      2  C   UNL     1     195.895 196.809 201.956  1.00  0.00     0.042 C 
ATOM      3  O   UNL     1     195.519 195.619 202.125  1.00  0.00    -0.550 OA
ATOM      4  O   UNL     1     197.243 197.085 201.770  1.00  0.00    -0.550 OA
ENDBRANCH   1   2
BRANCH   1   5
ATOM      5  C   UNL     1     194.533 198.385 200.598  1.00  0.00     0.059 C 
BRANCH   5   6
ATOM      6  C   UNL     1     193.132 197.983 200.265  1.00  0.00     0.042 C 
ATOM      7  O   UNL     1     192.491 197.220 201.036  1.00  0.00    -0.550 OA
ATOM      8  O   UNL     1     192.514 198.489 199.129  1.00  0.00    -0.550 OA
ENDBRANCH   5   6
ENDBRANCH   1   5
TORSDOF 3
ENDMDL
MODEL 9
REMARK VINA RESULT:    -2.764      1.935      2.455
REMARK INTER + INTRA:          -3.394
REMARK INTER:                  -3.319
REMARK INTRA:                  -0.075
REMARK UNBOUND:                -0.145
REMARK SMILES O=C([O-])CCC(=O)[O-]
REMARK SMILES IDX 4 1 2 2 1 3 3 4 5 5 6 6 7 7 8 8
REMARK H PARENT
REMARK Flexibility Score: inf
ROOT
ATOM      1  C   UNL     1     186.001 180.266 202.125  1.00  0.00     0.059 C 
ENDROOT
BRANCH   1   2
ATOM      2  C   UNL     1     184.766 179.942 201.346  1.00  0.00     0.042 C 
ATOM      3  O   UNL     1     184.764 178.978 200.536  1.00  0.00    -0.550 OA
ATOM      4  O   UNL     1     183.633 180.735 201.475  1.00  0.00    -0.550 OA
ENDBRANCH   1   2
BRANCH   1   5
ATOM      5  C   UNL     1     186.350 181.749 201.985  1.00  0.00     0.059 C 
BRANCH   5   6
ATOM      6  C   UNL     1     187.501 181.931 201.047  1.00  0.00     0.042 C 
ATOM      7  O   UNL     1     187.428 181.504 199.865  1.00  0.00    -0.550 OA
ATOM      8  O   UNL     1     188.635 182.615 201.463  1.00  0.00    -0.550 OA
ENDBRANCH   5   6
ENDBRANCH   1   5
TORSDOF 3
ENDMDL
