MODEL 1
REMARK VINA RESULT:    -6.535      0.000      0.000
REMARK INTER + INTRA:          -6.726
REMARK INTER:                  -6.726
REMARK INTRA:                   0.000
REMARK UNBOUND:                 0.000
REMARK SMILES O=c1ccc2ccc(O)cc2o1
REMARK SMILES IDX 6 1 7 2 8 3 10 4 11 5 5 6 4 7 3 8 2 9 1 10 12 11 9 12
REMARK H PARENT 9 13
REMARK Flexibility Score: inf
ROOT
ATOM      1  C   UNL     1     -13.074   2.949  -9.449  1.00  0.00     0.016 A 
ATOM      2  C   UNL     1     -11.766   3.431  -9.337  1.00  0.00     0.047 A 
ATOM      3  C   UNL     1     -10.679   2.549  -9.401  1.00  0.00     0.119 A 
ATOM      4  C   UNL     1     -10.903   1.175  -9.577  1.00  0.00     0.094 A 
ATOM      5  C   UNL     1     -12.209   0.685  -9.689  1.00  0.00     0.142 A 
ATOM      6  C   UNL     1     -13.302   1.577  -9.624  1.00  0.00     0.018 A 
ATOM      7  C   UNL     1     -14.595   1.057  -9.739  1.00  0.00     0.019 A 
ATOM      8  C   UNL     1     -14.768  -0.316  -9.913  1.00  0.00     0.094 A 
ATOM      9  C   UNL     1     -13.638  -1.140  -9.968  1.00  0.00     0.336 A 
ATOM     10  O   UNL     1     -13.773  -2.381 -10.124  1.00  0.00    -0.246 OA
ATOM     11  O   UNL     1     -12.418  -0.619  -9.855  1.00  0.00    -0.423 OA
ENDROOT
BRANCH   3  12
ATOM     12  O   UNL     1      -9.384   3.047  -9.288  1.00  0.00    -0.508 OA
ATOM     13  H   UNL     1      -8.584   2.524  -9.625  1.00  0.00     0.293 HD
ENDBRANCH   3  12
TORSDOF 1
ENDMDL
MODEL 2
REMARK VINA RESULT:    -6.096      1.626      2.500
REMARK INTER + INTRA:          -6.274
REMARK INTER:                  -6.274
REMARK INTRA:                   0.000
REMARK UNBOUND:                 0.000
REMARK SMILES O=c1ccc2ccc(O)cc2o1
REMARK SMILES IDX 6 1 7 2 8 3 10 4 11 5 5 6 4 7 3 8 2 9 1 10 12 11 9 12
REMARK H PARENT 9 13
REMARK Flexibility Score: inf
ROOT
ATOM      1  C   UNL     1     -10.878   2.174  -9.601  1.00  0.00     0.016 A 
ATOM      2  C   UNL     1     -11.622   3.332  -9.354  1.00  0.00     0.047 A 
ATOM      3  C   UNL     1     -13.018   3.267  -9.247  1.00  0.00     0.119 A 
ATOM      4  C   UNL     1     -13.673   2.034  -9.389  1.00  0.00     0.094 A 
ATOM      5  C   UNL     1     -12.936   0.871  -9.637  1.00  0.00     0.142 A 
ATOM      6  C   UNL     1     -11.529   0.941  -9.743  1.00  0.00     0.018 A 
ATOM      7  C   UNL     1     -10.819  -0.238  -9.991  1.00  0.00     0.019 A 
ATOM      8  C   UNL     1     -11.515  -1.440 -10.125  1.00  0.00     0.094 A 
ATOM      9  C   UNL     1     -12.909  -1.433 -10.007  1.00  0.00     0.336 A 
ATOM     10  O   UNL     1     -13.554  -2.507 -10.124  1.00  0.00    -0.246 OA
ATOM     11  O   UNL     1     -13.560  -0.296  -9.771  1.00  0.00    -0.423 OA
ENDROOT
BRANCH   3  12
ATOM     12  O   UNL     1     -13.742   4.430  -9.001  1.00  0.00    -0.508 OA
ATOM     13  H   UNL     1     -13.559   5.006  -8.188  1.00  0.00     0.293 HD
ENDBRANCH   3  12
TORSDOF 1
ENDMDL
MODEL 3
REMARK VINA RESULT:    -5.349     16.575     17.176
REMARK INTER + INTRA:          -5.505
REMARK INTER:                  -5.505
REMARK INTRA:                   0.000
REMARK UNBOUND:                 0.000
REMARK SMILES O=c1ccc2ccc(O)cc2o1
REMARK SMILES IDX 6 1 7 2 8 3 10 4 11 5 5 6 4 7 3 8 2 9 1 10 12 11 9 12
REMARK H PARENT 9 13
REMARK Flexibility Score: inf
ROOT
ATOM      1  C   UNL     1     -10.860   5.113   6.204  1.00  0.00     0.016 A 
ATOM      2  C   UNL     1     -10.980   4.679   4.881  1.00  0.00     0.047 A 
ATOM      3  C   UNL     1     -11.561   3.437   4.593  1.00  0.00     0.119 A 
ATOM      4  C   UNL     1     -12.024   2.622   5.637  1.00  0.00     0.094 A 
ATOM      5  C   UNL     1     -11.907   3.049   6.965  1.00  0.00     0.142 A 
ATOM      6  C   UNL     1     -11.321   4.302   7.251  1.00  0.00     0.018 A 
ATOM      7  C   UNL     1     -11.218   4.701   8.587  1.00  0.00     0.019 A 
ATOM      8  C   UNL     1     -11.692   3.857   9.591  1.00  0.00     0.094 A 
ATOM      9  C   UNL     1     -12.261   2.629   9.233  1.00  0.00     0.336 A 
ATOM     10  O   UNL     1     -12.694   1.854  10.125  1.00  0.00    -0.246 OA
ATOM     11  O   UNL     1     -12.346   2.274   7.953  1.00  0.00    -0.423 OA
ENDROOT
BRANCH   3  12
ATOM     12  O   UNL     1     -11.672   3.022   3.268  1.00  0.00    -0.508 OA
ATOM     13  H   UNL     1     -10.932   3.191   2.596  1.00  0.00     0.293 HD
ENDBRANCH   3  12
TORSDOF 1
ENDMDL
MODEL 4
REMARK VINA RESULT:    -5.321     17.167     17.975
REMARK INTER + INTRA:          -5.476
REMARK INTER:                  -5.476
REMARK INTRA:                   0.000
REMARK UNBOUND:                 0.000
REMARK SMILES O=c1ccc2ccc(O)cc2o1
REMARK SMILES IDX 6 1 7 2 8 3 10 4 11 5 5 6 4 7 3 8 2 9 1 10 12 11 9 12
REMARK H PARENT 9 13
REMARK Flexibility Score: inf
ROOT
ATOM      1  C   UNL     1     -11.265   4.515   9.526  1.00  0.00     0.016 A 
ATOM      2  C   UNL     1     -11.874   3.408  10.123  1.00  0.00     0.047 A 
ATOM      3  C   UNL     1     -12.281   2.317   9.343  1.00  0.00     0.119 A 
ATOM      4  C   UNL     1     -12.077   2.336   7.955  1.00  0.00     0.094 A 
ATOM      5  C   UNL     1     -11.468   3.440   7.349  1.00  0.00     0.142 A 
ATOM      6  C   UNL     1     -11.059   4.537   8.139  1.00  0.00     0.018 A 
ATOM      7  C   UNL     1     -10.454   5.627   7.505  1.00  0.00     0.019 A 
ATOM      8  C   UNL     1     -10.272   5.599   6.122  1.00  0.00     0.094 A 
ATOM      9  C   UNL     1     -10.703   4.477   5.403  1.00  0.00     0.336 A 
ATOM     10  O   UNL     1     -10.548   4.433   4.156  1.00  0.00    -0.246 OA
ATOM     11  O   UNL     1     -11.277   3.454   6.033  1.00  0.00    -0.423 OA
ENDROOT
BRANCH   3  12
ATOM     12  O   UNL     1     -12.887   1.224   9.957  1.00  0.00    -0.508 OA
ATOM     13  H   UNL     1     -13.582   0.664   9.476  1.00  0.00     0.293 HD
ENDBRANCH   3  12
TORSDOF 1
ENDMDL
MODEL 5
REMARK VINA RESULT:    -4.952      6.255      7.449
REMARK INTER + INTRA:          -5.097
REMARK INTER:                  -5.097
REMARK INTRA:                   0.000
REMARK UNBOUND:                 0.000
REMARK SMILES O=c1ccc2ccc(O)cc2o1
REMARK SMILES IDX 6 1 7 2 8 3 10 4 11 5 5 6 4 7 3 8 2 9 1 10 12 11 9 12
REMARK H PARENT 9 13
REMARK Flexibility Score: inf
ROOT
ATOM      1  C   UNL     1     -11.160  -5.245  -9.613  1.00  0.00     0.016 A 
ATOM      2  C   UNL     1     -10.228  -4.336 -10.125  1.00  0.00     0.047 A 
ATOM      3  C   UNL     1      -9.145  -3.917  -9.341  1.00  0.00     0.119 A 
ATOM      4  C   UNL     1      -8.994  -4.409  -8.037  1.00  0.00     0.094 A 
ATOM      5  C   UNL     1      -9.921  -5.319  -7.517  1.00  0.00     0.142 A 
ATOM      6  C   UNL     1     -11.012  -5.739  -8.310  1.00  0.00     0.018 A 
ATOM      7  C   UNL     1     -11.923  -6.649  -7.763  1.00  0.00     0.019 A 
ATOM      8  C   UNL     1     -11.730  -7.110  -6.461  1.00  0.00     0.094 A 
ATOM      9  C   UNL     1     -10.626  -6.650  -5.734  1.00  0.00     0.336 A 
ATOM     10  O   UNL     1     -10.436  -7.055  -4.558  1.00  0.00    -0.246 OA
ATOM     11  O   UNL     1      -9.775  -5.784  -6.279  1.00  0.00    -0.423 OA
ENDROOT
BRANCH   3  12
ATOM     12  O   UNL     1      -8.228  -3.011  -9.868  1.00  0.00    -0.508 OA
ATOM     13  H   UNL     1      -7.524  -3.299 -10.539  1.00  0.00     0.293 HD
ENDBRANCH   3  12
TORSDOF 1
ENDMDL
MODEL 6
REMARK VINA RESULT:    -4.936     16.583     17.654
REMARK INTER + INTRA:          -5.080
REMARK INTER:                  -5.080
REMARK INTRA:                   0.000
REMARK UNBOUND:                 0.000
REMARK SMILES O=c1ccc2ccc(O)cc2o1
REMARK SMILES IDX 6 1 7 2 8 3 10 4 11 5 5 6 4 7 3 8 2 9 1 10 12 11 9 12
REMARK H PARENT 9 13
REMARK Flexibility Score: inf
ROOT
ATOM      1  C   UNL     1     -12.048   2.988   6.439  1.00  0.00     0.016 A 
ATOM      2  C   UNL     1     -12.401   2.596   7.734  1.00  0.00     0.047 A 
ATOM      3  C   UNL     1     -11.945   3.322   8.843  1.00  0.00     0.119 A 
ATOM      4  C   UNL     1     -11.129   4.448   8.653  1.00  0.00     0.094 A 
ATOM      5  C   UNL     1     -10.770   4.846   7.361  1.00  0.00     0.142 A 
ATOM      6  C   UNL     1     -11.232   4.112   6.247  1.00  0.00     0.018 A 
ATOM      7  C   UNL     1     -10.856   4.534   4.967  1.00  0.00     0.019 A 
ATOM      8  C   UNL     1     -10.043   5.659   4.830  1.00  0.00     0.094 A 
ATOM      9  C   UNL     1      -9.623   6.338   5.980  1.00  0.00     0.336 A 
ATOM     10  O   UNL     1      -8.890   7.354   5.876  1.00  0.00    -0.246 OA
ATOM     11  O   UNL     1      -9.996   5.913   7.185  1.00  0.00    -0.423 OA
ENDROOT
BRANCH   3  12
ATOM     12  O   UNL     1     -12.308   2.917  10.124  1.00  0.00    -0.508 OA
ATOM     13  H   UNL     1     -12.553   3.588  10.843  1.00  0.00     0.293 HD
ENDBRANCH   3  12
TORSDOF 1
ENDMDL
MODEL 7
REMARK VINA RESULT:    -4.923     15.217     16.317
REMARK INTER + INTRA:          -5.067
REMARK INTER:                  -5.067
REMARK INTRA:                   0.000
REMARK UNBOUND:                 0.000
REMARK SMILES O=c1ccc2ccc(O)cc2o1
REMARK SMILES IDX 6 1 7 2 8 3 10 4 11 5 5 6 4 7 3 8 2 9 1 10 12 11 9 12
REMARK H PARENT 9 13
REMARK Flexibility Score: inf
ROOT
ATOM      1  C   UNL     1     -13.329   4.863   6.068  1.00  0.00     0.016 A 
ATOM      2  C   UNL     1     -13.188   3.483   5.891  1.00  0.00     0.047 A 
ATOM      3  C   UNL     1     -11.979   2.949   5.427  1.00  0.00     0.119 A 
ATOM      4  C   UNL     1     -10.904   3.802   5.135  1.00  0.00     0.094 A 
ATOM      5  C   UNL     1     -11.037   5.184   5.308  1.00  0.00     0.142 A 
ATOM      6  C   UNL     1     -12.257   5.718   5.777  1.00  0.00     0.018 A 
ATOM      7  C   UNL     1     -12.360   7.104   5.940  1.00  0.00     0.019 A 
ATOM      8  C   UNL     1     -11.264   7.911   5.637  1.00  0.00     0.094 A 
ATOM      9  C   UNL     1     -10.086   7.312   5.177  1.00  0.00     0.336 A 
ATOM     10  O   UNL     1      -9.087   8.024   4.899  1.00  0.00    -0.246 OA
ATOM     11  O   UNL     1     -10.016   5.991   5.031  1.00  0.00    -0.423 OA
ENDROOT
BRANCH   3  12
ATOM     12  O   UNL     1     -11.857   1.572   5.258  1.00  0.00    -0.508 OA
ATOM     13  H   UNL     1     -11.736   1.160   4.340  1.00  0.00     0.293 HD
ENDBRANCH   3  12
TORSDOF 1
ENDMDL
MODEL 8
REMARK VINA RESULT:    -4.784     15.468     16.368
REMARK INTER + INTRA:          -4.924
REMARK INTER:                  -4.924
REMARK INTRA:                   0.000
REMARK UNBOUND:                 0.000
REMARK SMILES O=c1ccc2ccc(O)cc2o1
REMARK SMILES IDX 6 1 7 2 8 3 10 4 11 5 5 6 4 7 3 8 2 9 1 10 12 11 9 12
REMARK H PARENT 9 13
REMARK Flexibility Score: inf
ROOT
ATOM      1  C   UNL     1     -11.328   4.804   6.858  1.00  0.00     0.016 A 
ATOM      2  C   UNL     1     -11.238   3.444   6.546  1.00  0.00     0.047 A 
ATOM      3  C   UNL     1     -12.148   2.861   5.655  1.00  0.00     0.119 A 
ATOM      4  C   UNL     1     -13.156   3.644   5.072  1.00  0.00     0.094 A 
ATOM      5  C   UNL     1     -13.253   5.005   5.380  1.00  0.00     0.142 A 
ATOM      6  C   UNL     1     -12.334   5.590   6.279  1.00  0.00     0.018 A 
ATOM      7  C   UNL     1     -12.457   6.953   6.567  1.00  0.00     0.019 A 
ATOM      8  C   UNL     1     -13.476   7.690   5.963  1.00  0.00     0.094 A 
ATOM      9  C   UNL     1     -14.350   7.044   5.082  1.00  0.00     0.336 A 
ATOM     10  O   UNL     1     -15.275   7.692   4.527  1.00  0.00    -0.246 OA
ATOM     11  O   UNL     1     -14.210   5.745   4.826  1.00  0.00    -0.423 OA
ENDROOT
BRANCH   3  12
ATOM     12  O   UNL     1     -12.042   1.505   5.356  1.00  0.00    -0.508 OA
ATOM     13  H   UNL     1     -11.391   1.165   4.658  1.00  0.00     0.293 HD
ENDBRANCH   3  12
TORSDOF 1
ENDMDL
MODEL 9
REMARK VINA RESULT:    -4.611     15.824     16.175
REMARK INTER + INTRA:          -4.746
REMARK INTER:                  -4.746
REMARK INTRA:                   0.000
REMARK UNBOUND:                 0.000
REMARK SMILES O=c1ccc2ccc(O)cc2o1
REMARK SMILES IDX 6 1 7 2 8 3 10 4 11 5 5 6 4 7 3 8 2 9 1 10 12 11 9 12
REMARK H PARENT 9 13
REMARK Flexibility Score: inf
ROOT
ATOM      1  C   UNL     1     -11.731   8.372   5.633  1.00  0.00     0.016 A 
ATOM      2  C   UNL     1     -10.563   9.027   5.230  1.00  0.00     0.047 A 
ATOM      3  C   UNL     1      -9.423   8.291   4.882  1.00  0.00     0.119 A 
ATOM      4  C   UNL     1      -9.452   6.889   4.938  1.00  0.00     0.094 A 
ATOM      5  C   UNL     1     -10.616   6.226   5.340  1.00  0.00     0.142 A 
ATOM      6  C   UNL     1     -11.763   6.972   5.690  1.00  0.00     0.018 A 
ATOM      7  C   UNL     1     -12.913   6.281   6.088  1.00  0.00     0.019 A 
ATOM      8  C   UNL     1     -12.893   4.887   6.128  1.00  0.00     0.094 A 
ATOM      9  C   UNL     1     -11.720   4.214   5.767  1.00  0.00     0.336 A 
ATOM     10  O   UNL     1     -11.683   2.957   5.797  1.00  0.00    -0.246 OA
ATOM     11  O   UNL     1     -10.640   4.897   5.392  1.00  0.00    -0.423 OA
ENDROOT
BRANCH   3  12
ATOM     12  O   UNL     1      -8.269   8.961   4.484  1.00  0.00    -0.508 OA
ATOM     13  H   UNL     1      -7.676   8.602   3.744  1.00  0.00     0.293 HD
ENDBRANCH   3  12
TORSDOF 1
ENDMDL
