MODEL 1
REMARK VINA RESULT:    -3.318      0.000      0.000
REMARK INTER + INTRA:          -4.219
REMARK INTER:                  -3.996
REMARK INTRA:                  -0.222
REMARK UNBOUND:                -0.222
REMARK SMILES OCC(O)CO
REMARK SMILES IDX 3 1 5 2 6 3 2 5 1 6 4 8
REMARK H PARENT 6 4 1 7 4 9
REMARK Flexibility Score: inf
ROOT
ATOM      1  C   UNL     1      -9.353  -4.183  20.978  1.00  0.00     0.165 C 
ENDROOT
BRANCH   1   2
ATOM      2  C   UNL     1      -9.680  -3.662  22.392  1.00  0.00     0.190 C 
BRANCH   2   3
ATOM      3  O   UNL     1     -11.005  -3.209  22.464  1.00  0.00    -0.394 OA
ATOM      4  H   UNL     1     -10.967  -2.264  22.765  1.00  0.00     0.210 HD
ENDBRANCH   2   3
ENDBRANCH   1   2
BRANCH   1   5
ATOM      5  C   UNL     1      -9.134  -3.045  19.964  1.00  0.00     0.190 C 
BRANCH   5   6
ATOM      6  O   UNL     1     -10.283  -2.248  19.836  1.00  0.00    -0.394 OA
ATOM      7  H   UNL     1     -10.175  -1.717  19.004  1.00  0.00     0.210 HD
ENDBRANCH   5   6
ENDBRANCH   1   5
BRANCH   1   8
ATOM      8  O   UNL     1      -8.241  -5.044  21.008  1.00  0.00    -0.388 OA
ATOM      9  H   UNL     1      -7.892  -5.122  20.082  1.00  0.00     0.211 HD
ENDBRANCH   1   8
TORSDOF 5
ENDMDL
MODEL 2
REMARK VINA RESULT:    -3.284      1.149      2.471
REMARK INTER + INTRA:          -4.178
REMARK INTER:                  -3.955
REMARK INTRA:                  -0.223
REMARK UNBOUND:                -0.222
REMARK SMILES OCC(O)CO
REMARK SMILES IDX 3 1 5 2 6 3 2 5 1 6 4 8
REMARK H PARENT 6 4 1 7 4 9
REMARK Flexibility Score: inf
ROOT
ATOM      1  C   UNL     1      -9.605  -4.427  20.730  1.00  0.00     0.165 C 
ENDROOT
BRANCH   1   2
ATOM      2  C   UNL     1      -9.181  -3.009  20.295  1.00  0.00     0.190 C 
BRANCH   2   3
ATOM      3  O   UNL     1     -10.284  -2.277  19.834  1.00  0.00    -0.394 OA
ATOM      4  H   UNL     1     -10.383  -2.487  18.869  1.00  0.00     0.210 HD
ENDBRANCH   2   3
ENDBRANCH   1   2
BRANCH   1   5
ATOM      5  C   UNL     1     -10.139  -4.468  22.173  1.00  0.00     0.190 C 
BRANCH   5   6
ATOM      6  O   UNL     1     -10.898  -3.324  22.469  1.00  0.00    -0.394 OA
ATOM      7  H   UNL     1     -10.538  -2.950  23.315  1.00  0.00     0.210 HD
ENDBRANCH   5   6
ENDBRANCH   1   5
BRANCH   1   8
ATOM      8  O   UNL     1     -10.546  -4.964  19.834  1.00  0.00    -0.388 OA
ATOM      9  H   UNL     1     -11.071  -5.652  20.321  1.00  0.00     0.211 HD
ENDBRANCH   1   8
TORSDOF 5
ENDMDL
MODEL 3
REMARK VINA RESULT:    -3.076      1.333      2.094
REMARK INTER + INTRA:          -3.928
REMARK INTER:                  -3.732
REMARK INTRA:                  -0.195
REMARK UNBOUND:                -0.222
REMARK SMILES OCC(O)CO
REMARK SMILES IDX 3 1 5 2 6 3 2 5 1 6 4 8
REMARK H PARENT 6 4 1 7 4 9
REMARK Flexibility Score: inf
ROOT
ATOM      1  C   UNL     1      -9.385  -3.204  20.338  1.00  0.00     0.165 C 
ENDROOT
BRANCH   1   2
ATOM      2  C   UNL     1      -9.523  -3.499  21.845  1.00  0.00     0.190 C 
BRANCH   2   3
ATOM      3  O   UNL     1     -10.841  -3.289  22.277  1.00  0.00    -0.394 OA
ATOM      4  H   UNL     1     -11.143  -4.138  22.692  1.00  0.00     0.210 HD
ENDBRANCH   2   3
ENDBRANCH   1   2
BRANCH   1   5
ATOM      5  C   UNL     1      -9.537  -4.468  19.472  1.00  0.00     0.190 C 
BRANCH   5   6
ATOM      6  O   UNL     1     -10.715  -5.163  19.786  1.00  0.00    -0.394 OA
ATOM      7  H   UNL     1     -11.379  -4.487  20.082  1.00  0.00     0.210 HD
ENDBRANCH   5   6
ENDBRANCH   1   5
BRANCH   1   8
ATOM      8  O   UNL     1     -10.298  -2.213  19.937  1.00  0.00    -0.388 OA
ATOM      9  H   UNL     1     -10.726  -1.845  20.753  1.00  0.00     0.211 HD
ENDBRANCH   1   8
TORSDOF 5
ENDMDL
MODEL 4
REMARK VINA RESULT:    -2.984      9.939     10.872
REMARK INTER + INTRA:          -3.817
REMARK INTER:                  -3.627
REMARK INTRA:                  -0.191
REMARK UNBOUND:                -0.222
REMARK SMILES OCC(O)CO
REMARK SMILES IDX 3 1 5 2 6 3 2 5 1 6 4 8
REMARK H PARENT 6 4 1 7 4 9
REMARK Flexibility Score: inf
ROOT
ATOM      1  C   UNL     1      -5.101   3.443  15.154  1.00  0.00     0.165 C 
ENDROOT
BRANCH   1   2
ATOM      2  C   UNL     1      -6.489   3.316  14.495  1.00  0.00     0.190 C 
BRANCH   2   3
ATOM      3  O   UNL     1      -7.025   4.579  14.207  1.00  0.00    -0.394 OA
ATOM      4  H   UNL     1      -8.012   4.486  14.250  1.00  0.00     0.210 HD
ENDBRANCH   2   3
ENDBRANCH   1   2
BRANCH   1   5
ATOM      5  C   UNL     1      -4.275   4.605  14.572  1.00  0.00     0.190 C 
BRANCH   5   6
ATOM      6  O   UNL     1      -4.361   5.749  15.383  1.00  0.00    -0.394 OA
ATOM      7  H   UNL     1      -4.931   5.508  16.160  1.00  0.00     0.210 HD
ENDBRANCH   5   6
ENDBRANCH   1   5
BRANCH   1   8
ATOM      8  O   UNL     1      -5.220   3.566  16.550  1.00  0.00    -0.388 OA
ATOM      9  H   UNL     1      -5.101   4.524  16.782  1.00  0.00     0.211 HD
ENDBRANCH   1   8
TORSDOF 5
ENDMDL
MODEL 5
REMARK VINA RESULT:    -2.828      9.781     11.209
REMARK INTER + INTRA:          -3.629
REMARK INTER:                  -3.405
REMARK INTRA:                  -0.224
REMARK UNBOUND:                -0.222
REMARK SMILES OCC(O)CO
REMARK SMILES IDX 3 1 5 2 6 3 2 5 1 6 4 8
REMARK H PARENT 6 4 1 7 4 9
REMARK Flexibility Score: inf
ROOT
ATOM      1  C   UNL     1      -5.939   3.825  14.167  1.00  0.00     0.165 C 
ENDROOT
BRANCH   1   2
ATOM      2  C   UNL     1      -4.796   4.819  13.875  1.00  0.00     0.190 C 
BRANCH   2   3
ATOM      3  O   UNL     1      -4.965   6.004  14.605  1.00  0.00    -0.394 OA
ATOM      4  H   UNL     1      -5.931   6.069  14.825  1.00  0.00     0.210 HD
ENDBRANCH   2   3
ENDBRANCH   1   2
BRANCH   1   5
ATOM      5  C   UNL     1      -5.668   2.963  15.414  1.00  0.00     0.190 C 
BRANCH   5   6
ATOM      6  O   UNL     1      -5.094   3.723  16.445  1.00  0.00    -0.394 OA
ATOM      7  H   UNL     1      -4.829   3.086  17.159  1.00  0.00     0.210 HD
ENDBRANCH   5   6
ENDBRANCH   1   5
BRANCH   1   8
ATOM      8  O   UNL     1      -7.168   4.498  14.284  1.00  0.00    -0.388 OA
ATOM      9  H   UNL     1      -7.024   5.443  14.017  1.00  0.00     0.211 HD
ENDBRANCH   1   8
TORSDOF 5
ENDMDL
MODEL 6
REMARK VINA RESULT:    -2.818      1.472      2.178
REMARK INTER + INTRA:          -3.616
REMARK INTER:                  -3.411
REMARK INTRA:                  -0.205
REMARK UNBOUND:                -0.222
REMARK SMILES OCC(O)CO
REMARK SMILES IDX 3 1 5 2 6 3 2 5 1 6 4 8
REMARK H PARENT 6 4 1 7 4 9
REMARK Flexibility Score: inf
ROOT
ATOM      1  C   UNL     1      -9.513  -4.414  20.488  1.00  0.00     0.165 C 
ENDROOT
BRANCH   1   2
ATOM      2  C   UNL     1      -9.139  -2.973  20.086  1.00  0.00     0.190 C 
BRANCH   2   3
ATOM      3  O   UNL     1     -10.288  -2.207  19.844  1.00  0.00    -0.394 OA
ATOM      4  H   UNL     1     -10.021  -1.255  19.939  1.00  0.00     0.210 HD
ENDBRANCH   2   3
ENDBRANCH   1   2
BRANCH   1   5
ATOM      5  C   UNL     1     -10.006  -5.252  19.294  1.00  0.00     0.190 C 
BRANCH   5   6
ATOM      6  O   UNL     1     -11.008  -4.578  18.577  1.00  0.00    -0.394 OA
ATOM      7  H   UNL     1     -11.422  -5.243  17.966  1.00  0.00     0.210 HD
ENDBRANCH   5   6
ENDBRANCH   1   5
BRANCH   1   8
ATOM      8  O   UNL     1      -8.436  -5.049  21.131  1.00  0.00    -0.388 OA
ATOM      9  H   UNL     1      -7.851  -4.344  21.513  1.00  0.00     0.211 HD
ENDBRANCH   1   8
TORSDOF 5
ENDMDL
MODEL 7
REMARK VINA RESULT:    -2.812      0.797      2.290
REMARK INTER + INTRA:          -3.609
REMARK INTER:                  -3.607
REMARK INTRA:                  -0.003
REMARK UNBOUND:                -0.222
REMARK SMILES OCC(O)CO
REMARK SMILES IDX 3 1 5 2 6 3 2 5 1 6 4 8
REMARK H PARENT 6 4 1 7 4 9
REMARK Flexibility Score: inf
ROOT
ATOM      1  C   UNL     1      -9.258  -3.396  21.145  1.00  0.00     0.165 C 
ENDROOT
BRANCH   1   2
ATOM      2  C   UNL     1      -9.161  -4.931  21.047  1.00  0.00     0.190 C 
BRANCH   2   3
ATOM      3  O   UNL     1      -7.833  -5.337  20.853  1.00  0.00    -0.394 OA
ATOM      4  H   UNL     1      -7.587  -5.076  19.927  1.00  0.00     0.210 HD
ENDBRANCH   2   3
ENDBRANCH   1   2
BRANCH   1   5
ATOM      5  C   UNL     1      -9.175  -2.708  19.770  1.00  0.00     0.190 C 
BRANCH   5   6
ATOM      6  O   UNL     1     -10.391  -2.094  19.432  1.00  0.00    -0.394 OA
ATOM      7  H   UNL     1     -10.556  -2.289  18.472  1.00  0.00     0.210 HD
ENDBRANCH   5   6
ENDBRANCH   1   5
BRANCH   1   8
ATOM      8  O   UNL     1     -10.429  -3.012  21.824  1.00  0.00    -0.388 OA
ATOM      9  H   UNL     1     -11.087  -2.706  21.146  1.00  0.00     0.211 HD
ENDBRANCH   1   8
TORSDOF 5
ENDMDL
MODEL 8
REMARK VINA RESULT:    -2.749      9.058      9.614
REMARK INTER + INTRA:          -3.534
REMARK INTER:                  -3.531
REMARK INTRA:                  -0.002
REMARK UNBOUND:                -0.222
REMARK SMILES OCC(O)CO
REMARK SMILES IDX 3 1 5 2 6 3 2 5 1 6 4 8
REMARK H PARENT 6 4 1 7 4 9
REMARK Flexibility Score: inf
ROOT
ATOM      1  C   UNL     1      -5.887   2.684  16.060  1.00  0.00     0.165 C 
ENDROOT
BRANCH   1   2
ATOM      2  C   UNL     1      -6.422   2.960  14.641  1.00  0.00     0.190 C 
BRANCH   2   3
ATOM      3  O   UNL     1      -7.440   3.924  14.668  1.00  0.00    -0.394 OA
ATOM      4  H   UNL     1      -8.287   3.439  14.848  1.00  0.00     0.210 HD
ENDBRANCH   2   3
ENDBRANCH   1   2
BRANCH   1   5
ATOM      5  C   UNL     1      -5.077   1.377  16.142  1.00  0.00     0.190 C 
BRANCH   5   6
ATOM      6  O   UNL     1      -3.765   1.560  15.675  1.00  0.00    -0.394 OA
ATOM      7  H   UNL     1      -3.835   1.975  14.776  1.00  0.00     0.210 HD
ENDBRANCH   5   6
ENDBRANCH   1   5
BRANCH   1   8
ATOM      8  O   UNL     1      -5.129   3.771  16.529  1.00  0.00    -0.388 OA
ATOM      9  H   UNL     1      -4.222   3.703  16.133  1.00  0.00     0.211 HD
ENDBRANCH   1   8
TORSDOF 5
ENDMDL
MODEL 9
REMARK VINA RESULT:    -2.660      9.624     10.786
REMARK INTER + INTRA:          -3.427
REMARK INTER:                  -3.205
REMARK INTRA:                  -0.222
REMARK UNBOUND:                -0.222
REMARK SMILES OCC(O)CO
REMARK SMILES IDX 3 1 5 2 6 3 2 5 1 6 4 8
REMARK H PARENT 6 4 1 7 4 9
REMARK Flexibility Score: inf
ROOT
ATOM      1  C   UNL     1      -5.757   3.447  14.675  1.00  0.00     0.165 C 
ENDROOT
BRANCH   1   2
ATOM      2  C   UNL     1      -4.890   4.651  14.256  1.00  0.00     0.190 C 
BRANCH   2   3
ATOM      3  O   UNL     1      -4.437   5.357  15.379  1.00  0.00    -0.394 OA
ATOM      4  H   UNL     1      -5.231   5.516  15.954  1.00  0.00     0.210 HD
ENDBRANCH   2   3
ENDBRANCH   1   2
BRANCH   1   5
ATOM      5  C   UNL     1      -5.305   2.829  16.012  1.00  0.00     0.190 C 
BRANCH   5   6
ATOM      6  O   UNL     1      -3.921   2.592  16.021  1.00  0.00    -0.394 OA
ATOM      7  H   UNL     1      -3.533   3.121  15.276  1.00  0.00     0.210 HD
ENDBRANCH   5   6
ENDBRANCH   1   5
BRANCH   1   8
ATOM      8  O   UNL     1      -7.117   3.803  14.726  1.00  0.00    -0.388 OA
ATOM      9  H   UNL     1      -7.259   4.342  15.547  1.00  0.00     0.211 HD
ENDBRANCH   1   8
TORSDOF 5
ENDMDL
