MODEL 1
REMARK VINA RESULT:    -3.214      0.000      0.000
REMARK INTER + INTRA:          -8.241
REMARK INTER:                  -6.032
REMARK INTRA:                  -2.209
REMARK UNBOUND:                -2.209
REMARK SMILES O=C([O-])CCCCCCCCCCCCCCC(=O)[O-]
REMARK SMILES IDX 10 1 9 2 8 3 7 4 6 5 5 6 4 7 2 8 1 9 3 10 11 11 12 12 13 13
REMARK SMILES IDX 14 14 15 15 16 16 17 17 18 18 19 19 20 20
REMARK H PARENT
REMARK Flexibility Score: inf
ROOT
ATOM      1  C   UNL     1      56.452  26.667  51.442  1.00  0.00     0.000 C 
ENDROOT
BRANCH   1   2
ATOM      2  C   UNL     1      56.039  26.651  49.954  1.00  0.00     0.000 C 
BRANCH   2   3
ATOM      3  C   UNL     1      54.731  25.877  49.710  1.00  0.00     0.000 C 
BRANCH   3   4
ATOM      4  C   UNL     1      53.486  26.694  50.118  1.00  0.00     0.000 C 
BRANCH   4   5
ATOM      5  C   UNL     1      53.601  28.192  49.791  1.00  0.00     0.000 C 
BRANCH   5   6
ATOM      6  C   UNL     1      53.330  29.092  51.007  1.00  0.00     0.006 C 
BRANCH   6   7
ATOM      7  C   UNL     1      53.713  30.555  50.745  1.00  0.00     0.053 C 
BRANCH   7   8
ATOM      8  C   UNL     1      53.901  31.317  52.021  1.00  0.00     0.041 C 
ATOM      9  O   UNL     1      54.977  31.213  52.667  1.00  0.00    -0.550 OA
ATOM     10  O   UNL     1      52.875  32.113  52.515  1.00  0.00    -0.550 OA
ENDBRANCH   7   8
ENDBRANCH   6   7
ENDBRANCH   5   6
ENDBRANCH   4   5
ENDBRANCH   3   4
ENDBRANCH   2   3
ENDBRANCH   1   2
BRANCH   1  11
ATOM     11  C   UNL     1      56.849  28.062  51.963  1.00  0.00     0.000 C 
BRANCH  11  12
ATOM     12  C   UNL     1      57.094  29.122  50.873  1.00  0.00     0.000 C 
BRANCH  12  13
ATOM     13  C   UNL     1      58.467  29.816  50.939  1.00  0.00     0.000 C 
BRANCH  13  14
ATOM     14  C   UNL     1      59.253  29.709  49.621  1.00  0.00     0.000 C 
BRANCH  14  15
ATOM     15  C   UNL     1      59.269  28.280  49.056  1.00  0.00     0.000 C 
BRANCH  15  16
ATOM     16  C   UNL     1      60.246  27.359  49.810  1.00  0.00     0.006 C 
BRANCH  16  17
ATOM     17  C   UNL     1      59.729  25.917  49.898  1.00  0.00     0.053 C 
BRANCH  17  18
ATOM     18  C   UNL     1      60.054  25.290  51.220  1.00  0.00     0.041 C 
ATOM     19  O   UNL     1      59.230  24.515  51.773  1.00  0.00    -0.550 OA
ATOM     20  O   UNL     1      61.278  25.538  51.825  1.00  0.00    -0.550 OA
ENDBRANCH  17  18
ENDBRANCH  16  17
ENDBRANCH  15  16
ENDBRANCH  14  15
ENDBRANCH  13  14
ENDBRANCH  12  13
ENDBRANCH  11  12
ENDBRANCH   1  11
TORSDOF 15
ENDMDL
MODEL 2
REMARK VINA RESULT:    -3.166      4.352      8.385
REMARK INTER + INTRA:          -8.151
REMARK INTER:                  -7.298
REMARK INTRA:                  -0.852
REMARK UNBOUND:                -2.209
REMARK SMILES O=C([O-])CCCCCCCCCCCCCCC(=O)[O-]
REMARK SMILES IDX 10 1 9 2 8 3 7 4 6 5 5 6 4 7 2 8 1 9 3 10 11 11 12 12 13 13
REMARK SMILES IDX 14 14 15 15 16 16 17 17 18 18 19 19 20 20
REMARK H PARENT
REMARK Flexibility Score: inf
ROOT
ATOM      1  C   UNL     1      59.710  24.796  50.566  1.00  0.00     0.000 C 
ENDROOT
BRANCH   1   2
ATOM      2  C   UNL     1      60.874  23.933  50.033  1.00  0.00     0.000 C 
BRANCH   2   3
ATOM      3  C   UNL     1      60.542  22.430  50.025  1.00  0.00     0.000 C 
BRANCH   3   4
ATOM      4  C   UNL     1      60.807  21.783  48.649  1.00  0.00     0.000 C 
BRANCH   4   5
ATOM      5  C   UNL     1      61.000  20.259  48.714  1.00  0.00     0.000 C 
BRANCH   5   6
ATOM      6  C   UNL     1      59.685  19.483  48.534  1.00  0.00     0.006 C 
BRANCH   6   7
ATOM      7  C   UNL     1      59.257  18.761  49.819  1.00  0.00     0.053 C 
BRANCH   7   8
ATOM      8  C   UNL     1      58.083  17.860  49.584  1.00  0.00     0.041 C 
ATOM      9  O   UNL     1      58.185  16.879  48.802  1.00  0.00    -0.550 OA
ATOM     10  O   UNL     1      56.867  18.126  50.202  1.00  0.00    -0.550 OA
ENDBRANCH   7   8
ENDBRANCH   6   7
ENDBRANCH   5   6
ENDBRANCH   4   5
ENDBRANCH   3   4
ENDBRANCH   2   3
ENDBRANCH   1   2
BRANCH   1  11
ATOM     11  C   UNL     1      59.993  26.311  50.536  1.00  0.00     0.000 C 
BRANCH  11  12
ATOM     12  C   UNL     1      59.574  27.029  49.239  1.00  0.00     0.000 C 
BRANCH  12  13
ATOM     13  C   UNL     1      59.770  28.556  49.250  1.00  0.00     0.000 C 
BRANCH  13  14
ATOM     14  C   UNL     1      58.442  29.327  49.336  1.00  0.00     0.000 C 
BRANCH  14  15
ATOM     15  C   UNL     1      57.975  29.540  50.785  1.00  0.00     0.000 C 
BRANCH  15  16
ATOM     16  C   UNL     1      57.037  28.421  51.272  1.00  0.00     0.006 C 
BRANCH  16  17
ATOM     17  C   UNL     1      55.932  28.108  50.254  1.00  0.00     0.053 C 
BRANCH  17  18
ATOM     18  C   UNL     1      55.525  26.666  50.299  1.00  0.00     0.041 C 
ATOM     19  O   UNL     1      54.858  26.166  49.357  1.00  0.00    -0.550 OA
ATOM     20  O   UNL     1      55.910  25.869  51.369  1.00  0.00    -0.550 OA
ENDBRANCH  17  18
ENDBRANCH  16  17
ENDBRANCH  15  16
ENDBRANCH  14  15
ENDBRANCH  13  14
ENDBRANCH  12  13
ENDBRANCH  11  12
ENDBRANCH   1  11
TORSDOF 15
ENDMDL
MODEL 3
REMARK VINA RESULT:    -3.129      3.023      5.285
REMARK INTER + INTRA:          -8.082
REMARK INTER:                  -5.842
REMARK INTRA:                  -2.240
REMARK UNBOUND:                -2.209
REMARK SMILES O=C([O-])CCCCCCCCCCCCCCC(=O)[O-]
REMARK SMILES IDX 10 1 9 2 8 3 7 4 6 5 5 6 4 7 2 8 1 9 3 10 11 11 12 12 13 13
REMARK SMILES IDX 14 14 15 15 16 16 17 17 18 18 19 19 20 20
REMARK H PARENT
REMARK Flexibility Score: inf
ROOT
ATOM      1  C   UNL     1      53.761  28.405  50.237  1.00  0.00     0.000 C 
ENDROOT
BRANCH   1   2
ATOM      2  C   UNL     1      54.217  27.010  50.718  1.00  0.00     0.000 C 
BRANCH   2   3
ATOM      3  C   UNL     1      55.065  26.268  49.670  1.00  0.00     0.000 C 
BRANCH   3   4
ATOM      4  C   UNL     1      56.554  26.201  50.069  1.00  0.00     0.000 C 
BRANCH   4   5
ATOM      5  C   UNL     1      56.778  25.834  51.546  1.00  0.00     0.000 C 
BRANCH   5   6
ATOM      6  C   UNL     1      58.267  25.742  51.919  1.00  0.00     0.006 C 
BRANCH   6   7
ATOM      7  C   UNL     1      59.086  24.996  50.858  1.00  0.00     0.053 C 
BRANCH   7   8
ATOM      8  C   UNL     1      59.672  23.728  51.400  1.00  0.00     0.041 C 
ATOM      9  O   UNL     1      60.739  23.266  50.916  1.00  0.00    -0.550 OA
ATOM     10  O   UNL     1      59.021  23.039  52.416  1.00  0.00    -0.550 OA
ENDBRANCH   7   8
ENDBRANCH   6   7
ENDBRANCH   5   6
ENDBRANCH   4   5
ENDBRANCH   3   4
ENDBRANCH   2   3
ENDBRANCH   1   2
BRANCH   1  11
ATOM     11  C   UNL     1      54.741  29.539  50.595  1.00  0.00     0.000 C 
BRANCH  11  12
ATOM     12  C   UNL     1      55.602  29.287  51.848  1.00  0.00     0.000 C 
BRANCH  12  13
ATOM     13  C   UNL     1      56.901  30.112  51.920  1.00  0.00     0.000 C 
BRANCH  13  14
ATOM     14  C   UNL     1      58.110  29.373  51.323  1.00  0.00     0.000 C 
BRANCH  14  15
ATOM     15  C   UNL     1      58.178  29.487  49.793  1.00  0.00     0.000 C 
BRANCH  15  16
ATOM     16  C   UNL     1      59.314  28.643  49.187  1.00  0.00     0.006 C 
BRANCH  16  17
ATOM     17  C   UNL     1      60.400  28.310  50.219  1.00  0.00     0.053 C 
BRANCH  17  18
ATOM     18  C   UNL     1      61.720  28.918  49.854  1.00  0.00     0.041 C 
ATOM     19  O   UNL     1      62.086  30.002  50.379  1.00  0.00    -0.550 OA
ATOM     20  O   UNL     1      62.559  28.271  48.957  1.00  0.00    -0.550 OA
ENDBRANCH  17  18
ENDBRANCH  16  17
ENDBRANCH  15  16
ENDBRANCH  14  15
ENDBRANCH  13  14
ENDBRANCH  12  13
ENDBRANCH  11  12
ENDBRANCH   1  11
TORSDOF 15
ENDMDL
MODEL 4
REMARK VINA RESULT:    -3.122      3.294      5.765
REMARK INTER + INTRA:          -8.068
REMARK INTER:                  -6.057
REMARK INTRA:                  -2.011
REMARK UNBOUND:                -2.209
REMARK SMILES O=C([O-])CCCCCCCCCCCCCCC(=O)[O-]
REMARK SMILES IDX 10 1 9 2 8 3 7 4 6 5 5 6 4 7 2 8 1 9 3 10 11 11 12 12 13 13
REMARK SMILES IDX 14 14 15 15 16 16 17 17 18 18 19 19 20 20
REMARK H PARENT
REMARK Flexibility Score: inf
ROOT
ATOM      1  C   UNL     1      55.576  29.580  50.818  1.00  0.00     0.000 C 
ENDROOT
BRANCH   1   2
ATOM      2  C   UNL     1      56.730  29.354  51.819  1.00  0.00     0.000 C 
BRANCH   2   3
ATOM      3  C   UNL     1      58.110  29.663  51.213  1.00  0.00     0.000 C 
BRANCH   3   4
ATOM      4  C   UNL     1      58.090  29.623  49.670  1.00  0.00     0.000 C 
BRANCH   4   5
ATOM      5  C   UNL     1      59.294  28.885  49.059  1.00  0.00     0.000 C 
BRANCH   5   6
ATOM      6  C   UNL     1      60.531  28.904  49.971  1.00  0.00     0.006 C 
BRANCH   6   7
ATOM      7  C   UNL     1      61.715  28.143  49.359  1.00  0.00     0.053 C 
BRANCH   7   8
ATOM      8  C   UNL     1      62.866  28.049  50.313  1.00  0.00     0.041 C 
ATOM      9  O   UNL     1      62.915  28.800  51.323  1.00  0.00    -0.550 OA
ATOM     10  O   UNL     1      63.904  27.158  50.067  1.00  0.00    -0.550 OA
ENDBRANCH   7   8
ENDBRANCH   6   7
ENDBRANCH   5   6
ENDBRANCH   4   5
ENDBRANCH   3   4
ENDBRANCH   2   3
ENDBRANCH   1   2
BRANCH   1  11
ATOM     11  C   UNL     1      54.426  28.564  50.953  1.00  0.00     0.000 C 
BRANCH  11  12
ATOM     12  C   UNL     1      54.115  27.755  49.679  1.00  0.00     0.000 C 
BRANCH  12  13
ATOM     13  C   UNL     1      54.486  26.262  49.751  1.00  0.00     0.000 C 
BRANCH  13  14
ATOM     14  C   UNL     1      55.639  25.981  50.730  1.00  0.00     0.000 C 
BRANCH  14  15
ATOM     15  C   UNL     1      57.019  26.067  50.061  1.00  0.00     0.000 C 
BRANCH  15  16
ATOM     16  C   UNL     1      58.168  25.752  51.035  1.00  0.00     0.006 C 
BRANCH  16  17
ATOM     17  C   UNL     1      59.482  25.451  50.302  1.00  0.00     0.053 C 
BRANCH  17  18
ATOM     18  C   UNL     1      59.996  24.080  50.620  1.00  0.00     0.041 C 
ATOM     19  O   UNL     1      59.937  23.638  51.797  1.00  0.00    -0.550 OA
ATOM     20  O   UNL     1      60.511  23.279  49.610  1.00  0.00    -0.550 OA
ENDBRANCH  17  18
ENDBRANCH  16  17
ENDBRANCH  15  16
ENDBRANCH  14  15
ENDBRANCH  13  14
ENDBRANCH  12  13
ENDBRANCH  11  12
ENDBRANCH   1  11
TORSDOF 15
ENDMDL
MODEL 5
REMARK VINA RESULT:    -3.115      4.101      6.050
REMARK INTER + INTRA:          -8.055
REMARK INTER:                  -6.914
REMARK INTRA:                  -1.141
REMARK UNBOUND:                -2.209
REMARK SMILES O=C([O-])CCCCCCCCCCCCCCC(=O)[O-]
REMARK SMILES IDX 10 1 9 2 8 3 7 4 6 5 5 6 4 7 2 8 1 9 3 10 11 11 12 12 13 13
REMARK SMILES IDX 14 14 15 15 16 16 17 17 18 18 19 19 20 20
REMARK H PARENT
REMARK Flexibility Score: inf
ROOT
ATOM      1  C   UNL     1      59.834  26.939  50.528  1.00  0.00     0.000 C 
ENDROOT
BRANCH   1   2
ATOM      2  C   UNL     1      59.498  27.614  49.181  1.00  0.00     0.000 C 
BRANCH   2   3
ATOM      3  C   UNL     1      58.806  28.978  49.358  1.00  0.00     0.000 C 
BRANCH   3   4
ATOM      4  C   UNL     1      58.029  29.068  50.688  1.00  0.00     0.000 C 
BRANCH   4   5
ATOM      5  C   UNL     1      56.529  28.757  50.546  1.00  0.00     0.000 C 
BRANCH   5   6
ATOM      6  C   UNL     1      56.154  27.369  51.087  1.00  0.00     0.006 C 
BRANCH   6   7
ATOM      7  C   UNL     1      55.907  26.354  49.962  1.00  0.00     0.053 C 
BRANCH   7   8
ATOM      8  C   UNL     1      54.484  25.886  49.940  1.00  0.00     0.041 C 
ATOM      9  O   UNL     1      53.870  25.674  51.019  1.00  0.00    -0.550 OA
ATOM     10  O   UNL     1      53.847  25.649  48.728  1.00  0.00    -0.550 OA
ENDBRANCH   7   8
ENDBRANCH   6   7
ENDBRANCH   5   6
ENDBRANCH   4   5
ENDBRANCH   3   4
ENDBRANCH   2   3
ENDBRANCH   1   2
BRANCH   1  11
ATOM     11  C   UNL     1      59.520  25.431  50.565  1.00  0.00     0.000 C 
BRANCH  11  12
ATOM     12  C   UNL     1      60.694  24.509  50.185  1.00  0.00     0.000 C 
BRANCH  12  13
ATOM     13  C   UNL     1      60.380  23.003  50.237  1.00  0.00     0.000 C 
BRANCH  13  14
ATOM     14  C   UNL     1      61.153  22.196  49.180  1.00  0.00     0.000 C 
BRANCH  14  15
ATOM     15  C   UNL     1      60.334  21.024  48.615  1.00  0.00     0.000 C 
BRANCH  15  16
ATOM     16  C   UNL     1      60.721  19.675  49.250  1.00  0.00     0.006 C 
BRANCH  16  17
ATOM     17  C   UNL     1      59.774  19.281  50.391  1.00  0.00     0.053 C 
BRANCH  17  18
ATOM     18  C   UNL     1      58.541  18.599  49.880  1.00  0.00     0.041 C 
ATOM     19  O   UNL     1      58.637  17.592  49.131  1.00  0.00    -0.550 OA
ATOM     20  O   UNL     1      57.286  19.059  50.256  1.00  0.00    -0.550 OA
ENDBRANCH  17  18
ENDBRANCH  16  17
ENDBRANCH  15  16
ENDBRANCH  14  15
ENDBRANCH  13  14
ENDBRANCH  12  13
ENDBRANCH  11  12
ENDBRANCH   1  11
TORSDOF 15
ENDMDL
MODEL 6
REMARK VINA RESULT:    -3.063      3.514      6.141
REMARK INTER + INTRA:          -7.958
REMARK INTER:                  -6.572
REMARK INTRA:                  -1.386
REMARK UNBOUND:                -2.209
REMARK SMILES O=C([O-])CCCCCCCCCCCCCCC(=O)[O-]
REMARK SMILES IDX 10 1 9 2 8 3 7 4 6 5 5 6 4 7 2 8 1 9 3 10 11 11 12 12 13 13
REMARK SMILES IDX 14 14 15 15 16 16 17 17 18 18 19 19 20 20
REMARK H PARENT
REMARK Flexibility Score: inf
ROOT
ATOM      1  C   UNL     1      60.964  27.340  51.677  1.00  0.00     0.000 C 
ENDROOT
BRANCH   1   2
ATOM      2  C   UNL     1      60.321  28.700  51.330  1.00  0.00     0.000 C 
BRANCH   2   3
ATOM      3  C   UNL     1      60.329  28.993  49.819  1.00  0.00     0.000 C 
BRANCH   3   4
ATOM      4  C   UNL     1      58.907  29.214  49.261  1.00  0.00     0.000 C 
BRANCH   4   5
ATOM      5  C   UNL     1      57.848  29.443  50.353  1.00  0.00     0.000 C 
BRANCH   5   6
ATOM      6  C   UNL     1      56.734  28.385  50.336  1.00  0.00     0.006 C 
BRANCH   6   7
ATOM      7  C   UNL     1      56.862  27.388  51.496  1.00  0.00     0.053 C 
BRANCH   7   8
ATOM      8  C   UNL     1      57.539  26.122  51.068  1.00  0.00     0.041 C 
ATOM      9  O   UNL     1      57.818  25.933  49.855  1.00  0.00    -0.550 OA
ATOM     10  O   UNL     1      57.829  25.136  52.004  1.00  0.00    -0.550 OA
ENDBRANCH   7   8
ENDBRANCH   6   7
ENDBRANCH   5   6
ENDBRANCH   4   5
ENDBRANCH   3   4
ENDBRANCH   2   3
ENDBRANCH   1   2
BRANCH   1  11
ATOM     11  C   UNL     1      61.553  26.601  50.459  1.00  0.00     0.000 C 
BRANCH  11  12
ATOM     12  C   UNL     1      61.814  25.098  50.669  1.00  0.00     0.000 C 
BRANCH  12  13
ATOM     13  C   UNL     1      60.815  24.161  49.966  1.00  0.00     0.000 C 
BRANCH  13  14
ATOM     14  C   UNL     1      61.289  22.698  49.937  1.00  0.00     0.000 C 
BRANCH  14  15
ATOM     15  C   UNL     1      60.819  21.948  48.681  1.00  0.00     0.000 C 
BRANCH  15  16
ATOM     16  C   UNL     1      61.034  20.428  48.786  1.00  0.00     0.006 C 
BRANCH  16  17
ATOM     17  C   UNL     1      59.778  19.637  48.398  1.00  0.00     0.053 C 
BRANCH  17  18
ATOM     18  C   UNL     1      59.077  19.081  49.600  1.00  0.00     0.041 C 
ATOM     19  O   UNL     1      58.176  18.213  49.464  1.00  0.00    -0.550 OA
ATOM     20  O   UNL     1      59.440  19.501  50.873  1.00  0.00    -0.550 OA
ENDBRANCH  17  18
ENDBRANCH  16  17
ENDBRANCH  15  16
ENDBRANCH  14  15
ENDBRANCH  13  14
ENDBRANCH  12  13
ENDBRANCH  11  12
ENDBRANCH   1  11
TORSDOF 15
ENDMDL
MODEL 7
REMARK VINA RESULT:    -3.060      2.626      5.987
REMARK INTER + INTRA:          -7.953
REMARK INTER:                  -6.080
REMARK INTRA:                  -1.874
REMARK UNBOUND:                -2.209
REMARK SMILES O=C([O-])CCCCCCCCCCCCCCC(=O)[O-]
REMARK SMILES IDX 10 1 9 2 8 3 7 4 6 5 5 6 4 7 2 8 1 9 3 10 11 11 12 12 13 13
REMARK SMILES IDX 14 14 15 15 16 16 17 17 18 18 19 19 20 20
REMARK H PARENT
REMARK Flexibility Score: inf
ROOT
ATOM      1  C   UNL     1      56.888  29.635  51.438  1.00  0.00     0.000 C 
ENDROOT
BRANCH   1   2
ATOM      2  C   UNL     1      58.361  29.752  50.991  1.00  0.00     0.000 C 
BRANCH   2   3
ATOM      3  C   UNL     1      58.546  29.496  49.485  1.00  0.00     0.000 C 
BRANCH   3   4
ATOM      4  C   UNL     1      59.550  28.357  49.208  1.00  0.00     0.000 C 
BRANCH   4   5
ATOM      5  C   UNL     1      58.906  26.960  49.192  1.00  0.00     0.000 C 
BRANCH   5   6
ATOM      6  C   UNL     1      59.422  26.053  50.320  1.00  0.00     0.006 C 
BRANCH   6   7
ATOM      7  C   UNL     1      58.282  25.479  51.172  1.00  0.00     0.053 C 
BRANCH   7   8
ATOM      8  C   UNL     1      58.219  26.126  52.522  1.00  0.00     0.041 C 
ATOM      9  O   UNL     1      59.137  26.901  52.896  1.00  0.00    -0.550 OA
ATOM     10  O   UNL     1      57.163  25.843  53.380  1.00  0.00    -0.550 OA
ENDBRANCH   7   8
ENDBRANCH   6   7
ENDBRANCH   5   6
ENDBRANCH   4   5
ENDBRANCH   3   4
ENDBRANCH   2   3
ENDBRANCH   1   2
BRANCH   1  11
ATOM     11  C   UNL     1      56.092  28.553  50.682  1.00  0.00     0.000 C 
BRANCH  11  12
ATOM     12  C   UNL     1      54.584  28.831  50.538  1.00  0.00     0.000 C 
BRANCH  12  13
ATOM     13  C   UNL     1      53.808  27.790  49.710  1.00  0.00     0.000 C 
BRANCH  13  14
ATOM     14  C   UNL     1      54.587  26.478  49.521  1.00  0.00     0.000 C 
BRANCH  14  15
ATOM     15  C   UNL     1      53.680  25.238  49.578  1.00  0.00     0.000 C 
BRANCH  15  16
ATOM     16  C   UNL     1      52.972  25.088  50.936  1.00  0.00     0.006 C 
BRANCH  16  17
ATOM     17  C   UNL     1      53.966  25.027  52.103  1.00  0.00     0.053 C 
BRANCH  17  18
ATOM     18  C   UNL     1      53.739  23.822  52.965  1.00  0.00     0.041 C 
ATOM     19  O   UNL     1      54.016  23.859  54.192  1.00  0.00    -0.550 OA
ATOM     20  O   UNL     1      53.194  22.669  52.418  1.00  0.00    -0.550 OA
ENDBRANCH  17  18
ENDBRANCH  16  17
ENDBRANCH  15  16
ENDBRANCH  14  15
ENDBRANCH  13  14
ENDBRANCH  12  13
ENDBRANCH  11  12
ENDBRANCH   1  11
TORSDOF 15
ENDMDL
MODEL 8
REMARK VINA RESULT:    -3.057      2.208      3.359
REMARK INTER + INTRA:          -7.946
REMARK INTER:                  -6.369
REMARK INTRA:                  -1.578
REMARK UNBOUND:                -2.209
REMARK SMILES O=C([O-])CCCCCCCCCCCCCCC(=O)[O-]
REMARK SMILES IDX 10 1 9 2 8 3 7 4 6 5 5 6 4 7 2 8 1 9 3 10 11 11 12 12 13 13
REMARK SMILES IDX 14 14 15 15 16 16 17 17 18 18 19 19 20 20
REMARK H PARENT
REMARK Flexibility Score: inf
ROOT
ATOM      1  C   UNL     1      57.324  29.155  50.175  1.00  0.00     0.000 C 
ENDROOT
BRANCH   1   2
ATOM      2  C   UNL     1      57.322  28.432  51.540  1.00  0.00     0.000 C 
BRANCH   2   3
ATOM      3  C   UNL     1      56.636  27.056  51.481  1.00  0.00     0.000 C 
BRANCH   3   4
ATOM      4  C   UNL     1      56.404  26.583  50.030  1.00  0.00     0.000 C 
BRANCH   4   5
ATOM      5  C   UNL     1      54.922  26.364  49.685  1.00  0.00     0.000 C 
BRANCH   5   6
ATOM      6  C   UNL     1      53.972  27.136  50.615  1.00  0.00     0.006 C 
BRANCH   6   7
ATOM      7  C   UNL     1      53.589  28.508  50.044  1.00  0.00     0.053 C 
BRANCH   7   8
ATOM      8  C   UNL     1      53.780  29.601  51.051  1.00  0.00     0.041 C 
ATOM      9  O   UNL     1      53.807  30.804  50.682  1.00  0.00    -0.550 OA
ATOM     10  O   UNL     1      53.963  29.287  52.392  1.00  0.00    -0.550 OA
ENDBRANCH   7   8
ENDBRANCH   6   7
ENDBRANCH   5   6
ENDBRANCH   4   5
ENDBRANCH   3   4
ENDBRANCH   2   3
ENDBRANCH   1   2
BRANCH   1  11
ATOM     11  C   UNL     1      58.732  29.376  49.589  1.00  0.00     0.000 C 
BRANCH  11  12
ATOM     12  C   UNL     1      59.866  28.628  50.313  1.00  0.00     0.000 C 
BRANCH  12  13
ATOM     13  C   UNL     1      60.462  27.440  49.535  1.00  0.00     0.000 C 
BRANCH  13  14
ATOM     14  C   UNL     1      59.897  26.084  49.992  1.00  0.00     0.000 C 
BRANCH  14  15
ATOM     15  C   UNL     1      60.994  25.030  50.208  1.00  0.00     0.000 C 
BRANCH  15  16
ATOM     16  C   UNL     1      60.420  23.614  50.398  1.00  0.00     0.006 C 
BRANCH  16  17
ATOM     17  C   UNL     1      61.313  22.538  49.766  1.00  0.00     0.053 C 
BRANCH  17  18
ATOM     18  C   UNL     1      60.556  21.273  49.497  1.00  0.00     0.041 C 
ATOM     19  O   UNL     1      59.904  20.717  50.419  1.00  0.00    -0.550 OA
ATOM     20  O   UNL     1      60.547  20.725  48.222  1.00  0.00    -0.550 OA
ENDBRANCH  17  18
ENDBRANCH  16  17
ENDBRANCH  15  16
ENDBRANCH  14  15
ENDBRANCH  13  14
ENDBRANCH  12  13
ENDBRANCH  11  12
ENDBRANCH   1  11
TORSDOF 15
ENDMDL
MODEL 9
REMARK VINA RESULT:    -3.040      2.339      5.775
REMARK INTER + INTRA:          -7.915
REMARK INTER:                  -5.796
REMARK INTRA:                  -2.119
REMARK UNBOUND:                -2.209
REMARK SMILES O=C([O-])CCCCCCCCCCCCCCC(=O)[O-]
REMARK SMILES IDX 10 1 9 2 8 3 7 4 6 5 5 6 4 7 2 8 1 9 3 10 11 11 12 12 13 13
REMARK SMILES IDX 14 14 15 15 16 16 17 17 18 18 19 19 20 20
REMARK H PARENT
REMARK Flexibility Score: inf
ROOT
ATOM      1  C   UNL     1      59.955  26.098  49.629  1.00  0.00     0.000 C 
ENDROOT
BRANCH   1   2
ATOM      2  C   UNL     1      60.846  27.195  50.253  1.00  0.00     0.000 C 
BRANCH   2   3
ATOM      3  C   UNL     1      60.586  28.585  49.647  1.00  0.00     0.000 C 
BRANCH   3   4
ATOM      4  C   UNL     1      59.155  28.716  49.083  1.00  0.00     0.000 C 
BRANCH   4   5
ATOM      5  C   UNL     1      58.244  29.624  49.926  1.00  0.00     0.000 C 
BRANCH   5   6
ATOM      6  C   UNL     1      58.339  29.331  51.432  1.00  0.00     0.006 C 
BRANCH   6   7
ATOM      7  C   UNL     1      57.536  30.335  52.270  1.00  0.00     0.053 C 
BRANCH   7   8
ATOM      8  C   UNL     1      58.408  31.426  52.814  1.00  0.00     0.041 C 
ATOM      9  O   UNL     1      57.930  32.570  53.030  1.00  0.00    -0.550 OA
ATOM     10  O   UNL     1      59.757  31.187  53.048  1.00  0.00    -0.550 OA
ENDBRANCH   7   8
ENDBRANCH   6   7
ENDBRANCH   5   6
ENDBRANCH   4   5
ENDBRANCH   3   4
ENDBRANCH   2   3
ENDBRANCH   1   2
BRANCH   1  11
ATOM     11  C   UNL     1      58.956  25.469  50.620  1.00  0.00     0.000 C 
BRANCH  11  12
ATOM     12  C   UNL     1      57.487  25.884  50.420  1.00  0.00     0.000 C 
BRANCH  12  13
ATOM     13  C   UNL     1      56.651  25.961  51.711  1.00  0.00     0.000 C 
BRANCH  13  14
ATOM     14  C   UNL     1      55.345  26.753  51.529  1.00  0.00     0.000 C 
BRANCH  14  15
ATOM     15  C   UNL     1      55.181  27.304  50.104  1.00  0.00     0.000 C 
BRANCH  15  16
ATOM     16  C   UNL     1      54.005  28.291  49.986  1.00  0.00     0.006 C 
BRANCH  16  17
ATOM     17  C   UNL     1      54.368  29.688  50.505  1.00  0.00     0.053 C 
BRANCH  17  18
ATOM     18  C   UNL     1      53.459  30.123  51.615  1.00  0.00     0.041 C 
ATOM     19  O   UNL     1      53.052  29.289  52.464  1.00  0.00    -0.550 OA
ATOM     20  O   UNL     1      53.087  31.456  51.726  1.00  0.00    -0.550 OA
ENDBRANCH  17  18
ENDBRANCH  16  17
ENDBRANCH  15  16
ENDBRANCH  14  15
ENDBRANCH  13  14
ENDBRANCH  12  13
ENDBRANCH  11  12
ENDBRANCH   1  11
TORSDOF 15
ENDMDL
