MODEL 1
REMARK VINA RESULT:    -4.346      0.000      0.000
REMARK INTER + INTRA:          -4.754
REMARK INTER:                  -4.727
REMARK INTRA:                  -0.027
REMARK UNBOUND:                -0.027
REMARK SMILES O=C([O-])c1ccc(O)cc1
REMARK SMILES IDX 7 1 6 2 9 3 5 4 10 5 4 6 8 7 2 9 1 10 3 11
REMARK H PARENT 8 8
REMARK Flexibility Score: inf
ROOT
ATOM      1  C   UNL     1     148.841 161.712 160.636  1.00  0.00     0.115 A 
ATOM      2  C   UNL     1     149.328 160.416 160.438  1.00  0.00     0.047 A 
ATOM      3  C   UNL     1     147.544 161.897 161.130  1.00  0.00     0.047 A 
ATOM      4  C   UNL     1     148.525 159.309 160.729  1.00  0.00     0.014 A 
ATOM      5  C   UNL     1     146.738 160.793 161.423  1.00  0.00     0.014 A 
ATOM      6  C   UNL     1     147.221 159.486 161.225  1.00  0.00    -0.003 A 
ENDROOT
BRANCH   1   7
ATOM      7  O   UNL     1     149.652 162.804 160.341  1.00  0.00    -0.508 OA
ATOM      8  H   UNL     1     149.497 163.710 160.769  1.00  0.00     0.293 HD
ENDBRANCH   1   7
BRANCH   6   9
ATOM      9  C   UNL     1     146.366 158.319 161.536  1.00  0.00     0.071 C 
ATOM     10  O   UNL     1     145.633 157.807 160.647  1.00  0.00    -0.545 OA
ATOM     11  O   UNL     1     146.359 157.770 162.812  1.00  0.00    -0.545 OA
ENDBRANCH   6   9
TORSDOF 2
ENDMDL
MODEL 2
REMARK VINA RESULT:    -4.152     20.396     21.433
REMARK INTER + INTRA:          -4.543
REMARK INTER:                  -4.515
REMARK INTRA:                  -0.028
REMARK UNBOUND:                -0.027
REMARK SMILES O=C([O-])c1ccc(O)cc1
REMARK SMILES IDX 7 1 6 2 9 3 5 4 10 5 4 6 8 7 2 9 1 10 3 11
REMARK H PARENT 8 8
REMARK Flexibility Score: inf
ROOT
ATOM      1  C   UNL     1     161.188 146.025 172.614  1.00  0.00     0.115 A 
ATOM      2  C   UNL     1     160.661 144.750 172.386  1.00  0.00     0.047 A 
ATOM      3  C   UNL     1     160.799 147.093 171.796  1.00  0.00     0.047 A 
ATOM      4  C   UNL     1     159.751 144.540 171.345  1.00  0.00     0.014 A 
ATOM      5  C   UNL     1     159.890 146.888 170.754  1.00  0.00     0.014 A 
ATOM      6  C   UNL     1     159.356 145.608 170.518  1.00  0.00    -0.003 A 
ENDROOT
BRANCH   1   7
ATOM      7  O   UNL     1     162.093 146.219 173.654  1.00  0.00    -0.508 OA
ATOM      8  H   UNL     1     162.526 145.436 174.132  1.00  0.00     0.293 HD
ENDBRANCH   1   7
BRANCH   6   9
ATOM      9  C   UNL     1     158.393 145.392 169.415  1.00  0.00     0.071 C 
ATOM     10  O   UNL     1     157.189 145.115 169.662  1.00  0.00    -0.545 OA
ATOM     11  O   UNL     1     158.803 145.494 168.091  1.00  0.00    -0.545 OA
ENDBRANCH   6   9
TORSDOF 2
ENDMDL
MODEL 3
REMARK VINA RESULT:    -3.830      1.147      4.233
REMARK INTER + INTRA:          -4.193
REMARK INTER:                  -4.160
REMARK INTRA:                  -0.033
REMARK UNBOUND:                -0.027
REMARK SMILES O=C([O-])c1ccc(O)cc1
REMARK SMILES IDX 7 1 6 2 9 3 5 4 10 5 4 6 8 7 2 9 1 10 3 11
REMARK H PARENT 8 8
REMARK Flexibility Score: inf
ROOT
ATOM      1  C   UNL     1     146.472 158.697 161.554  1.00  0.00     0.115 A 
ATOM      2  C   UNL     1     147.673 158.796 160.844  1.00  0.00     0.047 A 
ATOM      3  C   UNL     1     145.810 159.862 161.963  1.00  0.00     0.047 A 
ATOM      4  C   UNL     1     148.213 160.050 160.545  1.00  0.00     0.014 A 
ATOM      5  C   UNL     1     146.347 161.118 161.665  1.00  0.00     0.014 A 
ATOM      6  C   UNL     1     147.554 161.225 160.952  1.00  0.00    -0.003 A 
ENDROOT
BRANCH   1   7
ATOM      7  O   UNL     1     145.947 157.441 161.846  1.00  0.00    -0.508 OA
ATOM      8  H   UNL     1     145.166 157.328 162.483  1.00  0.00     0.293 HD
ENDBRANCH   1   7
BRANCH   6   9
ATOM      9  C   UNL     1     148.120 162.556 160.637  1.00  0.00     0.071 C 
ATOM     10  O   UNL     1     149.367 162.736 160.631  1.00  0.00    -0.545 OA
ATOM     11  O   UNL     1     147.284 163.626 160.344  1.00  0.00    -0.545 OA
ENDBRANCH   6   9
TORSDOF 2
ENDMDL
MODEL 4
REMARK VINA RESULT:    -3.583     13.634     15.057
REMARK INTER + INTRA:          -3.924
REMARK INTER:                  -3.890
REMARK INTRA:                  -0.034
REMARK UNBOUND:                -0.027
REMARK SMILES O=C([O-])c1ccc(O)cc1
REMARK SMILES IDX 7 1 6 2 9 3 5 4 10 5 4 6 8 7 2 9 1 10 3 11
REMARK H PARENT 8 8
REMARK Flexibility Score: inf
ROOT
ATOM      1  C   UNL     1     146.280 146.396 162.519  1.00  0.00     0.115 A 
ATOM      2  C   UNL     1     146.480 146.564 161.146  1.00  0.00     0.047 A 
ATOM      3  C   UNL     1     147.120 145.539 163.243  1.00  0.00     0.047 A 
ATOM      4  C   UNL     1     147.511 145.880 160.495  1.00  0.00     0.014 A 
ATOM      5  C   UNL     1     148.152 144.854 162.596  1.00  0.00     0.014 A 
ATOM      6  C   UNL     1     148.358 145.017 161.214  1.00  0.00    -0.003 A 
ENDROOT
BRANCH   1   7
ATOM      7  O   UNL     1     145.249 147.084 163.154  1.00  0.00    -0.508 OA
ATOM      8  H   UNL     1     144.802 146.718 163.988  1.00  0.00     0.293 HD
ENDBRANCH   1   7
BRANCH   6   9
ATOM      9  C   UNL     1     149.452 144.291 160.531  1.00  0.00     0.071 C 
ATOM     10  O   UNL     1     149.346 143.968 159.317  1.00  0.00    -0.545 OA
ATOM     11  O   UNL     1     150.612 143.955 161.218  1.00  0.00    -0.545 OA
ENDBRANCH   6   9
TORSDOF 2
ENDMDL
MODEL 5
REMARK VINA RESULT:    -3.291     19.434     20.625
REMARK INTER + INTRA:          -3.606
REMARK INTER:                  -3.579
REMARK INTRA:                  -0.027
REMARK UNBOUND:                -0.027
REMARK SMILES O=C([O-])c1ccc(O)cc1
REMARK SMILES IDX 7 1 6 2 9 3 5 4 10 5 4 6 8 7 2 9 1 10 3 11
REMARK H PARENT 8 8
REMARK Flexibility Score: inf
ROOT
ATOM      1  C   UNL     1     160.485 145.184 171.001  1.00  0.00     0.115 A 
ATOM      2  C   UNL     1     159.358 145.510 170.241  1.00  0.00     0.047 A 
ATOM      3  C   UNL     1     161.125 146.178 171.753  1.00  0.00     0.047 A 
ATOM      4  C   UNL     1     158.871 146.820 170.229  1.00  0.00     0.014 A 
ATOM      5  C   UNL     1     160.641 147.489 171.744  1.00  0.00     0.014 A 
ATOM      6  C   UNL     1     159.508 147.824 170.981  1.00  0.00    -0.003 A 
ENDROOT
BRANCH   1   7
ATOM      7  O   UNL     1     160.959 143.875 171.003  1.00  0.00    -0.508 OA
ATOM      8  H   UNL     1     161.446 143.489 171.804  1.00  0.00     0.293 HD
ENDBRANCH   1   7
BRANCH   6   9
ATOM      9  C   UNL     1     158.997 149.213 170.973  1.00  0.00     0.071 C 
ATOM     10  O   UNL     1     158.047 149.550 171.729  1.00  0.00    -0.545 OA
ATOM     11  O   UNL     1     159.559 150.166 170.132  1.00  0.00    -0.545 OA
ENDBRANCH   6   9
TORSDOF 2
ENDMDL
MODEL 6
REMARK VINA RESULT:    -3.232     21.646     22.727
REMARK INTER + INTRA:          -3.542
REMARK INTER:                  -3.508
REMARK INTRA:                  -0.035
REMARK UNBOUND:                -0.027
REMARK SMILES O=C([O-])c1ccc(O)cc1
REMARK SMILES IDX 7 1 6 2 9 3 5 4 10 5 4 6 8 7 2 9 1 10 3 11
REMARK H PARENT 8 8
REMARK Flexibility Score: inf
ROOT
ATOM      1  C   UNL     1     159.996 145.617 170.306  1.00  0.00     0.115 A 
ATOM      2  C   UNL     1     159.480 144.611 171.127  1.00  0.00     0.047 A 
ATOM      3  C   UNL     1     160.924 146.529 170.826  1.00  0.00     0.047 A 
ATOM      4  C   UNL     1     159.884 144.513 172.461  1.00  0.00     0.014 A 
ATOM      5  C   UNL     1     161.332 146.434 172.160  1.00  0.00     0.014 A 
ATOM      6  C   UNL     1     160.815 145.424 172.992  1.00  0.00    -0.003 A 
ENDROOT
BRANCH   1   7
ATOM      7  O   UNL     1     159.584 145.703 168.979  1.00  0.00    -0.508 OA
ATOM      8  H   UNL     1     158.601 145.748 168.731  1.00  0.00     0.293 HD
ENDBRANCH   1   7
BRANCH   6   9
ATOM      9  C   UNL     1     161.248 145.326 174.404  1.00  0.00     0.071 C 
ATOM     10  O   UNL     1     162.338 145.837 174.776  1.00  0.00    -0.545 OA
ATOM     11  O   UNL     1     160.458 144.670 175.339  1.00  0.00    -0.545 OA
ENDBRANCH   6   9
TORSDOF 2
ENDMDL
MODEL 7
REMARK VINA RESULT:    -3.180     14.018     15.021
REMARK INTER + INTRA:          -3.486
REMARK INTER:                  -3.459
REMARK INTRA:                  -0.027
REMARK UNBOUND:                -0.027
REMARK SMILES O=C([O-])c1ccc(O)cc1
REMARK SMILES IDX 7 1 6 2 9 3 5 4 10 5 4 6 8 7 2 9 1 10 3 11
REMARK H PARENT 8 8
REMARK Flexibility Score: inf
ROOT
ATOM      1  C   UNL     1     160.603 162.488 167.187  1.00  0.00     0.115 A 
ATOM      2  C   UNL     1     161.400 163.604 166.918  1.00  0.00     0.047 A 
ATOM      3  C   UNL     1     160.233 161.632 166.142  1.00  0.00     0.047 A 
ATOM      4  C   UNL     1     161.826 163.868 165.613  1.00  0.00     0.014 A 
ATOM      5  C   UNL     1     160.658 161.891 164.836  1.00  0.00     0.014 A 
ATOM      6  C   UNL     1     161.459 163.013 164.557  1.00  0.00    -0.003 A 
ENDROOT
BRANCH   1   7
ATOM      7  O   UNL     1     160.185 162.238 168.492  1.00  0.00    -0.508 OA
ATOM      8  H   UNL     1     159.289 162.567 168.833  1.00  0.00     0.293 HD
ENDBRANCH   1   7
BRANCH   6   9
ATOM      9  C   UNL     1     161.907 163.286 163.174  1.00  0.00     0.071 C 
ATOM     10  O   UNL     1     161.298 164.125 162.457  1.00  0.00    -0.545 OA
ATOM     11  O   UNL     1     163.008 162.623 162.646  1.00  0.00    -0.545 OA
ENDBRANCH   6   9
TORSDOF 2
ENDMDL
MODEL 8
REMARK VINA RESULT:    -3.116     15.434     16.021
REMARK INTER + INTRA:          -3.416
REMARK INTER:                  -3.383
REMARK INTRA:                  -0.034
REMARK UNBOUND:                -0.027
REMARK SMILES O=C([O-])c1ccc(O)cc1
REMARK SMILES IDX 7 1 6 2 9 3 5 4 10 5 4 6 8 7 2 9 1 10 3 11
REMARK H PARENT 8 8
REMARK Flexibility Score: inf
ROOT
ATOM      1  C   UNL     1     150.940 144.047 158.823  1.00  0.00     0.115 A 
ATOM      2  C   UNL     1     151.234 144.015 160.189  1.00  0.00     0.047 A 
ATOM      3  C   UNL     1     149.620 144.252 158.402  1.00  0.00     0.047 A 
ATOM      4  C   UNL     1     150.217 144.185 161.133  1.00  0.00     0.014 A 
ATOM      5  C   UNL     1     148.599 144.423 159.343  1.00  0.00     0.014 A 
ATOM      6  C   UNL     1     148.888 144.391 160.719  1.00  0.00    -0.003 A 
ENDROOT
BRANCH   1   7
ATOM      7  O   UNL     1     151.963 143.875 157.894  1.00  0.00    -0.508 OA
ATOM      8  H   UNL     1     151.767 143.668 156.921  1.00  0.00     0.293 HD
ENDBRANCH   1   7
BRANCH   6   9
ATOM      9  C   UNL     1     147.806 144.572 161.713  1.00  0.00     0.071 C 
ATOM     10  O   UNL     1     146.799 145.279 161.441  1.00  0.00    -0.545 OA
ATOM     11  O   UNL     1     147.886 143.965 162.960  1.00  0.00    -0.545 OA
ENDBRANCH   6   9
TORSDOF 2
ENDMDL
MODEL 9
REMARK VINA RESULT:    -3.116     14.147     15.096
REMARK INTER + INTRA:          -3.416
REMARK INTER:                  -3.381
REMARK INTRA:                  -0.035
REMARK UNBOUND:                -0.027
REMARK SMILES O=C([O-])c1ccc(O)cc1
REMARK SMILES IDX 7 1 6 2 9 3 5 4 10 5 4 6 8 7 2 9 1 10 3 11
REMARK H PARENT 8 8
REMARK Flexibility Score: inf
ROOT
ATOM      1  C   UNL     1     148.996 144.441 158.978  1.00  0.00     0.115 A 
ATOM      2  C   UNL     1     149.474 144.178 160.266  1.00  0.00     0.047 A 
ATOM      3  C   UNL     1     147.849 145.228 158.813  1.00  0.00     0.047 A 
ATOM      4  C   UNL     1     148.812 144.694 161.383  1.00  0.00     0.014 A 
ATOM      5  C   UNL     1     147.184 145.747 159.928  1.00  0.00     0.014 A 
ATOM      6  C   UNL     1     147.659 145.485 161.225  1.00  0.00    -0.003 A 
ENDROOT
BRANCH   1   7
ATOM      7  O   UNL     1     149.666 143.920 157.875  1.00  0.00    -0.508 OA
ATOM      8  H   UNL     1     149.164 143.508 157.096  1.00  0.00     0.293 HD
ENDBRANCH   1   7
BRANCH   6   9
ATOM      9  C   UNL     1     146.953 146.035 162.404  1.00  0.00     0.071 C 
ATOM     10  O   UNL     1     147.527 146.093 163.524  1.00  0.00    -0.545 OA
ATOM     11  O   UNL     1     145.647 146.497 162.292  1.00  0.00    -0.545 OA
ENDBRANCH   6   9
TORSDOF 2
ENDMDL
