MODEL 1
REMARK VINA RESULT:    -6.825      0.000      0.000
REMARK INTER + INTRA:          -7.024
REMARK INTER:                  -7.024
REMARK INTRA:                   0.000
REMARK UNBOUND:                 0.000
REMARK SMILES C=C1CCC[C@]2(C)C[C@]3(O)OC(=O)C(C)=C3C[C@@H]12
REMARK SMILES IDX 15 1 14 2 16 3 17 4 18 5 2 6 1 7 3 8 4 9 5 10 6 11 8 12 9 13
REMARK SMILES IDX 11 14 12 15 13 16 7 17 10 18
REMARK H PARENT 10 19
REMARK Flexibility Score: inf
ROOT
ATOM      1  C   UNL     1       4.546 -56.114 -26.192  1.00  0.00     0.052 C 
ATOM      2  C   UNL     1       4.540 -56.036 -27.687  1.00  0.00     0.040 C 
ATOM      3  C   UNL     1       5.556 -56.307 -28.508  1.00  0.00     0.012 C 
ATOM      4  C   UNL     1       6.957 -56.665 -28.109  1.00  0.00     0.047 C 
ATOM      5  C   UNL     1       7.927 -55.580 -28.643  1.00  0.00     0.025 C 
ATOM      6  C   UNL     1       9.409 -55.845 -28.367  1.00  0.00    -0.073 C 
ATOM      7  C   UNL     1       9.857 -56.861 -27.607  1.00  0.00     0.008 C 
ATOM      8  C   UNL     1      10.421 -54.910 -28.989  1.00  0.00     0.031 C 
ATOM      9  C   UNL     1       9.751 -53.683 -29.613  1.00  0.00     0.005 C 
ATOM     10  C   UNL     1       8.631 -54.053 -30.608  1.00  0.00     0.008 C 
ATOM     11  C   UNL     1       7.727 -55.268 -30.174  1.00  0.00    -0.019 C 
ATOM     12  C   UNL     1       6.231 -54.894 -30.447  1.00  0.00     0.092 C 
ATOM     13  C   UNL     1       5.217 -55.930 -29.928  1.00  0.00     0.235 C 
ATOM     14  O   UNL     1       3.915 -55.356 -29.819  1.00  0.00    -0.426 OA
ATOM     15  C   UNL     1       3.505 -55.433 -28.500  1.00  0.00     0.336 C 
ATOM     16  O   UNL     1       2.397 -55.006 -28.083  1.00  0.00    -0.246 OA
ATOM     17  C   UNL     1       8.126 -56.494 -31.044  1.00  0.00     0.012 C 
ENDROOT
BRANCH  13  18
ATOM     18  O   UNL     1       5.177 -57.059 -30.763  1.00  0.00    -0.353 OA
ATOM     19  H   UNL     1       4.286 -57.073 -31.201  1.00  0.00     0.215 HD
ENDBRANCH  13  18
TORSDOF 1
ENDMDL
MODEL 2
REMARK VINA RESULT:    -6.464      9.329     11.433
REMARK INTER + INTRA:          -6.653
REMARK INTER:                  -6.653
REMARK INTRA:                   0.000
REMARK UNBOUND:                 0.000
REMARK SMILES C=C1CCC[C@]2(C)C[C@]3(O)OC(=O)C(C)=C3C[C@@H]12
REMARK SMILES IDX 15 1 14 2 16 3 17 4 18 5 2 6 1 7 3 8 4 9 5 10 6 11 8 12 9 13
REMARK SMILES IDX 11 14 12 15 13 16 7 17 10 18
REMARK H PARENT 10 19
REMARK Flexibility Score: inf
ROOT
ATOM      1  C   UNL     1      -0.223 -50.422 -22.114  1.00  0.00     0.052 C 
ATOM      2  C   UNL     1       1.160 -49.985 -22.485  1.00  0.00     0.040 C 
ATOM      3  C   UNL     1       1.567 -48.739 -22.732  1.00  0.00     0.012 C 
ATOM      4  C   UNL     1       0.708 -47.510 -22.780  1.00  0.00     0.047 C 
ATOM      5  C   UNL     1       0.768 -46.906 -24.206  1.00  0.00     0.025 C 
ATOM      6  C   UNL     1      -0.012 -45.603 -24.390  1.00  0.00    -0.073 C 
ATOM      7  C   UNL     1      -0.809 -45.070 -23.446  1.00  0.00     0.008 C 
ATOM      8  C   UNL     1       0.124 -44.878 -25.710  1.00  0.00     0.031 C 
ATOM      9  C   UNL     1       0.861 -45.728 -26.750  1.00  0.00     0.005 C 
ATOM     10  C   UNL     1       2.221 -46.249 -26.242  1.00  0.00     0.008 C 
ATOM     11  C   UNL     1       2.239 -46.715 -24.737  1.00  0.00    -0.019 C 
ATOM     12  C   UNL     1       3.015 -48.073 -24.649  1.00  0.00     0.092 C 
ATOM     13  C   UNL     1       2.981 -48.728 -23.256  1.00  0.00     0.235 C 
ATOM     14  O   UNL     1       3.317 -50.113 -23.338  1.00  0.00    -0.426 OA
ATOM     15  C   UNL     1       2.250 -50.857 -22.867  1.00  0.00     0.336 C 
ATOM     16  O   UNL     1       2.240 -52.115 -22.815  1.00  0.00    -0.246 OA
ATOM     17  C   UNL     1       2.987 -45.630 -23.911  1.00  0.00     0.012 C 
ENDROOT
BRANCH  13  18
ATOM     18  O   UNL     1       3.851 -48.073 -22.368  1.00  0.00    -0.353 OA
ATOM     19  H   UNL     1       4.757 -48.457 -22.503  1.00  0.00     0.215 HD
ENDBRANCH  13  18
TORSDOF 1
ENDMDL
MODEL 3
REMARK VINA RESULT:    -6.392      4.040      7.503
REMARK INTER + INTRA:          -6.578
REMARK INTER:                  -6.578
REMARK INTRA:                   0.000
REMARK UNBOUND:                 0.000
REMARK SMILES C=C1CCC[C@]2(C)C[C@]3(O)OC(=O)C(C)=C3C[C@@H]12
REMARK SMILES IDX 15 1 14 2 16 3 17 4 18 5 2 6 1 7 3 8 4 9 5 10 6 11 8 12 9 13
REMARK SMILES IDX 11 14 12 15 13 16 7 17 10 18
REMARK H PARENT 10 19
REMARK Flexibility Score: inf
ROOT
ATOM      1  C   UNL     1       5.042 -57.572 -25.710  1.00  0.00     0.052 C 
ATOM      2  C   UNL     1       4.231 -56.553 -26.447  1.00  0.00     0.040 C 
ATOM      3  C   UNL     1       3.461 -55.604 -25.912  1.00  0.00     0.012 C 
ATOM      4  C   UNL     1       3.168 -55.403 -24.455  1.00  0.00     0.047 C 
ATOM      5  C   UNL     1       1.647 -55.582 -24.216  1.00  0.00     0.025 C 
ATOM      6  C   UNL     1       1.185 -55.342 -22.777  1.00  0.00    -0.073 C 
ATOM      7  C   UNL     1       2.026 -55.125 -21.749  1.00  0.00     0.008 C 
ATOM      8  C   UNL     1      -0.301 -55.350 -22.501  1.00  0.00     0.031 C 
ATOM      9  C   UNL     1      -1.099 -55.846 -23.710  1.00  0.00     0.005 C 
ATOM     10  C   UNL     1      -0.764 -55.078 -25.005  1.00  0.00     0.008 C 
ATOM     11  C   UNL     1       0.760 -54.729 -25.200  1.00  0.00    -0.019 C 
ATOM     12  C   UNL     1       1.156 -55.047 -26.681  1.00  0.00     0.092 C 
ATOM     13  C   UNL     1       2.659 -54.898 -26.977  1.00  0.00     0.235 C 
ATOM     14  O   UNL     1       3.012 -55.591 -28.175  1.00  0.00    -0.426 OA
ATOM     15  C   UNL     1       3.953 -56.557 -27.867  1.00  0.00     0.336 C 
ATOM     16  O   UNL     1       4.460 -57.338 -28.714  1.00  0.00    -0.246 OA
ATOM     17  C   UNL     1       0.939 -53.209 -24.925  1.00  0.00     0.012 C 
ENDROOT
BRANCH  13  18
ATOM     18  O   UNL     1       3.022 -53.544 -27.080  1.00  0.00    -0.353 OA
ATOM     19  H   UNL     1       2.225 -53.047 -27.401  1.00  0.00     0.215 HD
ENDBRANCH  13  18
TORSDOF 1
ENDMDL
MODEL 4
REMARK VINA RESULT:    -6.234      5.306      7.680
REMARK INTER + INTRA:          -6.416
REMARK INTER:                  -6.416
REMARK INTRA:                   0.000
REMARK UNBOUND:                 0.000
REMARK SMILES C=C1CCC[C@]2(C)C[C@]3(O)OC(=O)C(C)=C3C[C@@H]12
REMARK SMILES IDX 15 1 14 2 16 3 17 4 18 5 2 6 1 7 3 8 4 9 5 10 6 11 8 12 9 13
REMARK SMILES IDX 11 14 12 15 13 16 7 17 10 18
REMARK H PARENT 10 19
REMARK Flexibility Score: inf
ROOT
ATOM      1  C   UNL     1      -2.326 -55.155 -26.647  1.00  0.00     0.052 C 
ATOM      2  C   UNL     1      -1.623 -54.510 -25.494  1.00  0.00     0.040 C 
ATOM      3  C   UNL     1      -0.336 -54.162 -25.434  1.00  0.00     0.012 C 
ATOM      4  C   UNL     1       0.710 -54.420 -26.477  1.00  0.00     0.047 C 
ATOM      5  C   UNL     1       1.808 -55.335 -25.876  1.00  0.00     0.025 C 
ATOM      6  C   UNL     1       2.983 -55.634 -26.808  1.00  0.00    -0.073 C 
ATOM      7  C   UNL     1       3.026 -55.260 -28.100  1.00  0.00     0.008 C 
ATOM      8  C   UNL     1       4.161 -56.392 -26.239  1.00  0.00     0.031 C 
ATOM      9  C   UNL     1       3.857 -56.949 -24.845  1.00  0.00     0.005 C 
ATOM     10  C   UNL     1       3.347 -55.871 -23.867  1.00  0.00     0.008 C 
ATOM     11  C   UNL     1       2.356 -54.817 -24.492  1.00  0.00    -0.019 C 
ATOM     12  C   UNL     1       1.166 -54.607 -23.495  1.00  0.00     0.092 C 
ATOM     13  C   UNL     1       0.036 -53.715 -24.043  1.00  0.00     0.235 C 
ATOM     14  O   UNL     1      -1.167 -53.905 -23.298  1.00  0.00    -0.426 OA
ATOM     15  C   UNL     1      -2.153 -54.357 -24.156  1.00  0.00     0.336 C 
ATOM     16  O   UNL     1      -3.330 -54.621 -23.796  1.00  0.00    -0.246 OA
ATOM     17  C   UNL     1       3.131 -53.481 -24.670  1.00  0.00     0.012 C 
ENDROOT
BRANCH  13  18
ATOM     18  O   UNL     1       0.407 -52.360 -24.021  1.00  0.00    -0.353 OA
ATOM     19  H   UNL     1       1.358 -52.318 -23.739  1.00  0.00     0.215 HD
ENDBRANCH  13  18
TORSDOF 1
ENDMDL
MODEL 5
REMARK VINA RESULT:    -6.102      3.863      7.539
REMARK INTER + INTRA:          -6.281
REMARK INTER:                  -6.281
REMARK INTRA:                   0.000
REMARK UNBOUND:                 0.000
REMARK SMILES C=C1CCC[C@]2(C)C[C@]3(O)OC(=O)C(C)=C3C[C@@H]12
REMARK SMILES IDX 15 1 14 2 16 3 17 4 18 5 2 6 1 7 3 8 4 9 5 10 6 11 8 12 9 13
REMARK SMILES IDX 11 14 12 15 13 16 7 17 10 18
REMARK H PARENT 10 19
REMARK Flexibility Score: inf
ROOT
ATOM      1  C   UNL     1       3.496 -55.314 -28.730  1.00  0.00     0.052 C 
ATOM      2  C   UNL     1       3.765 -55.962 -27.407  1.00  0.00     0.040 C 
ATOM      3  C   UNL     1       2.949 -55.999 -26.353  1.00  0.00     0.012 C 
ATOM      4  C   UNL     1       1.615 -55.324 -26.229  1.00  0.00     0.047 C 
ATOM      5  C   UNL     1       1.676 -54.292 -25.074  1.00  0.00     0.025 C 
ATOM      6  C   UNL     1       0.361 -53.567 -24.784  1.00  0.00    -0.073 C 
ATOM      7  C   UNL     1      -0.744 -53.692 -25.542  1.00  0.00     0.008 C 
ATOM      8  C   UNL     1       0.306 -52.660 -23.576  1.00  0.00     0.031 C 
ATOM      9  C   UNL     1       1.695 -52.438 -22.969  1.00  0.00     0.005 C 
ATOM     10  C   UNL     1       2.430 -53.758 -22.658  1.00  0.00     0.008 C 
ATOM     11  C   UNL     1       2.249 -54.894 -23.735  1.00  0.00    -0.019 C 
ATOM     12  C   UNL     1       3.646 -55.549 -24.002  1.00  0.00     0.092 C 
ATOM     13  C   UNL     1       3.651 -56.576 -25.149  1.00  0.00     0.235 C 
ATOM     14  O   UNL     1       4.980 -56.809 -25.617  1.00  0.00    -0.426 OA
ATOM     15  C   UNL     1       5.045 -56.463 -26.955  1.00  0.00     0.336 C 
ATOM     16  O   UNL     1       6.089 -56.552 -27.653  1.00  0.00    -0.246 OA
ATOM     17  C   UNL     1       1.277 -55.957 -23.148  1.00  0.00     0.012 C 
ENDROOT
BRANCH  13  18
ATOM     18  O   UNL     1       3.064 -57.787 -24.745  1.00  0.00    -0.353 OA
ATOM     19  H   UNL     1       2.090 -57.625 -24.644  1.00  0.00     0.215 HD
ENDBRANCH  13  18
TORSDOF 1
ENDMDL
MODEL 6
REMARK VINA RESULT:    -5.803      6.109      8.430
REMARK INTER + INTRA:          -5.972
REMARK INTER:                  -5.972
REMARK INTRA:                   0.000
REMARK UNBOUND:                 0.000
REMARK SMILES C=C1CCC[C@]2(C)C[C@]3(O)OC(=O)C(C)=C3C[C@@H]12
REMARK SMILES IDX 15 1 14 2 16 3 17 4 18 5 2 6 1 7 3 8 4 9 5 10 6 11 8 12 9 13
REMARK SMILES IDX 11 14 12 15 13 16 7 17 10 18
REMARK H PARENT 10 19
REMARK Flexibility Score: inf
ROOT
ATOM      1  C   UNL     1      -2.986 -55.266 -27.665  1.00  0.00     0.052 C 
ATOM      2  C   UNL     1      -2.643 -55.837 -26.324  1.00  0.00     0.040 C 
ATOM      3  C   UNL     1      -1.635 -55.470 -25.531  1.00  0.00     0.012 C 
ATOM      4  C   UNL     1      -0.568 -54.464 -25.848  1.00  0.00     0.047 C 
ATOM      5  C   UNL     1       0.811 -55.172 -25.849  1.00  0.00     0.025 C 
ATOM      6  C   UNL     1       2.010 -54.255 -26.094  1.00  0.00    -0.073 C 
ATOM      7  C   UNL     1       1.900 -52.954 -26.421  1.00  0.00     0.008 C 
ATOM      8  C   UNL     1       3.393 -54.848 -25.959  1.00  0.00     0.031 C 
ATOM      9  C   UNL     1       3.345 -56.373 -25.825  1.00  0.00     0.005 C 
ATOM     10  C   UNL     1       2.409 -56.846 -24.695  1.00  0.00     0.008 C 
ATOM     11  C   UNL     1       1.066 -56.034 -24.555  1.00  0.00    -0.019 C 
ATOM     12  C   UNL     1      -0.108 -57.050 -24.354  1.00  0.00     0.092 C 
ATOM     13  C   UNL     1      -1.506 -56.405 -24.355  1.00  0.00     0.235 C 
ATOM     14  O   UNL     1      -2.517 -57.385 -24.596  1.00  0.00    -0.426 OA
ATOM     15  C   UNL     1      -3.201 -57.042 -25.749  1.00  0.00     0.336 C 
ATOM     16  O   UNL     1      -4.153 -57.714 -26.227  1.00  0.00    -0.246 OA
ATOM     17  C   UNL     1       1.189 -55.122 -23.301  1.00  0.00     0.012 C 
ENDROOT
BRANCH  13  18
ATOM     18  O   UNL     1      -1.758 -55.742 -23.143  1.00  0.00    -0.353 OA
ATOM     19  H   UNL     1      -1.000 -55.121 -22.981  1.00  0.00     0.215 HD
ENDBRANCH  13  18
TORSDOF 1
ENDMDL
MODEL 7
REMARK VINA RESULT:    -5.742      3.587      7.070
REMARK INTER + INTRA:          -5.910
REMARK INTER:                  -5.910
REMARK INTRA:                   0.000
REMARK UNBOUND:                 0.000
REMARK SMILES C=C1CCC[C@]2(C)C[C@]3(O)OC(=O)C(C)=C3C[C@@H]12
REMARK SMILES IDX 15 1 14 2 16 3 17 4 18 5 2 6 1 7 3 8 4 9 5 10 6 11 8 12 9 13
REMARK SMILES IDX 11 14 12 15 13 16 7 17 10 18
REMARK H PARENT 10 19
REMARK Flexibility Score: inf
ROOT
ATOM      1  C   UNL     1       5.687 -56.171 -28.066  1.00  0.00     0.052 C 
ATOM      2  C   UNL     1       5.310 -56.858 -26.790  1.00  0.00     0.040 C 
ATOM      3  C   UNL     1       4.204 -56.662 -26.072  1.00  0.00     0.012 C 
ATOM      4  C   UNL     1       3.133 -55.645 -26.336  1.00  0.00     0.047 C 
ATOM      5  C   UNL     1       3.064 -54.661 -25.141  1.00  0.00     0.025 C 
ATOM      6  C   UNL     1       1.967 -53.600 -25.239  1.00  0.00    -0.073 C 
ATOM      7  C   UNL     1       1.194 -53.422 -26.327  1.00  0.00     0.008 C 
ATOM      8  C   UNL     1       1.741 -52.703 -24.043  1.00  0.00     0.031 C 
ATOM      9  C   UNL     1       2.846 -52.868 -22.995  1.00  0.00     0.005 C 
ATOM     10  C   UNL     1       3.059 -54.337 -22.575  1.00  0.00     0.008 C 
ATOM     11  C   UNL     1       2.967 -55.387 -23.746  1.00  0.00    -0.019 C 
ATOM     12  C   UNL     1       4.149 -56.403 -23.593  1.00  0.00     0.092 C 
ATOM     13  C   UNL     1       4.276 -57.401 -24.759  1.00  0.00     0.235 C 
ATOM     14  O   UNL     1       5.575 -57.993 -24.781  1.00  0.00    -0.426 OA
ATOM     15  C   UNL     1       6.181 -57.689 -25.987  1.00  0.00     0.336 C 
ATOM     16  O   UNL     1       7.339 -58.067 -26.306  1.00  0.00    -0.246 OA
ATOM     17  C   UNL     1       1.612 -56.137 -23.607  1.00  0.00     0.012 C 
ENDROOT
BRANCH  13  18
ATOM     18  O   UNL     1       3.293 -58.400 -24.678  1.00  0.00    -0.353 OA
ATOM     19  H   UNL     1       3.390 -58.978 -25.480  1.00  0.00     0.215 HD
ENDBRANCH  13  18
TORSDOF 1
ENDMDL
MODEL 8
REMARK VINA RESULT:    -5.590     10.644     12.172
REMARK INTER + INTRA:          -5.754
REMARK INTER:                  -5.754
REMARK INTRA:                   0.000
REMARK UNBOUND:                 0.000
REMARK SMILES C=C1CCC[C@]2(C)C[C@]3(O)OC(=O)C(C)=C3C[C@@H]12
REMARK SMILES IDX 15 1 14 2 16 3 17 4 18 5 2 6 1 7 3 8 4 9 5 10 6 11 8 12 9 13
REMARK SMILES IDX 11 14 12 15 13 16 7 17 10 18
REMARK H PARENT 10 19
REMARK Flexibility Score: inf
ROOT
ATOM      1  C   UNL     1      -2.037 -47.452 -22.297  1.00  0.00     0.052 C 
ATOM      2  C   UNL     1      -1.480 -46.663 -23.440  1.00  0.00     0.040 C 
ATOM      3  C   UNL     1      -0.274 -46.799 -23.995  1.00  0.00     0.012 C 
ATOM      4  C   UNL     1       0.823 -47.714 -23.538  1.00  0.00     0.047 C 
ATOM      5  C   UNL     1       2.049 -46.863 -23.119  1.00  0.00     0.025 C 
ATOM      6  C   UNL     1       3.278 -47.666 -22.689  1.00  0.00    -0.073 C 
ATOM      7  C   UNL     1       3.282 -49.004 -22.544  1.00  0.00     0.008 C 
ATOM      8  C   UNL     1       4.556 -46.909 -22.413  1.00  0.00     0.031 C 
ATOM      9  C   UNL     1       4.323 -45.395 -22.386  1.00  0.00     0.005 C 
ATOM     10  C   UNL     1       3.615 -44.875 -23.653  1.00  0.00     0.008 C 
ATOM     11  C   UNL     1       2.470 -45.805 -24.208  1.00  0.00    -0.019 C 
ATOM     12  C   UNL     1       1.241 -44.908 -24.579  1.00  0.00     0.092 C 
ATOM     13  C   UNL     1      -0.014 -45.699 -24.993  1.00  0.00     0.235 C 
ATOM     14  O   UNL     1      -1.181 -44.883 -24.903  1.00  0.00    -0.426 OA
ATOM     15  C   UNL     1      -2.057 -45.459 -24.000  1.00  0.00     0.336 C 
ATOM     16  O   UNL     1      -3.178 -44.972 -23.700  1.00  0.00    -0.246 OA
ATOM     17  C   UNL     1       3.007 -46.511 -25.485  1.00  0.00     0.012 C 
ENDROOT
BRANCH  13  18
ATOM     18  O   UNL     1       0.118 -46.209 -26.296  1.00  0.00    -0.353 OA
ATOM     19  H   UNL     1      -0.792 -46.245 -26.693  1.00  0.00     0.215 HD
ENDBRANCH  13  18
TORSDOF 1
ENDMDL
MODEL 9
REMARK VINA RESULT:    -5.478      6.747      9.029
REMARK INTER + INTRA:          -5.638
REMARK INTER:                  -5.638
REMARK INTRA:                   0.000
REMARK UNBOUND:                 0.000
REMARK SMILES C=C1CCC[C@]2(C)C[C@]3(O)OC(=O)C(C)=C3C[C@@H]12
REMARK SMILES IDX 15 1 14 2 16 3 17 4 18 5 2 6 1 7 3 8 4 9 5 10 6 11 8 12 9 13
REMARK SMILES IDX 11 14 12 15 13 16 7 17 10 18
REMARK H PARENT 10 19
REMARK Flexibility Score: inf
ROOT
ATOM      1  C   UNL     1      -0.726 -51.119 -21.474  1.00  0.00     0.052 C 
ATOM      2  C   UNL     1      -0.288 -52.536 -21.266  1.00  0.00     0.040 C 
ATOM      3  C   UNL     1       0.764 -53.138 -21.824  1.00  0.00     0.012 C 
ATOM      4  C   UNL     1       1.690 -52.554 -22.850  1.00  0.00     0.047 C 
ATOM      5  C   UNL     1       1.595 -53.392 -24.151  1.00  0.00     0.025 C 
ATOM      6  C   UNL     1       2.536 -52.953 -25.273  1.00  0.00    -0.073 C 
ATOM      7  C   UNL     1       3.301 -51.847 -25.218  1.00  0.00     0.008 C 
ATOM      8  C   UNL     1       2.608 -53.815 -26.513  1.00  0.00     0.031 C 
ATOM      9  C   UNL     1       1.513 -54.886 -26.523  1.00  0.00     0.005 C 
ATOM     10  C   UNL     1       1.496 -55.737 -25.237  1.00  0.00     0.008 C 
ATOM     11  C   UNL     1       1.759 -54.940 -23.904  1.00  0.00    -0.019 C 
ATOM     12  C   UNL     1       0.726 -55.418 -22.829  1.00  0.00     0.092 C 
ATOM     13  C   UNL     1       0.765 -54.614 -21.516  1.00  0.00     0.235 C 
ATOM     14  O   UNL     1      -0.439 -54.800 -20.771  1.00  0.00    -0.426 OA
ATOM     15  C   UNL     1      -1.053 -53.572 -20.607  1.00  0.00     0.336 C 
ATOM     16  O   UNL     1      -2.139 -53.406 -19.992  1.00  0.00    -0.246 OA
ATOM     17  C   UNL     1       3.202 -55.272 -23.428  1.00  0.00     0.012 C 
ENDROOT
BRANCH  13  18
ATOM     18  O   UNL     1       1.875 -54.975 -20.735  1.00  0.00    -0.353 OA
ATOM     19  H   UNL     1       2.072 -55.930 -20.923  1.00  0.00     0.215 HD
ENDBRANCH  13  18
TORSDOF 1
ENDMDL
