MODEL 1
REMARK VINA RESULT:    -3.752      0.000      0.000
REMARK INTER + INTRA:          -4.770
REMARK INTER:                  -4.630
REMARK INTRA:                  -0.140
REMARK UNBOUND:                -0.140
REMARK SMILES CCCCCC(=O)[O-]
REMARK SMILES IDX 4 1 5 2 6 3 7 4 8 5 3 6 2 7 1 8
REMARK H PARENT
REMARK Flexibility Score: inf
ROOT
ATOM      1  C   UNL     1     -13.476  44.670  21.972  1.00  0.00     0.006 C 
ENDROOT
BRANCH   1   2
ATOM      2  C   UNL     1     -12.679  43.581  21.241  1.00  0.00     0.053 C 
BRANCH   2   3
ATOM      3  C   UNL     1     -11.217  43.900  21.195  1.00  0.00     0.041 C 
ATOM      4  O   UNL     1     -10.830  45.088  21.040  1.00  0.00    -0.550 OA
ATOM      5  O   UNL     1     -10.280  42.879  21.292  1.00  0.00    -0.550 OA
ENDBRANCH   2   3
ENDBRANCH   1   2
BRANCH   1   6
ATOM      6  C   UNL     1     -14.255  44.115  23.173  1.00  0.00     0.000 C 
BRANCH   6   7
ATOM      7  C   UNL     1     -14.242  45.107  24.342  1.00  0.00    -0.003 C 
ATOM      8  C   UNL     1     -12.959  45.934  24.348  1.00  0.00     0.004 C 
ENDBRANCH   6   7
ENDBRANCH   1   6
TORSDOF 4
ENDMDL
MODEL 2
REMARK VINA RESULT:    -3.752      3.152      4.446
REMARK INTER + INTRA:          -4.770
REMARK INTER:                  -4.652
REMARK INTRA:                  -0.118
REMARK UNBOUND:                -0.140
REMARK SMILES CCCCCC(=O)[O-]
REMARK SMILES IDX 4 1 5 2 6 3 7 4 8 5 3 6 2 7 1 8
REMARK H PARENT
REMARK Flexibility Score: inf
ROOT
ATOM      1  C   UNL     1     -13.703  44.772  23.263  1.00  0.00     0.006 C 
ENDROOT
BRANCH   1   2
ATOM      2  C   UNL     1     -12.746  45.790  23.900  1.00  0.00     0.053 C 
BRANCH   2   3
ATOM      3  C   UNL     1     -13.426  46.602  24.959  1.00  0.00     0.041 C 
ATOM      4  O   UNL     1     -14.068  46.034  25.882  1.00  0.00    -0.550 OA
ATOM      5  O   UNL     1     -13.377  47.989  24.909  1.00  0.00    -0.550 OA
ENDBRANCH   2   3
ENDBRANCH   1   2
BRANCH   1   6
ATOM      6  C   UNL     1     -13.179  44.241  21.921  1.00  0.00     0.000 C 
BRANCH   6   7
ATOM      7  C   UNL     1     -11.946  45.028  21.463  1.00  0.00    -0.003 C 
ATOM      8  C   UNL     1     -10.769  44.096  21.187  1.00  0.00     0.004 C 
ENDBRANCH   6   7
ENDBRANCH   1   6
TORSDOF 4
ENDMDL
MODEL 3
REMARK VINA RESULT:    -3.715      3.009      4.197
REMARK INTER + INTRA:          -4.724
REMARK INTER:                  -4.608
REMARK INTRA:                  -0.116
REMARK UNBOUND:                -0.140
REMARK SMILES CCCCCC(=O)[O-]
REMARK SMILES IDX 4 1 5 2 6 3 7 4 8 5 3 6 2 7 1 8
REMARK H PARENT
REMARK Flexibility Score: inf
ROOT
ATOM      1  C   UNL     1     -13.711  44.531  22.947  1.00  0.00     0.006 C 
ENDROOT
BRANCH   1   2
ATOM      2  C   UNL     1     -12.794  45.628  23.503  1.00  0.00     0.053 C 
BRANCH   2   3
ATOM      3  C   UNL     1     -13.421  46.339  24.663  1.00  0.00     0.041 C 
ATOM      4  O   UNL     1     -13.242  47.575  24.824  1.00  0.00    -0.550 OA
ATOM      5  O   UNL     1     -14.178  45.629  25.587  1.00  0.00    -0.550 OA
ENDBRANCH   2   3
ENDBRANCH   1   2
BRANCH   1   6
ATOM      6  C   UNL     1     -13.209  43.978  21.604  1.00  0.00     0.000 C 
BRANCH   6   7
ATOM      7  C   UNL     1     -11.854  44.590  21.231  1.00  0.00    -0.003 C 
ATOM      8  C   UNL     1     -10.775  43.516  21.125  1.00  0.00     0.004 C 
ENDBRANCH   6   7
ENDBRANCH   1   6
TORSDOF 4
ENDMDL
MODEL 4
REMARK VINA RESULT:    -3.697      2.943      4.412
REMARK INTER + INTRA:          -4.702
REMARK INTER:                  -4.613
REMARK INTRA:                  -0.089
REMARK UNBOUND:                -0.140
REMARK SMILES CCCCCC(=O)[O-]
REMARK SMILES IDX 4 1 5 2 6 3 7 4 8 5 3 6 2 7 1 8
REMARK H PARENT
REMARK Flexibility Score: inf
ROOT
ATOM      1  C   UNL     1     -12.885  44.304  22.121  1.00  0.00     0.006 C 
ENDROOT
BRANCH   1   2
ATOM      2  C   UNL     1     -13.521  45.099  23.269  1.00  0.00     0.053 C 
BRANCH   2   3
ATOM      3  C   UNL     1     -14.664  44.358  23.891  1.00  0.00     0.041 C 
ATOM      4  O   UNL     1     -15.161  43.355  23.313  1.00  0.00    -0.550 OA
ATOM      5  O   UNL     1     -15.203  44.794  25.094  1.00  0.00    -0.550 OA
ENDBRANCH   2   3
ENDBRANCH   1   2
BRANCH   1   6
ATOM      6  C   UNL     1     -11.904  45.153  21.298  1.00  0.00     0.000 C 
BRANCH   6   7
ATOM      7  C   UNL     1     -10.574  44.418  21.100  1.00  0.00    -0.003 C 
ATOM      8  C   UNL     1     -10.785  42.908  21.028  1.00  0.00     0.004 C 
ENDBRANCH   6   7
ENDBRANCH   1   6
TORSDOF 4
ENDMDL
MODEL 5
REMARK VINA RESULT:    -3.537     20.874     22.225
REMARK INTER + INTRA:          -4.505
REMARK INTER:                  -4.387
REMARK INTRA:                  -0.118
REMARK UNBOUND:                -0.140
REMARK SMILES CCCCCC(=O)[O-]
REMARK SMILES IDX 4 1 5 2 6 3 7 4 8 5 3 6 2 7 1 8
REMARK H PARENT
REMARK Flexibility Score: inf
ROOT
ATOM      1  C   UNL     1     -23.195  61.897  29.498  1.00  0.00     0.006 C 
ENDROOT
BRANCH   1   2
ATOM      2  C   UNL     1     -24.457  62.568  30.056  1.00  0.00     0.053 C 
BRANCH   2   3
ATOM      3  C   UNL     1     -25.354  61.582  30.738  1.00  0.00     0.041 C 
ATOM      4  O   UNL     1     -25.576  61.674  31.974  1.00  0.00    -0.550 OA
ATOM      5  O   UNL     1     -25.920  60.541  30.014  1.00  0.00    -0.550 OA
ENDBRANCH   2   3
ENDBRANCH   1   2
BRANCH   1   6
ATOM      6  C   UNL     1     -23.244  61.743  27.970  1.00  0.00     0.000 C 
BRANCH   6   7
ATOM      7  C   UNL     1     -21.831  61.683  27.379  1.00  0.00    -0.003 C 
ATOM      8  C   UNL     1     -20.779  61.558  28.478  1.00  0.00     0.004 C 
ENDBRANCH   6   7
ENDBRANCH   1   6
TORSDOF 4
ENDMDL
MODEL 6
REMARK VINA RESULT:    -3.520      1.510      2.480
REMARK INTER + INTRA:          -4.483
REMARK INTER:                  -4.377
REMARK INTRA:                  -0.107
REMARK UNBOUND:                -0.140
REMARK SMILES CCCCCC(=O)[O-]
REMARK SMILES IDX 4 1 5 2 6 3 7 4 8 5 3 6 2 7 1 8
REMARK H PARENT
REMARK Flexibility Score: inf
ROOT
ATOM      1  C   UNL     1     -12.845  45.920  24.089  1.00  0.00     0.006 C 
ENDROOT
BRANCH   1   2
ATOM      2  C   UNL     1     -13.366  44.926  23.042  1.00  0.00     0.053 C 
BRANCH   2   3
ATOM      3  C   UNL     1     -12.466  44.856  21.848  1.00  0.00     0.041 C 
ATOM      4  O   UNL     1     -11.243  45.141  21.955  1.00  0.00    -0.550 OA
ATOM      5  O   UNL     1     -12.984  44.507  20.607  1.00  0.00    -0.550 OA
ENDBRANCH   2   3
ENDBRANCH   1   2
BRANCH   1   6
ATOM      6  C   UNL     1     -13.680  45.900  25.378  1.00  0.00     0.000 C 
BRANCH   6   7
ATOM      7  C   UNL     1     -14.977  45.108  25.179  1.00  0.00    -0.003 C 
ATOM      8  C   UNL     1     -15.704  44.901  26.505  1.00  0.00     0.004 C 
ENDBRANCH   6   7
ENDBRANCH   1   6
TORSDOF 4
ENDMDL
MODEL 7
REMARK VINA RESULT:    -3.450     21.837     23.318
REMARK INTER + INTRA:          -4.398
REMARK INTER:                  -4.263
REMARK INTRA:                  -0.134
REMARK UNBOUND:                -0.140
REMARK SMILES CCCCCC(=O)[O-]
REMARK SMILES IDX 4 1 5 2 6 3 7 4 8 5 3 6 2 7 1 8
REMARK H PARENT
REMARK Flexibility Score: inf
ROOT
ATOM      1  C   UNL     1     -25.604  62.741  31.093  1.00  0.00     0.006 C 
ENDROOT
BRANCH   1   2
ATOM      2  C   UNL     1     -25.221  61.389  31.710  1.00  0.00     0.053 C 
BRANCH   2   3
ATOM      3  C   UNL     1     -26.402  60.476  31.821  1.00  0.00     0.041 C 
ATOM      4  O   UNL     1     -26.269  59.238  31.633  1.00  0.00    -0.550 OA
ATOM      5  O   UNL     1     -27.659  60.997  32.103  1.00  0.00    -0.550 OA
ENDBRANCH   2   3
ENDBRANCH   1   2
BRANCH   1   6
ATOM      6  C   UNL     1     -24.730  63.097  29.881  1.00  0.00     0.000 C 
BRANCH   6   7
ATOM      7  C   UNL     1     -23.638  62.044  29.663  1.00  0.00    -0.003 C 
ATOM      8  C   UNL     1     -23.502  61.689  28.185  1.00  0.00     0.004 C 
ENDBRANCH   6   7
ENDBRANCH   1   6
TORSDOF 4
ENDMDL
MODEL 8
REMARK VINA RESULT:    -3.439     21.736     23.192
REMARK INTER + INTRA:          -4.384
REMARK INTER:                  -4.246
REMARK INTRA:                  -0.138
REMARK UNBOUND:                -0.140
REMARK SMILES CCCCCC(=O)[O-]
REMARK SMILES IDX 4 1 5 2 6 3 7 4 8 5 3 6 2 7 1 8
REMARK H PARENT
REMARK Flexibility Score: inf
ROOT
ATOM      1  C   UNL     1     -25.509  62.753  31.095  1.00  0.00     0.006 C 
ENDROOT
BRANCH   1   2
ATOM      2  C   UNL     1     -25.160  61.375  31.673  1.00  0.00     0.053 C 
BRANCH   2   3
ATOM      3  C   UNL     1     -26.347  60.462  31.687  1.00  0.00     0.041 C 
ATOM      4  O   UNL     1     -27.486  60.906  31.989  1.00  0.00    -0.550 OA
ATOM      5  O   UNL     1     -26.189  59.113  31.399  1.00  0.00    -0.550 OA
ENDBRANCH   2   3
ENDBRANCH   1   2
BRANCH   1   6
ATOM      6  C   UNL     1     -24.712  63.068  29.820  1.00  0.00     0.000 C 
BRANCH   6   7
ATOM      7  C   UNL     1     -23.589  62.048  29.609  1.00  0.00    -0.003 C 
ATOM      8  C   UNL     1     -23.444  61.685  28.133  1.00  0.00     0.004 C 
ENDBRANCH   6   7
ENDBRANCH   1   6
TORSDOF 4
ENDMDL
MODEL 9
REMARK VINA RESULT:    -3.398     20.247     21.585
REMARK INTER + INTRA:          -4.333
REMARK INTER:                  -4.235
REMARK INTRA:                  -0.098
REMARK UNBOUND:                -0.140
REMARK SMILES CCCCCC(=O)[O-]
REMARK SMILES IDX 4 1 5 2 6 3 7 4 8 5 3 6 2 7 1 8
REMARK H PARENT
REMARK Flexibility Score: inf
ROOT
ATOM      1  C   UNL     1     -23.493  62.064  29.638  1.00  0.00     0.006 C 
ENDROOT
BRANCH   1   2
ATOM      2  C   UNL     1     -23.583  61.711  28.147  1.00  0.00     0.053 C 
BRANCH   2   3
ATOM      3  C   UNL     1     -22.302  61.125  27.638  1.00  0.00     0.041 C 
ATOM      4  O   UNL     1     -21.231  61.784  27.702  1.00  0.00    -0.550 OA
ATOM      5  O   UNL     1     -22.296  59.860  27.064  1.00  0.00    -0.550 OA
ENDBRANCH   2   3
ENDBRANCH   1   2
BRANCH   1   6
ATOM      6  C   UNL     1     -24.622  63.006  30.082  1.00  0.00     0.000 C 
BRANCH   6   7
ATOM      7  C   UNL     1     -25.476  62.361  31.179  1.00  0.00    -0.003 C 
ATOM      8  C   UNL     1     -24.714  61.242  31.883  1.00  0.00     0.004 C 
ENDBRANCH   6   7
ENDBRANCH   1   6
TORSDOF 4
ENDMDL
