MODEL 1
REMARK VINA RESULT:    -3.373      0.000      0.000
REMARK INTER + INTRA:          -4.595
REMARK INTER:                  -4.359
REMARK INTRA:                  -0.237
REMARK UNBOUND:                -0.237
REMARK SMILES CCCCCCC(=O)[O-]
REMARK SMILES IDX 5 1 6 2 7 3 8 4 9 5 4 6 3 7 2 8 1 9
REMARK H PARENT
REMARK Flexibility Score: inf
ROOT
ATOM      1  C   UNL     1      37.085 106.130 262.222  1.00  0.00     0.006 C 
ENDROOT
BRANCH   1   2
ATOM      2  C   UNL     1      35.796 105.315 262.372  1.00  0.00     0.053 C 
BRANCH   2   3
ATOM      3  C   UNL     1      35.276 105.408 263.771  1.00  0.00     0.041 C 
ATOM      4  O   UNL     1      34.875 106.511 264.226  1.00  0.00    -0.550 OA
ATOM      5  O   UNL     1      35.186 104.265 264.556  1.00  0.00    -0.550 OA
ENDBRANCH   2   3
ENDBRANCH   1   2
BRANCH   1   6
ATOM      6  C   UNL     1      37.820 105.765 260.927  1.00  0.00     0.000 C 
BRANCH   6   7
ATOM      7  C   UNL     1      36.938 104.899 260.020  1.00  0.00    -0.000 C 
BRANCH   7   8
ATOM      8  C   UNL     1      37.042 105.351 258.559  1.00  0.00    -0.003 C 
ATOM      9  C   UNL     1      36.034 106.456 258.250  1.00  0.00     0.004 C 
ENDBRANCH   7   8
ENDBRANCH   6   7
ENDBRANCH   1   6
TORSDOF 5
ENDMDL
MODEL 2
REMARK VINA RESULT:    -3.200      0.977      1.584
REMARK INTER + INTRA:          -4.372
REMARK INTER:                  -4.257
REMARK INTRA:                  -0.115
REMARK UNBOUND:                -0.237
REMARK SMILES CCCCCCC(=O)[O-]
REMARK SMILES IDX 5 1 6 2 7 3 8 4 9 5 4 6 3 7 2 8 1 9
REMARK H PARENT
REMARK Flexibility Score: inf
ROOT
ATOM      1  C   UNL     1      36.441 106.108 262.875  1.00  0.00     0.006 C 
ENDROOT
BRANCH   1   2
ATOM      2  C   UNL     1      35.050 106.204 263.510  1.00  0.00     0.053 C 
BRANCH   2   3
ATOM      3  C   UNL     1      35.018 105.474 264.815  1.00  0.00     0.041 C 
ATOM      4  O   UNL     1      35.165 104.223 264.846  1.00  0.00    -0.550 OA
ATOM      5  O   UNL     1      34.875 106.180 266.003  1.00  0.00    -0.550 OA
ENDBRANCH   2   3
ENDBRANCH   1   2
BRANCH   1   6
ATOM      6  C   UNL     1      36.364 105.493 261.473  1.00  0.00     0.000 C 
BRANCH   6   7
ATOM      7  C   UNL     1      37.653 105.756 260.685  1.00  0.00    -0.000 C 
BRANCH   7   8
ATOM      8  C   UNL     1      37.643 105.008 259.348  1.00  0.00    -0.003 C 
ATOM      9  C   UNL     1      36.773 105.726 258.320  1.00  0.00     0.004 C 
ENDBRANCH   7   8
ENDBRANCH   6   7
ENDBRANCH   1   6
TORSDOF 5
ENDMDL
MODEL 3
REMARK VINA RESULT:    -3.079      3.048      4.840
REMARK INTER + INTRA:          -4.215
REMARK INTER:                  -4.012
REMARK INTRA:                  -0.203
REMARK UNBOUND:                -0.237
REMARK SMILES CCCCCCC(=O)[O-]
REMARK SMILES IDX 5 1 6 2 7 3 8 4 9 5 4 6 3 7 2 8 1 9
REMARK H PARENT
REMARK Flexibility Score: inf
ROOT
ATOM      1  C   UNL     1      37.117 106.111 261.655  1.00  0.00     0.006 C 
ENDROOT
BRANCH   1   2
ATOM      2  C   UNL     1      36.754 105.006 260.658  1.00  0.00     0.053 C 
BRANCH   2   3
ATOM      3  C   UNL     1      36.987 105.468 259.255  1.00  0.00     0.041 C 
ATOM      4  O   UNL     1      36.268 106.374 258.758  1.00  0.00    -0.550 OA
ATOM      5  O   UNL     1      38.033 104.934 258.512  1.00  0.00    -0.550 OA
ENDBRANCH   2   3
ENDBRANCH   1   2
BRANCH   1   6
ATOM      6  C   UNL     1      36.172 106.095 262.862  1.00  0.00     0.000 C 
BRANCH   6   7
ATOM      7  C   UNL     1      35.406 104.769 262.943  1.00  0.00    -0.000 C 
BRANCH   7   8
ATOM      8  C   UNL     1      34.875 104.526 264.360  1.00  0.00    -0.003 C 
ATOM      9  C   UNL     1      34.882 105.814 265.181  1.00  0.00     0.004 C 
ENDBRANCH   7   8
ENDBRANCH   6   7
ENDBRANCH   1   6
TORSDOF 5
ENDMDL
MODEL 4
REMARK VINA RESULT:    -3.008      3.166      4.913
REMARK INTER + INTRA:          -4.124
REMARK INTER:                  -3.960
REMARK INTRA:                  -0.164
REMARK UNBOUND:                -0.237
REMARK SMILES CCCCCCC(=O)[O-]
REMARK SMILES IDX 5 1 6 2 7 3 8 4 9 5 4 6 3 7 2 8 1 9
REMARK H PARENT
REMARK Flexibility Score: inf
ROOT
ATOM      1  C   UNL     1      37.891 105.811 260.975  1.00  0.00     0.006 C 
ENDROOT
BRANCH   1   2
ATOM      2  C   UNL     1      36.750 105.223 260.138  1.00  0.00     0.053 C 
BRANCH   2   3
ATOM      3  C   UNL     1      36.854 105.676 258.717  1.00  0.00     0.041 C 
ATOM      4  O   UNL     1      37.780 105.247 257.980  1.00  0.00    -0.550 OA
ATOM      5  O   UNL     1      35.897 106.536 258.190  1.00  0.00    -0.550 OA
ENDBRANCH   2   3
ENDBRANCH   1   2
BRANCH   1   6
ATOM      6  C   UNL     1      37.393 106.238 262.360  1.00  0.00     0.000 C 
BRANCH   6   7
ATOM      7  C   UNL     1      35.908 105.902 262.540  1.00  0.00    -0.000 C 
BRANCH   7   8
ATOM      8  C   UNL     1      35.597 105.541 263.996  1.00  0.00    -0.003 C 
ATOM      9  C   UNL     1      34.879 106.686 264.707  1.00  0.00     0.004 C 
ENDBRANCH   7   8
ENDBRANCH   6   7
ENDBRANCH   1   6
TORSDOF 5
ENDMDL
MODEL 5
REMARK VINA RESULT:    -2.929      2.958      5.477
REMARK INTER + INTRA:          -4.023
REMARK INTER:                  -3.942
REMARK INTRA:                  -0.080
REMARK UNBOUND:                -0.237
REMARK SMILES CCCCCCC(=O)[O-]
REMARK SMILES IDX 5 1 6 2 7 3 8 4 9 5 4 6 3 7 2 8 1 9
REMARK H PARENT
REMARK Flexibility Score: inf
ROOT
ATOM      1  C   UNL     1      36.188 106.089 262.778  1.00  0.00     0.006 C 
ENDROOT
BRANCH   1   2
ATOM      2  C   UNL     1      36.268 105.225 261.516  1.00  0.00     0.053 C 
BRANCH   2   3
ATOM      3  C   UNL     1      37.157 105.865 260.497  1.00  0.00     0.041 C 
ATOM      4  O   UNL     1      38.406 105.867 260.656  1.00  0.00    -0.550 OA
ATOM      5  O   UNL     1      36.609 106.416 259.345  1.00  0.00    -0.550 OA
ENDBRANCH   2   3
ENDBRANCH   1   2
BRANCH   1   6
ATOM      6  C   UNL     1      34.986 105.692 263.641  1.00  0.00     0.000 C 
BRANCH   6   7
ATOM      7  C   UNL     1      34.889 106.576 264.890  1.00  0.00    -0.000 C 
BRANCH   7   8
ATOM      8  C   UNL     1      34.884 105.727 266.166  1.00  0.00    -0.003 C 
ATOM      9  C   UNL     1      34.918 106.606 267.414  1.00  0.00     0.004 C 
ENDBRANCH   7   8
ENDBRANCH   6   7
ENDBRANCH   1   6
TORSDOF 5
ENDMDL
MODEL 6
REMARK VINA RESULT:    -2.887      1.568      2.416
REMARK INTER + INTRA:          -3.968
REMARK INTER:                  -3.895
REMARK INTRA:                  -0.073
REMARK UNBOUND:                -0.237
REMARK SMILES CCCCCCC(=O)[O-]
REMARK SMILES IDX 5 1 6 2 7 3 8 4 9 5 4 6 3 7 2 8 1 9
REMARK H PARENT
REMARK Flexibility Score: inf
ROOT
ATOM      1  C   UNL     1      35.511 105.009 263.592  1.00  0.00     0.006 C 
ENDROOT
BRANCH   1   2
ATOM      2  C   UNL     1      34.913 105.832 264.738  1.00  0.00     0.053 C 
BRANCH   2   3
ATOM      3  C   UNL     1      34.963 105.063 266.019  1.00  0.00     0.041 C 
ATOM      4  O   UNL     1      35.132 103.815 266.003  1.00  0.00    -0.550 OA
ATOM      5  O   UNL     1      34.875 105.730 267.235  1.00  0.00    -0.550 OA
ENDBRANCH   2   3
ENDBRANCH   1   2
BRANCH   1   6
ATOM      6  C   UNL     1      36.034 105.919 262.476  1.00  0.00     0.000 C 
BRANCH   6   7
ATOM      7  C   UNL     1      36.389 105.107 261.225  1.00  0.00    -0.000 C 
BRANCH   7   8
ATOM      8  C   UNL     1      37.151 105.966 260.209  1.00  0.00    -0.003 C 
ATOM      9  C   UNL     1      37.557 105.145 258.988  1.00  0.00     0.004 C 
ENDBRANCH   7   8
ENDBRANCH   6   7
ENDBRANCH   1   6
TORSDOF 5
ENDMDL
MODEL 7
REMARK VINA RESULT:    -1.097      3.429      6.098
REMARK INTER + INTRA:          -1.654
REMARK INTER:                  -1.552
REMARK INTRA:                  -0.102
REMARK UNBOUND:                -0.237
REMARK SMILES CCCCCCC(=O)[O-]
REMARK SMILES IDX 5 1 6 2 7 3 8 4 9 5 4 6 3 7 2 8 1 9
REMARK H PARENT
REMARK Flexibility Score: inf
ROOT
ATOM      1  C   UNL     1      34.970 107.025 264.275  1.00  0.00     0.006 C 
ENDROOT
BRANCH   1   2
ATOM      2  C   UNL     1      34.875 105.618 263.676  1.00  0.00     0.053 C 
BRANCH   2   3
ATOM      3  C   UNL     1      36.004 105.375 262.726  1.00  0.00     0.041 C 
ATOM      4  O   UNL     1      36.946 106.206 262.633  1.00  0.00    -0.550 OA
ATOM      5  O   UNL     1      36.044 104.204 261.978  1.00  0.00    -0.550 OA
ENDBRANCH   2   3
ENDBRANCH   1   2
BRANCH   1   6
ATOM      6  C   UNL     1      35.327 106.966 265.764  1.00  0.00     0.000 C 
BRANCH   6   7
ATOM      7  C   UNL     1      35.124 108.330 266.433  1.00  0.00    -0.000 C 
BRANCH   7   8
ATOM      8  C   UNL     1      34.909 108.176 267.943  1.00  0.00    -0.003 C 
ATOM      9  C   UNL     1      34.876 109.535 268.637  1.00  0.00     0.004 C 
ENDBRANCH   7   8
ENDBRANCH   6   7
ENDBRANCH   1   6
TORSDOF 5
ENDMDL
