MODEL 1
REMARK VINA RESULT:    -4.628      0.000      0.000
REMARK INTER + INTRA:         -13.654
REMARK INTER:                 -10.581
REMARK INTRA:                  -3.073
REMARK UNBOUND:                -3.073
REMARK SMILES CCCCCCCCCCCCCCCCCCCCCCCC(=O)[O-]
REMARK SMILES IDX 13 1 14 2 15 3 16 4 17 5 18 6 19 7 20 8 21 9 22 10 23 11
REMARK SMILES IDX 24 12 25 13 26 14 12 15 11 16 10 17 9 18 8 19 7 20 6 21 5 22
REMARK SMILES IDX 4 23 3 24 2 25 1 26
REMARK H PARENT
REMARK Flexibility Score: inf
ROOT
ATOM      1  C   UNL     1      63.425  29.390  10.397  1.00  0.00     0.000 C 
ENDROOT
BRANCH   1   2
ATOM      2  C   UNL     1      64.606  30.268   9.944  1.00  0.00     0.000 C 
BRANCH   2   3
ATOM      3  C   UNL     1      64.582  31.677  10.565  1.00  0.00     0.000 C 
BRANCH   3   4
ATOM      4  C   UNL     1      63.753  31.813  11.855  1.00  0.00     0.000 C 
BRANCH   4   5
ATOM      5  C   UNL     1      64.166  33.026  12.706  1.00  0.00     0.000 C 
BRANCH   5   6
ATOM      6  C   UNL     1      65.684  33.274  12.686  1.00  0.00     0.000 C 
BRANCH   6   7
ATOM      7  C   UNL     1      66.055  34.615  12.028  1.00  0.00     0.000 C 
BRANCH   7   8
ATOM      8  C   UNL     1      66.072  35.783  13.029  1.00  0.00     0.000 C 
BRANCH   8   9
ATOM      9  C   UNL     1      66.662  35.449  14.412  1.00  0.00     0.000 C 
BRANCH   9  10
ATOM     10  C   UNL     1      65.810  35.961  15.593  1.00  0.00     0.006 C 
BRANCH  10  11
ATOM     11  C   UNL     1      64.861  34.883  16.133  1.00  0.00     0.053 C 
BRANCH  11  12
ATOM     12  C   UNL     1      64.201  35.344  17.394  1.00  0.00     0.041 C 
ATOM     13  O   UNL     1      62.946  35.308  17.501  1.00  0.00    -0.550 OA
ATOM     14  O   UNL     1      64.972  35.785  18.463  1.00  0.00    -0.550 OA
ENDBRANCH  11  12
ENDBRANCH  10  11
ENDBRANCH   9  10
ENDBRANCH   8   9
ENDBRANCH   7   8
ENDBRANCH   6   7
ENDBRANCH   5   6
ENDBRANCH   4   5
ENDBRANCH   3   4
ENDBRANCH   2   3
ENDBRANCH   1   2
BRANCH   1  15
ATOM     15  C   UNL     1      62.671  28.760   9.204  1.00  0.00     0.000 C 
BRANCH  15  16
ATOM     16  C   UNL     1      61.236  28.322   9.537  1.00  0.00     0.000 C 
BRANCH  16  17
ATOM     17  C   UNL     1      60.287  29.510   9.758  1.00  0.00     0.000 C 
BRANCH  17  18
ATOM     18  C   UNL     1      59.811  29.640  11.218  1.00  0.00    -0.000 C 
BRANCH  18  19
ATOM     19  C   UNL     1      59.797  28.328  12.028  1.00  0.00    -0.000 C 
BRANCH  19  20
ATOM     20  C   UNL     1      60.396  28.477  13.434  1.00  0.00    -0.000 C 
BRANCH  20  21
ATOM     21  C   UNL     1      61.816  29.055  13.371  1.00  0.00    -0.000 C 
BRANCH  21  22
ATOM     22  C   UNL     1      62.072  30.016  14.541  1.00  0.00    -0.000 C 
BRANCH  22  23
ATOM     23  C   UNL     1      60.851  30.915  14.839  1.00  0.00    -0.000 C 
BRANCH  23  24
ATOM     24  C   UNL     1      61.218  32.389  15.096  1.00  0.00    -0.000 C 
BRANCH  24  25
ATOM     25  C   UNL     1      60.878  33.346  13.941  1.00  0.00    -0.003 C 
ATOM     26  C   UNL     1      60.266  32.628  12.740  1.00  0.00     0.004 C 
ENDBRANCH  24  25
ENDBRANCH  23  24
ENDBRANCH  22  23
ENDBRANCH  21  22
ENDBRANCH  20  21
ENDBRANCH  19  20
ENDBRANCH  18  19
ENDBRANCH  17  18
ENDBRANCH  16  17
ENDBRANCH  15  16
ENDBRANCH   1  15
TORSDOF 22
ENDMDL
MODEL 2
REMARK VINA RESULT:    -4.502      2.232      6.619
REMARK INTER + INTRA:         -13.365
REMARK INTER:                  -9.702
REMARK INTRA:                  -3.662
REMARK UNBOUND:                -3.073
REMARK SMILES CCCCCCCCCCCCCCCCCCCCCCCC(=O)[O-]
REMARK SMILES IDX 13 1 14 2 15 3 16 4 17 5 18 6 19 7 20 8 21 9 22 10 23 11
REMARK SMILES IDX 24 12 25 13 26 14 12 15 11 16 10 17 9 18 8 19 7 20 6 21 5 22
REMARK SMILES IDX 4 23 3 24 2 25 1 26
REMARK H PARENT
REMARK Flexibility Score: inf
ROOT
ATOM      1  C   UNL     1      63.616  31.094  11.336  1.00  0.00     0.000 C 
ENDROOT
BRANCH   1   2
ATOM      2  C   UNL     1      63.818  30.178  10.115  1.00  0.00     0.000 C 
BRANCH   2   3
ATOM      3  C   UNL     1      62.839  28.990  10.085  1.00  0.00     0.000 C 
BRANCH   3   4
ATOM      4  C   UNL     1      61.723  29.084   9.029  1.00  0.00     0.000 C 
BRANCH   4   5
ATOM      5  C   UNL     1      60.314  28.948   9.633  1.00  0.00     0.000 C 
BRANCH   5   6
ATOM      6  C   UNL     1      60.179  29.667  10.986  1.00  0.00     0.000 C 
BRANCH   6   7
ATOM      7  C   UNL     1      59.551  28.774  12.071  1.00  0.00     0.000 C 
BRANCH   7   8
ATOM      8  C   UNL     1      60.604  28.086  12.957  1.00  0.00     0.000 C 
BRANCH   8   9
ATOM      9  C   UNL     1      61.668  29.026  13.554  1.00  0.00     0.000 C 
BRANCH   9  10
ATOM     10  C   UNL     1      61.148  29.896  14.719  1.00  0.00     0.006 C 
BRANCH  10  11
ATOM     11  C   UNL     1      61.408  31.390  14.488  1.00  0.00     0.053 C 
BRANCH  11  12
ATOM     12  C   UNL     1      60.264  32.019  13.758  1.00  0.00     0.041 C 
ATOM     13  O   UNL     1      59.084  31.846  14.163  1.00  0.00    -0.550 OA
ATOM     14  O   UNL     1      60.502  32.821  12.648  1.00  0.00    -0.550 OA
ENDBRANCH  11  12
ENDBRANCH  10  11
ENDBRANCH   9  10
ENDBRANCH   8   9
ENDBRANCH   7   8
ENDBRANCH   6   7
ENDBRANCH   5   6
ENDBRANCH   4   5
ENDBRANCH   3   4
ENDBRANCH   2   3
ENDBRANCH   1   2
BRANCH   1  15
ATOM     15  C   UNL     1      64.503  32.358  11.274  1.00  0.00     0.000 C 
BRANCH  15  16
ATOM     16  C   UNL     1      65.652  32.261  10.257  1.00  0.00     0.000 C 
BRANCH  16  17
ATOM     17  C   UNL     1      66.643  33.431  10.364  1.00  0.00     0.000 C 
BRANCH  17  18
ATOM     18  C   UNL     1      66.827  33.935  11.809  1.00  0.00    -0.000 C 
BRANCH  18  19
ATOM     19  C   UNL     1      66.393  35.392  12.060  1.00  0.00    -0.000 C 
BRANCH  19  20
ATOM     20  C   UNL     1      66.659  35.865  13.497  1.00  0.00    -0.000 C 
BRANCH  20  21
ATOM     21  C   UNL     1      66.475  34.717  14.498  1.00  0.00    -0.000 C 
BRANCH  21  22
ATOM     22  C   UNL     1      65.013  34.617  14.959  1.00  0.00    -0.000 C 
BRANCH  22  23
ATOM     23  C   UNL     1      64.416  33.214  14.712  1.00  0.00    -0.000 C 
BRANCH  23  24
ATOM     24  C   UNL     1      65.456  32.079  14.773  1.00  0.00    -0.000 C 
BRANCH  24  25
ATOM     25  C   UNL     1      64.860  30.661  14.763  1.00  0.00    -0.003 C 
ATOM     26  C   UNL     1      65.927  29.571  14.848  1.00  0.00     0.004 C 
ENDBRANCH  24  25
ENDBRANCH  23  24
ENDBRANCH  22  23
ENDBRANCH  21  22
ENDBRANCH  20  21
ENDBRANCH  19  20
ENDBRANCH  18  19
ENDBRANCH  17  18
ENDBRANCH  16  17
ENDBRANCH  15  16
ENDBRANCH   1  15
TORSDOF 22
ENDMDL
MODEL 3
REMARK VINA RESULT:    -4.436      1.851      4.117
REMARK INTER + INTRA:         -13.213
REMARK INTER:                  -9.797
REMARK INTRA:                  -3.415
REMARK UNBOUND:                -3.073
REMARK SMILES CCCCCCCCCCCCCCCCCCCCCCCC(=O)[O-]
REMARK SMILES IDX 13 1 14 2 15 3 16 4 17 5 18 6 19 7 20 8 21 9 22 10 23 11
REMARK SMILES IDX 24 12 25 13 26 14 12 15 11 16 10 17 9 18 8 19 7 20 6 21 5 22
REMARK SMILES IDX 4 23 3 24 2 25 1 26
REMARK H PARENT
REMARK Flexibility Score: inf
ROOT
ATOM      1  C   UNL     1      60.040  28.488  11.983  1.00  0.00     0.000 C 
ENDROOT
BRANCH   1   2
ATOM      2  C   UNL     1      61.046  28.320  10.829  1.00  0.00     0.000 C 
BRANCH   2   3
ATOM      3  C   UNL     1      61.057  29.517   9.861  1.00  0.00     0.000 C 
BRANCH   3   4
ATOM      4  C   UNL     1      62.362  29.709   9.068  1.00  0.00     0.000 C 
BRANCH   4   5
ATOM      5  C   UNL     1      63.606  29.226   9.836  1.00  0.00     0.000 C 
BRANCH   5   6
ATOM      6  C   UNL     1      64.835  30.115   9.588  1.00  0.00     0.000 C 
BRANCH   6   7
ATOM      7  C   UNL     1      64.533  31.612   9.788  1.00  0.00     0.000 C 
BRANCH   7   8
ATOM      8  C   UNL     1      65.717  32.380  10.402  1.00  0.00     0.000 C 
BRANCH   8   9
ATOM      9  C   UNL     1      65.328  33.512  11.371  1.00  0.00     0.000 C 
BRANCH   9  10
ATOM     10  C   UNL     1      66.330  33.714  12.528  1.00  0.00     0.006 C 
BRANCH  10  11
ATOM     11  C   UNL     1      65.716  34.494  13.697  1.00  0.00     0.053 C 
BRANCH  11  12
ATOM     12  C   UNL     1      65.849  33.725  14.974  1.00  0.00     0.041 C 
ATOM     13  O   UNL     1      65.546  32.503  15.010  1.00  0.00    -0.550 OA
ATOM     14  O   UNL     1      66.337  34.349  16.116  1.00  0.00    -0.550 OA
ENDBRANCH  11  12
ENDBRANCH  10  11
ENDBRANCH   9  10
ENDBRANCH   8   9
ENDBRANCH   7   8
ENDBRANCH   6   7
ENDBRANCH   5   6
ENDBRANCH   4   5
ENDBRANCH   3   4
ENDBRANCH   2   3
ENDBRANCH   1   2
BRANCH   1  15
ATOM     15  C   UNL     1      60.730  28.493  13.365  1.00  0.00     0.000 C 
BRANCH  15  16
ATOM     16  C   UNL     1      62.263  28.594  13.294  1.00  0.00     0.000 C 
BRANCH  16  17
ATOM     17  C   UNL     1      62.812  29.833  14.019  1.00  0.00     0.000 C 
BRANCH  17  18
ATOM     18  C   UNL     1      63.290  30.934  13.053  1.00  0.00    -0.000 C 
BRANCH  18  19
ATOM     19  C   UNL     1      62.446  32.224  13.051  1.00  0.00    -0.000 C 
BRANCH  19  20
ATOM     20  C   UNL     1      60.984  31.990  12.641  1.00  0.00    -0.000 C 
BRANCH  20  21
ATOM     21  C   UNL     1      60.024  32.401  13.765  1.00  0.00    -0.000 C 
BRANCH  21  22
ATOM     22  C   UNL     1      60.792  32.729  15.054  1.00  0.00    -0.000 C 
BRANCH  22  23
ATOM     23  C   UNL     1      60.776  34.238  15.379  1.00  0.00    -0.000 C 
BRANCH  23  24
ATOM     24  C   UNL     1      60.348  34.555  16.825  1.00  0.00    -0.000 C 
BRANCH  24  25
ATOM     25  C   UNL     1      61.493  34.536  17.852  1.00  0.00    -0.003 C 
ATOM     26  C   UNL     1      61.022  34.167  19.257  1.00  0.00     0.004 C 
ENDBRANCH  24  25
ENDBRANCH  23  24
ENDBRANCH  22  23
ENDBRANCH  21  22
ENDBRANCH  20  21
ENDBRANCH  19  20
ENDBRANCH  18  19
ENDBRANCH  17  18
ENDBRANCH  16  17
ENDBRANCH  15  16
ENDBRANCH   1  15
TORSDOF 22
ENDMDL
MODEL 4
REMARK VINA RESULT:    -4.380      1.984      4.338
REMARK INTER + INTRA:         -13.087
REMARK INTER:                 -10.300
REMARK INTRA:                  -2.787
REMARK UNBOUND:                -3.073
REMARK SMILES CCCCCCCCCCCCCCCCCCCCCCCC(=O)[O-]
REMARK SMILES IDX 13 1 14 2 15 3 16 4 17 5 18 6 19 7 20 8 21 9 22 10 23 11
REMARK SMILES IDX 24 12 25 13 26 14 12 15 11 16 10 17 9 18 8 19 7 20 6 21 5 22
REMARK SMILES IDX 4 23 3 24 2 25 1 26
REMARK H PARENT
REMARK Flexibility Score: inf
ROOT
ATOM      1  C   UNL     1      60.501  31.738  14.610  1.00  0.00     0.000 C 
ENDROOT
BRANCH   1   2
ATOM      2  C   UNL     1      60.511  33.221  15.025  1.00  0.00     0.000 C 
BRANCH   2   3
ATOM      3  C   UNL     1      61.932  33.795  15.174  1.00  0.00     0.000 C 
BRANCH   3   4
ATOM      4  C   UNL     1      63.005  33.129  14.296  1.00  0.00     0.000 C 
BRANCH   4   5
ATOM      5  C   UNL     1      64.342  33.890  14.304  1.00  0.00     0.000 C 
BRANCH   5   6
ATOM      6  C   UNL     1      65.394  33.228  15.209  1.00  0.00     0.000 C 
BRANCH   6   7
ATOM      7  C   UNL     1      66.026  34.218  16.205  1.00  0.00     0.000 C 
BRANCH   7   8
ATOM      8  C   UNL     1      65.074  35.366  16.585  1.00  0.00     0.000 C 
BRANCH   8   9
ATOM      9  C   UNL     1      65.131  35.797  18.063  1.00  0.00     0.000 C 
BRANCH   9  10
ATOM     10  C   UNL     1      65.555  34.666  19.025  1.00  0.00     0.006 C 
BRANCH  10  11
ATOM     11  C   UNL     1      65.319  35.038  20.495  1.00  0.00     0.053 C 
BRANCH  11  12
ATOM     12  C   UNL     1      64.164  34.270  21.056  1.00  0.00     0.041 C 
ATOM     13  O   UNL     1      64.251  33.736  22.193  1.00  0.00    -0.550 OA
ATOM     14  O   UNL     1      62.979  34.169  20.335  1.00  0.00    -0.550 OA
ENDBRANCH  11  12
ENDBRANCH  10  11
ENDBRANCH   9  10
ENDBRANCH   8   9
ENDBRANCH   7   8
ENDBRANCH   6   7
ENDBRANCH   5   6
ENDBRANCH   4   5
ENDBRANCH   3   4
ENDBRANCH   2   3
ENDBRANCH   1   2
BRANCH   1  15
ATOM     15  C   UNL     1      59.866  31.524  13.218  1.00  0.00     0.000 C 
BRANCH  15  16
ATOM     16  C   UNL     1      60.010  30.089  12.684  1.00  0.00     0.000 C 
BRANCH  16  17
ATOM     17  C   UNL     1      60.174  30.036  11.157  1.00  0.00     0.000 C 
BRANCH  17  18
ATOM     18  C   UNL     1      60.160  28.600  10.597  1.00  0.00    -0.000 C 
BRANCH  18  19
ATOM     19  C   UNL     1      61.157  28.326   9.454  1.00  0.00    -0.000 C 
BRANCH  19  20
ATOM     20  C   UNL     1      62.054  29.530   9.131  1.00  0.00    -0.000 C 
BRANCH  20  21
ATOM     21  C   UNL     1      63.538  29.139   9.170  1.00  0.00    -0.000 C 
BRANCH  21  22
ATOM     22  C   UNL     1      64.357  30.165   9.966  1.00  0.00    -0.000 C 
BRANCH  22  23
ATOM     23  C   UNL     1      63.708  30.506  11.325  1.00  0.00    -0.000 C 
BRANCH  23  24
ATOM     24  C   UNL     1      63.715  29.333  12.325  1.00  0.00    -0.000 C 
BRANCH  24  25
ATOM     25  C   UNL     1      63.561  29.746  13.798  1.00  0.00    -0.003 C 
ATOM     26  C   UNL     1      64.892  29.779  14.546  1.00  0.00     0.004 C 
ENDBRANCH  24  25
ENDBRANCH  23  24
ENDBRANCH  22  23
ENDBRANCH  21  22
ENDBRANCH  20  21
ENDBRANCH  19  20
ENDBRANCH  18  19
ENDBRANCH  17  18
ENDBRANCH  16  17
ENDBRANCH  15  16
ENDBRANCH   1  15
TORSDOF 22
ENDMDL
MODEL 5
REMARK VINA RESULT:    -4.363      1.209      2.217
REMARK INTER + INTRA:         -13.046
REMARK INTER:                 -10.219
REMARK INTRA:                  -2.827
REMARK UNBOUND:                -3.073
REMARK SMILES CCCCCCCCCCCCCCCCCCCCCCCC(=O)[O-]
REMARK SMILES IDX 13 1 14 2 15 3 16 4 17 5 18 6 19 7 20 8 21 9 22 10 23 11
REMARK SMILES IDX 24 12 25 13 26 14 12 15 11 16 10 17 9 18 8 19 7 20 6 21 5 22
REMARK SMILES IDX 4 23 3 24 2 25 1 26
REMARK H PARENT
REMARK Flexibility Score: inf
ROOT
ATOM      1  C   UNL     1      61.489  28.490   9.078  1.00  0.00     0.000 C 
ENDROOT
BRANCH   1   2
ATOM      2  C   UNL     1      62.827  28.629   9.828  1.00  0.00     0.000 C 
BRANCH   2   3
ATOM      3  C   UNL     1      63.943  29.240   8.962  1.00  0.00     0.000 C 
BRANCH   3   4
ATOM      4  C   UNL     1      64.394  30.653   9.371  1.00  0.00     0.000 C 
BRANCH   4   5
ATOM      5  C   UNL     1      64.328  30.886  10.890  1.00  0.00     0.000 C 
BRANCH   5   6
ATOM      6  C   UNL     1      64.501  32.367  11.269  1.00  0.00     0.000 C 
BRANCH   6   7
ATOM      7  C   UNL     1      64.630  32.578  12.788  1.00  0.00     0.000 C 
BRANCH   7   8
ATOM      8  C   UNL     1      65.578  33.735  13.148  1.00  0.00     0.000 C 
BRANCH   8   9
ATOM      9  C   UNL     1      66.571  33.434  14.288  1.00  0.00     0.000 C 
BRANCH   9  10
ATOM     10  C   UNL     1      66.583  34.504  15.401  1.00  0.00     0.006 C 
BRANCH  10  11
ATOM     11  C   UNL     1      65.167  34.895  15.843  1.00  0.00     0.053 C 
BRANCH  11  12
ATOM     12  C   UNL     1      65.176  35.417  17.245  1.00  0.00     0.041 C 
ATOM     13  O   UNL     1      64.091  35.671  17.833  1.00  0.00    -0.550 OA
ATOM     14  O   UNL     1      66.381  35.596  17.914  1.00  0.00    -0.550 OA
ENDBRANCH  11  12
ENDBRANCH  10  11
ENDBRANCH   9  10
ENDBRANCH   8   9
ENDBRANCH   7   8
ENDBRANCH   6   7
ENDBRANCH   5   6
ENDBRANCH   4   5
ENDBRANCH   3   4
ENDBRANCH   2   3
ENDBRANCH   1   2
BRANCH   1  15
ATOM     15  C   UNL     1      60.643  29.781   9.146  1.00  0.00     0.000 C 
BRANCH  15  16
ATOM     16  C   UNL     1      59.719  29.854  10.373  1.00  0.00     0.000 C 
BRANCH  16  17
ATOM     17  C   UNL     1      59.279  28.468  10.870  1.00  0.00     0.000 C 
BRANCH  17  18
ATOM     18  C   UNL     1      59.483  28.278  12.386  1.00  0.00    -0.000 C 
BRANCH  18  19
ATOM     19  C   UNL     1      60.950  28.240  12.857  1.00  0.00    -0.000 C 
BRANCH  19  20
ATOM     20  C   UNL     1      61.218  29.130  14.079  1.00  0.00    -0.000 C 
BRANCH  20  21
ATOM     21  C   UNL     1      61.731  30.512  13.653  1.00  0.00    -0.000 C 
BRANCH  21  22
ATOM     22  C   UNL     1      60.598  31.549  13.668  1.00  0.00    -0.000 C 
BRANCH  22  23
ATOM     23  C   UNL     1      61.125  32.995  13.530  1.00  0.00    -0.000 C 
BRANCH  23  24
ATOM     24  C   UNL     1      61.666  33.583  14.848  1.00  0.00    -0.000 C 
BRANCH  24  25
ATOM     25  C   UNL     1      60.616  34.310  15.705  1.00  0.00    -0.003 C 
ATOM     26  C   UNL     1      61.038  34.449  17.166  1.00  0.00     0.004 C 
ENDBRANCH  24  25
ENDBRANCH  23  24
ENDBRANCH  22  23
ENDBRANCH  21  22
ENDBRANCH  20  21
ENDBRANCH  19  20
ENDBRANCH  18  19
ENDBRANCH  17  18
ENDBRANCH  16  17
ENDBRANCH  15  16
ENDBRANCH   1  15
TORSDOF 22
ENDMDL
MODEL 6
REMARK VINA RESULT:    -4.358      1.672      6.094
REMARK INTER + INTRA:         -13.036
REMARK INTER:                  -9.677
REMARK INTRA:                  -3.358
REMARK UNBOUND:                -3.073
REMARK SMILES CCCCCCCCCCCCCCCCCCCCCCCC(=O)[O-]
REMARK SMILES IDX 13 1 14 2 15 3 16 4 17 5 18 6 19 7 20 8 21 9 22 10 23 11
REMARK SMILES IDX 24 12 25 13 26 14 12 15 11 16 10 17 9 18 8 19 7 20 6 21 5 22
REMARK SMILES IDX 4 23 3 24 2 25 1 26
REMARK H PARENT
REMARK Flexibility Score: inf
ROOT
ATOM      1  C   UNL     1      63.918  30.575  14.398  1.00  0.00     0.000 C 
ENDROOT
BRANCH   1   2
ATOM      2  C   UNL     1      63.447  29.412  13.507  1.00  0.00     0.000 C 
BRANCH   2   3
ATOM      3  C   UNL     1      61.989  28.998  13.777  1.00  0.00     0.000 C 
BRANCH   3   4
ATOM      4  C   UNL     1      61.332  28.147  12.676  1.00  0.00     0.000 C 
BRANCH   4   5
ATOM      5  C   UNL     1      59.952  28.679  12.251  1.00  0.00     0.000 C 
BRANCH   5   6
ATOM      6  C   UNL     1      60.043  30.003  11.475  1.00  0.00     0.000 C 
BRANCH   6   7
ATOM      7  C   UNL     1      59.641  31.219  12.329  1.00  0.00     0.000 C 
BRANCH   7   8
ATOM      8  C   UNL     1      60.819  32.173  12.596  1.00  0.00     0.000 C 
BRANCH   8   9
ATOM      9  C   UNL     1      60.559  33.244  13.673  1.00  0.00     0.000 C 
BRANCH   9  10
ATOM     10  C   UNL     1      61.048  32.841  15.081  1.00  0.00     0.006 C 
BRANCH  10  11
ATOM     11  C   UNL     1      61.975  33.898  15.696  1.00  0.00     0.053 C 
BRANCH  11  12
ATOM     12  C   UNL     1      61.254  34.688  16.743  1.00  0.00     0.041 C 
ATOM     13  O   UNL     1      60.056  35.033  16.562  1.00  0.00    -0.550 OA
ATOM     14  O   UNL     1      61.896  35.019  17.931  1.00  0.00    -0.550 OA
ENDBRANCH  11  12
ENDBRANCH  10  11
ENDBRANCH   9  10
ENDBRANCH   8   9
ENDBRANCH   7   8
ENDBRANCH   6   7
ENDBRANCH   5   6
ENDBRANCH   4   5
ENDBRANCH   3   4
ENDBRANCH   2   3
ENDBRANCH   1   2
BRANCH   1  15
ATOM     15  C   UNL     1      65.391  30.418  14.838  1.00  0.00     0.000 C 
BRANCH  15  16
ATOM     16  C   UNL     1      65.943  31.629  15.609  1.00  0.00     0.000 C 
BRANCH  16  17
ATOM     17  C   UNL     1      67.045  32.372  14.839  1.00  0.00     0.000 C 
BRANCH  17  18
ATOM     18  C   UNL     1      66.566  33.707  14.236  1.00  0.00    -0.000 C 
BRANCH  18  19
ATOM     19  C   UNL     1      66.102  33.639  12.767  1.00  0.00    -0.000 C 
BRANCH  19  20
ATOM     20  C   UNL     1      64.581  33.501  12.617  1.00  0.00    -0.000 C 
BRANCH  20  21
ATOM     21  C   UNL     1      64.222  32.377  11.636  1.00  0.00    -0.000 C 
BRANCH  21  22
ATOM     22  C   UNL     1      65.283  32.249  10.533  1.00  0.00    -0.000 C 
BRANCH  22  23
ATOM     23  C   UNL     1      64.727  31.577   9.259  1.00  0.00    -0.000 C 
BRANCH  23  24
ATOM     24  C   UNL     1      64.952  30.053   9.216  1.00  0.00    -0.000 C 
BRANCH  24  25
ATOM     25  C   UNL     1      63.777  29.216   9.749  1.00  0.00    -0.003 C 
ATOM     26  C   UNL     1      62.529  29.326   8.875  1.00  0.00     0.004 C 
ENDBRANCH  24  25
ENDBRANCH  23  24
ENDBRANCH  22  23
ENDBRANCH  21  22
ENDBRANCH  20  21
ENDBRANCH  19  20
ENDBRANCH  18  19
ENDBRANCH  17  18
ENDBRANCH  16  17
ENDBRANCH  15  16
ENDBRANCH   1  15
TORSDOF 22
ENDMDL
MODEL 7
REMARK VINA RESULT:    -4.323      2.522      6.426
REMARK INTER + INTRA:         -12.955
REMARK INTER:                  -9.710
REMARK INTRA:                  -3.245
REMARK UNBOUND:                -3.073
REMARK SMILES CCCCCCCCCCCCCCCCCCCCCCCC(=O)[O-]
REMARK SMILES IDX 13 1 14 2 15 3 16 4 17 5 18 6 19 7 20 8 21 9 22 10 23 11
REMARK SMILES IDX 24 12 25 13 26 14 12 15 11 16 10 17 9 18 8 19 7 20 6 21 5 22
REMARK SMILES IDX 4 23 3 24 2 25 1 26
REMARK H PARENT
REMARK Flexibility Score: inf
ROOT
ATOM      1  C   UNL     1      60.519  30.366  13.913  1.00  0.00     0.000 C 
ENDROOT
BRANCH   1   2
ATOM      2  C   UNL     1      60.768  28.953  13.355  1.00  0.00     0.000 C 
BRANCH   2   3
ATOM      3  C   UNL     1      60.029  28.690  12.030  1.00  0.00     0.000 C 
BRANCH   3   4
ATOM      4  C   UNL     1      60.928  28.326  10.836  1.00  0.00     0.000 C 
BRANCH   4   5
ATOM      5  C   UNL     1      60.680  29.216   9.606  1.00  0.00     0.000 C 
BRANCH   5   6
ATOM      6  C   UNL     1      61.986  29.688   8.945  1.00  0.00     0.000 C 
BRANCH   6   7
ATOM      7  C   UNL     1      63.238  29.245   9.724  1.00  0.00     0.000 C 
BRANCH   7   8
ATOM      8  C   UNL     1      63.995  30.427  10.354  1.00  0.00     0.000 C 
BRANCH   8   9
ATOM      9  C   UNL     1      63.762  30.619  11.864  1.00  0.00     0.000 C 
BRANCH   9  10
ATOM     10  C   UNL     1      64.339  29.481  12.734  1.00  0.00     0.006 C 
BRANCH  10  11
ATOM     11  C   UNL     1      64.264  29.801  14.232  1.00  0.00     0.053 C 
BRANCH  11  12
ATOM     12  C   UNL     1      65.636  29.933  14.814  1.00  0.00     0.041 C 
ATOM     13  O   UNL     1      66.267  28.907  15.183  1.00  0.00    -0.550 OA
ATOM     14  O   UNL     1      66.230  31.184  14.920  1.00  0.00    -0.550 OA
ENDBRANCH  11  12
ENDBRANCH  10  11
ENDBRANCH   9  10
ENDBRANCH   8   9
ENDBRANCH   7   8
ENDBRANCH   6   7
ENDBRANCH   5   6
ENDBRANCH   4   5
ENDBRANCH   3   4
ENDBRANCH   2   3
ENDBRANCH   1   2
BRANCH   1  15
ATOM     15  C   UNL     1      60.207  31.390  12.799  1.00  0.00     0.000 C 
BRANCH  15  16
ATOM     16  C   UNL     1      60.924  32.739  12.976  1.00  0.00     0.000 C 
BRANCH  16  17
ATOM     17  C   UNL     1      60.780  33.308  14.396  1.00  0.00     0.000 C 
BRANCH  17  18
ATOM     18  C   UNL     1      62.135  33.609  15.066  1.00  0.00    -0.000 C 
BRANCH  18  19
ATOM     19  C   UNL     1      63.380  33.255  14.228  1.00  0.00    -0.000 C 
BRANCH  19  20
ATOM     20  C   UNL     1      64.554  34.218  14.452  1.00  0.00    -0.000 C 
BRANCH  20  21
ATOM     21  C   UNL     1      64.615  34.685  15.912  1.00  0.00    -0.000 C 
BRANCH  21  22
ATOM     22  C   UNL     1      65.919  34.230  16.583  1.00  0.00    -0.000 C 
BRANCH  22  23
ATOM     23  C   UNL     1      66.502  35.308  17.524  1.00  0.00    -0.000 C 
BRANCH  23  24
ATOM     24  C   UNL     1      65.471  35.887  18.512  1.00  0.00    -0.000 C 
BRANCH  24  25
ATOM     25  C   UNL     1      65.811  35.666  19.996  1.00  0.00    -0.003 C 
ATOM     26  C   UNL     1      64.895  34.644  20.666  1.00  0.00     0.004 C 
ENDBRANCH  24  25
ENDBRANCH  23  24
ENDBRANCH  22  23
ENDBRANCH  21  22
ENDBRANCH  20  21
ENDBRANCH  19  20
ENDBRANCH  18  19
ENDBRANCH  17  18
ENDBRANCH  16  17
ENDBRANCH  15  16
ENDBRANCH   1  15
TORSDOF 22
ENDMDL
MODEL 8
REMARK VINA RESULT:    -4.309      1.749      3.864
REMARK INTER + INTRA:         -12.923
REMARK INTER:                 -10.117
REMARK INTRA:                  -2.806
REMARK UNBOUND:                -3.073
REMARK SMILES CCCCCCCCCCCCCCCCCCCCCCCC(=O)[O-]
REMARK SMILES IDX 13 1 14 2 15 3 16 4 17 5 18 6 19 7 20 8 21 9 22 10 23 11
REMARK SMILES IDX 24 12 25 13 26 14 12 15 11 16 10 17 9 18 8 19 7 20 6 21 5 22
REMARK SMILES IDX 4 23 3 24 2 25 1 26
REMARK H PARENT
REMARK Flexibility Score: inf
ROOT
ATOM      1  C   UNL     1      61.032  29.533  13.922  1.00  0.00     0.000 C 
ENDROOT
BRANCH   1   2
ATOM      2  C   UNL     1      60.657  30.877  13.269  1.00  0.00     0.000 C 
BRANCH   2   3
ATOM      3  C   UNL     1      60.047  31.881  14.264  1.00  0.00     0.000 C 
BRANCH   3   4
ATOM      4  C   UNL     1      60.834  33.192  14.440  1.00  0.00     0.000 C 
BRANCH   4   5
ATOM      5  C   UNL     1      62.283  33.094  13.934  1.00  0.00     0.000 C 
BRANCH   5   6
ATOM      6  C   UNL     1      63.276  33.849  14.834  1.00  0.00     0.000 C 
BRANCH   6   7
ATOM      7  C   UNL     1      64.743  33.563  14.466  1.00  0.00     0.000 C 
BRANCH   7   8
ATOM      8  C   UNL     1      65.656  34.785  14.672  1.00  0.00     0.000 C 
BRANCH   8   9
ATOM      9  C   UNL     1      65.415  35.565  15.979  1.00  0.00     0.000 C 
BRANCH   9  10
ATOM     10  C   UNL     1      65.757  34.764  17.254  1.00  0.00     0.006 C 
BRANCH  10  11
ATOM     11  C   UNL     1      65.344  35.506  18.532  1.00  0.00     0.053 C 
BRANCH  11  12
ATOM     12  C   UNL     1      65.177  34.547  19.668  1.00  0.00     0.041 C 
ATOM     13  O   UNL     1      65.990  33.597  19.819  1.00  0.00    -0.550 OA
ATOM     14  O   UNL     1      64.141  34.721  20.579  1.00  0.00    -0.550 OA
ENDBRANCH  11  12
ENDBRANCH  10  11
ENDBRANCH   9  10
ENDBRANCH   8   9
ENDBRANCH   7   8
ENDBRANCH   6   7
ENDBRANCH   5   6
ENDBRANCH   4   5
ENDBRANCH   3   4
ENDBRANCH   2   3
ENDBRANCH   1   2
BRANCH   1  15
ATOM     15  C   UNL     1      60.625  28.325  13.049  1.00  0.00     0.000 C 
BRANCH  15  16
ATOM     16  C   UNL     1      59.369  28.568  12.197  1.00  0.00     0.000 C 
BRANCH  16  17
ATOM     17  C   UNL     1      59.687  28.738  10.703  1.00  0.00     0.000 C 
BRANCH  17  18
ATOM     18  C   UNL     1      61.106  28.267  10.330  1.00  0.00    -0.000 C 
BRANCH  18  19
ATOM     19  C   UNL     1      61.592  28.680   8.926  1.00  0.00    -0.000 C 
BRANCH  19  20
ATOM     20  C   UNL     1      63.002  29.289   8.928  1.00  0.00    -0.000 C 
BRANCH  20  21
ATOM     21  C   UNL     1      63.573  29.353  10.351  1.00  0.00    -0.000 C 
BRANCH  21  22
ATOM     22  C   UNL     1      63.635  30.803  10.854  1.00  0.00    -0.000 C 
BRANCH  22  23
ATOM     23  C   UNL     1      64.428  30.933  12.173  1.00  0.00    -0.000 C 
BRANCH  23  24
ATOM     24  C   UNL     1      64.282  29.714  13.105  1.00  0.00    -0.000 C 
BRANCH  24  25
ATOM     25  C   UNL     1      64.595  29.995  14.583  1.00  0.00    -0.003 C 
ATOM     26  C   UNL     1      66.070  29.793  14.924  1.00  0.00     0.004 C 
ENDBRANCH  24  25
ENDBRANCH  23  24
ENDBRANCH  22  23
ENDBRANCH  21  22
ENDBRANCH  20  21
ENDBRANCH  19  20
ENDBRANCH  18  19
ENDBRANCH  17  18
ENDBRANCH  16  17
ENDBRANCH  15  16
ENDBRANCH   1  15
TORSDOF 22
ENDMDL
MODEL 9
REMARK VINA RESULT:    -4.298      1.195      4.011
REMARK INTER + INTRA:         -12.898
REMARK INTER:                  -9.800
REMARK INTRA:                  -3.098
REMARK UNBOUND:                -3.073
REMARK SMILES CCCCCCCCCCCCCCCCCCCCCCCC(=O)[O-]
REMARK SMILES IDX 13 1 14 2 15 3 16 4 17 5 18 6 19 7 20 8 21 9 22 10 23 11
REMARK SMILES IDX 24 12 25 13 26 14 12 15 11 16 10 17 9 18 8 19 7 20 6 21 5 22
REMARK SMILES IDX 4 23 3 24 2 25 1 26
REMARK H PARENT
REMARK Flexibility Score: inf
ROOT
ATOM      1  C   UNL     1      60.286  32.084  14.811  1.00  0.00     0.000 C 
ENDROOT
BRANCH   1   2
ATOM      2  C   UNL     1      60.889  33.499  14.719  1.00  0.00     0.000 C 
BRANCH   2   3
ATOM      3  C   UNL     1      62.420  33.513  14.878  1.00  0.00     0.000 C 
BRANCH   3   4
ATOM      4  C   UNL     1      63.197  32.685  13.839  1.00  0.00     0.000 C 
BRANCH   4   5
ATOM      5  C   UNL     1      64.008  31.540  14.470  1.00  0.00     0.000 C 
BRANCH   5   6
ATOM      6  C   UNL     1      65.525  31.760  14.361  1.00  0.00     0.000 C 
BRANCH   6   7
ATOM      7  C   UNL     1      65.883  33.090  13.673  1.00  0.00     0.000 C 
BRANCH   7   8
ATOM      8  C   UNL     1      67.032  33.833  14.376  1.00  0.00     0.000 C 
BRANCH   8   9
ATOM      9  C   UNL     1      66.824  35.351  14.538  1.00  0.00     0.000 C 
BRANCH   9  10
ATOM     10  C   UNL     1      65.618  35.723  15.428  1.00  0.00     0.006 C 
BRANCH  10  11
ATOM     11  C   UNL     1      65.522  34.833  16.674  1.00  0.00     0.053 C 
BRANCH  11  12
ATOM     12  C   UNL     1      64.678  35.484  17.724  1.00  0.00     0.041 C 
ATOM     13  O   UNL     1      65.220  36.125  18.663  1.00  0.00    -0.550 OA
ATOM     14  O   UNL     1      63.292  35.408  17.649  1.00  0.00    -0.550 OA
ENDBRANCH  11  12
ENDBRANCH  10  11
ENDBRANCH   9  10
ENDBRANCH   8   9
ENDBRANCH   7   8
ENDBRANCH   6   7
ENDBRANCH   5   6
ENDBRANCH   4   5
ENDBRANCH   3   4
ENDBRANCH   2   3
ENDBRANCH   1   2
BRANCH   1  15
ATOM     15  C   UNL     1      59.673  31.621  13.470  1.00  0.00     0.000 C 
BRANCH  15  16
ATOM     16  C   UNL     1      60.600  30.714  12.644  1.00  0.00     0.000 C 
BRANCH  16  17
ATOM     17  C   UNL     1      60.190  29.234  12.701  1.00  0.00     0.000 C 
BRANCH  17  18
ATOM     18  C   UNL     1      60.115  28.573  11.311  1.00  0.00    -0.000 C 
BRANCH  18  19
ATOM     19  C   UNL     1      59.602  29.481  10.175  1.00  0.00    -0.000 C 
BRANCH  19  20
ATOM     20  C   UNL     1      60.431  29.367   8.888  1.00  0.00    -0.000 C 
BRANCH  20  21
ATOM     21  C   UNL     1      61.541  28.318   9.037  1.00  0.00    -0.000 C 
BRANCH  21  22
ATOM     22  C   UNL     1      62.929  28.971   8.954  1.00  0.00    -0.000 C 
BRANCH  22  23
ATOM     23  C   UNL     1      63.542  29.223  10.349  1.00  0.00    -0.000 C 
BRANCH  23  24
ATOM     24  C   UNL     1      63.616  30.714  10.731  1.00  0.00    -0.000 C 
BRANCH  24  25
ATOM     25  C   UNL     1      64.954  31.396  10.397  1.00  0.00    -0.003 C 
ATOM     26  C   UNL     1      65.058  31.807   8.930  1.00  0.00     0.004 C 
ENDBRANCH  24  25
ENDBRANCH  23  24
ENDBRANCH  22  23
ENDBRANCH  21  22
ENDBRANCH  20  21
ENDBRANCH  19  20
ENDBRANCH  18  19
ENDBRANCH  17  18
ENDBRANCH  16  17
ENDBRANCH  15  16
ENDBRANCH   1  15
TORSDOF 22
ENDMDL
