MODEL 1
REMARK VINA RESULT:    43.255      0.000      0.000
REMARK INTER + INTRA:          54.132
REMARK INTER:                  53.370
REMARK INTRA:                   0.762
REMARK UNBOUND:                 0.762
REMARK SMILES COc1cc(-c2oc3cc(O)cc(O)c3c(=O)c2O)ccc1O
REMARK SMILES IDX 6 1 18 2 16 3 17 4 15 5 13 6 12 7 10 8 9 9 8 10 7 11 5 12
REMARK SMILES IDX 3 13 22 14 4 15 21 16 20 17 2 18 1 19 23 20 19 22 14 24
REMARK SMILES IDX 11 26
REMARK H PARENT 23 21 19 23 14 25 11 27
REMARK Flexibility Score: inf
ROOT
ATOM      1  C   UNL     1      10.276  61.926  23.102  1.00  0.00     0.180 A 
ATOM      2  C   UNL     1      11.359  62.769  22.807  1.00  0.00     0.208 A 
ATOM      3  C   UNL     1      11.404  64.048  23.384  1.00  0.00     0.238 A 
ATOM      4  O   UNL     1      12.349  64.819  23.073  1.00  0.00    -0.285 OA
ATOM      5  C   UNL     1      10.372  64.461  24.262  1.00  0.00     0.111 A 
ATOM      6  C   UNL     1      10.336  65.720  24.935  1.00  0.00     0.134 A 
ATOM      7  C   UNL     1       9.203  66.073  25.677  1.00  0.00     0.093 A 
ATOM      8  C   UNL     1       8.133  65.186  25.824  1.00  0.00     0.123 A 
ATOM      9  C   UNL     1       8.185  63.933  25.220  1.00  0.00     0.094 A 
ATOM     10  C   UNL     1       9.286  63.566  24.443  1.00  0.00     0.146 A 
ATOM     11  O   UNL     1       9.290  62.365  23.877  1.00  0.00    -0.452 OA
ENDROOT
BRANCH   1  12
ATOM     12  C   UNL     1      10.173  60.555  22.551  1.00  0.00     0.025 A 
ATOM     13  C   UNL     1       8.901  58.785  21.437  1.00  0.00     0.161 A 
ATOM     14  C   UNL     1      10.041  57.962  21.467  1.00  0.00     0.157 A 
ATOM     15  C   UNL     1       8.978  60.086  21.975  1.00  0.00     0.062 A 
ATOM     16  C   UNL     1      11.235  58.437  22.018  1.00  0.00     0.051 A 
ATOM     17  C   UNL     1      11.303  59.725  22.551  1.00  0.00     0.016 A 
BRANCH  13  18
ATOM     18  O   UNL     1       7.720  58.285  20.866  1.00  0.00    -0.493 OA
ATOM     19  C   UNL     1       7.334  56.914  20.878  1.00  0.00     0.278 C 
ENDBRANCH  13  18
BRANCH  14  20
ATOM     20  O   UNL     1      10.008  56.667  20.949  1.00  0.00    -0.504 OA
ATOM     21  H   UNL     1      10.131  56.477  19.961  1.00  0.00     0.293 HD
ENDBRANCH  14  20
ENDBRANCH   1  12
BRANCH   2  22
ATOM     22  O   UNL     1      12.356  62.351  21.920  1.00  0.00    -0.502 OA
ATOM     23  H   UNL     1      13.070  61.682  22.181  1.00  0.00     0.293 HD
ENDBRANCH   2  22
BRANCH   6  24
ATOM     24  O   UNL     1      11.390  66.638  24.929  1.00  0.00    -0.507 OA
ATOM     25  H   UNL     1      12.280  66.495  25.382  1.00  0.00     0.293 HD
ENDBRANCH   6  24
BRANCH   8  26
ATOM     26  O   UNL     1       7.015  65.541  26.577  1.00  0.00    -0.508 OA
ATOM     27  H   UNL     1       7.075  65.695  27.577  1.00  0.00     0.293 HD
ENDBRANCH   8  26
TORSDOF 6
ENDMDL
MODEL 2
REMARK VINA RESULT:    43.376      1.640      2.598
REMARK INTER + INTRA:          54.281
REMARK INTER:                  54.637
REMARK INTRA:                  -0.356
REMARK UNBOUND:                 0.762
REMARK SMILES COc1cc(-c2oc3cc(O)cc(O)c3c(=O)c2O)ccc1O
REMARK SMILES IDX 6 1 18 2 16 3 17 4 15 5 13 6 12 7 10 8 9 9 8 10 7 11 5 12
REMARK SMILES IDX 3 13 22 14 4 15 21 16 20 17 2 18 1 19 23 20 19 22 14 24
REMARK SMILES IDX 11 26
REMARK H PARENT 23 21 19 23 14 25 11 27
REMARK Flexibility Score: inf
ROOT
ATOM      1  C   UNL     1       9.725  60.326  22.133  1.00  0.00     0.180 A 
ATOM      2  C   UNL     1      11.022  60.605  21.671  1.00  0.00     0.208 A 
ATOM      3  C   UNL     1      11.727  61.683  22.229  1.00  0.00     0.238 A 
ATOM      4  O   UNL     1      12.866  61.962  21.772  1.00  0.00    -0.285 OA
ATOM      5  C   UNL     1      11.131  62.460  23.253  1.00  0.00     0.111 A 
ATOM      6  C   UNL     1      11.769  63.551  23.917  1.00  0.00     0.134 A 
ATOM      7  C   UNL     1      11.038  64.329  24.823  1.00  0.00     0.093 A 
ATOM      8  C   UNL     1       9.713  64.016  25.137  1.00  0.00     0.123 A 
ATOM      9  C   UNL     1       9.102  62.918  24.538  1.00  0.00     0.094 A 
ATOM     10  C   UNL     1       9.793  62.144  23.602  1.00  0.00     0.146 A 
ATOM     11  O   UNL     1       9.168  61.112  23.048  1.00  0.00    -0.452 OA
ENDROOT
BRANCH   1  12
ATOM     12  C   UNL     1       8.931  59.191  21.611  1.00  0.00     0.025 A 
ATOM     13  C   UNL     1       7.206  58.286  20.129  1.00  0.00     0.161 A 
ATOM     14  C   UNL     1       7.485  56.994  20.609  1.00  0.00     0.157 A 
ATOM     15  C   UNL     1       7.940  59.380  20.630  1.00  0.00     0.062 A 
ATOM     16  C   UNL     1       8.485  56.803  21.567  1.00  0.00     0.051 A 
ATOM     17  C   UNL     1       9.208  57.891  22.060  1.00  0.00     0.016 A 
BRANCH  13  18
ATOM     18  O   UNL     1       6.204  58.446  19.158  1.00  0.00    -0.493 OA
ATOM     19  C   UNL     1       6.399  59.067  17.891  1.00  0.00     0.278 C 
ENDBRANCH  13  18
BRANCH  14  20
ATOM     20  O   UNL     1       6.780  55.885  20.143  1.00  0.00    -0.504 OA
ATOM     21  H   UNL     1       6.995  54.942  20.445  1.00  0.00     0.293 HD
ENDBRANCH  14  20
ENDBRANCH   1  12
BRANCH   2  22
ATOM     22  O   UNL     1      11.582  59.840  20.644  1.00  0.00    -0.502 OA
ATOM     23  H   UNL     1      11.202  59.828  19.705  1.00  0.00     0.293 HD
ENDBRANCH   2  22
BRANCH   6  24
ATOM     24  O   UNL     1      13.114  63.890  23.745  1.00  0.00    -0.507 OA
ATOM     25  H   UNL     1      13.892  63.339  24.074  1.00  0.00     0.293 HD
ENDBRANCH   6  24
BRANCH   8  26
ATOM     26  O   UNL     1       8.998  64.787  26.051  1.00  0.00    -0.508 OA
ATOM     27  H   UNL     1       9.259  65.745  26.256  1.00  0.00     0.293 HD
ENDBRANCH   8  26
TORSDOF 6
ENDMDL
MODEL 3
REMARK VINA RESULT:    44.592      7.078     12.935
REMARK INTER + INTRA:          55.782
REMARK INTER:                  55.644
REMARK INTRA:                   0.138
REMARK UNBOUND:                 0.762
REMARK SMILES COc1cc(-c2oc3cc(O)cc(O)c3c(=O)c2O)ccc1O
REMARK SMILES IDX 6 1 18 2 16 3 17 4 15 5 13 6 12 7 10 8 9 9 8 10 7 11 5 12
REMARK SMILES IDX 3 13 22 14 4 15 21 16 20 17 2 18 1 19 23 20 19 22 14 24
REMARK SMILES IDX 11 26
REMARK H PARENT 23 21 19 23 14 25 11 27
REMARK Flexibility Score: inf
ROOT
ATOM      1  C   UNL     1       3.265  53.526  19.382  1.00  0.00     0.180 A 
ATOM      2  C   UNL     1       2.375  53.751  18.318  1.00  0.00     0.208 A 
ATOM      3  C   UNL     1       1.061  53.266  18.415  1.00  0.00     0.238 A 
ATOM      4  O   UNL     1       0.286  53.423  17.437  1.00  0.00    -0.285 OA
ATOM      5  C   UNL     1       0.649  52.577  19.581  1.00  0.00     0.111 A 
ATOM      6  C   UNL     1      -0.670  52.077  19.804  1.00  0.00     0.134 A 
ATOM      7  C   UNL     1      -0.931  51.298  20.937  1.00  0.00     0.093 A 
ATOM      8  C   UNL     1       0.064  51.054  21.889  1.00  0.00     0.123 A 
ATOM      9  C   UNL     1       1.337  51.588  21.709  1.00  0.00     0.094 A 
ATOM     10  C   UNL     1       1.638  52.338  20.570  1.00  0.00     0.146 A 
ATOM     11  O   UNL     1       2.868  52.819  20.435  1.00  0.00    -0.452 OA
ENDROOT
BRANCH   1  12
ATOM     12  C   UNL     1       4.658  54.028  19.363  1.00  0.00     0.025 A 
ATOM     13  C   UNL     1       6.469  55.355  20.338  1.00  0.00     0.161 A 
ATOM     14  C   UNL     1       7.328  54.913  19.316  1.00  0.00     0.157 A 
ATOM     15  C   UNL     1       5.134  54.901  20.358  1.00  0.00     0.062 A 
ATOM     16  C   UNL     1       6.861  54.027  18.340  1.00  0.00     0.051 A 
ATOM     17  C   UNL     1       5.538  53.582  18.366  1.00  0.00     0.016 A 
BRANCH  13  18
ATOM     18  O   UNL     1       6.970  56.234  21.311  1.00  0.00    -0.493 OA
ATOM     19  C   UNL     1       7.533  57.513  21.031  1.00  0.00     0.278 C 
ENDBRANCH  13  18
BRANCH  14  20
ATOM     20  O   UNL     1       8.655  55.339  19.256  1.00  0.00    -0.504 OA
ATOM     21  H   UNL     1       8.951  56.103  18.661  1.00  0.00     0.293 HD
ENDBRANCH  14  20
ENDBRANCH   1  12
BRANCH   2  22
ATOM     22  O   UNL     1       2.809  54.414  17.167  1.00  0.00    -0.502 OA
ATOM     23  H   UNL     1       2.942  53.939  16.282  1.00  0.00     0.293 HD
ENDBRANCH   2  22
BRANCH   6  24
ATOM     24  O   UNL     1      -1.756  52.340  18.964  1.00  0.00    -0.507 OA
ATOM     25  H   UNL     1      -2.233  53.227  18.902  1.00  0.00     0.293 HD
ENDBRANCH   6  24
BRANCH   8  26
ATOM     26  O   UNL     1      -0.209  50.289  23.021  1.00  0.00    -0.508 OA
ATOM     27  H   UNL     1      -0.241  49.277  22.983  1.00  0.00     0.293 HD
ENDBRANCH   8  26
TORSDOF 6
ENDMDL
