MODEL 1
REMARK VINA RESULT:    -4.469      0.000      0.000
REMARK INTER + INTRA:          -5.828
REMARK INTER:                  -5.515
REMARK INTRA:                  -0.314
REMARK UNBOUND:                -0.314
REMARK SMILES CCOC(=O)c1ccc(O)c(O)c1
REMARK SMILES IDX 4 1 5 2 3 3 2 4 1 5 6 6 13 7 7 8 11 9 8 10 9 11 12 12 10 14
REMARK H PARENT 12 13 10 15
REMARK Flexibility Score: inf
ROOT
ATOM      1  C   UNL     1       8.425 -18.706   6.800  1.00  0.00     0.338 C 
ATOM      2  O   UNL     1       7.923 -17.916   5.954  1.00  0.00    -0.246 OA
ENDROOT
BRANCH   1   3
ATOM      3  O   UNL     1       7.772 -19.903   7.118  1.00  0.00    -0.462 OA
BRANCH   3   4
ATOM      4  C   UNL     1       6.467 -19.961   7.689  1.00  0.00     0.230 C 
ATOM      5  C   UNL     1       6.382 -19.078   8.929  1.00  0.00     0.049 C 
ENDBRANCH   3   4
ENDBRANCH   1   3
BRANCH   1   6
ATOM      6  C   UNL     1       9.712 -18.373   7.454  1.00  0.00     0.064 A 
ATOM      7  C   UNL     1      10.358 -17.152   7.188  1.00  0.00     0.065 A 
ATOM      8  C   UNL     1      10.304 -19.276   8.353  1.00  0.00     0.020 A 
ATOM      9  C   UNL     1      11.573 -16.839   7.807  1.00  0.00     0.158 A 
ATOM     10  C   UNL     1      11.517 -18.965   8.972  1.00  0.00     0.051 A 
ATOM     11  C   UNL     1      12.156 -17.748   8.704  1.00  0.00     0.157 A 
BRANCH   9  12
ATOM     12  O   UNL     1      12.185 -15.619   7.518  1.00  0.00    -0.504 OA
ATOM     13  H   UNL     1      11.959 -14.770   8.024  1.00  0.00     0.293 HD
ENDBRANCH   9  12
BRANCH  11  14
ATOM     14  O   UNL     1      13.367 -17.441   9.324  1.00  0.00    -0.504 OA
ATOM     15  H   UNL     1      13.487 -16.590   9.860  1.00  0.00     0.293 HD
ENDBRANCH  11  14
ENDBRANCH   1   6
TORSDOF 5
ENDMDL
MODEL 2
REMARK VINA RESULT:    -4.196      1.174      2.073
REMARK INTER + INTRA:          -5.491
REMARK INTER:                  -5.223
REMARK INTRA:                  -0.268
REMARK UNBOUND:                -0.314
REMARK SMILES CCOC(=O)c1ccc(O)c(O)c1
REMARK SMILES IDX 4 1 5 2 3 3 2 4 1 5 6 6 13 7 7 8 11 9 8 10 9 11 12 12 10 14
REMARK H PARENT 12 13 10 15
REMARK Flexibility Score: inf
ROOT
ATOM      1  C   UNL     1       8.199 -19.396   6.428  1.00  0.00     0.338 C 
ATOM      2  O   UNL     1       8.228 -19.511   5.171  1.00  0.00    -0.246 OA
ENDROOT
BRANCH   1   3
ATOM      3  O   UNL     1       7.054 -19.772   7.141  1.00  0.00    -0.462 OA
BRANCH   3   4
ATOM      4  C   UNL     1       6.586 -19.083   8.299  1.00  0.00     0.230 C 
ATOM      5  C   UNL     1       6.373 -20.054   9.454  1.00  0.00     0.049 C 
ENDBRANCH   3   4
ENDBRANCH   1   3
BRANCH   1   6
ATOM      6  C   UNL     1       9.379 -18.871   7.153  1.00  0.00     0.064 A 
ATOM      7  C   UNL     1      10.216 -19.735   7.883  1.00  0.00     0.065 A 
ATOM      8  C   UNL     1       9.679 -17.499   7.119  1.00  0.00     0.020 A 
ATOM      9  C   UNL     1      11.331 -19.239   8.567  1.00  0.00     0.158 A 
ATOM     10  C   UNL     1      10.792 -17.001   7.800  1.00  0.00     0.051 A 
ATOM     11  C   UNL     1      11.622 -17.865   8.526  1.00  0.00     0.157 A 
BRANCH   9  12
ATOM     12  O   UNL     1      12.137 -20.125   9.281  1.00  0.00    -0.504 OA
ATOM     13  H   UNL     1      11.860 -21.083   9.458  1.00  0.00     0.293 HD
ENDBRANCH   9  12
BRANCH  11  14
ATOM     14  O   UNL     1      12.732 -17.365   9.206  1.00  0.00    -0.504 OA
ATOM     15  H   UNL     1      13.676 -17.588   8.916  1.00  0.00     0.293 HD
ENDBRANCH  11  14
ENDBRANCH   1   6
TORSDOF 5
ENDMDL
MODEL 3
REMARK VINA RESULT:    -4.176      1.953      5.002
REMARK INTER + INTRA:          -5.466
REMARK INTER:                  -5.269
REMARK INTRA:                  -0.197
REMARK UNBOUND:                -0.314
REMARK SMILES CCOC(=O)c1ccc(O)c(O)c1
REMARK SMILES IDX 4 1 5 2 3 3 2 4 1 5 6 6 13 7 7 8 11 9 8 10 9 11 12 12 10 14
REMARK H PARENT 12 13 10 15
REMARK Flexibility Score: inf
ROOT
ATOM      1  C   UNL     1      10.895 -18.596   8.109  1.00  0.00     0.338 C 
ATOM      2  O   UNL     1      11.487 -19.204   7.174  1.00  0.00    -0.246 OA
ENDROOT
BRANCH   1   3
ATOM      3  O   UNL     1      11.627 -17.814   9.012  1.00  0.00    -0.462 OA
BRANCH   3   4
ATOM      4  C   UNL     1      12.780 -17.060   8.647  1.00  0.00     0.230 C 
ATOM      5  C   UNL     1      12.433 -16.027   7.581  1.00  0.00     0.049 C 
ENDBRANCH   3   4
ENDBRANCH   1   3
BRANCH   1   6
ATOM      6  C   UNL     1       9.425 -18.700   8.248  1.00  0.00     0.064 A 
ATOM      7  C   UNL     1       8.634 -17.546   8.398  1.00  0.00     0.065 A 
ATOM      8  C   UNL     1       8.799 -19.958   8.231  1.00  0.00     0.020 A 
ATOM      9  C   UNL     1       7.244 -17.646   8.529  1.00  0.00     0.158 A 
ATOM     10  C   UNL     1       7.412 -20.060   8.362  1.00  0.00     0.051 A 
ATOM     11  C   UNL     1       6.629 -18.908   8.510  1.00  0.00     0.157 A 
BRANCH   9  12
ATOM     12  O   UNL     1       6.493 -16.480   8.675  1.00  0.00    -0.504 OA
ATOM     13  H   UNL     1       6.077 -16.004   7.883  1.00  0.00     0.293 HD
ENDBRANCH   9  12
BRANCH  11  14
ATOM     14  O   UNL     1       5.245 -19.014   8.640  1.00  0.00    -0.504 OA
ATOM     15  H   UNL     1       4.655 -18.193   8.712  1.00  0.00     0.293 HD
ENDBRANCH  11  14
ENDBRANCH   1   6
TORSDOF 5
ENDMDL
MODEL 4
REMARK VINA RESULT:    -4.130      1.317      2.407
REMARK INTER + INTRA:          -5.409
REMARK INTER:                  -5.090
REMARK INTRA:                  -0.319
REMARK UNBOUND:                -0.314
REMARK SMILES CCOC(=O)c1ccc(O)c(O)c1
REMARK SMILES IDX 4 1 5 2 3 3 2 4 1 5 6 6 13 7 7 8 11 9 8 10 9 11 12 12 10 14
REMARK H PARENT 12 13 10 15
REMARK Flexibility Score: inf
ROOT
ATOM      1  C   UNL     1       9.564 -19.164   8.167  1.00  0.00     0.338 C 
ATOM      2  O   UNL     1       9.595 -20.125   8.985  1.00  0.00    -0.246 OA
ENDROOT
BRANCH   1   3
ATOM      3  O   UNL     1       8.462 -19.000   7.318  1.00  0.00    -0.462 OA
BRANCH   3   4
ATOM      4  C   UNL     1       7.132 -18.784   7.786  1.00  0.00     0.230 C 
ATOM      5  C   UNL     1       7.062 -17.527   8.644  1.00  0.00     0.049 C 
ENDBRANCH   3   4
ENDBRANCH   1   3
BRANCH   1   6
ATOM      6  C   UNL     1      10.688 -18.203   8.107  1.00  0.00     0.064 A 
ATOM      7  C   UNL     1      11.753 -18.286   9.023  1.00  0.00     0.065 A 
ATOM      8  C   UNL     1      10.706 -17.193   7.131  1.00  0.00     0.020 A 
ATOM      9  C   UNL     1      12.816 -17.377   8.966  1.00  0.00     0.158 A 
ATOM     10  C   UNL     1      11.766 -16.285   7.071  1.00  0.00     0.051 A 
ATOM     11  C   UNL     1      12.824 -16.372   7.985  1.00  0.00     0.157 A 
BRANCH   9  12
ATOM     12  O   UNL     1      13.854 -17.490   9.890  1.00  0.00    -0.504 OA
ATOM     13  H   UNL     1      14.582 -16.790   9.971  1.00  0.00     0.293 HD
ENDBRANCH   9  12
BRANCH  11  14
ATOM     14  O   UNL     1      13.880 -15.464   7.923  1.00  0.00    -0.504 OA
ATOM     15  H   UNL     1      14.792 -15.685   8.304  1.00  0.00     0.293 HD
ENDBRANCH  11  14
ENDBRANCH   1   6
TORSDOF 5
ENDMDL
MODEL 5
REMARK VINA RESULT:    -4.007      1.721      5.267
REMARK INTER + INTRA:          -5.258
REMARK INTER:                  -5.103
REMARK INTRA:                  -0.156
REMARK UNBOUND:                -0.314
REMARK SMILES CCOC(=O)c1ccc(O)c(O)c1
REMARK SMILES IDX 4 1 5 2 3 3 2 4 1 5 6 6 13 7 7 8 11 9 8 10 9 11 12 12 10 14
REMARK H PARENT 12 13 10 15
REMARK Flexibility Score: inf
ROOT
ATOM      1  C   UNL     1      11.988 -17.386   8.298  1.00  0.00     0.338 C 
ATOM      2  O   UNL     1      12.587 -17.574   9.392  1.00  0.00    -0.246 OA
ENDROOT
BRANCH   1   3
ATOM      3  O   UNL     1      12.592 -16.627   7.287  1.00  0.00    -0.462 OA
BRANCH   3   4
ATOM      4  C   UNL     1      13.148 -15.331   7.501  1.00  0.00     0.230 C 
ATOM      5  C   UNL     1      14.650 -15.342   7.247  1.00  0.00     0.049 C 
ENDBRANCH   3   4
ENDBRANCH   1   3
BRANCH   1   6
ATOM      6  C   UNL     1      10.647 -17.973   8.075  1.00  0.00     0.064 A 
ATOM      7  C   UNL     1       9.484 -17.256   8.409  1.00  0.00     0.065 A 
ATOM      8  C   UNL     1      10.520 -19.259   7.524  1.00  0.00     0.020 A 
ATOM      9  C   UNL     1       8.217 -17.812   8.198  1.00  0.00     0.158 A 
ATOM     10  C   UNL     1       9.256 -19.816   7.311  1.00  0.00     0.051 A 
ATOM     11  C   UNL     1       8.101 -19.098   7.645  1.00  0.00     0.157 A 
BRANCH   9  12
ATOM     12  O   UNL     1       7.086 -17.071   8.541  1.00  0.00    -0.504 OA
ATOM     13  H   UNL     1       7.137 -16.262   9.149  1.00  0.00     0.293 HD
ENDBRANCH   9  12
BRANCH  11  14
ATOM     14  O   UNL     1       6.842 -19.657   7.432  1.00  0.00    -0.504 OA
ATOM     15  H   UNL     1       6.112 -19.149   6.947  1.00  0.00     0.293 HD
ENDBRANCH  11  14
ENDBRANCH   1   6
TORSDOF 5
ENDMDL
MODEL 6
REMARK VINA RESULT:    -3.615      1.876      2.209
REMARK INTER + INTRA:          -4.774
REMARK INTER:                  -4.623
REMARK INTRA:                  -0.151
REMARK UNBOUND:                -0.314
REMARK SMILES CCOC(=O)c1ccc(O)c(O)c1
REMARK SMILES IDX 4 1 5 2 3 3 2 4 1 5 6 6 13 7 7 8 11 9 8 10 9 11 12 12 10 14
REMARK H PARENT 12 13 10 15
REMARK Flexibility Score: inf
ROOT
ATOM      1  C   UNL     1       7.182 -18.746   8.730  1.00  0.00     0.338 C 
ATOM      2  O   UNL     1       6.551 -17.671   8.930  1.00  0.00    -0.246 OA
ENDROOT
BRANCH   1   3
ATOM      3  O   UNL     1       6.606 -19.974   9.080  1.00  0.00    -0.462 OA
BRANCH   3   4
ATOM      4  C   UNL     1       5.236 -20.125   9.447  1.00  0.00     0.230 C 
ATOM      5  C   UNL     1       4.345 -20.125   8.211  1.00  0.00     0.049 C 
ENDBRANCH   3   4
ENDBRANCH   1   3
BRANCH   1   6
ATOM      6  C   UNL     1       8.529 -18.714   8.117  1.00  0.00     0.064 A 
ATOM      7  C   UNL     1       9.278 -17.522   8.090  1.00  0.00     0.065 A 
ATOM      8  C   UNL     1       9.080 -19.877   7.553  1.00  0.00     0.020 A 
ATOM      9  C   UNL     1      10.551 -17.492   7.511  1.00  0.00     0.158 A 
ATOM     10  C   UNL     1      10.351 -19.850   6.974  1.00  0.00     0.051 A 
ATOM     11  C   UNL     1      11.092 -18.661   6.951  1.00  0.00     0.157 A 
BRANCH   9  12
ATOM     12  O   UNL     1      11.264 -16.293   7.503  1.00  0.00    -0.504 OA
ATOM     13  H   UNL     1      11.918 -16.060   6.766  1.00  0.00     0.293 HD
ENDBRANCH   9  12
BRANCH  11  14
ATOM     14  O   UNL     1      12.361 -18.638   6.372  1.00  0.00    -0.504 OA
ATOM     15  H   UNL     1      12.722 -19.430   5.856  1.00  0.00     0.293 HD
ENDBRANCH  11  14
ENDBRANCH   1   6
TORSDOF 5
ENDMDL
MODEL 7
REMARK VINA RESULT:    -3.411      1.479      1.780
REMARK INTER + INTRA:          -4.522
REMARK INTER:                  -4.289
REMARK INTRA:                  -0.233
REMARK UNBOUND:                -0.314
REMARK SMILES CCOC(=O)c1ccc(O)c(O)c1
REMARK SMILES IDX 4 1 5 2 3 3 2 4 1 5 6 6 13 7 7 8 11 9 8 10 9 11 12 12 10 14
REMARK H PARENT 12 13 10 15
REMARK Flexibility Score: inf
ROOT
ATOM      1  C   UNL     1       8.980 -18.408   8.069  1.00  0.00     0.338 C 
ATOM      2  O   UNL     1       7.974 -17.703   8.360  1.00  0.00    -0.246 OA
ENDROOT
BRANCH   1   3
ATOM      3  O   UNL     1       8.810 -19.726   7.625  1.00  0.00    -0.462 OA
BRANCH   3   4
ATOM      4  C   UNL     1       7.793 -20.122   6.707  1.00  0.00     0.230 C 
ATOM      5  C   UNL     1       8.188 -19.764   5.279  1.00  0.00     0.049 C 
ENDBRANCH   3   4
ENDBRANCH   1   3
BRANCH   1   6
ATOM      6  C   UNL     1      10.343 -17.843   8.189  1.00  0.00     0.064 A 
ATOM      7  C   UNL     1      10.737 -16.746   7.401  1.00  0.00     0.065 A 
ATOM      8  C   UNL     1      11.263 -18.396   9.096  1.00  0.00     0.020 A 
ATOM      9  C   UNL     1      12.025 -16.211   7.516  1.00  0.00     0.158 A 
ATOM     10  C   UNL     1      12.549 -17.864   9.212  1.00  0.00     0.051 A 
ATOM     11  C   UNL     1      12.937 -16.771   8.426  1.00  0.00     0.157 A 
BRANCH   9  12
ATOM     12  O   UNL     1      12.381 -15.123   6.718  1.00  0.00    -0.504 OA
ATOM     13  H   UNL     1      12.422 -14.179   7.083  1.00  0.00     0.293 HD
ENDBRANCH   9  12
BRANCH  11  14
ATOM     14  O   UNL     1      14.222 -16.243   8.544  1.00  0.00    -0.504 OA
ATOM     15  H   UNL     1      14.398 -15.388   9.057  1.00  0.00     0.293 HD
ENDBRANCH  11  14
ENDBRANCH   1   6
TORSDOF 5
ENDMDL
MODEL 8
REMARK VINA RESULT:    -2.995      1.478      2.705
REMARK INTER + INTRA:          -4.010
REMARK INTER:                  -3.766
REMARK INTRA:                  -0.244
REMARK UNBOUND:                -0.314
REMARK SMILES CCOC(=O)c1ccc(O)c(O)c1
REMARK SMILES IDX 4 1 5 2 3 3 2 4 1 5 6 6 13 7 7 8 11 9 8 10 9 11 12 12 10 14
REMARK H PARENT 12 13 10 15
REMARK Flexibility Score: inf
ROOT
ATOM      1  C   UNL     1       7.616 -19.482   8.149  1.00  0.00     0.338 C 
ATOM      2  O   UNL     1       6.869 -19.676   9.147  1.00  0.00    -0.246 OA
ENDROOT
BRANCH   1   3
ATOM      3  O   UNL     1       7.156 -19.778   6.859  1.00  0.00    -0.462 OA
BRANCH   3   4
ATOM      4  C   UNL     1       8.017 -20.125   5.777  1.00  0.00     0.230 C 
ATOM      5  C   UNL     1       8.224 -18.933   4.850  1.00  0.00     0.049 C 
ENDBRANCH   3   4
ENDBRANCH   1   3
BRANCH   1   6
ATOM      6  C   UNL     1       8.978 -18.932   8.336  1.00  0.00     0.064 A 
ATOM      7  C   UNL     1      10.054 -19.777   8.668  1.00  0.00     0.065 A 
ATOM      8  C   UNL     1       9.215 -17.556   8.184  1.00  0.00     0.020 A 
ATOM      9  C   UNL     1      11.341 -19.257   8.844  1.00  0.00     0.158 A 
ATOM     10  C   UNL     1      10.498 -17.035   8.359  1.00  0.00     0.051 A 
ATOM     11  C   UNL     1      11.566 -17.880   8.689  1.00  0.00     0.157 A 
BRANCH   9  12
ATOM     12  O   UNL     1      12.383 -20.125   9.172  1.00  0.00    -0.504 OA
ATOM     13  H   UNL     1      13.110 -19.869   9.830  1.00  0.00     0.293 HD
ENDBRANCH   9  12
BRANCH  11  14
ATOM     14  O   UNL     1      12.847 -17.356   8.863  1.00  0.00    -0.504 OA
ATOM     15  H   UNL     1      12.993 -16.429   9.246  1.00  0.00     0.293 HD
ENDBRANCH  11  14
ENDBRANCH   1   6
TORSDOF 5
ENDMDL
