MODEL 1
REMARK VINA RESULT:    -3.376      0.000      0.000
REMARK INTER + INTRA:          -3.597
REMARK INTER:                  -3.574
REMARK INTRA:                  -0.024
REMARK UNBOUND:                -0.024
REMARK SMILES O=C([O-])c1cccnc1
REMARK SMILES IDX 4 1 5 2 9 3 6 4 8 5 7 6 2 7 1 8 3 9
REMARK H PARENT
REMARK Flexibility Score: inf
ROOT
ATOM      1  C   UNL     1      31.516   9.050  32.337  1.00  0.00     0.016 A 
ATOM      2  C   UNL     1      32.505   9.687  33.104  1.00  0.00     0.013 A 
ATOM      3  C   UNL     1      30.758   9.828  31.445  1.00  0.00     0.120 A 
ATOM      4  C   UNL     1      32.718  11.060  32.971  1.00  0.00     0.021 A 
ATOM      5  N   UNL     1      30.986  11.165  31.334  1.00  0.00    -0.264 NA
ATOM      6  C   UNL     1      31.941  11.790  32.072  1.00  0.00     0.111 A 
ENDROOT
BRANCH   1   7
ATOM      7  C   UNL     1      31.281   7.596  32.468  1.00  0.00     0.073 C 
ATOM      8  O   UNL     1      30.428   7.017  31.744  1.00  0.00    -0.545 OA
ATOM      9  O   UNL     1      31.999   6.847  33.394  1.00  0.00    -0.545 OA
ENDBRANCH   1   7
TORSDOF 1
ENDMDL
MODEL 2
REMARK VINA RESULT:    -3.243     13.002     13.928
REMARK INTER + INTRA:          -3.456
REMARK INTER:                  -3.437
REMARK INTRA:                  -0.019
REMARK UNBOUND:                -0.024
REMARK SMILES O=C([O-])c1cccnc1
REMARK SMILES IDX 4 1 5 2 9 3 6 4 8 5 7 6 2 7 1 8 3 9
REMARK H PARENT
REMARK Flexibility Score: inf
ROOT
ATOM      1  C   UNL     1      19.557  11.984  26.547  1.00  0.00     0.016 A 
ATOM      2  C   UNL     1      20.085  10.969  25.733  1.00  0.00     0.013 A 
ATOM      3  C   UNL     1      19.492  11.762  27.934  1.00  0.00     0.120 A 
ATOM      4  C   UNL     1      20.532   9.775  26.301  1.00  0.00     0.021 A 
ATOM      5  N   UNL     1      19.935  10.589  28.463  1.00  0.00    -0.264 NA
ATOM      6  C   UNL     1      20.448   9.601  27.683  1.00  0.00     0.111 A 
ENDROOT
BRANCH   1   7
ATOM      7  C   UNL     1      19.080  13.253  25.957  1.00  0.00     0.073 C 
ATOM      8  O   UNL     1      19.806  13.900  25.157  1.00  0.00    -0.545 OA
ATOM      9  O   UNL     1      17.821  13.750  26.279  1.00  0.00    -0.545 OA
ENDBRANCH   1   7
TORSDOF 1
ENDMDL
MODEL 3
REMARK VINA RESULT:    -3.209     11.911     12.539
REMARK INTER + INTRA:          -3.420
REMARK INTER:                  -3.403
REMARK INTRA:                  -0.017
REMARK UNBOUND:                -0.024
REMARK SMILES O=C([O-])c1cccnc1
REMARK SMILES IDX 4 1 5 2 9 3 6 4 8 5 7 6 2 7 1 8 3 9
REMARK H PARENT
REMARK Flexibility Score: inf
ROOT
ATOM      1  C   UNL     1      20.021  10.290  28.211  1.00  0.00     0.016 A 
ATOM      2  C   UNL     1      20.450   9.683  27.020  1.00  0.00     0.013 A 
ATOM      3  C   UNL     1      19.623  11.638  28.169  1.00  0.00     0.120 A 
ATOM      4  C   UNL     1      20.473  10.413  25.830  1.00  0.00     0.021 A 
ATOM      5  N   UNL     1      19.655  12.327  26.995  1.00  0.00    -0.264 NA
ATOM      6  C   UNL     1      20.068  11.748  25.837  1.00  0.00     0.111 A 
ENDROOT
BRANCH   1   7
ATOM      7  C   UNL     1      19.992   9.528  29.477  1.00  0.00     0.073 C 
ATOM      8  O   UNL     1      18.896   9.204  30.005  1.00  0.00    -0.545 OA
ATOM      9  O   UNL     1      21.178   9.158  30.104  1.00  0.00    -0.545 OA
ENDBRANCH   1   7
TORSDOF 1
ENDMDL
MODEL 4
REMARK VINA RESULT:    -3.198      2.218      2.973
REMARK INTER + INTRA:          -3.408
REMARK INTER:                  -3.389
REMARK INTRA:                  -0.019
REMARK UNBOUND:                -0.024
REMARK SMILES O=C([O-])c1cccnc1
REMARK SMILES IDX 4 1 5 2 9 3 6 4 8 5 7 6 2 7 1 8 3 9
REMARK H PARENT
REMARK Flexibility Score: inf
ROOT
ATOM      1  C   UNL     1      30.832  10.397  31.307  1.00  0.00     0.016 A 
ATOM      2  C   UNL     1      31.291   9.315  32.076  1.00  0.00     0.013 A 
ATOM      3  C   UNL     1      31.377  11.669  31.551  1.00  0.00     0.120 A 
ATOM      4  C   UNL     1      32.265   9.515  33.056  1.00  0.00     0.021 A 
ATOM      5  N   UNL     1      32.327  11.837  32.512  1.00  0.00    -0.264 NA
ATOM      6  C   UNL     1      32.777  10.797  33.262  1.00  0.00     0.111 A 
ENDROOT
BRANCH   1   7
ATOM      7  C   UNL     1      29.800  10.198  30.267  1.00  0.00     0.073 C 
ATOM      8  O   UNL     1      28.827  10.991  30.170  1.00  0.00    -0.545 OA
ATOM      9  O   UNL     1      29.892   9.131  29.380  1.00  0.00    -0.545 OA
ENDBRANCH   1   7
TORSDOF 1
ENDMDL
MODEL 5
REMARK VINA RESULT:    -3.175      3.285      4.224
REMARK INTER + INTRA:          -3.385
REMARK INTER:                  -3.368
REMARK INTRA:                  -0.017
REMARK UNBOUND:                -0.024
REMARK SMILES O=C([O-])c1cccnc1
REMARK SMILES IDX 4 1 5 2 9 3 6 4 8 5 7 6 2 7 1 8 3 9
REMARK H PARENT
REMARK Flexibility Score: inf
ROOT
ATOM      1  C   UNL     1      30.921   7.381  30.030  1.00  0.00     0.016 A 
ATOM      2  C   UNL     1      31.695   6.448  29.322  1.00  0.00     0.013 A 
ATOM      3  C   UNL     1      30.115   8.273  29.300  1.00  0.00     0.120 A 
ATOM      4  C   UNL     1      31.654   6.418  27.927  1.00  0.00     0.021 A 
ATOM      5  N   UNL     1      30.093   8.222  27.940  1.00  0.00    -0.264 NA
ATOM      6  C   UNL     1      30.839   7.323  27.246  1.00  0.00     0.111 A 
ENDROOT
BRANCH   1   7
ATOM      7  C   UNL     1      30.955   7.423  31.507  1.00  0.00     0.073 C 
ATOM      8  O   UNL     1      30.383   6.531  32.188  1.00  0.00    -0.545 OA
ATOM      9  O   UNL     1      31.622   8.450  32.167  1.00  0.00    -0.545 OA
ENDBRANCH   1   7
TORSDOF 1
ENDMDL
MODEL 6
REMARK VINA RESULT:    -3.141      2.386      3.338
REMARK INTER + INTRA:          -3.348
REMARK INTER:                  -3.331
REMARK INTRA:                  -0.017
REMARK UNBOUND:                -0.024
REMARK SMILES O=C([O-])c1cccnc1
REMARK SMILES IDX 4 1 5 2 9 3 6 4 8 5 7 6 2 7 1 8 3 9
REMARK H PARENT
REMARK Flexibility Score: inf
ROOT
ATOM      1  C   UNL     1      31.676   9.238  32.787  1.00  0.00     0.016 A 
ATOM      2  C   UNL     1      31.828   7.849  32.926  1.00  0.00     0.013 A 
ATOM      3  C   UNL     1      31.006   9.726  31.652  1.00  0.00     0.120 A 
ATOM      4  C   UNL     1      31.320   6.987  31.953  1.00  0.00     0.021 A 
ATOM      5  N   UNL     1      30.518   8.864  30.718  1.00  0.00    -0.264 NA
ATOM      6  C   UNL     1      30.661   7.519  30.844  1.00  0.00     0.111 A 
ENDROOT
BRANCH   1   7
ATOM      7  C   UNL     1      32.211  10.161  33.810  1.00  0.00     0.073 C 
ATOM      8  O   UNL     1      33.114  10.988  33.519  1.00  0.00    -0.545 OA
ATOM      9  O   UNL     1      31.721  10.128  35.112  1.00  0.00    -0.545 OA
ENDBRANCH   1   7
TORSDOF 1
ENDMDL
MODEL 7
REMARK VINA RESULT:    -3.120      2.074      3.129
REMARK INTER + INTRA:          -3.326
REMARK INTER:                  -3.307
REMARK INTRA:                  -0.019
REMARK UNBOUND:                -0.024
REMARK SMILES O=C([O-])c1cccnc1
REMARK SMILES IDX 4 1 5 2 9 3 6 4 8 5 7 6 2 7 1 8 3 9
REMARK H PARENT
REMARK Flexibility Score: inf
ROOT
ATOM      1  C   UNL     1      30.957   8.741  31.337  1.00  0.00     0.016 A 
ATOM      2  C   UNL     1      30.946   7.645  30.459  1.00  0.00     0.013 A 
ATOM      3  C   UNL     1      30.351   9.938  30.918  1.00  0.00     0.120 A 
ATOM      4  C   UNL     1      30.344   7.757  29.205  1.00  0.00     0.021 A 
ATOM      5  N   UNL     1      29.769  10.021  29.690  1.00  0.00    -0.264 NA
ATOM      6  C   UNL     1      29.754   8.966  28.834  1.00  0.00     0.111 A 
ENDROOT
BRANCH   1   7
ATOM      7  C   UNL     1      31.592   8.635  32.668  1.00  0.00     0.073 C 
ATOM      8  O   UNL     1      31.310   7.679  33.438  1.00  0.00    -0.545 OA
ATOM      9  O   UNL     1      32.511   9.591  33.087  1.00  0.00    -0.545 OA
ENDBRANCH   1   7
TORSDOF 1
ENDMDL
MODEL 8
REMARK VINA RESULT:    -3.104      4.915      5.848
REMARK INTER + INTRA:          -3.309
REMARK INTER:                  -3.293
REMARK INTRA:                  -0.016
REMARK UNBOUND:                -0.024
REMARK SMILES O=C([O-])c1cccnc1
REMARK SMILES IDX 4 1 5 2 9 3 6 4 8 5 7 6 2 7 1 8 3 9
REMARK H PARENT
REMARK Flexibility Score: inf
ROOT
ATOM      1  C   UNL     1      30.659   7.591  27.404  1.00  0.00     0.016 A 
ATOM      2  C   UNL     1      31.500   6.588  27.911  1.00  0.00     0.013 A 
ATOM      3  C   UNL     1      29.936   8.381  28.316  1.00  0.00     0.120 A 
ATOM      4  C   UNL     1      31.606   6.392  29.290  1.00  0.00     0.021 A 
ATOM      5  N   UNL     1      30.057   8.170  29.655  1.00  0.00    -0.264 NA
ATOM      6  C   UNL     1      30.869   7.201  30.155  1.00  0.00     0.111 A 
ENDROOT
BRANCH   1   7
ATOM      7  C   UNL     1      30.539   7.809  25.947  1.00  0.00     0.073 C 
ATOM      8  O   UNL     1      29.808   7.061  25.245  1.00  0.00    -0.545 OA
ATOM      9  O   UNL     1      31.232   8.845  25.330  1.00  0.00    -0.545 OA
ENDBRANCH   1   7
TORSDOF 1
ENDMDL
MODEL 9
REMARK VINA RESULT:    -3.079      3.230      4.065
REMARK INTER + INTRA:          -3.283
REMARK INTER:                  -3.266
REMARK INTRA:                  -0.017
REMARK UNBOUND:                -0.024
REMARK SMILES O=C([O-])c1cccnc1
REMARK SMILES IDX 4 1 5 2 9 3 6 4 8 5 7 6 2 7 1 8 3 9
REMARK H PARENT
REMARK Flexibility Score: inf
ROOT
ATOM      1  C   UNL     1      30.346   7.712  29.001  1.00  0.00     0.016 A 
ATOM      2  C   UNL     1      30.880   7.556  30.290  1.00  0.00     0.013 A 
ATOM      3  C   UNL     1      29.768   8.948  28.662  1.00  0.00     0.120 A 
ATOM      4  C   UNL     1      30.831   8.611  31.202  1.00  0.00     0.021 A 
ATOM      5  N   UNL     1      29.734   9.962  29.570  1.00  0.00    -0.264 NA
ATOM      6  C   UNL     1      30.247   9.820  30.820  1.00  0.00     0.111 A 
ENDROOT
BRANCH   1   7
ATOM      7  C   UNL     1      30.392   6.602  28.026  1.00  0.00     0.073 C 
ATOM      8  O   UNL     1      31.492   6.210  27.552  1.00  0.00    -0.545 OA
ATOM      9  O   UNL     1      29.220   5.974  27.618  1.00  0.00    -0.545 OA
ENDBRANCH   1   7
TORSDOF 1
ENDMDL
