MODEL 1
REMARK VINA RESULT:    -6.331      0.000      0.000
REMARK INTER + INTRA:          -8.549
REMARK INTER:                  -7.997
REMARK INTRA:                  -0.552
REMARK UNBOUND:                -0.552
REMARK SMILES O=C(C=Cc1ccc(O)cc1)c1ccc(O)cc1O
REMARK SMILES IDX 4 1 3 2 5 3 6 4 7 5 8 6 11 7 10 8 9 9 2 11 1 12 12 13 18 14
REMARK SMILES IDX 13 15 17 16 14 17 15 18 19 19 16 21
REMARK H PARENT 9 10 19 20 16 22
REMARK Flexibility Score: inf
ROOT
ATOM      1  C   UNL     1      25.154  -1.128  15.413  1.00  0.00     0.012 C 
ATOM      2  C   UNL     1      26.310  -0.742  14.852  1.00  0.00     0.053 C 
ENDROOT
BRANCH   1   3
ATOM      3  C   UNL     1      25.018  -1.507  16.841  1.00  0.00    -0.025 A 
ATOM      4  C   UNL     1      23.760  -1.925  17.309  1.00  0.00     0.012 A 
ATOM      5  C   UNL     1      23.582  -2.282  18.649  1.00  0.00     0.047 A 
ATOM      6  C   UNL     1      24.658  -2.214  19.543  1.00  0.00     0.115 A 
ATOM      7  C   UNL     1      26.091  -1.427  17.752  1.00  0.00     0.012 A 
ATOM      8  C   UNL     1      25.908  -1.784  19.092  1.00  0.00     0.047 A 
BRANCH   6   9
ATOM      9  O   UNL     1      24.493  -2.567  20.880  1.00  0.00    -0.508 OA
ATOM     10  H   UNL     1      23.605  -2.908  21.233  1.00  0.00     0.293 HD
ENDBRANCH   6   9
ENDBRANCH   1   3
BRANCH   2  11
ATOM     11  C   UNL     1      26.411  -0.385  13.421  1.00  0.00     0.189 C 
ATOM     12  O   UNL     1      27.209  -1.006  12.667  1.00  0.00    -0.289 OA
BRANCH  11  13
ATOM     13  C   UNL     1      25.555   0.681  12.854  1.00  0.00     0.064 A 
ATOM     14  C   UNL     1      25.089   0.636  11.518  1.00  0.00     0.130 A 
ATOM     15  C   UNL     1      25.161   1.751  13.679  1.00  0.00     0.020 A 
ATOM     16  C   UNL     1      24.221   1.630  11.051  1.00  0.00     0.093 A 
ATOM     17  C   UNL     1      24.307   2.745  13.196  1.00  0.00     0.047 A 
ATOM     18  C   UNL     1      23.830   2.686  11.885  1.00  0.00     0.119 A 
BRANCH  14  19
ATOM     19  O   UNL     1      25.486  -0.360  10.622  1.00  0.00    -0.507 OA
ATOM     20  H   UNL     1      24.978  -0.577   9.775  1.00  0.00     0.293 HD
ENDBRANCH  14  19
BRANCH  18  21
ATOM     21  O   UNL     1      22.973   3.680  11.420  1.00  0.00    -0.508 OA
ATOM     22  H   UNL     1      21.996   3.489  11.226  1.00  0.00     0.293 HD
ENDBRANCH  18  21
ENDBRANCH  11  13
ENDBRANCH   2  11
TORSDOF 6
ENDMDL
MODEL 2
REMARK VINA RESULT:    -6.329      2.263      3.435
REMARK INTER + INTRA:          -8.546
REMARK INTER:                  -8.052
REMARK INTRA:                  -0.494
REMARK UNBOUND:                -0.552
REMARK SMILES O=C(C=Cc1ccc(O)cc1)c1ccc(O)cc1O
REMARK SMILES IDX 4 1 3 2 5 3 6 4 7 5 8 6 11 7 10 8 9 9 2 11 1 12 12 13 18 14
REMARK SMILES IDX 13 15 17 16 14 17 15 18 19 19 16 21
REMARK H PARENT 9 10 19 20 16 22
REMARK Flexibility Score: inf
ROOT
ATOM      1  C   UNL     1      25.816  -1.015  15.408  1.00  0.00     0.012 C 
ATOM      2  C   UNL     1      25.275  -0.040  14.662  1.00  0.00     0.053 C 
ENDROOT
BRANCH   1   3
ATOM      3  C   UNL     1      25.355  -1.355  16.777  1.00  0.00    -0.025 A 
ATOM      4  C   UNL     1      26.212  -1.093  17.860  1.00  0.00     0.012 A 
ATOM      5  C   UNL     1      25.824  -1.406  19.166  1.00  0.00     0.047 A 
ATOM      6  C   UNL     1      24.578  -1.998  19.406  1.00  0.00     0.115 A 
ATOM      7  C   UNL     1      24.109  -1.966  17.027  1.00  0.00     0.012 A 
ATOM      8  C   UNL     1      23.726  -2.279  18.335  1.00  0.00     0.047 A 
BRANCH   6   9
ATOM      9  O   UNL     1      24.180  -2.315  20.703  1.00  0.00    -0.508 OA
ATOM     10  H   UNL     1      24.287  -1.656  21.466  1.00  0.00     0.293 HD
ENDBRANCH   6   9
ENDBRANCH   1   3
BRANCH   2  11
ATOM     11  C   UNL     1      25.770   0.280  13.306  1.00  0.00     0.189 C 
ATOM     12  O   UNL     1      25.050   0.049  12.297  1.00  0.00    -0.289 OA
BRANCH  11  13
ATOM     13  C   UNL     1      27.100   0.903  13.124  1.00  0.00     0.064 A 
ATOM     14  C   UNL     1      27.249   2.213  12.608  1.00  0.00     0.130 A 
ATOM     15  C   UNL     1      28.248   0.188  13.511  1.00  0.00     0.020 A 
ATOM     16  C   UNL     1      28.523   2.787  12.524  1.00  0.00     0.093 A 
ATOM     17  C   UNL     1      29.515   0.766  13.408  1.00  0.00     0.047 A 
ATOM     18  C   UNL     1      29.657   2.067  12.921  1.00  0.00     0.119 A 
BRANCH  14  19
ATOM     19  O   UNL     1      26.163   2.962  12.145  1.00  0.00    -0.507 OA
ATOM     20  H   UNL     1      25.844   2.941  11.186  1.00  0.00     0.293 HD
ENDBRANCH  14  19
BRANCH  18  21
ATOM     21  O   UNL     1      30.927   2.633  12.831  1.00  0.00    -0.508 OA
ATOM     22  H   UNL     1      31.318   2.917  11.940  1.00  0.00     0.293 HD
ENDBRANCH  18  21
ENDBRANCH  11  13
ENDBRANCH   2  11
TORSDOF 6
ENDMDL
MODEL 3
REMARK VINA RESULT:    -6.215      2.018      7.278
REMARK INTER + INTRA:          -8.402
REMARK INTER:                  -7.808
REMARK INTRA:                  -0.594
REMARK UNBOUND:                -0.552
REMARK SMILES O=C(C=Cc1ccc(O)cc1)c1ccc(O)cc1O
REMARK SMILES IDX 4 1 3 2 5 3 6 4 7 5 8 6 11 7 10 8 9 9 2 11 1 12 12 13 18 14
REMARK SMILES IDX 13 15 17 16 14 17 15 18 19 19 16 21
REMARK H PARENT 9 10 19 20 16 22
REMARK Flexibility Score: inf
ROOT
ATOM      1  C   UNL     1      24.921   0.158  15.342  1.00  0.00     0.012 C 
ATOM      2  C   UNL     1      24.640  -1.135  15.561  1.00  0.00     0.053 C 
ENDROOT
BRANCH   1   3
ATOM      3  C   UNL     1      24.802   0.814  14.016  1.00  0.00    -0.025 A 
ATOM      4  C   UNL     1      24.400   2.159  13.964  1.00  0.00     0.012 A 
ATOM      5  C   UNL     1      24.264   2.815  12.737  1.00  0.00     0.047 A 
ATOM      6  C   UNL     1      24.519   2.130  11.542  1.00  0.00     0.115 A 
ATOM      7  C   UNL     1      25.041   0.127  12.807  1.00  0.00     0.012 A 
ATOM      8  C   UNL     1      24.903   0.787  11.582  1.00  0.00     0.047 A 
BRANCH   6   9
ATOM      9  O   UNL     1      24.388   2.772  10.313  1.00  0.00    -0.508 OA
ATOM     10  H   UNL     1      23.978   2.304   9.512  1.00  0.00     0.293 HD
ENDBRANCH   6   9
ENDBRANCH   1   3
BRANCH   2  11
ATOM     11  C   UNL     1      24.784  -1.757  16.895  1.00  0.00     0.189 C 
ATOM     12  O   UNL     1      24.337  -2.917  17.104  1.00  0.00    -0.289 OA
BRANCH  11  13
ATOM     13  C   UNL     1      25.480  -1.037  17.985  1.00  0.00     0.064 A 
ATOM     14  C   UNL     1      24.779  -0.247  18.927  1.00  0.00     0.130 A 
ATOM     15  C   UNL     1      26.875  -1.174  18.112  1.00  0.00     0.020 A 
ATOM     16  C   UNL     1      25.473   0.354  19.984  1.00  0.00     0.093 A 
ATOM     17  C   UNL     1      27.557  -0.556  19.162  1.00  0.00     0.047 A 
ATOM     18  C   UNL     1      26.860   0.203  20.103  1.00  0.00     0.119 A 
BRANCH  14  19
ATOM     19  O   UNL     1      23.404  -0.014  18.831  1.00  0.00    -0.507 OA
ATOM     20  H   UNL     1      22.707  -0.672  19.153  1.00  0.00     0.293 HD
ENDBRANCH  14  19
BRANCH  18  21
ATOM     21  O   UNL     1      27.554   0.806  21.150  1.00  0.00    -0.508 OA
ATOM     22  H   UNL     1      28.374   0.374  21.561  1.00  0.00     0.293 HD
ENDBRANCH  18  21
ENDBRANCH  11  13
ENDBRANCH   2  11
TORSDOF 6
ENDMDL
MODEL 4
REMARK VINA RESULT:    -6.140      4.861      6.817
REMARK INTER + INTRA:          -8.307
REMARK INTER:                  -7.641
REMARK INTRA:                  -0.665
REMARK UNBOUND:                -0.552
REMARK SMILES O=C(C=Cc1ccc(O)cc1)c1ccc(O)cc1O
REMARK SMILES IDX 4 1 3 2 5 3 6 4 7 5 8 6 11 7 10 8 9 9 2 11 1 12 12 13 18 14
REMARK SMILES IDX 13 15 17 16 14 17 15 18 19 19 16 21
REMARK H PARENT 9 10 19 20 16 22
REMARK Flexibility Score: inf
ROOT
ATOM      1  C   UNL     1      30.246   1.479  13.213  1.00  0.00     0.012 C 
ATOM      2  C   UNL     1      29.203   1.098  13.963  1.00  0.00     0.053 C 
ENDROOT
BRANCH   1   3
ATOM      3  C   UNL     1      31.443   2.168  13.756  1.00  0.00    -0.025 A 
ATOM      4  C   UNL     1      32.703   1.573  13.574  1.00  0.00     0.012 A 
ATOM      5  C   UNL     1      33.857   2.181  14.077  1.00  0.00     0.047 A 
ATOM      6  C   UNL     1      33.766   3.388  14.780  1.00  0.00     0.115 A 
ATOM      7  C   UNL     1      31.359   3.376  14.479  1.00  0.00     0.012 A 
ATOM      8  C   UNL     1      32.516   3.980  14.981  1.00  0.00     0.047 A 
BRANCH   6   9
ATOM      9  O   UNL     1      34.908   4.004  15.286  1.00  0.00    -0.508 OA
ATOM     10  H   UNL     1      35.077   4.995  15.160  1.00  0.00     0.293 HD
ENDBRANCH   6   9
ENDBRANCH   1   3
BRANCH   2  11
ATOM     11  C   UNL     1      28.020   0.425  13.384  1.00  0.00     0.189 C 
ATOM     12  O   UNL     1      28.068  -0.799  13.088  1.00  0.00    -0.289 OA
BRANCH  11  13
ATOM     13  C   UNL     1      26.761   1.175  13.176  1.00  0.00     0.064 A 
ATOM     14  C   UNL     1      25.520   0.706  13.670  1.00  0.00     0.130 A 
ATOM     15  C   UNL     1      26.804   2.410  12.502  1.00  0.00     0.020 A 
ATOM     16  C   UNL     1      24.369   1.488  13.512  1.00  0.00     0.093 A 
ATOM     17  C   UNL     1      25.646   3.172  12.338  1.00  0.00     0.047 A 
ATOM     18  C   UNL     1      24.428   2.718  12.846  1.00  0.00     0.119 A 
BRANCH  14  19
ATOM     19  O   UNL     1      25.386  -0.537  14.295  1.00  0.00    -0.507 OA
ATOM     20  H   UNL     1      24.925  -0.662  15.185  1.00  0.00     0.293 HD
ENDBRANCH  14  19
BRANCH  18  21
ATOM     21  O   UNL     1      23.283   3.494  12.681  1.00  0.00    -0.508 OA
ATOM     22  H   UNL     1      23.220   4.198  11.954  1.00  0.00     0.293 HD
ENDBRANCH  18  21
ENDBRANCH  11  13
ENDBRANCH   2  11
TORSDOF 6
ENDMDL
MODEL 5
REMARK VINA RESULT:    -6.130      2.027      7.410
REMARK INTER + INTRA:          -8.295
REMARK INTER:                  -7.702
REMARK INTRA:                  -0.593
REMARK UNBOUND:                -0.552
REMARK SMILES O=C(C=Cc1ccc(O)cc1)c1ccc(O)cc1O
REMARK SMILES IDX 4 1 3 2 5 3 6 4 7 5 8 6 11 7 10 8 9 9 2 11 1 12 12 13 18 14
REMARK SMILES IDX 13 15 17 16 14 17 15 18 19 19 16 21
REMARK H PARENT 9 10 19 20 16 22
REMARK Flexibility Score: inf
ROOT
ATOM      1  C   UNL     1      26.575  -0.744  15.571  1.00  0.00     0.012 C 
ATOM      2  C   UNL     1      25.639  -0.750  16.532  1.00  0.00     0.053 C 
ENDROOT
BRANCH   1   3
ATOM      3  C   UNL     1      26.276  -0.543  14.132  1.00  0.00    -0.025 A 
ATOM      4  C   UNL     1      25.156   0.228  13.778  1.00  0.00     0.012 A 
ATOM      5  C   UNL     1      24.830   0.435  12.435  1.00  0.00     0.047 A 
ATOM      6  C   UNL     1      25.614  -0.136  11.425  1.00  0.00     0.115 A 
ATOM      7  C   UNL     1      27.051  -1.128  13.108  1.00  0.00     0.012 A 
ATOM      8  C   UNL     1      26.720  -0.919  11.766  1.00  0.00     0.047 A 
BRANCH   6   9
ATOM      9  O   UNL     1      25.300   0.063  10.083  1.00  0.00    -0.508 OA
ATOM     10  H   UNL     1      24.339   0.072   9.759  1.00  0.00     0.293 HD
ENDBRANCH   6   9
ENDBRANCH   1   3
BRANCH   2  11
ATOM     11  C   UNL     1      25.974  -0.967  17.956  1.00  0.00     0.189 C 
ATOM     12  O   UNL     1      27.169  -1.171  18.303  1.00  0.00    -0.289 OA
BRANCH  11  13
ATOM     13  C   UNL     1      24.914  -0.916  18.989  1.00  0.00     0.064 A 
ATOM     14  C   UNL     1      24.874   0.103  19.970  1.00  0.00     0.130 A 
ATOM     15  C   UNL     1      23.895  -1.886  18.970  1.00  0.00     0.020 A 
ATOM     16  C   UNL     1      23.811   0.151  20.879  1.00  0.00     0.093 A 
ATOM     17  C   UNL     1      22.847  -1.835  19.892  1.00  0.00     0.047 A 
ATOM     18  C   UNL     1      22.798  -0.816  20.844  1.00  0.00     0.119 A 
BRANCH  14  19
ATOM     19  O   UNL     1      25.882   1.064  20.091  1.00  0.00    -0.507 OA
ATOM     20  H   UNL     1      26.499   1.122  20.889  1.00  0.00     0.293 HD
ENDBRANCH  14  19
BRANCH  18  21
ATOM     21  O   UNL     1      21.743  -0.774  21.752  1.00  0.00    -0.508 OA
ATOM     22  H   UNL     1      21.143  -1.577  21.905  1.00  0.00     0.293 HD
ENDBRANCH  18  21
ENDBRANCH  11  13
ENDBRANCH   2  11
TORSDOF 6
ENDMDL
MODEL 6
REMARK VINA RESULT:    -6.105      1.798      7.359
REMARK INTER + INTRA:          -8.263
REMARK INTER:                  -7.553
REMARK INTRA:                  -0.711
REMARK UNBOUND:                -0.552
REMARK SMILES O=C(C=Cc1ccc(O)cc1)c1ccc(O)cc1O
REMARK SMILES IDX 4 1 3 2 5 3 6 4 7 5 8 6 11 7 10 8 9 9 2 11 1 12 12 13 18 14
REMARK SMILES IDX 13 15 17 16 14 17 15 18 19 19 16 21
REMARK H PARENT 9 10 19 20 16 22
REMARK Flexibility Score: inf
ROOT
ATOM      1  C   UNL     1      25.283  -0.420  15.854  1.00  0.00     0.012 C 
ATOM      2  C   UNL     1      25.668  -1.556  16.453  1.00  0.00     0.053 C 
ENDROOT
BRANCH   1   3
ATOM      3  C   UNL     1      25.302  -0.217  14.384  1.00  0.00    -0.025 A 
ATOM      4  C   UNL     1      24.175   0.354  13.769  1.00  0.00     0.012 A 
ATOM      5  C   UNL     1      24.145   0.555  12.386  1.00  0.00     0.047 A 
ATOM      6  C   UNL     1      25.238   0.178  11.597  1.00  0.00     0.115 A 
ATOM      7  C   UNL     1      26.392  -0.608  13.579  1.00  0.00     0.012 A 
ATOM      8  C   UNL     1      26.357  -0.405  12.196  1.00  0.00     0.047 A 
BRANCH   6   9
ATOM      9  O   UNL     1      25.220   0.374  10.218  1.00  0.00    -0.508 OA
ATOM     10  H   UNL     1      25.838  -0.141   9.601  1.00  0.00     0.293 HD
ENDBRANCH   6   9
ENDBRANCH   1   3
BRANCH   2  11
ATOM     11  C   UNL     1      25.648  -1.718  17.923  1.00  0.00     0.189 C 
ATOM     12  O   UNL     1      26.726  -1.703  18.577  1.00  0.00    -0.289 OA
BRANCH  11  13
ATOM     13  C   UNL     1      24.362  -1.868  18.641  1.00  0.00     0.064 A 
ATOM     14  C   UNL     1      24.083  -1.157  19.833  1.00  0.00     0.130 A 
ATOM     15  C   UNL     1      23.374  -2.712  18.102  1.00  0.00     0.020 A 
ATOM     16  C   UNL     1      22.825  -1.276  20.435  1.00  0.00     0.093 A 
ATOM     17  C   UNL     1      22.127  -2.833  18.721  1.00  0.00     0.047 A 
ATOM     18  C   UNL     1      21.847  -2.113  19.883  1.00  0.00     0.119 A 
BRANCH  14  19
ATOM     19  O   UNL     1      25.035  -0.349  20.461  1.00  0.00    -0.507 OA
ATOM     20  H   UNL     1      24.832   0.216  21.274  1.00  0.00     0.293 HD
ENDBRANCH  14  19
BRANCH  18  21
ATOM     21  O   UNL     1      20.596  -2.239  20.484  1.00  0.00    -0.508 OA
ATOM     22  H   UNL     1      20.417  -1.877  21.414  1.00  0.00     0.293 HD
ENDBRANCH  18  21
ENDBRANCH  11  13
ENDBRANCH   2  11
TORSDOF 6
ENDMDL
MODEL 7
REMARK VINA RESULT:    -6.090      2.379      7.214
REMARK INTER + INTRA:          -8.244
REMARK INTER:                  -7.611
REMARK INTRA:                  -0.633
REMARK UNBOUND:                -0.552
REMARK SMILES O=C(C=Cc1ccc(O)cc1)c1ccc(O)cc1O
REMARK SMILES IDX 4 1 3 2 5 3 6 4 7 5 8 6 11 7 10 8 9 9 2 11 1 12 12 13 18 14
REMARK SMILES IDX 13 15 17 16 14 17 15 18 19 19 16 21
REMARK H PARENT 9 10 19 20 16 22
REMARK Flexibility Score: inf
ROOT
ATOM      1  C   UNL     1      24.352  -1.103  15.272  1.00  0.00     0.012 C 
ATOM      2  C   UNL     1      24.614  -2.025  16.210  1.00  0.00     0.053 C 
ENDROOT
BRANCH   1   3
ATOM      3  C   UNL     1      25.402  -0.377  14.515  1.00  0.00    -0.025 A 
ATOM      4  C   UNL     1      25.041   0.784  13.808  1.00  0.00     0.012 A 
ATOM      5  C   UNL     1      25.994   1.494  13.073  1.00  0.00     0.047 A 
ATOM      6  C   UNL     1      27.320   1.048  13.024  1.00  0.00     0.115 A 
ATOM      7  C   UNL     1      26.736  -0.828  14.447  1.00  0.00     0.012 A 
ATOM      8  C   UNL     1      27.686  -0.114  13.709  1.00  0.00     0.047 A 
BRANCH   6   9
ATOM      9  O   UNL     1      28.279   1.747  12.295  1.00  0.00    -0.508 OA
ATOM     10  H   UNL     1      28.689   2.605  12.646  1.00  0.00     0.293 HD
ENDBRANCH   6   9
ENDBRANCH   1   3
BRANCH   2  11
ATOM     11  C   UNL     1      23.541  -2.718  16.955  1.00  0.00     0.189 C 
ATOM     12  O   UNL     1      23.053  -3.792  16.509  1.00  0.00    -0.289 OA
BRANCH  11  13
ATOM     13  C   UNL     1      23.054  -2.175  18.243  1.00  0.00     0.064 A 
ATOM     14  C   UNL     1      21.722  -1.728  18.410  1.00  0.00     0.130 A 
ATOM     15  C   UNL     1      23.930  -2.140  19.344  1.00  0.00     0.020 A 
ATOM     16  C   UNL     1      21.288  -1.292  19.668  1.00  0.00     0.093 A 
ATOM     17  C   UNL     1      23.488  -1.689  20.589  1.00  0.00     0.047 A 
ATOM     18  C   UNL     1      22.168  -1.270  20.758  1.00  0.00     0.119 A 
BRANCH  14  19
ATOM     19  O   UNL     1      20.812  -1.675  17.350  1.00  0.00    -0.507 OA
ATOM     20  H   UNL     1      19.819  -1.542  17.479  1.00  0.00     0.293 HD
ENDBRANCH  14  19
BRANCH  18  21
ATOM     21  O   UNL     1      21.740  -0.830  22.008  1.00  0.00    -0.508 OA
ATOM     22  H   UNL     1      20.948  -0.206  22.108  1.00  0.00     0.293 HD
ENDBRANCH  18  21
ENDBRANCH  11  13
ENDBRANCH   2  11
TORSDOF 6
ENDMDL
MODEL 8
REMARK VINA RESULT:    -5.981      2.518      3.446
REMARK INTER + INTRA:          -8.107
REMARK INTER:                  -7.566
REMARK INTRA:                  -0.541
REMARK UNBOUND:                -0.552
REMARK SMILES O=C(C=Cc1ccc(O)cc1)c1ccc(O)cc1O
REMARK SMILES IDX 4 1 3 2 5 3 6 4 7 5 8 6 11 7 10 8 9 9 2 11 1 12 12 13 18 14
REMARK SMILES IDX 13 15 17 16 14 17 15 18 19 19 16 21
REMARK H PARENT 9 10 19 20 16 22
REMARK Flexibility Score: inf
ROOT
ATOM      1  C   UNL     1      23.760  -2.064  16.833  1.00  0.00     0.012 C 
ATOM      2  C   UNL     1      24.931  -2.263  16.212  1.00  0.00     0.053 C 
ENDROOT
BRANCH   1   3
ATOM      3  C   UNL     1      22.822  -3.156  17.193  1.00  0.00    -0.025 A 
ATOM      4  C   UNL     1      22.045  -3.019  18.356  1.00  0.00     0.012 A 
ATOM      5  C   UNL     1      21.156  -4.027  18.740  1.00  0.00     0.047 A 
ATOM      6  C   UNL     1      21.040  -5.193  17.973  1.00  0.00     0.115 A 
ATOM      7  C   UNL     1      22.711  -4.340  16.435  1.00  0.00     0.012 A 
ATOM      8  C   UNL     1      21.821  -5.346  16.824  1.00  0.00     0.047 A 
BRANCH   6   9
ATOM      9  O   UNL     1      20.158  -6.204  18.345  1.00  0.00    -0.508 OA
ATOM     10  H   UNL     1      20.463  -6.996  18.900  1.00  0.00     0.293 HD
ENDBRANCH   6   9
ENDBRANCH   1   3
BRANCH   2  11
ATOM     11  C   UNL     1      25.834  -1.147  15.856  1.00  0.00     0.189 C 
ATOM     12  O   UNL     1      26.778  -0.824  16.627  1.00  0.00    -0.289 OA
BRANCH  11  13
ATOM     13  C   UNL     1      25.657  -0.421  14.578  1.00  0.00     0.064 A 
ATOM     14  C   UNL     1      26.421  -0.734  13.428  1.00  0.00     0.130 A 
ATOM     15  C   UNL     1      24.674   0.581  14.493  1.00  0.00     0.020 A 
ATOM     16  C   UNL     1      26.165  -0.070  12.222  1.00  0.00     0.093 A 
ATOM     17  C   UNL     1      24.439   1.247  13.288  1.00  0.00     0.047 A 
ATOM     18  C   UNL     1      25.177   0.921  12.149  1.00  0.00     0.119 A 
BRANCH  14  19
ATOM     19  O   UNL     1      27.456  -1.673  13.451  1.00  0.00    -0.507 OA
ATOM     20  H   UNL     1      27.398  -2.572  12.992  1.00  0.00     0.293 HD
ENDBRANCH  14  19
BRANCH  18  21
ATOM     21  O   UNL     1      24.926   1.588  10.952  1.00  0.00    -0.508 OA
ATOM     22  H   UNL     1      23.981   1.770  10.636  1.00  0.00     0.293 HD
ENDBRANCH  18  21
ENDBRANCH  11  13
ENDBRANCH   2  11
TORSDOF 6
ENDMDL
MODEL 9
REMARK VINA RESULT:    -5.951      3.039      4.391
REMARK INTER + INTRA:          -8.068
REMARK INTER:                  -7.421
REMARK INTRA:                  -0.647
REMARK UNBOUND:                -0.552
REMARK SMILES O=C(C=Cc1ccc(O)cc1)c1ccc(O)cc1O
REMARK SMILES IDX 4 1 3 2 5 3 6 4 7 5 8 6 11 7 10 8 9 9 2 11 1 12 12 13 18 14
REMARK SMILES IDX 13 15 17 16 14 17 15 18 19 19 16 21
REMARK H PARENT 9 10 19 20 16 22
REMARK Flexibility Score: inf
ROOT
ATOM      1  C   UNL     1      23.196  -2.428  16.606  1.00  0.00     0.012 C 
ATOM      2  C   UNL     1      24.518  -2.226  16.694  1.00  0.00     0.053 C 
ENDROOT
BRANCH   1   3
ATOM      3  C   UNL     1      22.534  -3.712  16.946  1.00  0.00    -0.025 A 
ATOM      4  C   UNL     1      22.626  -4.779  16.036  1.00  0.00     0.012 A 
ATOM      5  C   UNL     1      22.010  -6.003  16.310  1.00  0.00     0.047 A 
ATOM      6  C   UNL     1      21.284  -6.175  17.494  1.00  0.00     0.115 A 
ATOM      7  C   UNL     1      21.787  -3.890  18.129  1.00  0.00     0.012 A 
ATOM      8  C   UNL     1      21.172  -5.116  18.398  1.00  0.00     0.047 A 
BRANCH   6   9
ATOM      9  O   UNL     1      20.666  -7.391  17.778  1.00  0.00    -0.508 OA
ATOM     10  H   UNL     1      21.075  -8.055  18.426  1.00  0.00     0.293 HD
ENDBRANCH   6   9
ENDBRANCH   1   3
BRANCH   2  11
ATOM     11  C   UNL     1      25.144  -0.936  16.333  1.00  0.00     0.189 C 
ATOM     12  O   UNL     1      25.236  -0.014  17.188  1.00  0.00    -0.289 OA
BRANCH  11  13
ATOM     13  C   UNL     1      25.695  -0.727  14.975  1.00  0.00     0.064 A 
ATOM     14  C   UNL     1      25.254   0.331  14.143  1.00  0.00     0.130 A 
ATOM     15  C   UNL     1      26.714  -1.579  14.513  1.00  0.00     0.020 A 
ATOM     16  C   UNL     1      25.859   0.532  12.896  1.00  0.00     0.093 A 
ATOM     17  C   UNL     1      27.299  -1.377  13.260  1.00  0.00     0.047 A 
ATOM     18  C   UNL     1      26.878  -0.319  12.452  1.00  0.00     0.119 A 
BRANCH  14  19
ATOM     19  O   UNL     1      24.206   1.180  14.507  1.00  0.00    -0.507 OA
ATOM     20  H   UNL     1      24.329   1.990  15.099  1.00  0.00     0.293 HD
ENDBRANCH  14  19
BRANCH  18  21
ATOM     21  O   UNL     1      27.476  -0.125  11.209  1.00  0.00    -0.508 OA
ATOM     22  H   UNL     1      27.671   0.804  10.854  1.00  0.00     0.293 HD
ENDBRANCH  18  21
ENDBRANCH  11  13
ENDBRANCH   2  11
TORSDOF 6
ENDMDL
