MODEL 1
REMARK VINA RESULT:    -4.613      0.000      0.000
REMARK INTER + INTRA:          -5.117
REMARK INTER:                  -5.017
REMARK INTRA:                  -0.100
REMARK UNBOUND:                -0.100
REMARK SMILES Cc1ccc(C(C)C)cc1O
REMARK SMILES IDX 1 1 2 2 10 3 9 4 5 5 4 6 3 7 11 8 6 10 7 11 8 12
REMARK H PARENT 11 9
REMARK Flexibility Score: inf
ROOT
ATOM      1  C   UNL     1     174.831 176.059 176.959  1.00  0.00     0.048 C 
ATOM      2  C   UNL     1     175.128 176.288 178.415  1.00  0.00    -0.009 A 
ATOM      3  C   UNL     1     176.390 175.957 178.941  1.00  0.00     0.118 A 
ATOM      4  C   UNL     1     176.660 176.173 180.300  1.00  0.00     0.050 A 
ATOM      5  C   UNL     1     175.681 176.719 181.148  1.00  0.00    -0.042 A 
ATOM      6  C   UNL     1     174.422 177.046 180.612  1.00  0.00     0.004 A 
ATOM      7  C   UNL     1     174.150 176.832 179.260  1.00  0.00     0.007 A 
ENDROOT
BRANCH   3   8
ATOM      8  O   UNL     1     177.371 175.414 178.111  1.00  0.00    -0.508 OA
ATOM      9  H   UNL     1     177.229 174.537 177.625  1.00  0.00     0.293 HD
ENDBRANCH   3   8
BRANCH   5  10
ATOM     10  C   UNL     1     175.990 176.946 182.616  1.00  0.00     0.013 C 
ATOM     11  C   UNL     1     176.061 175.618 183.378  1.00  0.00     0.012 C 
ATOM     12  C   UNL     1     177.283 177.752 182.791  1.00  0.00     0.012 C 
ENDBRANCH   5  10
TORSDOF 2
ENDMDL
MODEL 2
REMARK VINA RESULT:    -4.400      2.185      3.237
REMARK INTER + INTRA:          -4.886
REMARK INTER:                  -4.768
REMARK INTRA:                  -0.118
REMARK UNBOUND:                -0.100
REMARK SMILES Cc1ccc(C(C)C)cc1O
REMARK SMILES IDX 1 1 2 2 10 3 9 4 5 5 4 6 3 7 11 8 6 10 7 11 8 12
REMARK H PARENT 11 9
REMARK Flexibility Score: inf
ROOT
ATOM      1  C   UNL     1     175.266 171.807 181.395  1.00  0.00     0.048 C 
ATOM      2  C   UNL     1     175.612 173.268 181.469  1.00  0.00    -0.009 A 
ATOM      3  C   UNL     1     176.251 173.900 180.388  1.00  0.00     0.118 A 
ATOM      4  C   UNL     1     176.571 175.264 180.463  1.00  0.00     0.050 A 
ATOM      5  C   UNL     1     176.259 176.011 181.612  1.00  0.00    -0.042 A 
ATOM      6  C   UNL     1     175.620 175.370 182.688  1.00  0.00     0.004 A 
ATOM      7  C   UNL     1     175.300 174.013 182.616  1.00  0.00     0.007 A 
ENDROOT
BRANCH   3   8
ATOM      8  O   UNL     1     176.568 173.171 179.241  1.00  0.00    -0.508 OA
ATOM      9  H   UNL     1     176.420 173.550 178.313  1.00  0.00     0.293 HD
ENDBRANCH   3   8
BRANCH   5  10
ATOM     10  C   UNL     1     176.613 177.486 181.677  1.00  0.00     0.013 C 
ATOM     11  C   UNL     1     177.478 177.793 182.905  1.00  0.00     0.012 C 
ATOM     12  C   UNL     1     177.302 177.946 180.388  1.00  0.00     0.012 C 
ENDBRANCH   5  10
TORSDOF 2
ENDMDL
MODEL 3
REMARK VINA RESULT:    -4.326      3.158      4.253
REMARK INTER + INTRA:          -4.806
REMARK INTER:                  -4.699
REMARK INTRA:                  -0.107
REMARK UNBOUND:                -0.100
REMARK SMILES Cc1ccc(C(C)C)cc1O
REMARK SMILES IDX 1 1 2 2 10 3 9 4 5 5 4 6 3 7 11 8 6 10 7 11 8 12
REMARK H PARENT 11 9
REMARK Flexibility Score: inf
ROOT
ATOM      1  C   UNL     1     170.638 175.777 182.520  1.00  0.00     0.048 C 
ATOM      2  C   UNL     1     172.141 175.794 182.528  1.00  0.00    -0.009 A 
ATOM      3  C   UNL     1     172.837 176.969 182.196  1.00  0.00     0.118 A 
ATOM      4  C   UNL     1     174.240 176.978 182.205  1.00  0.00     0.050 A 
ATOM      5  C   UNL     1     174.962 175.821 182.543  1.00  0.00    -0.042 A 
ATOM      6  C   UNL     1     174.256 174.651 182.874  1.00  0.00     0.004 A 
ATOM      7  C   UNL     1     172.860 174.638 182.866  1.00  0.00     0.007 A 
ENDROOT
BRANCH   3   8
ATOM      8  O   UNL     1     172.134 178.125 181.857  1.00  0.00    -0.508 OA
ATOM      9  H   UNL     1     172.279 178.999 182.349  1.00  0.00     0.293 HD
ENDBRANCH   3   8
BRANCH   5  10
ATOM     10  C   UNL     1     176.480 175.849 182.548  1.00  0.00     0.013 C 
ATOM     11  C   UNL     1     177.046 175.324 181.224  1.00  0.00     0.012 C 
ATOM     12  C   UNL     1     177.006 177.255 182.854  1.00  0.00     0.012 C 
ENDBRANCH   5  10
TORSDOF 2
ENDMDL
MODEL 4
REMARK VINA RESULT:    -4.268      3.249      4.322
REMARK INTER + INTRA:          -4.742
REMARK INTER:                  -4.617
REMARK INTRA:                  -0.125
REMARK UNBOUND:                -0.100
REMARK SMILES Cc1ccc(C(C)C)cc1O
REMARK SMILES IDX 1 1 2 2 10 3 9 4 5 5 4 6 3 7 11 8 6 10 7 11 8 12
REMARK H PARENT 11 9
REMARK Flexibility Score: inf
ROOT
ATOM      1  C   UNL     1     170.742 175.412 182.894  1.00  0.00     0.048 C 
ATOM      2  C   UNL     1     172.234 175.556 182.778  1.00  0.00    -0.009 A 
ATOM      3  C   UNL     1     173.071 174.444 182.976  1.00  0.00     0.118 A 
ATOM      4  C   UNL     1     174.462 174.585 182.866  1.00  0.00     0.050 A 
ATOM      5  C   UNL     1     175.034 175.831 182.558  1.00  0.00    -0.042 A 
ATOM      6  C   UNL     1     174.188 176.938 182.363  1.00  0.00     0.004 A 
ATOM      7  C   UNL     1     172.803 176.801 182.471  1.00  0.00     0.007 A 
ENDROOT
BRANCH   3   8
ATOM      8  O   UNL     1     172.517 173.201 183.282  1.00  0.00    -0.508 OA
ATOM      9  H   UNL     1     172.308 172.933 184.237  1.00  0.00     0.293 HD
ENDBRANCH   3   8
BRANCH   5  10
ATOM     10  C   UNL     1     176.541 175.967 182.443  1.00  0.00     0.013 C 
ATOM     11  C   UNL     1     177.016 175.664 181.017  1.00  0.00     0.012 C 
ATOM     12  C   UNL     1     177.007 177.355 182.897  1.00  0.00     0.012 C 
ENDBRANCH   5  10
TORSDOF 2
ENDMDL
MODEL 5
REMARK VINA RESULT:    -4.206      2.859      3.584
REMARK INTER + INTRA:          -4.676
REMARK INTER:                  -4.550
REMARK INTRA:                  -0.126
REMARK UNBOUND:                -0.100
REMARK SMILES Cc1ccc(C(C)C)cc1O
REMARK SMILES IDX 1 1 2 2 10 3 9 4 5 5 4 6 3 7 11 8 6 10 7 11 8 12
REMARK H PARENT 11 9
REMARK Flexibility Score: inf
ROOT
ATOM      1  C   UNL     1     171.250 177.240 179.330  1.00  0.00     0.048 C 
ATOM      2  C   UNL     1     172.401 177.087 180.284  1.00  0.00    -0.009 A 
ATOM      3  C   UNL     1     172.193 177.196 181.670  1.00  0.00     0.118 A 
ATOM      4  C   UNL     1     173.272 177.053 182.554  1.00  0.00     0.050 A 
ATOM      5  C   UNL     1     174.567 176.799 182.070  1.00  0.00    -0.042 A 
ATOM      6  C   UNL     1     174.765 176.692 180.682  1.00  0.00     0.004 A 
ATOM      7  C   UNL     1     173.693 176.834 179.798  1.00  0.00     0.007 A 
ENDROOT
BRANCH   3   8
ATOM      8  O   UNL     1     170.913 177.448 182.165  1.00  0.00    -0.508 OA
ATOM      9  H   UNL     1     170.149 176.800 182.016  1.00  0.00     0.293 HD
ENDBRANCH   3   8
BRANCH   5  10
ATOM     10  C   UNL     1     175.724 176.647 183.040  1.00  0.00     0.013 C 
ATOM     11  C   UNL     1     176.015 175.169 183.325  1.00  0.00     0.012 C 
ATOM     12  C   UNL     1     176.975 177.366 182.526  1.00  0.00     0.012 C 
ENDBRANCH   5  10
TORSDOF 2
ENDMDL
MODEL 6
REMARK VINA RESULT:    -4.204      2.568      4.121
REMARK INTER + INTRA:          -4.672
REMARK INTER:                  -4.547
REMARK INTRA:                  -0.125
REMARK UNBOUND:                -0.100
REMARK SMILES Cc1ccc(C(C)C)cc1O
REMARK SMILES IDX 1 1 2 2 10 3 9 4 5 5 4 6 3 7 11 8 6 10 7 11 8 12
REMARK H PARENT 11 9
REMARK Flexibility Score: inf
ROOT
ATOM      1  C   UNL     1     177.304 177.931 181.992  1.00  0.00     0.048 C 
ATOM      2  C   UNL     1     176.907 176.497 181.784  1.00  0.00    -0.009 A 
ATOM      3  C   UNL     1     176.944 175.931 180.497  1.00  0.00     0.118 A 
ATOM      4  C   UNL     1     176.573 174.592 180.310  1.00  0.00     0.050 A 
ATOM      5  C   UNL     1     176.162 173.803 181.397  1.00  0.00    -0.042 A 
ATOM      6  C   UNL     1     176.128 174.378 182.680  1.00  0.00     0.004 A 
ATOM      7  C   UNL     1     176.497 175.710 182.871  1.00  0.00     0.007 A 
ENDROOT
BRANCH   3   8
ATOM      8  O   UNL     1     177.350 176.703 179.408  1.00  0.00    -0.508 OA
ATOM      9  H   UNL     1     178.228 177.208 179.412  1.00  0.00     0.293 HD
ENDBRANCH   3   8
BRANCH   5  10
ATOM     10  C   UNL     1     175.763 172.355 181.177  1.00  0.00     0.013 C 
ATOM     11  C   UNL     1     176.768 171.399 181.830  1.00  0.00     0.012 C 
ATOM     12  C   UNL     1     174.341 172.091 181.683  1.00  0.00     0.012 C 
ENDBRANCH   5  10
TORSDOF 2
ENDMDL
MODEL 7
REMARK VINA RESULT:    -4.194      2.451      3.544
REMARK INTER + INTRA:          -4.662
REMARK INTER:                  -4.536
REMARK INTRA:                  -0.127
REMARK UNBOUND:                -0.100
REMARK SMILES Cc1ccc(C(C)C)cc1O
REMARK SMILES IDX 1 1 2 2 10 3 9 4 5 5 4 6 3 7 11 8 6 10 7 11 8 12
REMARK H PARENT 11 9
REMARK Flexibility Score: inf
ROOT
ATOM      1  C   UNL     1     170.636 177.227 181.187  1.00  0.00     0.048 C 
ATOM      2  C   UNL     1     172.133 177.122 181.274  1.00  0.00    -0.009 A 
ATOM      3  C   UNL     1     172.909 177.087 180.102  1.00  0.00     0.118 A 
ATOM      4  C   UNL     1     174.305 176.988 180.191  1.00  0.00     0.050 A 
ATOM      5  C   UNL     1     174.942 176.926 181.441  1.00  0.00    -0.042 A 
ATOM      6  C   UNL     1     174.157 176.962 182.607  1.00  0.00     0.004 A 
ATOM      7  C   UNL     1     172.767 177.060 182.524  1.00  0.00     0.007 A 
ENDROOT
BRANCH   3   8
ATOM      8  O   UNL     1     172.291 177.147 178.854  1.00  0.00    -0.508 OA
ATOM      9  H   UNL     1     172.635 177.755 178.119  1.00  0.00     0.293 HD
ENDBRANCH   3   8
BRANCH   5  10
ATOM     10  C   UNL     1     176.455 176.820 181.518  1.00  0.00     0.013 C 
ATOM     11  C   UNL     1     177.123 177.618 180.393  1.00  0.00     0.012 C 
ATOM     12  C   UNL     1     176.970 177.265 182.892  1.00  0.00     0.012 C 
ENDBRANCH   5  10
TORSDOF 2
ENDMDL
MODEL 8
REMARK VINA RESULT:    -4.084      2.224      2.647
REMARK INTER + INTRA:          -4.542
REMARK INTER:                  -4.416
REMARK INTRA:                  -0.126
REMARK UNBOUND:                -0.100
REMARK SMILES Cc1ccc(C(C)C)cc1O
REMARK SMILES IDX 1 1 2 2 10 3 9 4 5 5 4 6 3 7 11 8 6 10 7 11 8 12
REMARK H PARENT 11 9
REMARK Flexibility Score: inf
ROOT
ATOM      1  C   UNL     1     173.045 177.375 177.748  1.00  0.00     0.048 C 
ATOM      2  C   UNL     1     173.742 177.206 179.069  1.00  0.00    -0.009 A 
ATOM      3  C   UNL     1     173.001 176.929 180.231  1.00  0.00     0.118 A 
ATOM      4  C   UNL     1     173.658 176.773 181.460  1.00  0.00     0.050 A 
ATOM      5  C   UNL     1     175.055 176.890 181.546  1.00  0.00    -0.042 A 
ATOM      6  C   UNL     1     175.788 177.168 180.378  1.00  0.00     0.004 A 
ATOM      7  C   UNL     1     175.138 177.324 179.153  1.00  0.00     0.007 A 
ENDROOT
BRANCH   3   8
ATOM      8  O   UNL     1     171.613 176.810 180.161  1.00  0.00    -0.508 OA
ATOM      9  H   UNL     1     171.080 177.238 179.413  1.00  0.00     0.293 HD
ENDBRANCH   3   8
BRANCH   5  10
ATOM     10  C   UNL     1     175.751 176.719 182.884  1.00  0.00     0.013 C 
ATOM     11  C   UNL     1     175.943 175.236 183.221  1.00  0.00     0.012 C 
ATOM     12  C   UNL     1     177.087 177.468 182.913  1.00  0.00     0.012 C 
ENDBRANCH   5  10
TORSDOF 2
ENDMDL
MODEL 9
REMARK VINA RESULT:    -4.040      3.379      4.398
REMARK INTER + INTRA:          -4.495
REMARK INTER:                  -4.369
REMARK INTRA:                  -0.126
REMARK UNBOUND:                -0.100
REMARK SMILES Cc1ccc(C(C)C)cc1O
REMARK SMILES IDX 1 1 2 2 10 3 9 4 5 5 4 6 3 7 11 8 6 10 7 11 8 12
REMARK H PARENT 11 9
REMARK Flexibility Score: inf
ROOT
ATOM      1  C   UNL     1     176.591 170.914 181.287  1.00  0.00     0.048 C 
ATOM      2  C   UNL     1     176.410 172.348 181.699  1.00  0.00    -0.009 A 
ATOM      3  C   UNL     1     175.133 172.834 182.030  1.00  0.00     0.118 A 
ATOM      4  C   UNL     1     174.972 174.174 182.413  1.00  0.00     0.050 A 
ATOM      5  C   UNL     1     176.076 175.041 182.470  1.00  0.00    -0.042 A 
ATOM      6  C   UNL     1     177.349 174.545 182.136  1.00  0.00     0.004 A 
ATOM      7  C   UNL     1     177.513 173.213 181.755  1.00  0.00     0.007 A 
ENDROOT
BRANCH   3   8
ATOM      8  O   UNL     1     174.028 171.985 181.977  1.00  0.00    -0.508 OA
ATOM      9  H   UNL     1     173.108 172.325 181.723  1.00  0.00     0.293 HD
ENDBRANCH   3   8
BRANCH   5  10
ATOM     10  C   UNL     1     175.883 176.488 182.886  1.00  0.00     0.013 C 
ATOM     11  C   UNL     1     176.963 177.388 182.274  1.00  0.00     0.012 C 
ATOM     12  C   UNL     1     174.480 176.986 182.523  1.00  0.00     0.012 C 
ENDBRANCH   5  10
TORSDOF 2
ENDMDL
