MODEL 1
REMARK VINA RESULT:    -5.000      0.000      0.000
REMARK INTER + INTRA:          -6.784
REMARK INTER:                  -6.461
REMARK INTRA:                  -0.323
REMARK UNBOUND:                -0.323
REMARK SMILES C=CC(=O)CCCCC
REMARK SMILES IDX 6 1 7 2 8 3 9 4 5 5 3 6 4 7 2 8 1 9
REMARK H PARENT
REMARK Flexibility Score: inf
ROOT
ATOM      1  C   UNL     1      82.401   5.606  28.546  1.00  0.00     0.008 C 
ENDROOT
BRANCH   1   2
ATOM      2  C   UNL     1      81.152   5.028  27.859  1.00  0.00     0.000 C 
BRANCH   2   3
ATOM      3  C   UNL     1      80.794   5.767  26.562  1.00  0.00    -0.003 C 
ATOM      4  C   UNL     1      80.149   7.118  26.859  1.00  0.00     0.004 C 
ENDBRANCH   2   3
ENDBRANCH   1   2
BRANCH   1   5
ATOM      5  C   UNL     1      83.617   5.671  27.606  1.00  0.00     0.080 C 
BRANCH   5   6
ATOM      6  C   UNL     1      84.101   4.305  27.173  1.00  0.00     0.155 C 
ATOM      7  O   UNL     1      84.054   3.975  25.957  1.00  0.00    -0.295 OA
BRANCH   6   8
ATOM      8  C   UNL     1      84.622   3.320  28.142  1.00  0.00     0.039 C 
ATOM      9  C   UNL     1      85.920   3.104  28.350  1.00  0.00     0.012 C 
ENDBRANCH   6   8
ENDBRANCH   5   6
ENDBRANCH   1   5
TORSDOF 5
ENDMDL
MODEL 2
REMARK VINA RESULT:    -4.962      1.905      2.697
REMARK INTER + INTRA:          -6.735
REMARK INTER:                  -6.158
REMARK INTRA:                  -0.577
REMARK UNBOUND:                -0.323
REMARK SMILES C=CC(=O)CCCCC
REMARK SMILES IDX 6 1 7 2 8 3 9 4 5 5 3 6 4 7 2 8 1 9
REMARK H PARENT
REMARK Flexibility Score: inf
ROOT
ATOM      1  C   UNL     1      82.989   4.225  25.944  1.00  0.00     0.008 C 
ENDROOT
BRANCH   1   2
ATOM      2  C   UNL     1      82.368   5.624  26.089  1.00  0.00     0.000 C 
BRANCH   2   3
ATOM      3  C   UNL     1      80.835   5.587  26.161  1.00  0.00    -0.003 C 
ATOM      4  C   UNL     1      80.293   6.787  26.932  1.00  0.00     0.004 C 
ENDBRANCH   2   3
ENDBRANCH   1   2
BRANCH   1   5
ATOM      5  C   UNL     1      82.395   3.208  26.932  1.00  0.00     0.080 C 
BRANCH   5   6
ATOM      6  C   UNL     1      82.880   3.410  28.350  1.00  0.00     0.155 C 
ATOM      7  O   UNL     1      84.083   3.176  28.645  1.00  0.00    -0.295 OA
BRANCH   6   8
ATOM      8  C   UNL     1      81.975   3.863  29.426  1.00  0.00     0.039 C 
ATOM      9  C   UNL     1      81.876   5.132  29.821  1.00  0.00     0.012 C 
ENDBRANCH   6   8
ENDBRANCH   5   6
ENDBRANCH   1   5
TORSDOF 5
ENDMDL
MODEL 3
REMARK VINA RESULT:    -4.861      1.095      4.435
REMARK INTER + INTRA:          -6.604
REMARK INTER:                  -6.321
REMARK INTRA:                  -0.283
REMARK UNBOUND:                -0.323
REMARK SMILES C=CC(=O)CCCCC
REMARK SMILES IDX 6 1 7 2 8 3 9 4 5 5 3 6 4 7 2 8 1 9
REMARK H PARENT
REMARK Flexibility Score: inf
ROOT
ATOM      1  C   UNL     1      82.563   4.542  28.589  1.00  0.00     0.008 C 
ENDROOT
BRANCH   1   2
ATOM      2  C   UNL     1      83.527   3.361  28.385  1.00  0.00     0.000 C 
BRANCH   2   3
ATOM      3  C   UNL     1      84.850   3.782  27.730  1.00  0.00    -0.003 C 
ATOM      4  C   UNL     1      86.034   3.067  28.374  1.00  0.00     0.004 C 
ENDBRANCH   2   3
ENDBRANCH   1   2
BRANCH   1   5
ATOM      5  C   UNL     1      82.744   5.643  27.531  1.00  0.00     0.080 C 
BRANCH   5   6
ATOM      6  C   UNL     1      81.856   5.452  26.322  1.00  0.00     0.155 C 
ATOM      7  O   UNL     1      82.304   4.873  25.295  1.00  0.00    -0.295 OA
BRANCH   6   8
ATOM      8  C   UNL     1      80.463   5.942  26.293  1.00  0.00     0.039 C 
ATOM      9  C   UNL     1      80.072   7.088  26.850  1.00  0.00     0.012 C 
ENDBRANCH   6   8
ENDBRANCH   5   6
ENDBRANCH   1   5
TORSDOF 5
ENDMDL
MODEL 4
REMARK VINA RESULT:    -4.784      1.661      3.760
REMARK INTER + INTRA:          -6.505
REMARK INTER:                  -6.079
REMARK INTRA:                  -0.425
REMARK UNBOUND:                -0.323
REMARK SMILES C=CC(=O)CCCCC
REMARK SMILES IDX 6 1 7 2 8 3 9 4 5 5 3 6 4 7 2 8 1 9
REMARK H PARENT
REMARK Flexibility Score: inf
ROOT
ATOM      1  C   UNL     1      83.860   4.270  27.857  1.00  0.00     0.008 C 
ENDROOT
BRANCH   1   2
ATOM      2  C   UNL     1      82.708   3.390  28.368  1.00  0.00     0.000 C 
BRANCH   2   3
ATOM      3  C   UNL     1      81.904   4.060  29.491  1.00  0.00    -0.003 C 
ATOM      4  C   UNL     1      81.140   3.026  30.312  1.00  0.00     0.004 C 
ENDBRANCH   2   3
ENDBRANCH   1   2
BRANCH   1   5
ATOM      5  C   UNL     1      83.366   5.547  27.157  1.00  0.00     0.080 C 
BRANCH   5   6
ATOM      6  C   UNL     1      82.393   5.264  26.033  1.00  0.00     0.155 C 
ATOM      7  O   UNL     1      82.787   4.674  24.991  1.00  0.00    -0.295 OA
BRANCH   6   8
ATOM      8  C   UNL     1      80.977   5.677  26.107  1.00  0.00     0.039 C 
ATOM      9  C   UNL     1      80.531   6.648  26.903  1.00  0.00     0.012 C 
ENDBRANCH   6   8
ENDBRANCH   5   6
ENDBRANCH   1   5
TORSDOF 5
ENDMDL
MODEL 5
REMARK VINA RESULT:    -4.741      1.847      4.334
REMARK INTER + INTRA:          -6.449
REMARK INTER:                  -6.109
REMARK INTRA:                  -0.341
REMARK UNBOUND:                -0.323
REMARK SMILES C=CC(=O)CCCCC
REMARK SMILES IDX 6 1 7 2 8 3 9 4 5 5 3 6 4 7 2 8 1 9
REMARK H PARENT
REMARK Flexibility Score: inf
ROOT
ATOM      1  C   UNL     1      82.932   4.113  26.212  1.00  0.00     0.008 C 
ENDROOT
BRANCH   1   2
ATOM      2  C   UNL     1      84.313   4.274  26.868  1.00  0.00     0.000 C 
BRANCH   2   3
ATOM      3  C   UNL     1      84.507   3.346  28.076  1.00  0.00    -0.003 C 
ATOM      4  C   UNL     1      85.988   3.110  28.355  1.00  0.00     0.004 C 
ENDBRANCH   2   3
ENDBRANCH   1   2
BRANCH   1   5
ATOM      5  C   UNL     1      82.172   5.446  26.098  1.00  0.00     0.080 C 
BRANCH   5   6
ATOM      6  C   UNL     1      81.125   5.622  27.176  1.00  0.00     0.155 C 
ATOM      7  O   UNL     1      80.084   6.293  26.941  1.00  0.00    -0.295 OA
BRANCH   6   8
ATOM      8  C   UNL     1      81.289   5.040  28.523  1.00  0.00     0.039 C 
ATOM      9  C   UNL     1      81.918   5.658  29.523  1.00  0.00     0.012 C 
ENDBRANCH   6   8
ENDBRANCH   5   6
ENDBRANCH   1   5
TORSDOF 5
ENDMDL
MODEL 6
REMARK VINA RESULT:    -4.594      1.947      4.778
REMARK INTER + INTRA:          -6.260
REMARK INTER:                  -6.051
REMARK INTRA:                  -0.208
REMARK UNBOUND:                -0.323
REMARK SMILES C=CC(=O)CCCCC
REMARK SMILES IDX 6 1 7 2 8 3 9 4 5 5 3 6 4 7 2 8 1 9
REMARK H PARENT
REMARK Flexibility Score: inf
ROOT
ATOM      1  C   UNL     1      82.814   3.402  27.523  1.00  0.00     0.008 C 
ENDROOT
BRANCH   1   2
ATOM      2  C   UNL     1      84.274   3.881  27.574  1.00  0.00     0.000 C 
BRANCH   2   3
ATOM      3  C   UNL     1      85.218   2.840  28.190  1.00  0.00    -0.003 C 
ATOM      4  C   UNL     1      86.489   3.497  28.722  1.00  0.00     0.004 C 
ENDBRANCH   2   3
ENDBRANCH   1   2
BRANCH   1   5
ATOM      5  C   UNL     1      82.003   3.839  28.755  1.00  0.00     0.080 C 
BRANCH   5   6
ATOM      6  C   UNL     1      81.778   5.333  28.813  1.00  0.00     0.155 C 
ATOM      7  O   UNL     1      81.794   5.931  29.923  1.00  0.00    -0.295 OA
BRANCH   6   8
ATOM      8  C   UNL     1      81.518   6.130  27.597  1.00  0.00     0.039 C 
ATOM      9  C   UNL     1      80.372   6.089  26.919  1.00  0.00     0.012 C 
ENDBRANCH   6   8
ENDBRANCH   5   6
ENDBRANCH   1   5
TORSDOF 5
ENDMDL
MODEL 7
REMARK VINA RESULT:    -4.565      1.786      3.434
REMARK INTER + INTRA:          -6.222
REMARK INTER:                  -5.727
REMARK INTRA:                  -0.494
REMARK UNBOUND:                -0.323
REMARK SMILES C=CC(=O)CCCCC
REMARK SMILES IDX 6 1 7 2 8 3 9 4 5 5 3 6 4 7 2 8 1 9
REMARK H PARENT
REMARK Flexibility Score: inf
ROOT
ATOM      1  C   UNL     1      82.969   3.429  28.270  1.00  0.00     0.008 C 
ENDROOT
BRANCH   1   2
ATOM      2  C   UNL     1      81.806   3.379  29.274  1.00  0.00     0.000 C 
BRANCH   2   3
ATOM      3  C   UNL     1      81.826   4.552  30.264  1.00  0.00    -0.003 C 
ATOM      4  C   UNL     1      81.887   5.889  29.530  1.00  0.00     0.004 C 
ENDBRANCH   2   3
ENDBRANCH   1   2
BRANCH   1   5
ATOM      5  C   UNL     1      82.506   3.236  26.816  1.00  0.00     0.080 C 
BRANCH   5   6
ATOM      6  C   UNL     1      82.841   4.414  25.929  1.00  0.00     0.155 C 
ATOM      7  O   UNL     1      83.906   4.414  25.255  1.00  0.00    -0.295 OA
BRANCH   6   8
ATOM      8  C   UNL     1      81.957   5.594  25.835  1.00  0.00     0.039 C 
ATOM      9  C   UNL     1      80.657   5.568  26.127  1.00  0.00     0.012 C 
ENDBRANCH   6   8
ENDBRANCH   5   6
ENDBRANCH   1   5
TORSDOF 5
ENDMDL
MODEL 8
REMARK VINA RESULT:    -4.381      2.214      3.483
REMARK INTER + INTRA:          -5.984
REMARK INTER:                  -5.649
REMARK INTRA:                  -0.336
REMARK UNBOUND:                -0.323
REMARK SMILES C=CC(=O)CCCCC
REMARK SMILES IDX 6 1 7 2 8 3 9 4 5 5 3 6 4 7 2 8 1 9
REMARK H PARENT
REMARK Flexibility Score: inf
ROOT
ATOM      1  C   UNL     1      82.293   5.720  28.986  1.00  0.00     0.008 C 
ENDROOT
BRANCH   1   2
ATOM      2  C   UNL     1      81.841   4.787  30.121  1.00  0.00     0.000 C 
BRANCH   2   3
ATOM      3  C   UNL     1      81.601   3.348  29.645  1.00  0.00    -0.003 C 
ATOM      4  C   UNL     1      80.732   2.579  30.636  1.00  0.00     0.004 C 
ENDBRANCH   2   3
ENDBRANCH   1   2
BRANCH   1   5
ATOM      5  C   UNL     1      81.185   5.974  27.951  1.00  0.00     0.080 C 
BRANCH   5   6
ATOM      6  C   UNL     1      81.586   5.577  26.548  1.00  0.00     0.155 C 
ATOM      7  O   UNL     1      80.702   5.341  25.681  1.00  0.00    -0.295 OA
BRANCH   6   8
ATOM      8  C   UNL     1      83.003   5.438  26.153  1.00  0.00     0.039 C 
ATOM      9  C   UNL     1      83.562   4.278  25.809  1.00  0.00     0.012 C 
ENDBRANCH   6   8
ENDBRANCH   5   6
ENDBRANCH   1   5
TORSDOF 5
ENDMDL
MODEL 9
REMARK VINA RESULT:    -4.282      2.722      3.590
REMARK INTER + INTRA:          -5.856
REMARK INTER:                  -5.542
REMARK INTRA:                  -0.314
REMARK UNBOUND:                -0.323
REMARK SMILES C=CC(=O)CCCCC
REMARK SMILES IDX 6 1 7 2 8 3 9 4 5 5 3 6 4 7 2 8 1 9
REMARK H PARENT
REMARK Flexibility Score: inf
ROOT
ATOM      1  C   UNL     1      81.080   5.838  27.206  1.00  0.00     0.008 C 
ENDROOT
BRANCH   1   2
ATOM      2  C   UNL     1      81.556   5.315  25.841  1.00  0.00     0.000 C 
BRANCH   2   3
ATOM      3  C   UNL     1      82.685   4.282  25.962  1.00  0.00    -0.003 C 
ATOM      4  C   UNL     1      83.855   4.638  25.049  1.00  0.00     0.004 C 
ENDBRANCH   2   3
ENDBRANCH   1   2
BRANCH   1   5
ATOM      5  C   UNL     1      82.210   5.883  28.249  1.00  0.00     0.080 C 
BRANCH   5   6
ATOM      6  C   UNL     1      81.916   5.045  29.473  1.00  0.00     0.155 C 
ATOM      7  O   UNL     1      81.741   5.601  30.592  1.00  0.00    -0.295 OA
BRANCH   6   8
ATOM      8  C   UNL     1      81.843   3.571  29.409  1.00  0.00     0.039 C 
ATOM      9  C   UNL     1      81.098   2.833  30.232  1.00  0.00     0.012 C 
ENDBRANCH   6   8
ENDBRANCH   5   6
ENDBRANCH   1   5
TORSDOF 5
ENDMDL
