MODEL 1
REMARK VINA RESULT:    -5.617      0.000      0.000
REMARK INTER + INTRA:          -7.726
REMARK INTER:                  -7.259
REMARK INTRA:                  -0.467
REMARK UNBOUND:                -0.467
REMARK SMILES CCO[C@H]1O[C@@H](CO)[C@@H](O)[C@@H](O)[C@H]1O
REMARK SMILES IDX 4 1 13 2 11 3 9 4 6 5 5 6 3 7 2 8 1 9 14 10 12 12 7 14 8 15
REMARK SMILES IDX 10 17
REMARK H PARENT 14 11 12 13 8 16 10 18
REMARK Flexibility Score: inf
ROOT
ATOM      1  C   UNL     1      -4.997   9.602  22.450  1.00  0.00     0.281 C 
ATOM      2  C   UNL     1      -3.914   9.015  21.528  1.00  0.00     0.202 C 
ATOM      3  C   UNL     1      -3.304   7.741  22.124  1.00  0.00     0.179 C 
ATOM      4  C   UNL     1      -2.833   8.034  23.557  1.00  0.00     0.177 C 
ATOM      5  C   UNL     1      -3.932   8.719  24.408  1.00  0.00     0.178 C 
ATOM      6  O   UNL     1      -4.513   9.851  23.766  1.00  0.00    -0.341 OA
ENDROOT
BRANCH   1   7
ATOM      7  O   UNL     1      -6.141   8.764  22.468  1.00  0.00    -0.350 OA
BRANCH   7   8
ATOM      8  C   UNL     1      -7.304   9.525  22.718  1.00  0.00     0.160 C 
ATOM      9  C   UNL     1      -7.353  10.693  21.745  1.00  0.00     0.035 C 
ENDBRANCH   7   8
ENDBRANCH   1   7
BRANCH   2  10
ATOM     10  O   UNL     1      -4.465   8.750  20.263  1.00  0.00    -0.385 OA
ATOM     11  H   UNL     1      -4.616   7.770  20.215  1.00  0.00     0.211 HD
ENDBRANCH   2  10
BRANCH   3  12
ATOM     12  O   UNL     1      -4.242   6.694  22.097  1.00  0.00    -0.387 OA
ATOM     13  H   UNL     1      -5.108   7.089  21.813  1.00  0.00     0.211 HD
ENDBRANCH   3  12
BRANCH   5  14
ATOM     14  C   UNL     1      -4.990   7.756  24.993  1.00  0.00     0.191 C 
BRANCH  14  15
ATOM     15  O   UNL     1      -4.629   7.353  26.286  1.00  0.00    -0.394 OA
ATOM     16  H   UNL     1      -5.404   6.858  26.657  1.00  0.00     0.210 HD
ENDBRANCH  14  15
ENDBRANCH   5  14
BRANCH   4  17
ATOM     17  O   UNL     1      -2.384   6.860  24.187  1.00  0.00    -0.387 OA
ATOM     18  H   UNL     1      -3.081   6.605  24.848  1.00  0.00     0.211 HD
ENDBRANCH   4  17
TORSDOF 7
ENDMDL
MODEL 2
REMARK VINA RESULT:    -5.541      1.489      4.531
REMARK INTER + INTRA:          -7.628
REMARK INTER:                  -7.145
REMARK INTRA:                  -0.483
REMARK UNBOUND:                -0.467
REMARK SMILES CCO[C@H]1O[C@@H](CO)[C@@H](O)[C@@H](O)[C@H]1O
REMARK SMILES IDX 4 1 13 2 11 3 9 4 6 5 5 6 3 7 2 8 1 9 14 10 12 12 7 14 8 15
REMARK SMILES IDX 10 17
REMARK H PARENT 14 11 12 13 8 16 10 18
REMARK Flexibility Score: inf
ROOT
ATOM      1  C   UNL     1      -4.390   8.619  23.052  1.00  0.00     0.281 C 
ATOM      2  C   UNL     1      -5.538   8.328  24.035  1.00  0.00     0.202 C 
ATOM      3  C   UNL     1      -6.851   8.050  23.293  1.00  0.00     0.179 C 
ATOM      4  C   UNL     1      -7.125   9.200  22.312  1.00  0.00     0.177 C 
ATOM      5  C   UNL     1      -5.898   9.516  21.419  1.00  0.00     0.178 C 
ATOM      6  O   UNL     1      -4.695   9.689  22.162  1.00  0.00    -0.341 OA
ENDROOT
BRANCH   1   7
ATOM      7  O   UNL     1      -4.031   7.443  22.347  1.00  0.00    -0.350 OA
BRANCH   7   8
ATOM      8  C   UNL     1      -2.638   7.416  22.113  1.00  0.00     0.160 C 
ATOM      9  C   UNL     1      -1.909   7.441  23.447  1.00  0.00     0.035 C 
ENDBRANCH   7   8
ENDBRANCH   1   7
BRANCH   2  10
ATOM     10  O   UNL     1      -5.195   7.239  24.852  1.00  0.00    -0.385 OA
ATOM     11  H   UNL     1      -4.633   7.597  25.589  1.00  0.00     0.211 HD
ENDBRANCH   2  10
BRANCH   3  12
ATOM     12  O   UNL     1      -6.779   6.814  22.627  1.00  0.00    -0.387 OA
ATOM     13  H   UNL     1      -5.831   6.681  22.365  1.00  0.00     0.211 HD
ENDBRANCH   3  12
BRANCH   5  14
ATOM     14  C   UNL     1      -5.722   8.573  20.207  1.00  0.00     0.191 C 
BRANCH  14  15
ATOM     15  O   UNL     1      -4.559   8.898  19.495  1.00  0.00    -0.394 OA
ATOM     16  H   UNL     1      -4.702   9.802  19.112  1.00  0.00     0.210 HD
ENDBRANCH  14  15
ENDBRANCH   5  14
BRANCH   4  17
ATOM     17  O   UNL     1      -8.252   8.922  21.518  1.00  0.00    -0.387 OA
ATOM     18  H   UNL     1      -8.976   8.638  22.136  1.00  0.00     0.211 HD
ENDBRANCH   4  17
TORSDOF 7
ENDMDL
MODEL 3
REMARK VINA RESULT:    -5.432      1.479      3.701
REMARK INTER + INTRA:          -7.487
REMARK INTER:                  -7.053
REMARK INTRA:                  -0.434
REMARK UNBOUND:                -0.467
REMARK SMILES CCO[C@H]1O[C@@H](CO)[C@@H](O)[C@@H](O)[C@H]1O
REMARK SMILES IDX 4 1 13 2 11 3 9 4 6 5 5 6 3 7 2 8 1 9 14 10 12 12 7 14 8 15
REMARK SMILES IDX 10 17
REMARK H PARENT 14 11 12 13 8 16 10 18
REMARK Flexibility Score: inf
ROOT
ATOM      1  C   UNL     1      -4.748   7.519  21.649  1.00  0.00     0.281 C 
ATOM      2  C   UNL     1      -5.470   8.517  20.725  1.00  0.00     0.202 C 
ATOM      3  C   UNL     1      -6.011   9.715  21.513  1.00  0.00     0.179 C 
ATOM      4  C   UNL     1      -6.860   9.201  22.686  1.00  0.00     0.177 C 
ATOM      5  C   UNL     1      -6.120   8.124  23.519  1.00  0.00     0.178 C 
ATOM      6  O   UNL     1      -5.574   7.077  22.722  1.00  0.00    -0.341 OA
ENDROOT
BRANCH   1   7
ATOM      7  O   UNL     1      -3.533   8.074  22.124  1.00  0.00    -0.350 OA
BRANCH   7   8
ATOM      8  C   UNL     1      -2.497   7.114  22.062  1.00  0.00     0.160 C 
ATOM      9  C   UNL     1      -1.634   7.233  23.308  1.00  0.00     0.035 C 
ENDBRANCH   7   8
ENDBRANCH   1   7
BRANCH   2  10
ATOM     10  O   UNL     1      -4.590   8.947  19.718  1.00  0.00    -0.385 OA
ATOM     11  H   UNL     1      -3.835   8.302  19.701  1.00  0.00     0.211 HD
ENDBRANCH   2  10
BRANCH   3  12
ATOM     12  O   UNL     1      -4.950  10.521  21.962  1.00  0.00    -0.387 OA
ATOM     13  H   UNL     1      -5.350  11.368  22.292  1.00  0.00     0.211 HD
ENDBRANCH   3  12
BRANCH   5  14
ATOM     14  C   UNL     1      -5.108   8.684  24.545  1.00  0.00     0.191 C 
BRANCH  14  15
ATOM     15  O   UNL     1      -4.441   7.639  25.200  1.00  0.00    -0.394 OA
ATOM     16  H   UNL     1      -4.973   6.817  25.041  1.00  0.00     0.210 HD
ENDBRANCH  14  15
ENDBRANCH   5  14
BRANCH   4  17
ATOM     17  O   UNL     1      -7.270  10.264  23.510  1.00  0.00    -0.387 OA
ATOM     18  H   UNL     1      -8.175  10.534  23.202  1.00  0.00     0.211 HD
ENDBRANCH   4  17
TORSDOF 7
ENDMDL
MODEL 4
REMARK VINA RESULT:    -5.256      1.583      3.815
REMARK INTER + INTRA:          -7.260
REMARK INTER:                  -7.044
REMARK INTRA:                  -0.216
REMARK UNBOUND:                -0.467
REMARK SMILES CCO[C@H]1O[C@@H](CO)[C@@H](O)[C@@H](O)[C@H]1O
REMARK SMILES IDX 4 1 13 2 11 3 9 4 6 5 5 6 3 7 2 8 1 9 14 10 12 12 7 14 8 15
REMARK SMILES IDX 10 17
REMARK H PARENT 14 11 12 13 8 16 10 18
REMARK Flexibility Score: inf
ROOT
ATOM      1  C   UNL     1      -5.583   8.954  23.776  1.00  0.00     0.281 C 
ATOM      2  C   UNL     1      -6.806   8.910  22.843  1.00  0.00     0.202 C 
ATOM      3  C   UNL     1      -6.430   8.373  21.457  1.00  0.00     0.179 C 
ATOM      4  C   UNL     1      -5.240   9.178  20.913  1.00  0.00     0.177 C 
ATOM      5  C   UNL     1      -4.081   9.276  21.936  1.00  0.00     0.178 C 
ATOM      6  O   UNL     1      -4.507   9.708  23.226  1.00  0.00    -0.341 OA
ENDROOT
BRANCH   1   7
ATOM      7  O   UNL     1      -5.175   7.641  24.121  1.00  0.00    -0.350 OA
BRANCH   7   8
ATOM      8  C   UNL     1      -4.804   7.584  25.483  1.00  0.00     0.160 C 
ATOM      9  C   UNL     1      -3.291   7.691  25.592  1.00  0.00     0.035 C 
ENDBRANCH   7   8
ENDBRANCH   1   7
BRANCH   2  10
ATOM     10  O   UNL     1      -7.812   8.118  23.421  1.00  0.00    -0.385 OA
ATOM     11  H   UNL     1      -7.359   7.483  24.037  1.00  0.00     0.211 HD
ENDBRANCH   2  10
BRANCH   3  12
ATOM     12  O   UNL     1      -6.130   7.001  21.532  1.00  0.00    -0.387 OA
ATOM     13  H   UNL     1      -5.148   6.927  21.654  1.00  0.00     0.211 HD
ENDBRANCH   3  12
BRANCH   5  14
ATOM     14  C   UNL     1      -3.165   8.032  21.995  1.00  0.00     0.191 C 
BRANCH  14  15
ATOM     15  O   UNL     1      -1.837   8.384  21.713  1.00  0.00    -0.394 OA
ATOM     16  H   UNL     1      -1.780   9.371  21.797  1.00  0.00     0.210 HD
ENDBRANCH  14  15
ENDBRANCH   5  14
BRANCH   4  17
ATOM     17  O   UNL     1      -4.781   8.635  19.700  1.00  0.00    -0.387 OA
ATOM     18  H   UNL     1      -5.510   8.757  19.036  1.00  0.00     0.211 HD
ENDBRANCH   4  17
TORSDOF 7
ENDMDL
MODEL 5
REMARK VINA RESULT:    -5.212      9.095     10.421
REMARK INTER + INTRA:          -7.203
REMARK INTER:                  -6.721
REMARK INTRA:                  -0.481
REMARK UNBOUND:                -0.467
REMARK SMILES CCO[C@H]1O[C@@H](CO)[C@@H](O)[C@@H](O)[C@H]1O
REMARK SMILES IDX 4 1 13 2 11 3 9 4 6 5 5 6 3 7 2 8 1 9 14 10 12 12 7 14 8 15
REMARK SMILES IDX 10 17
REMARK H PARENT 14 11 12 13 8 16 10 18
REMARK Flexibility Score: inf
ROOT
ATOM      1  C   UNL     1       0.500  15.448  24.766  1.00  0.00     0.281 C 
ATOM      2  C   UNL     1       1.865  16.022  24.345  1.00  0.00     0.202 C 
ATOM      3  C   UNL     1       2.027  17.473  24.811  1.00  0.00     0.179 C 
ATOM      4  C   UNL     1       0.816  18.291  24.335  1.00  0.00     0.177 C 
ATOM      5  C   UNL     1      -0.530  17.611  24.696  1.00  0.00     0.178 C 
ATOM      6  O   UNL     1      -0.589  16.242  24.305  1.00  0.00    -0.341 OA
ENDROOT
BRANCH   1   7
ATOM      7  O   UNL     1       0.450  15.265  26.171  1.00  0.00    -0.350 OA
BRANCH   7   8
ATOM      8  C   UNL     1      -0.034  13.974  26.482  1.00  0.00     0.160 C 
ATOM      9  C   UNL     1      -0.647  13.995  27.873  1.00  0.00     0.035 C 
ENDBRANCH   7   8
ENDBRANCH   1   7
BRANCH   2  10
ATOM     10  O   UNL     1       2.894  15.220  24.867  1.00  0.00    -0.385 OA
ATOM     11  H   UNL     1       3.694  15.803  24.956  1.00  0.00     0.211 HD
ENDBRANCH   2  10
BRANCH   3  12
ATOM     12  O   UNL     1       2.161  17.523  26.210  1.00  0.00    -0.387 OA
ATOM     13  H   UNL     1       1.555  16.830  26.583  1.00  0.00     0.211 HD
ENDBRANCH   3  12
BRANCH   5  14
ATOM     14  C   UNL     1      -0.996  17.838  26.152  1.00  0.00     0.191 C 
BRANCH  14  15
ATOM     15  O   UNL     1      -2.060  16.981  26.468  1.00  0.00    -0.394 OA
ATOM     16  H   UNL     1      -1.780  16.459  27.264  1.00  0.00     0.210 HD
ENDBRANCH  14  15
ENDBRANCH   5  14
BRANCH   4  17
ATOM     17  O   UNL     1       0.861  19.598  24.850  1.00  0.00    -0.387 OA
ATOM     18  H   UNL     1       1.017  19.516  25.828  1.00  0.00     0.211 HD
ENDBRANCH   4  17
TORSDOF 7
ENDMDL
MODEL 6
REMARK VINA RESULT:    -5.146      9.778     10.920
REMARK INTER + INTRA:          -7.117
REMARK INTER:                  -6.707
REMARK INTRA:                  -0.409
REMARK UNBOUND:                -0.467
REMARK SMILES CCO[C@H]1O[C@@H](CO)[C@@H](O)[C@@H](O)[C@H]1O
REMARK SMILES IDX 4 1 13 2 11 3 9 4 6 5 5 6 3 7 2 8 1 9 14 10 12 12 7 14 8 15
REMARK SMILES IDX 10 17
REMARK H PARENT 14 11 12 13 8 16 10 18
REMARK Flexibility Score: inf
ROOT
ATOM      1  C   UNL     1      -1.061  17.976  23.048  1.00  0.00     0.281 C 
ATOM      2  C   UNL     1      -1.238  19.057  24.130  1.00  0.00     0.202 C 
ATOM      3  C   UNL     1      -0.146  18.957  25.201  1.00  0.00     0.179 C 
ATOM      4  C   UNL     1      -0.101  17.518  25.738  1.00  0.00     0.177 C 
ATOM      5  C   UNL     1      -0.028  16.469  24.600  1.00  0.00     0.178 C 
ATOM      6  O   UNL     1      -1.021  16.661  23.596  1.00  0.00    -0.341 OA
ENDROOT
BRANCH   1   7
ATOM      7  O   UNL     1       0.086  18.245  22.260  1.00  0.00    -0.350 OA
BRANCH   7   8
ATOM      8  C   UNL     1      -0.142  17.872  20.917  1.00  0.00     0.160 C 
ATOM      9  C   UNL     1       0.887  18.555  20.029  1.00  0.00     0.035 C 
ENDBRANCH   7   8
ENDBRANCH   1   7
BRANCH   2  10
ATOM     10  O   UNL     1      -1.225  20.328  23.532  1.00  0.00    -0.385 OA
ATOM     11  H   UNL     1      -0.283  20.643  23.546  1.00  0.00     0.211 HD
ENDBRANCH   2  10
BRANCH   3  12
ATOM     12  O   UNL     1       1.095  19.345  24.668  1.00  0.00    -0.387 OA
ATOM     13  H   UNL     1       1.501  19.982  25.312  1.00  0.00     0.211 HD
ENDBRANCH   3  12
BRANCH   5  14
ATOM     14  C   UNL     1       1.385  16.254  24.010  1.00  0.00     0.191 C 
BRANCH  14  15
ATOM     15  O   UNL     1       2.079  15.276  24.735  1.00  0.00    -0.394 OA
ATOM     16  H   UNL     1       3.045  15.426  24.565  1.00  0.00     0.210 HD
ENDBRANCH  14  15
ENDBRANCH   5  14
BRANCH   4  17
ATOM     17  O   UNL     1       0.972  17.351  26.631  1.00  0.00    -0.387 OA
ATOM     18  H   UNL     1       0.782  16.531  27.159  1.00  0.00     0.211 HD
ENDBRANCH   4  17
TORSDOF 7
ENDMDL
MODEL 7
REMARK VINA RESULT:    -5.072      9.439     10.383
REMARK INTER + INTRA:          -7.022
REMARK INTER:                  -6.622
REMARK INTRA:                  -0.400
REMARK UNBOUND:                -0.467
REMARK SMILES CCO[C@H]1O[C@@H](CO)[C@@H](O)[C@@H](O)[C@H]1O
REMARK SMILES IDX 4 1 13 2 11 3 9 4 6 5 5 6 3 7 2 8 1 9 14 10 12 12 7 14 8 15
REMARK SMILES IDX 10 17
REMARK H PARENT 14 11 12 13 8 16 10 18
REMARK Flexibility Score: inf
ROOT
ATOM      1  C   UNL     1      -1.334  18.259  25.586  1.00  0.00     0.281 C 
ATOM      2  C   UNL     1      -0.354  19.361  25.145  1.00  0.00     0.202 C 
ATOM      3  C   UNL     1       0.931  18.764  24.562  1.00  0.00     0.179 C 
ATOM      4  C   UNL     1       1.514  17.754  25.563  1.00  0.00     0.177 C 
ATOM      5  C   UNL     1       0.454  16.732  26.050  1.00  0.00     0.178 C 
ATOM      6  O   UNL     1      -0.747  17.347  26.509  1.00  0.00    -0.341 OA
ENDROOT
BRANCH   1   7
ATOM      7  O   UNL     1      -1.864  17.586  24.456  1.00  0.00    -0.350 OA
BRANCH   7   8
ATOM      8  C   UNL     1      -3.145  17.067  24.749  1.00  0.00     0.160 C 
ATOM      9  C   UNL     1      -3.800  16.601  23.458  1.00  0.00     0.035 C 
ENDBRANCH   7   8
ENDBRANCH   1   7
BRANCH   2  10
ATOM     10  O   UNL     1      -0.978  20.198  24.205  1.00  0.00    -0.385 OA
ATOM     11  H   UNL     1      -0.489  21.063  24.221  1.00  0.00     0.211 HD
ENDBRANCH   2  10
BRANCH   3  12
ATOM     12  O   UNL     1       0.667  18.160  23.320  1.00  0.00    -0.387 OA
ATOM     13  H   UNL     1       1.531  17.810  22.979  1.00  0.00     0.211 HD
ENDBRANCH   3  12
BRANCH   5  14
ATOM     14  C   UNL     1       0.192  15.561  25.077  1.00  0.00     0.191 C 
BRANCH  14  15
ATOM     15  O   UNL     1       1.240  14.631  25.131  1.00  0.00    -0.394 OA
ATOM     16  H   UNL     1       0.827  13.731  25.072  1.00  0.00     0.210 HD
ENDBRANCH  14  15
ENDBRANCH   5  14
BRANCH   4  17
ATOM     17  O   UNL     1       2.623  17.087  25.014  1.00  0.00    -0.387 OA
ATOM     18  H   UNL     1       3.279  17.787  24.755  1.00  0.00     0.211 HD
ENDBRANCH   4  17
TORSDOF 7
ENDMDL
MODEL 8
REMARK VINA RESULT:    -5.058      1.709      3.831
REMARK INTER + INTRA:          -7.003
REMARK INTER:                  -6.507
REMARK INTRA:                  -0.496
REMARK UNBOUND:                -0.467
REMARK SMILES CCO[C@H]1O[C@@H](CO)[C@@H](O)[C@@H](O)[C@H]1O
REMARK SMILES IDX 4 1 13 2 11 3 9 4 6 5 5 6 3 7 2 8 1 9 14 10 12 12 7 14 8 15
REMARK SMILES IDX 10 17
REMARK H PARENT 14 11 12 13 8 16 10 18
REMARK Flexibility Score: inf
ROOT
ATOM      1  C   UNL     1      -4.045   7.742  23.470  1.00  0.00     0.281 C 
ATOM      2  C   UNL     1      -3.562   7.530  22.023  1.00  0.00     0.202 C 
ATOM      3  C   UNL     1      -4.511   8.191  21.017  1.00  0.00     0.179 C 
ATOM      4  C   UNL     1      -5.945   7.711  21.289  1.00  0.00     0.177 C 
ATOM      5  C   UNL     1      -6.338   7.852  22.782  1.00  0.00     0.178 C 
ATOM      6  O   UNL     1      -5.379   7.285  23.669  1.00  0.00    -0.341 OA
ENDROOT
BRANCH   1   7
ATOM      7  O   UNL     1      -3.899   9.100  23.847  1.00  0.00    -0.350 OA
BRANCH   7   8
ATOM      8  C   UNL     1      -3.642   9.200  25.233  1.00  0.00     0.160 C 
ATOM      9  C   UNL     1      -2.447   8.327  25.581  1.00  0.00     0.035 C 
ENDBRANCH   7   8
ENDBRANCH   1   7
BRANCH   2  10
ATOM     10  O   UNL     1      -2.261   8.040  21.881  1.00  0.00    -0.385 OA
ATOM     11  H   UNL     1      -2.334   9.030  21.932  1.00  0.00     0.211 HD
ENDBRANCH   2  10
BRANCH   3  12
ATOM     12  O   UNL     1      -4.414   9.591  21.105  1.00  0.00    -0.387 OA
ATOM     13  H   UNL     1      -4.059   9.912  20.235  1.00  0.00     0.211 HD
ENDBRANCH   3  12
BRANCH   5  14
ATOM     14  C   UNL     1      -6.774   9.274  23.202  1.00  0.00     0.191 C 
BRANCH  14  15
ATOM     15  O   UNL     1      -8.039   9.577  22.679  1.00  0.00    -0.394 OA
ATOM     16  H   UNL     1      -8.672   9.571  23.442  1.00  0.00     0.210 HD
ENDBRANCH  14  15
ENDBRANCH   5  14
BRANCH   4  17
ATOM     17  O   UNL     1      -6.864   8.392  20.472  1.00  0.00    -0.387 OA
ATOM     18  H   UNL     1      -6.687   8.102  19.538  1.00  0.00     0.211 HD
ENDBRANCH   4  17
TORSDOF 7
ENDMDL
MODEL 9
REMARK VINA RESULT:    -4.977      8.724     10.223
REMARK INTER + INTRA:          -6.899
REMARK INTER:                  -6.420
REMARK INTRA:                  -0.479
REMARK UNBOUND:                -0.467
REMARK SMILES CCO[C@H]1O[C@@H](CO)[C@@H](O)[C@@H](O)[C@H]1O
REMARK SMILES IDX 4 1 13 2 11 3 9 4 6 5 5 6 3 7 2 8 1 9 14 10 12 12 7 14 8 15
REMARK SMILES IDX 10 17
REMARK H PARENT 14 11 12 13 8 16 10 18
REMARK Flexibility Score: inf
ROOT
ATOM      1  C   UNL     1       0.368  15.707  24.708  1.00  0.00     0.281 C 
ATOM      2  C   UNL     1       1.314  16.909  24.537  1.00  0.00     0.202 C 
ATOM      3  C   UNL     1       0.580  18.234  24.776  1.00  0.00     0.179 C 
ATOM      4  C   UNL     1      -0.676  18.279  23.892  1.00  0.00     0.177 C 
ATOM      5  C   UNL     1      -1.536  16.996  24.028  1.00  0.00     0.178 C 
ATOM      6  O   UNL     1      -0.782  15.797  23.871  1.00  0.00    -0.341 OA
ENDROOT
BRANCH   1   7
ATOM      7  O   UNL     1       0.007  15.549  26.070  1.00  0.00    -0.350 OA
BRANCH   7   8
ATOM      8  C   UNL     1       0.045  14.184  26.433  1.00  0.00     0.160 C 
ATOM      9  C   UNL     1      -1.327  13.766  26.939  1.00  0.00     0.035 C 
ENDBRANCH   7   8
ENDBRANCH   1   7
BRANCH   2  10
ATOM     10  O   UNL     1       2.400  16.783  25.418  1.00  0.00    -0.385 OA
ATOM     11  H   UNL     1       3.194  16.556  24.865  1.00  0.00     0.211 HD
ENDBRANCH   2  10
BRANCH   3  12
ATOM     12  O   UNL     1       0.253  18.370  26.137  1.00  0.00    -0.387 OA
ATOM     13  H   UNL     1       0.307  19.338  26.352  1.00  0.00     0.211 HD
ENDBRANCH   3  12
BRANCH   5  14
ATOM     14  C   UNL     1      -2.456  16.965  25.270  1.00  0.00     0.191 C 
BRANCH  14  15
ATOM     15  O   UNL     1      -3.676  17.597  24.995  1.00  0.00    -0.394 OA
ATOM     16  H   UNL     1      -3.771  18.333  25.654  1.00  0.00     0.210 HD
ENDBRANCH  14  15
ENDBRANCH   5  14
BRANCH   4  17
ATOM     17  O   UNL     1      -1.447  19.419  24.175  1.00  0.00    -0.387 OA
ATOM     18  H   UNL     1      -0.891  20.006  24.752  1.00  0.00     0.211 HD
ENDBRANCH   4  17
TORSDOF 7
ENDMDL
