MODEL 1
REMARK VINA RESULT:    -2.899      0.000      0.000
REMARK INTER + INTRA:          -3.744
REMARK INTER:                  -3.408
REMARK INTRA:                  -0.336
REMARK UNBOUND:                -0.336
REMARK SMILES C=C(C)[C@H]1CC[C@]2(C(=O)[O-])CC[C@]3(C)[C@@H](CC[C@H]4[C@@]5(C)C[C@H](O)[C@H](O)C(C)(C)[C@H]5CC[C@]43C)[C@H]12
REMARK SMILES IDX 7 1 6 2 34 3 11 4 5 5 15 6 4 7 12 8 16 9 13 10 17 11 32 12
REMARK SMILES IDX 14 13 18 14 31 15 33 16 19 17 30 18 29 19 21 20 20 21 26 22
REMARK SMILES IDX 22 23 24 24 27 25 28 26 8 27 9 28 10 29 2 30 3 31 1 32 23 33
REMARK SMILES IDX 25 35
REMARK H PARENT 23 34 25 36
REMARK Flexibility Score: inf
ROOT
ATOM      1  C   UNL     1      28.052   0.733  26.036  1.00  0.00     0.014 C 
ATOM      2  C   UNL     1      29.185   0.105  26.865  1.00  0.00     0.014 C 
ATOM      3  C   UNL     1      28.419   0.399  24.577  1.00  0.00     0.012 C 
ATOM      4  C   UNL     1      26.706   0.061  26.380  1.00  0.00     0.014 C 
ATOM      5  C   UNL     1      29.667  -1.121  26.105  1.00  0.00     0.009 C 
ATOM      6  C   UNL     1      27.238   0.369  23.524  1.00  0.00     0.000 C 
ATOM      7  C   UNL     1      29.156  -0.969  24.666  1.00  0.00     0.018 C 
ATOM      8  C   UNL     1      25.578   0.691  25.573  1.00  0.00     0.008 C 
ATOM      9  C   UNL     1      27.589   1.205  22.291  1.00  0.00     0.005 C 
ATOM     10  C   UNL     1      25.711   0.532  24.006  1.00  0.00    -0.024 C 
ATOM     11  C   UNL     1      26.485   1.062  21.250  1.00  0.00     0.005 C 
ATOM     12  C   UNL     1      24.918   1.751  23.231  1.00  0.00    -0.024 C 
ATOM     13  C   UNL     1      25.036  -0.857  23.714  1.00  0.00     0.012 C 
ATOM     14  C   UNL     1      25.261   1.914  21.668  1.00  0.00     0.002 C 
ATOM     15  C   UNL     1      23.388   1.565  23.411  1.00  0.00     0.008 C 
ATOM     16  C   UNL     1      25.273   3.133  23.899  1.00  0.00     0.012 C 
ATOM     17  C   UNL     1      24.050   1.915  20.614  1.00  0.00    -0.023 C 
ATOM     18  C   UNL     1      22.551   2.612  22.701  1.00  0.00     0.005 C 
ATOM     19  C   UNL     1      22.807   2.762  21.162  1.00  0.00     0.004 C 
ATOM     20  C   UNL     1      23.628   0.447  20.271  1.00  0.00     0.042 C 
ATOM     21  C   UNL     1      24.585   2.600  19.297  1.00  0.00     0.012 C 
ATOM     22  C   UNL     1      21.467   2.613  20.307  1.00  0.00    -0.003 C 
ATOM     23  C   UNL     1      22.280   0.263  19.537  1.00  0.00     0.144 C 
ATOM     24  C   UNL     1      21.133   1.100  20.145  1.00  0.00     0.149 C 
ATOM     25  C   UNL     1      20.257   3.320  21.003  1.00  0.00     0.014 C 
ATOM     26  C   UNL     1      21.570   3.328  18.927  1.00  0.00     0.014 C 
ENDROOT
BRANCH   1  27
ATOM     27  C   UNL     1      28.017   2.226  26.338  1.00  0.00     0.048 C 
ATOM     28  O   UNL     1      28.261   3.081  25.444  1.00  0.00    -0.550 OA
ATOM     29  O   UNL     1      27.806   2.658  27.646  1.00  0.00    -0.550 OA
ENDBRANCH   1  27
BRANCH   7  30
ATOM     30  C   UNL     1      30.265  -1.092  23.627  1.00  0.00    -0.077 C 
ATOM     31  C   UNL     1      31.718  -1.116  24.036  1.00  0.00     0.039 C 
ATOM     32  C   UNL     1      29.961  -1.125  22.320  1.00  0.00     0.008 C 
ENDBRANCH   7  30
BRANCH  23  33
ATOM     33  O   UNL     1      22.405   0.506  18.159  1.00  0.00    -0.390 OA
ATOM     34  H   UNL     1      22.963  -0.223  17.782  1.00  0.00     0.211 HD
ENDBRANCH  23  33
BRANCH  24  35
ATOM     35  O   UNL     1      19.966   0.943  19.375  1.00  0.00    -0.390 OA
ATOM     36  H   UNL     1      20.253   0.849  18.428  1.00  0.00     0.211 HD
ENDBRANCH  24  35
TORSDOF 4
ENDMDL
MODEL 2
REMARK VINA RESULT:    -2.813      2.937      8.695
REMARK INTER + INTRA:          -3.643
REMARK INTER:                  -3.099
REMARK INTRA:                  -0.543
REMARK UNBOUND:                -0.336
REMARK SMILES C=C(C)[C@H]1CC[C@]2(C(=O)[O-])CC[C@]3(C)[C@@H](CC[C@H]4[C@@]5(C)C[C@H](O)[C@H](O)C(C)(C)[C@H]5CC[C@]43C)[C@H]12
REMARK SMILES IDX 7 1 6 2 34 3 11 4 5 5 15 6 4 7 12 8 16 9 13 10 17 11 32 12
REMARK SMILES IDX 14 13 18 14 31 15 33 16 19 17 30 18 29 19 21 20 20 21 26 22
REMARK SMILES IDX 22 23 24 24 27 25 28 26 8 27 9 28 10 29 2 30 3 31 1 32 23 33
REMARK SMILES IDX 25 35
REMARK H PARENT 23 34 25 36
REMARK Flexibility Score: inf
ROOT
ATOM      1  C   UNL     1      26.680   0.234  22.305  1.00  0.00     0.014 C 
ATOM      2  C   UNL     1      25.920   0.368  20.975  1.00  0.00     0.014 C 
ATOM      3  C   UNL     1      26.472   1.593  23.000  1.00  0.00     0.012 C 
ATOM      4  C   UNL     1      26.044  -0.873  23.171  1.00  0.00     0.014 C 
ATOM      5  C   UNL     1      24.753   1.310  21.221  1.00  0.00     0.009 C 
ATOM      6  C   UNL     1      26.602   1.627  24.576  1.00  0.00     0.000 C 
ATOM      7  C   UNL     1      25.069   2.064  22.520  1.00  0.00     0.018 C 
ATOM      8  C   UNL     1      26.802  -1.021  24.484  1.00  0.00     0.008 C 
ATOM      9  C   UNL     1      27.537   2.755  25.021  1.00  0.00     0.005 C 
ATOM     10  C   UNL     1      26.791   0.261  25.409  1.00  0.00    -0.024 C 
ATOM     11  C   UNL     1      27.549   2.833  26.543  1.00  0.00     0.005 C 
ATOM     12  C   UNL     1      28.116   0.282  26.387  1.00  0.00    -0.024 C 
ATOM     13  C   UNL     1      25.471   0.104  26.247  1.00  0.00     0.012 C 
ATOM     14  C   UNL     1      28.414   1.684  27.117  1.00  0.00     0.002 C 
ATOM     15  C   UNL     1      27.988  -0.841  27.451  1.00  0.00     0.008 C 
ATOM     16  C   UNL     1      29.408  -0.054  25.550  1.00  0.00     0.012 C 
ATOM     17  C   UNL     1      28.576   1.697  28.714  1.00  0.00    -0.023 C 
ATOM     18  C   UNL     1      29.138  -0.890  28.438  1.00  0.00     0.005 C 
ATOM     19  C   UNL     1      29.425   0.437  29.220  1.00  0.00     0.004 C 
ATOM     20  C   UNL     1      27.170   1.746  29.402  1.00  0.00     0.042 C 
ATOM     21  C   UNL     1      29.360   3.015  29.088  1.00  0.00     0.012 C 
ATOM     22  C   UNL     1      29.424   0.222  30.801  1.00  0.00    -0.003 C 
ATOM     23  C   UNL     1      27.123   1.435  30.916  1.00  0.00     0.144 C 
ATOM     24  C   UNL     1      27.952   0.192  31.311  1.00  0.00     0.149 C 
ATOM     25  C   UNL     1      30.117  -1.123  31.201  1.00  0.00     0.014 C 
ATOM     26  C   UNL     1      30.264   1.306  31.541  1.00  0.00     0.014 C 
ENDROOT
BRANCH   1  27
ATOM     27  C   UNL     1      28.136  -0.082  21.988  1.00  0.00     0.048 C 
ATOM     28  O   UNL     1      28.459  -1.125  21.358  1.00  0.00    -0.550 OA
ATOM     29  O   UNL     1      29.143   0.744  22.484  1.00  0.00    -0.550 OA
ENDBRANCH   1  27
BRANCH   7  30
ATOM     30  C   UNL     1      24.994   3.578  22.359  1.00  0.00    -0.077 C 
ATOM     31  C   UNL     1      23.675   4.307  22.445  1.00  0.00     0.039 C 
ATOM     32  C   UNL     1      26.105   4.280  22.082  1.00  0.00     0.008 C 
ENDBRANCH   7  30
BRANCH  23  33
ATOM     33  O   UNL     1      27.493   2.551  31.684  1.00  0.00    -0.390 OA
ATOM     34  H   UNL     1      27.813   2.212  32.559  1.00  0.00     0.211 HD
ENDBRANCH  23  33
BRANCH  24  35
ATOM     35  O   UNL     1      27.927   0.025  32.707  1.00  0.00    -0.390 OA
ATOM     36  H   UNL     1      27.482  -0.846  32.888  1.00  0.00     0.211 HD
ENDBRANCH  24  35
TORSDOF 4
ENDMDL
MODEL 3
REMARK VINA RESULT:    -1.642      3.305      5.787
REMARK INTER + INTRA:          -2.266
REMARK INTER:                  -3.073
REMARK INTRA:                   0.807
REMARK UNBOUND:                -0.336
REMARK SMILES C=C(C)[C@H]1CC[C@]2(C(=O)[O-])CC[C@]3(C)[C@@H](CC[C@H]4[C@@]5(C)C[C@H](O)[C@H](O)C(C)(C)[C@H]5CC[C@]43C)[C@H]12
REMARK SMILES IDX 7 1 6 2 34 3 11 4 5 5 15 6 4 7 12 8 16 9 13 10 17 11 32 12
REMARK SMILES IDX 14 13 18 14 31 15 33 16 19 17 30 18 29 19 21 20 20 21 26 22
REMARK SMILES IDX 22 23 24 24 27 25 28 26 8 27 9 28 10 29 2 30 3 31 1 32 23 33
REMARK SMILES IDX 25 35
REMARK H PARENT 23 34 25 36
REMARK Flexibility Score: inf
ROOT
ATOM      1  C   UNL     1      28.395   0.239  30.235  1.00  0.00     0.014 C 
ATOM      2  C   UNL     1      28.674   0.195  31.747  1.00  0.00     0.014 C 
ATOM      3  C   UNL     1      26.930  -0.223  30.107  1.00  0.00     0.012 C 
ATOM      4  C   UNL     1      28.510   1.687  29.715  1.00  0.00     0.014 C 
ATOM      5  C   UNL     1      27.361   0.493  32.452  1.00  0.00     0.009 C 
ATOM      6  C   UNL     1      26.138   0.237  28.817  1.00  0.00     0.000 C 
ATOM      7  C   UNL     1      26.251   0.272  31.417  1.00  0.00     0.018 C 
ATOM      8  C   UNL     1      28.249   1.734  28.215  1.00  0.00     0.008 C 
ATOM      9  C   UNL     1      25.447  -0.955  28.149  1.00  0.00     0.005 C 
ATOM     10  C   UNL     1      26.804   1.268  27.775  1.00  0.00    -0.024 C 
ATOM     11  C   UNL     1      24.601  -0.462  26.981  1.00  0.00     0.005 C 
ATOM     12  C   UNL     1      26.824   0.698  26.229  1.00  0.00    -0.024 C 
ATOM     13  C   UNL     1      25.942   2.578  27.884  1.00  0.00     0.012 C 
ATOM     14  C   UNL     1      25.518  -0.126  25.779  1.00  0.00     0.002 C 
ATOM     15  C   UNL     1      27.058   1.878  25.249  1.00  0.00     0.008 C 
ATOM     16  C   UNL     1      28.043  -0.281  26.034  1.00  0.00     0.012 C 
ATOM     17  C   UNL     1      24.743   0.333  24.450  1.00  0.00    -0.023 C 
ATOM     18  C   UNL     1      27.054   1.476  23.786  1.00  0.00     0.005 C 
ATOM     19  C   UNL     1      25.772   0.726  23.287  1.00  0.00     0.004 C 
ATOM     20  C   UNL     1      23.770   1.517  24.770  1.00  0.00     0.042 C 
ATOM     21  C   UNL     1      23.885  -0.901  23.967  1.00  0.00     0.012 C 
ATOM     22  C   UNL     1      25.109   1.434  22.020  1.00  0.00    -0.003 C 
ATOM     23  C   UNL     1      23.195   2.293  23.562  1.00  0.00     0.144 C 
ATOM     24  C   UNL     1      24.261   2.649  22.501  1.00  0.00     0.149 C 
ATOM     25  C   UNL     1      26.193   1.949  21.015  1.00  0.00     0.014 C 
ATOM     26  C   UNL     1      24.259   0.441  21.172  1.00  0.00     0.014 C 
ENDROOT
BRANCH   1  27
ATOM     27  C   UNL     1      29.395  -0.678  29.543  1.00  0.00     0.048 C 
ATOM     28  O   UNL     1      29.187  -1.115  28.379  1.00  0.00    -0.550 OA
ATOM     29  O   UNL     1      30.517  -1.122  30.239  1.00  0.00    -0.550 OA
ENDBRANCH   1  27
BRANCH   7  30
ATOM     30  C   UNL     1      25.171  -0.688  31.902  1.00  0.00    -0.077 C 
ATOM     31  C   UNL     1      24.043  -1.116  30.994  1.00  0.00     0.039 C 
ATOM     32  C   UNL     1      25.180  -1.125  33.172  1.00  0.00     0.008 C 
ENDBRANCH   7  30
BRANCH  23  33
ATOM     33  O   UNL     1      22.113   1.613  22.980  1.00  0.00    -0.390 OA
ATOM     34  H   UNL     1      21.283   2.018  23.343  1.00  0.00     0.211 HD
ENDBRANCH  23  33
BRANCH  24  35
ATOM     35  O   UNL     1      23.649   3.276  21.401  1.00  0.00    -0.390 OA
ATOM     36  H   UNL     1      23.140   4.054  21.756  1.00  0.00     0.211 HD
ENDBRANCH  24  35
TORSDOF 4
ENDMDL
MODEL 4
REMARK VINA RESULT:    -1.226      3.378      9.166
REMARK INTER + INTRA:          -1.777
REMARK INTER:                  -1.022
REMARK INTRA:                  -0.755
REMARK UNBOUND:                -0.336
REMARK SMILES C=C(C)[C@H]1CC[C@]2(C(=O)[O-])CC[C@]3(C)[C@@H](CC[C@H]4[C@@]5(C)C[C@H](O)[C@H](O)C(C)(C)[C@H]5CC[C@]43C)[C@H]12
REMARK SMILES IDX 7 1 6 2 34 3 11 4 5 5 15 6 4 7 12 8 16 9 13 10 17 11 32 12
REMARK SMILES IDX 14 13 18 14 31 15 33 16 19 17 30 18 29 19 21 20 20 21 26 22
REMARK SMILES IDX 22 23 24 24 27 25 28 26 8 27 9 28 10 29 2 30 3 31 1 32 23 33
REMARK SMILES IDX 25 35
REMARK H PARENT 23 34 25 36
REMARK Flexibility Score: inf
ROOT
ATOM      1  C   UNL     1      25.904   0.403  23.652  1.00  0.00     0.014 C 
ATOM      2  C   UNL     1      24.993  -0.354  22.672  1.00  0.00     0.014 C 
ATOM      3  C   UNL     1      24.996   0.703  24.860  1.00  0.00     0.012 C 
ATOM      4  C   UNL     1      27.063  -0.506  24.111  1.00  0.00     0.014 C 
ATOM      5  C   UNL     1      23.983  -1.125  23.506  1.00  0.00     0.009 C 
ATOM      6  C   UNL     1      25.703   0.938  26.256  1.00  0.00     0.000 C 
ATOM      7  C   UNL     1      24.002  -0.494  24.905  1.00  0.00     0.018 C 
ATOM      8  C   UNL     1      27.978   0.244  25.071  1.00  0.00     0.008 C 
ATOM      9  C   UNL     1      25.189   2.221  26.915  1.00  0.00     0.005 C 
ATOM     10  C   UNL     1      27.290   0.719  26.413  1.00  0.00    -0.024 C 
ATOM     11  C   UNL     1      25.802   2.358  28.304  1.00  0.00     0.005 C 
ATOM     12  C   UNL     1      28.065   2.037  27.027  1.00  0.00    -0.024 C 
ATOM     13  C   UNL     1      27.441  -0.522  27.367  1.00  0.00     0.012 C 
ATOM     14  C   UNL     1      27.272   2.829  28.181  1.00  0.00     0.002 C 
ATOM     15  C   UNL     1      29.462   1.613  27.553  1.00  0.00     0.008 C 
ATOM     16  C   UNL     1      28.328   3.087  25.882  1.00  0.00     0.012 C 
ATOM     17  C   UNL     1      28.015   3.090  29.580  1.00  0.00    -0.023 C 
ATOM     18  C   UNL     1      30.254   2.744  28.182  1.00  0.00     0.005 C 
ATOM     19  C   UNL     1      29.545   3.505  29.355  1.00  0.00     0.004 C 
ATOM     20  C   UNL     1      27.900   1.828  30.499  1.00  0.00     0.042 C 
ATOM     21  C   UNL     1      27.267   4.288  30.283  1.00  0.00     0.012 C 
ATOM     22  C   UNL     1      30.431   3.535  30.681  1.00  0.00    -0.003 C 
ATOM     23  C   UNL     1      28.826   1.779  31.737  1.00  0.00     0.144 C 
ATOM     24  C   UNL     1      30.286   2.173  31.423  1.00  0.00     0.149 C 
ATOM     25  C   UNL     1      31.945   3.769  30.358  1.00  0.00     0.014 C 
ATOM     26  C   UNL     1      30.061   4.734  31.605  1.00  0.00     0.014 C 
ENDROOT
BRANCH   1  27
ATOM     27  C   UNL     1      26.426   1.648  22.947  1.00  0.00     0.048 C 
ATOM     28  O   UNL     1      25.910   2.781  23.150  1.00  0.00    -0.550 OA
ATOM     29  O   UNL     1      27.429   1.527  21.987  1.00  0.00    -0.550 OA
ENDBRANCH   1  27
BRANCH   7  30
ATOM     30  C   UNL     1      22.617  -0.073  25.384  1.00  0.00    -0.077 C 
ATOM     31  C   UNL     1      21.952   1.172  24.850  1.00  0.00     0.039 C 
ATOM     32  C   UNL     1      21.991  -0.783  26.337  1.00  0.00     0.008 C 
ENDBRANCH   7  30
BRANCH  23  33
ATOM     33  O   UNL     1      28.313   2.547  32.795  1.00  0.00    -0.390 OA
ATOM     34  H   UNL     1      28.816   3.402  32.807  1.00  0.00     0.211 HD
ENDBRANCH  23  33
BRANCH  24  35
ATOM     35  O   UNL     1      31.043   2.185  32.608  1.00  0.00    -0.390 OA
ATOM     36  H   UNL     1      31.178   3.139  32.858  1.00  0.00     0.211 HD
ENDBRANCH  24  35
TORSDOF 4
ENDMDL
MODEL 5
REMARK VINA RESULT:    -0.743      2.215      8.228
REMARK INTER + INTRA:          -1.209
REMARK INTER:                  -1.160
REMARK INTRA:                  -0.049
REMARK UNBOUND:                -0.336
REMARK SMILES C=C(C)[C@H]1CC[C@]2(C(=O)[O-])CC[C@]3(C)[C@@H](CC[C@H]4[C@@]5(C)C[C@H](O)[C@H](O)C(C)(C)[C@H]5CC[C@]43C)[C@H]12
REMARK SMILES IDX 7 1 6 2 34 3 11 4 5 5 15 6 4 7 12 8 16 9 13 10 17 11 32 12
REMARK SMILES IDX 14 13 18 14 31 15 33 16 19 17 30 18 29 19 21 20 20 21 26 22
REMARK SMILES IDX 22 23 24 24 27 25 28 26 8 27 9 28 10 29 2 30 3 31 1 32 23 33
REMARK SMILES IDX 25 35
REMARK H PARENT 23 34 25 36
REMARK Flexibility Score: inf
ROOT
ATOM      1  C   UNL     1      20.482   3.546  19.797  1.00  0.00     0.014 C 
ATOM      2  C   UNL     1      19.314   3.637  18.801  1.00  0.00     0.014 C 
ATOM      3  C   UNL     1      20.726   2.033  19.957  1.00  0.00     0.012 C 
ATOM      4  C   UNL     1      21.746   4.196  19.194  1.00  0.00     0.014 C 
ATOM      5  C   UNL     1      19.421   2.436  17.875  1.00  0.00     0.009 C 
ATOM      6  C   UNL     1      22.168   1.579  20.423  1.00  0.00     0.000 C 
ATOM      7  C   UNL     1      20.343   1.429  18.574  1.00  0.00     0.018 C 
ATOM      8  C   UNL     1      22.903   4.121  20.183  1.00  0.00     0.008 C 
ATOM      9  C   UNL     1      22.076   0.599  21.596  1.00  0.00     0.005 C 
ATOM     10  C   UNL     1      23.355   2.657  20.570  1.00  0.00    -0.024 C 
ATOM     11  C   UNL     1      23.471   0.093  21.945  1.00  0.00     0.005 C 
ATOM     12  C   UNL     1      24.058   2.642  22.060  1.00  0.00    -0.024 C 
ATOM     13  C   UNL     1      24.393   2.281  19.451  1.00  0.00     0.012 C 
ATOM     14  C   UNL     1      24.243   1.188  22.723  1.00  0.00     0.002 C 
ATOM     15  C   UNL     1      25.433   3.359  21.988  1.00  0.00     0.008 C 
ATOM     16  C   UNL     1      23.184   3.473  23.074  1.00  0.00     0.012 C 
ATOM     17  C   UNL     1      25.706   0.754  23.222  1.00  0.00    -0.023 C 
ATOM     18  C   UNL     1      26.193   3.370  23.300  1.00  0.00     0.005 C 
ATOM     19  C   UNL     1      26.452   1.969  23.951  1.00  0.00     0.004 C 
ATOM     20  C   UNL     1      26.550   0.210  22.020  1.00  0.00     0.042 C 
ATOM     21  C   UNL     1      25.510  -0.415  24.263  1.00  0.00     0.012 C 
ATOM     22  C   UNL     1      27.999   1.717  24.254  1.00  0.00    -0.003 C 
ATOM     23  C   UNL     1      28.071   0.058  22.250  1.00  0.00     0.144 C 
ATOM     24  C   UNL     1      28.712   1.284  22.938  1.00  0.00     0.149 C 
ATOM     25  C   UNL     1      28.697   3.008  24.797  1.00  0.00     0.014 C 
ATOM     26  C   UNL     1      28.211   0.674  25.392  1.00  0.00     0.014 C 
ENDROOT
BRANCH   1  27
ATOM     27  C   UNL     1      20.062   4.244  21.083  1.00  0.00     0.048 C 
ATOM     28  O   UNL     1      19.400   5.317  21.062  1.00  0.00    -0.550 OA
ATOM     29  O   UNL     1      20.496   3.745  22.310  1.00  0.00    -0.550 OA
ENDBRANCH   1  27
BRANCH   7  30
ATOM     30  C   UNL     1      19.718   0.045  18.705  1.00  0.00    -0.077 C 
ATOM     31  C   UNL     1      18.254  -0.122  19.032  1.00  0.00     0.039 C 
ATOM     32  C   UNL     1      20.484  -1.052  18.584  1.00  0.00     0.008 C 
ENDBRANCH   7  30
BRANCH  23  33
ATOM     33  O   UNL     1      28.373  -1.125  22.945  1.00  0.00    -0.390 OA
ATOM     34  H   UNL     1      27.762  -1.829  22.604  1.00  0.00     0.211 HD
ENDBRANCH  23  33
BRANCH  24  35
ATOM     35  O   UNL     1      30.074   1.035  23.186  1.00  0.00    -0.390 OA
ATOM     36  H   UNL     1      30.592   1.695  22.652  1.00  0.00     0.211 HD
ENDBRANCH  24  35
TORSDOF 4
ENDMDL
MODEL 6
REMARK VINA RESULT:    -0.590      2.631      8.470
REMARK INTER + INTRA:          -1.029
REMARK INTER:                  -0.780
REMARK INTRA:                  -0.249
REMARK UNBOUND:                -0.336
REMARK SMILES C=C(C)[C@H]1CC[C@]2(C(=O)[O-])CC[C@]3(C)[C@@H](CC[C@H]4[C@@]5(C)C[C@H](O)[C@H](O)C(C)(C)[C@H]5CC[C@]43C)[C@H]12
REMARK SMILES IDX 7 1 6 2 34 3 11 4 5 5 15 6 4 7 12 8 16 9 13 10 17 11 32 12
REMARK SMILES IDX 14 13 18 14 31 15 33 16 19 17 30 18 29 19 21 20 20 21 26 22
REMARK SMILES IDX 22 23 24 24 27 25 28 26 8 27 9 28 10 29 2 30 3 31 1 32 23 33
REMARK SMILES IDX 25 35
REMARK H PARENT 23 34 25 36
REMARK Flexibility Score: inf
ROOT
ATOM      1  C   UNL     1      24.949   0.285  21.772  1.00  0.00     0.014 C 
ATOM      2  C   UNL     1      24.037   0.262  20.534  1.00  0.00     0.014 C 
ATOM      3  C   UNL     1      24.224   1.219  22.760  1.00  0.00     0.012 C 
ATOM      4  C   UNL     1      25.040  -1.125  22.391  1.00  0.00     0.014 C 
ATOM      5  C   UNL     1      22.611   0.449  21.027  1.00  0.00     0.009 C 
ATOM      6  C   UNL     1      24.544   1.032  24.298  1.00  0.00     0.000 C 
ATOM      7  C   UNL     1      22.713   1.016  22.449  1.00  0.00     0.018 C 
ATOM      8  C   UNL     1      25.955  -1.111  23.609  1.00  0.00     0.008 C 
ATOM      9  C   UNL     1      24.887   2.374  24.949  1.00  0.00     0.005 C 
ATOM     10  C   UNL     1      25.470  -0.187  24.797  1.00  0.00    -0.024 C 
ATOM     11  C   UNL     1      25.075   2.177  26.449  1.00  0.00     0.005 C 
ATOM     12  C   UNL     1      26.752   0.309  25.706  1.00  0.00    -0.024 C 
ATOM     13  C   UNL     1      24.514  -1.119  25.626  1.00  0.00     0.012 C 
ATOM     14  C   UNL     1      26.452   1.521  26.720  1.00  0.00     0.002 C 
ATOM     15  C   UNL     1      27.320  -0.901  26.496  1.00  0.00     0.008 C 
ATOM     16  C   UNL     1      27.916   0.805  24.768  1.00  0.00     0.012 C 
ATOM     17  C   UNL     1      26.812   1.329  28.272  1.00  0.00    -0.023 C 
ATOM     18  C   UNL     1      28.484  -0.553  27.404  1.00  0.00     0.005 C 
ATOM     19  C   UNL     1      28.217   0.581  28.452  1.00  0.00     0.004 C 
ATOM     20  C   UNL     1      25.663   0.557  29.004  1.00  0.00     0.042 C 
ATOM     21  C   UNL     1      26.925   2.771  28.902  1.00  0.00     0.012 C 
ATOM     22  C   UNL     1      28.541   0.117  29.944  1.00  0.00    -0.003 C 
ATOM     23  C   UNL     1      25.982   0.001  30.411  1.00  0.00     0.144 C 
ATOM     24  C   UNL     1      27.346  -0.722  30.487  1.00  0.00     0.149 C 
ATOM     25  C   UNL     1      29.835  -0.760  30.007  1.00  0.00     0.014 C 
ATOM     26  C   UNL     1      28.865   1.323  30.876  1.00  0.00     0.014 C 
ENDROOT
BRANCH   1  27
ATOM     27  C   UNL     1      26.320   0.788  21.339  1.00  0.00     0.048 C 
ATOM     28  O   UNL     1      26.510   1.997  21.035  1.00  0.00    -0.550 OA
ATOM     29  O   UNL     1      27.367  -0.118  21.183  1.00  0.00    -0.550 OA
ENDBRANCH   1  27
BRANCH   7  30
ATOM     30  C   UNL     1      21.911   2.298  22.634  1.00  0.00    -0.077 C 
ATOM     31  C   UNL     1      21.607   3.205  21.466  1.00  0.00     0.039 C 
ATOM     32  C   UNL     1      21.508   2.669  23.861  1.00  0.00     0.008 C 
ENDBRANCH   7  30
BRANCH  23  33
ATOM     33  O   UNL     1      25.885   0.998  31.395  1.00  0.00    -0.390 OA
ATOM     34  H   UNL     1      26.800   1.353  31.544  1.00  0.00     0.211 HD
ENDBRANCH  23  33
BRANCH  24  35
ATOM     35  O   UNL     1      27.600  -1.124  31.811  1.00  0.00    -0.390 OA
ATOM     36  H   UNL     1      26.897  -0.712  32.380  1.00  0.00     0.211 HD
ENDBRANCH  24  35
TORSDOF 4
ENDMDL
MODEL 7
REMARK VINA RESULT:    -0.412      2.660      5.327
REMARK INTER + INTRA:          -0.820
REMARK INTER:                  -0.883
REMARK INTRA:                   0.063
REMARK UNBOUND:                -0.336
REMARK SMILES C=C(C)[C@H]1CC[C@]2(C(=O)[O-])CC[C@]3(C)[C@@H](CC[C@H]4[C@@]5(C)C[C@H](O)[C@H](O)C(C)(C)[C@H]5CC[C@]43C)[C@H]12
REMARK SMILES IDX 7 1 6 2 34 3 11 4 5 5 15 6 4 7 12 8 16 9 13 10 17 11 32 12
REMARK SMILES IDX 14 13 18 14 31 15 33 16 19 17 30 18 29 19 21 20 20 21 26 22
REMARK SMILES IDX 22 23 24 24 27 25 28 26 8 27 9 28 10 29 2 30 3 31 1 32 23 33
REMARK SMILES IDX 25 35
REMARK H PARENT 23 34 25 36
REMARK Flexibility Score: inf
ROOT
ATOM      1  C   UNL     1      29.490   1.147  28.941  1.00  0.00     0.014 C 
ATOM      2  C   UNL     1      30.266   1.692  30.152  1.00  0.00     0.014 C 
ATOM      3  C   UNL     1      28.149   1.906  28.976  1.00  0.00     0.012 C 
ATOM      4  C   UNL     1      30.230   1.500  27.633  1.00  0.00     0.014 C 
ATOM      5  C   UNL     1      29.821   3.132  30.355  1.00  0.00     0.009 C 
ATOM      6  C   UNL     1      27.359   2.041  27.612  1.00  0.00     0.000 C 
ATOM      7  C   UNL     1      28.504   3.293  29.584  1.00  0.00     0.018 C 
ATOM      8  C   UNL     1      29.474   0.949  26.431  1.00  0.00     0.008 C 
ATOM      9  C   UNL     1      25.897   1.621  27.787  1.00  0.00     0.005 C 
ATOM     10  C   UNL     1      28.019   1.534  26.233  1.00  0.00    -0.024 C 
ATOM     11  C   UNL     1      25.138   1.872  26.489  1.00  0.00     0.005 C 
ATOM     12  C   UNL     1      27.068   0.462  25.421  1.00  0.00    -0.024 C 
ATOM     13  C   UNL     1      28.254   2.837  25.386  1.00  0.00     0.012 C 
ATOM     14  C   UNL     1      25.490   0.770  25.459  1.00  0.00     0.002 C 
ATOM     15  C   UNL     1      27.543   0.368  23.946  1.00  0.00     0.008 C 
ATOM     16  C   UNL     1      27.243  -0.981  26.030  1.00  0.00     0.012 C 
ATOM     17  C   UNL     1      24.694   0.871  24.068  1.00  0.00    -0.023 C 
ATOM     18  C   UNL     1      26.711  -0.564  23.087  1.00  0.00     0.005 C 
ATOM     19  C   UNL     1      25.173  -0.263  23.044  1.00  0.00     0.004 C 
ATOM     20  C   UNL     1      24.863   2.299  23.450  1.00  0.00     0.042 C 
ATOM     21  C   UNL     1      23.167   0.644  24.393  1.00  0.00     0.012 C 
ATOM     22  C   UNL     1      24.631  -0.090  21.554  1.00  0.00    -0.003 C 
ATOM     23  C   UNL     1      24.445   2.473  21.971  1.00  0.00     0.144 C 
ATOM     24  C   UNL     1      24.968   1.346  21.052  1.00  0.00     0.149 C 
ATOM     25  C   UNL     1      25.284  -1.125  20.578  1.00  0.00     0.014 C 
ATOM     26  C   UNL     1      23.106  -0.391  21.447  1.00  0.00     0.014 C 
ENDROOT
BRANCH   1  27
ATOM     27  C   UNL     1      29.352  -0.360  29.107  1.00  0.00     0.048 C 
ATOM     28  O   UNL     1      30.350  -1.125  29.010  1.00  0.00    -0.550 OA
ATOM     29  O   UNL     1      28.087  -0.921  29.275  1.00  0.00    -0.550 OA
ENDBRANCH   1  27
BRANCH   7  30
ATOM     30  C   UNL     1      27.377   3.848  30.448  1.00  0.00    -0.077 C 
ATOM     31  C   UNL     1      27.666   4.553  31.751  1.00  0.00     0.039 C 
ATOM     32  C   UNL     1      26.098   3.664  30.082  1.00  0.00     0.008 C 
ENDBRANCH   7  30
BRANCH  23  33
ATOM     33  O   UNL     1      23.055   2.624  21.842  1.00  0.00    -0.390 OA
ATOM     34  H   UNL     1      22.735   3.101  22.651  1.00  0.00     0.211 HD
ENDBRANCH  23  33
BRANCH  24  35
ATOM     35  O   UNL     1      24.479   1.529  19.746  1.00  0.00    -0.390 OA
ATOM     36  H   UNL     1      24.123   2.456  19.696  1.00  0.00     0.211 HD
ENDBRANCH  24  35
TORSDOF 4
ENDMDL
