MODEL 1
REMARK VINA RESULT:    -5.144      0.000      0.000
REMARK INTER + INTRA:          -6.518
REMARK INTER:                  -6.197
REMARK INTRA:                  -0.321
REMARK UNBOUND:                -0.321
REMARK SMILES O=c1c(O)c(-c2ccc(O)c(O)c2)oc2cc(O)cc(O)c12
REMARK SMILES IDX 5 1 3 2 2 3 1 4 22 5 20 6 19 7 17 8 16 9 15 10 14 11 6 12
REMARK SMILES IDX 7 13 8 14 9 15 13 16 11 17 10 18 12 20 4 22 21 24 18 26
REMARK H PARENT 10 19 12 21 4 23 21 25 18 27
REMARK Flexibility Score: inf
ROOT
ATOM      1  C   UNL     1     221.147 216.646 224.523  1.00  0.00     0.180 A 
ATOM      2  C   UNL     1     219.749 216.703 224.368  1.00  0.00     0.208 A 
ATOM      3  C   UNL     1     219.112 217.954 224.402  1.00  0.00     0.238 A 
ATOM      4  O   UNL     1     217.859 218.015 224.275  1.00  0.00    -0.285 OA
ATOM      5  C   UNL     1     219.882 219.123 224.569  1.00  0.00     0.111 A 
ATOM      6  C   UNL     1     219.319 220.421 224.611  1.00  0.00     0.134 A 
ATOM      7  C   UNL     1     220.153 221.537 224.771  1.00  0.00     0.093 A 
ATOM      8  C   UNL     1     221.536 221.380 224.890  1.00  0.00     0.123 A 
ATOM      9  C   UNL     1     222.099 220.101 224.850  1.00  0.00     0.094 A 
ATOM     10  C   UNL     1     221.283 218.976 224.693  1.00  0.00     0.146 A 
ATOM     11  O   UNL     1     221.842 217.771 224.663  1.00  0.00    -0.452 OA
ENDROOT
BRANCH   1  12
ATOM     12  C   UNL     1     221.888 215.365 224.516  1.00  0.00     0.025 A 
ATOM     13  C   UNL     1     222.323 214.825 223.298  1.00  0.00     0.016 A 
ATOM     14  C   UNL     1     223.041 213.628 223.271  1.00  0.00     0.051 A 
ATOM     15  C   UNL     1     223.354 212.956 224.458  1.00  0.00     0.157 A 
ATOM     16  C   UNL     1     222.219 214.704 225.712  1.00  0.00     0.062 A 
ATOM     17  C   UNL     1     222.942 213.505 225.696  1.00  0.00     0.158 A 
BRANCH  15  18
ATOM     18  O   UNL     1     224.067 211.759 224.362  1.00  0.00    -0.504 OA
ATOM     19  H   UNL     1     224.640 211.506 223.570  1.00  0.00     0.293 HD
ENDBRANCH  15  18
BRANCH  17  20
ATOM     20  O   UNL     1     223.234 212.902 226.921  1.00  0.00    -0.504 OA
ATOM     21  H   UNL     1     222.575 212.824 227.682  1.00  0.00     0.293 HD
ENDBRANCH  17  20
ENDBRANCH   1  12
BRANCH   2  22
ATOM     22  O   UNL     1     219.014 215.533 224.154  1.00  0.00    -0.502 OA
ATOM     23  H   UNL     1     219.406 214.611 224.305  1.00  0.00     0.293 HD
ENDBRANCH   2  22
BRANCH   6  24
ATOM     24  O   UNL     1     217.941 220.611 224.494  1.00  0.00    -0.507 OA
ATOM     25  H   UNL     1     217.531 221.537 224.463  1.00  0.00     0.293 HD
ENDBRANCH   6  24
BRANCH   8  26
ATOM     26  O   UNL     1     222.343 222.505 225.048  1.00  0.00    -0.508 OA
ATOM     27  H   UNL     1     223.217 222.606 224.544  1.00  0.00     0.293 HD
ENDBRANCH   8  26
TORSDOF 6
ENDMDL
MODEL 2
REMARK VINA RESULT:    -5.138      5.206      7.592
REMARK INTER + INTRA:          -6.511
REMARK INTER:                  -6.190
REMARK INTRA:                  -0.321
REMARK UNBOUND:                -0.321
REMARK SMILES O=c1c(O)c(-c2ccc(O)c(O)c2)oc2cc(O)cc(O)c12
REMARK SMILES IDX 5 1 3 2 2 3 1 4 22 5 20 6 19 7 17 8 16 9 15 10 14 11 6 12
REMARK SMILES IDX 7 13 8 14 9 15 13 16 11 17 10 18 12 20 4 22 21 24 18 26
REMARK H PARENT 10 19 12 21 4 23 21 25 18 27
REMARK Flexibility Score: inf
ROOT
ATOM      1  C   UNL     1     216.660 213.237 224.519  1.00  0.00     0.180 A 
ATOM      2  C   UNL     1     216.716 214.636 224.368  1.00  0.00     0.208 A 
ATOM      3  C   UNL     1     217.965 215.274 224.405  1.00  0.00     0.238 A 
ATOM      4  O   UNL     1     218.026 216.527 224.282  1.00  0.00    -0.285 OA
ATOM      5  C   UNL     1     219.135 214.504 224.571  1.00  0.00     0.111 A 
ATOM      6  C   UNL     1     220.433 215.069 224.616  1.00  0.00     0.134 A 
ATOM      7  C   UNL     1     221.550 214.235 224.776  1.00  0.00     0.093 A 
ATOM      8  C   UNL     1     221.394 212.852 224.890  1.00  0.00     0.123 A 
ATOM      9  C   UNL     1     220.115 212.288 224.847  1.00  0.00     0.094 A 
ATOM     10  C   UNL     1     218.989 213.103 224.691  1.00  0.00     0.146 A 
ATOM     11  O   UNL     1     217.786 212.542 224.658  1.00  0.00    -0.452 OA
ENDROOT
BRANCH   1  12
ATOM     12  C   UNL     1     215.379 212.494 224.509  1.00  0.00     0.025 A 
ATOM     13  C   UNL     1     214.840 212.064 223.288  1.00  0.00     0.016 A 
ATOM     14  C   UNL     1     213.644 211.345 223.258  1.00  0.00     0.051 A 
ATOM     15  C   UNL     1     212.972 211.027 224.444  1.00  0.00     0.157 A 
ATOM     16  C   UNL     1     214.719 212.158 225.703  1.00  0.00     0.062 A 
ATOM     17  C   UNL     1     213.520 211.433 225.683  1.00  0.00     0.158 A 
BRANCH  15  18
ATOM     18  O   UNL     1     211.776 210.312 224.345  1.00  0.00    -0.504 OA
ATOM     19  H   UNL     1     211.179 210.099 225.130  1.00  0.00     0.293 HD
ENDBRANCH  15  18
BRANCH  17  20
ATOM     20  O   UNL     1     212.918 211.135 226.907  1.00  0.00    -0.504 OA
ATOM     21  H   UNL     1     213.343 211.319 227.805  1.00  0.00     0.293 HD
ENDBRANCH  17  20
ENDBRANCH   1  12
BRANCH   2  22
ATOM     22  O   UNL     1     215.545 215.370 224.155  1.00  0.00    -0.502 OA
ATOM     23  H   UNL     1     214.699 215.210 224.689  1.00  0.00     0.293 HD
ENDBRANCH   2  22
BRANCH   6  24
ATOM     24  O   UNL     1     220.621 216.447 224.504  1.00  0.00    -0.507 OA
ATOM     25  H   UNL     1     221.381 216.839 223.959  1.00  0.00     0.293 HD
ENDBRANCH   6  24
BRANCH   8  26
ATOM     26  O   UNL     1     222.520 212.045 225.047  1.00  0.00    -0.508 OA
ATOM     27  H   UNL     1     222.866 211.465 224.291  1.00  0.00     0.293 HD
ENDBRANCH   8  26
TORSDOF 6
ENDMDL
MODEL 3
REMARK VINA RESULT:    -5.138      6.448     10.735
REMARK INTER + INTRA:          -6.511
REMARK INTER:                  -6.190
REMARK INTRA:                  -0.321
REMARK UNBOUND:                -0.321
REMARK SMILES O=c1c(O)c(-c2ccc(O)c(O)c2)oc2cc(O)cc(O)c12
REMARK SMILES IDX 5 1 3 2 2 3 1 4 22 5 20 6 19 7 17 8 16 9 15 10 14 11 6 12
REMARK SMILES IDX 7 13 8 14 9 15 13 16 11 17 10 18 12 20 4 22 21 24 18 26
REMARK H PARENT 10 19 12 21 4 23 21 25 18 27
REMARK Flexibility Score: inf
ROOT
ATOM      1  C   UNL     1     213.256 217.731 224.514  1.00  0.00     0.180 A 
ATOM      2  C   UNL     1     214.654 217.679 224.359  1.00  0.00     0.208 A 
ATOM      3  C   UNL     1     215.294 216.430 224.393  1.00  0.00     0.238 A 
ATOM      4  O   UNL     1     216.548 216.372 224.266  1.00  0.00    -0.285 OA
ATOM      5  C   UNL     1     214.528 215.258 224.559  1.00  0.00     0.111 A 
ATOM      6  C   UNL     1     215.095 213.962 224.601  1.00  0.00     0.134 A 
ATOM      7  C   UNL     1     214.264 212.843 224.761  1.00  0.00     0.093 A 
ATOM      8  C   UNL     1     212.881 212.996 224.880  1.00  0.00     0.123 A 
ATOM      9  C   UNL     1     212.314 214.274 224.840  1.00  0.00     0.094 A 
ATOM     10  C   UNL     1     213.126 215.401 224.683  1.00  0.00     0.146 A 
ATOM     11  O   UNL     1     212.563 216.604 224.654  1.00  0.00    -0.452 OA
ENDROOT
BRANCH   1  12
ATOM     12  C   UNL     1     212.510 219.010 224.508  1.00  0.00     0.025 A 
ATOM     13  C   UNL     1     212.076 219.551 223.289  1.00  0.00     0.016 A 
ATOM     14  C   UNL     1     211.354 220.745 223.264  1.00  0.00     0.051 A 
ATOM     15  C   UNL     1     211.037 221.415 224.451  1.00  0.00     0.157 A 
ATOM     16  C   UNL     1     212.175 219.668 225.704  1.00  0.00     0.062 A 
ATOM     17  C   UNL     1     211.447 220.865 225.688  1.00  0.00     0.158 A 
BRANCH  15  18
ATOM     18  O   UNL     1     210.320 222.609 224.355  1.00  0.00    -0.504 OA
ATOM     19  H   UNL     1     209.361 222.717 224.651  1.00  0.00     0.293 HD
ENDBRANCH  15  18
BRANCH  17  20
ATOM     20  O   UNL     1     211.151 221.464 226.914  1.00  0.00    -0.504 OA
ATOM     21  H   UNL     1     211.849 221.821 227.551  1.00  0.00     0.293 HD
ENDBRANCH  17  20
ENDBRANCH   1  12
BRANCH   2  22
ATOM     22  O   UNL     1     215.385 218.851 224.146  1.00  0.00    -0.502 OA
ATOM     23  H   UNL     1     215.082 219.751 224.498  1.00  0.00     0.293 HD
ENDBRANCH   2  22
BRANCH   6  24
ATOM     24  O   UNL     1     216.474 213.776 224.484  1.00  0.00    -0.507 OA
ATOM     25  H   UNL     1     217.115 214.560 224.431  1.00  0.00     0.293 HD
ENDBRANCH   6  24
BRANCH   8  26
ATOM     26  O   UNL     1     212.077 211.868 225.037  1.00  0.00    -0.508 OA
ATOM     27  H   UNL     1     211.621 211.428 224.246  1.00  0.00     0.293 HD
ENDBRANCH   8  26
TORSDOF 6
ENDMDL
MODEL 4
REMARK VINA RESULT:    -5.135      5.210      7.608
REMARK INTER + INTRA:          -6.507
REMARK INTER:                  -6.185
REMARK INTRA:                  -0.322
REMARK UNBOUND:                -0.321
REMARK SMILES O=c1c(O)c(-c2ccc(O)c(O)c2)oc2cc(O)cc(O)c12
REMARK SMILES IDX 5 1 3 2 2 3 1 4 22 5 20 6 19 7 17 8 16 9 15 10 14 11 6 12
REMARK SMILES IDX 7 13 8 14 9 15 13 16 11 17 10 18 12 20 4 22 21 24 18 26
REMARK H PARENT 10 19 12 21 4 23 21 25 18 27
REMARK Flexibility Score: inf
ROOT
ATOM      1  C   UNL     1     217.729 221.136 224.531  1.00  0.00     0.180 A 
ATOM      2  C   UNL     1     217.679 219.737 224.378  1.00  0.00     0.208 A 
ATOM      3  C   UNL     1     216.432 219.093 224.417  1.00  0.00     0.238 A 
ATOM      4  O   UNL     1     216.377 217.840 224.292  1.00  0.00    -0.285 OA
ATOM      5  C   UNL     1     215.259 219.857 224.587  1.00  0.00     0.111 A 
ATOM      6  C   UNL     1     213.964 219.286 224.634  1.00  0.00     0.134 A 
ATOM      7  C   UNL     1     212.844 220.114 224.797  1.00  0.00     0.093 A 
ATOM      8  C   UNL     1     212.993 221.498 224.914  1.00  0.00     0.123 A 
ATOM      9  C   UNL     1     214.270 222.068 224.869  1.00  0.00     0.094 A 
ATOM     10  C   UNL     1     215.399 221.259 224.708  1.00  0.00     0.146 A 
ATOM     11  O   UNL     1     216.600 221.825 224.674  1.00  0.00    -0.452 OA
ENDROOT
BRANCH   1  12
ATOM     12  C   UNL     1     219.006 221.885 224.519  1.00  0.00     0.025 A 
ATOM     13  C   UNL     1     219.538 222.323 223.298  1.00  0.00     0.016 A 
ATOM     14  C   UNL     1     220.730 223.048 223.267  1.00  0.00     0.051 A 
ATOM     15  C   UNL     1     221.406 223.364 224.452  1.00  0.00     0.157 A 
ATOM     16  C   UNL     1     219.670 222.218 225.712  1.00  0.00     0.062 A 
ATOM     17  C   UNL     1     220.865 222.949 225.691  1.00  0.00     0.158 A 
BRANCH  15  18
ATOM     18  O   UNL     1     222.598 224.084 224.351  1.00  0.00    -0.504 OA
ATOM     19  H   UNL     1     223.457 223.705 223.980  1.00  0.00     0.293 HD
ENDBRANCH  15  18
BRANCH  17  20
ATOM     20  O   UNL     1     221.470 223.243 226.914  1.00  0.00    -0.504 OA
ATOM     21  H   UNL     1     221.543 224.174 227.298  1.00  0.00     0.293 HD
ENDBRANCH  17  20
ENDBRANCH   1  12
BRANCH   2  22
ATOM     22  O   UNL     1     218.853 219.009 224.161  1.00  0.00    -0.502 OA
ATOM     23  H   UNL     1     219.145 218.256 224.773  1.00  0.00     0.293 HD
ENDBRANCH   2  22
BRANCH   6  24
ATOM     24  O   UNL     1     213.782 217.907 224.519  1.00  0.00    -0.507 OA
ATOM     25  H   UNL     1     214.236 217.367 223.791  1.00  0.00     0.293 HD
ENDBRANCH   6  24
BRANCH   8  26
ATOM     26  O   UNL     1     211.864 222.299 225.074  1.00  0.00    -0.508 OA
ATOM     27  H   UNL     1     211.373 222.689 224.277  1.00  0.00     0.293 HD
ENDBRANCH   8  26
TORSDOF 6
ENDMDL
MODEL 5
REMARK VINA RESULT:    -4.713      7.090     10.808
REMARK INTER + INTRA:          -5.998
REMARK INTER:                  -5.721
REMARK INTRA:                  -0.278
REMARK UNBOUND:                -0.321
REMARK SMILES O=c1c(O)c(-c2ccc(O)c(O)c2)oc2cc(O)cc(O)c12
REMARK SMILES IDX 5 1 3 2 2 3 1 4 22 5 20 6 19 7 17 8 16 9 15 10 14 11 6 12
REMARK SMILES IDX 7 13 8 14 9 15 13 16 11 17 10 18 12 20 4 22 21 24 18 26
REMARK H PARENT 10 19 12 21 4 23 21 25 18 27
REMARK Flexibility Score: inf
ROOT
ATOM      1  C   UNL     1     212.536 217.177 225.049  1.00  0.00     0.180 A 
ATOM      2  C   UNL     1     211.430 216.372 225.382  1.00  0.00     0.208 A 
ATOM      3  C   UNL     1     211.549 214.977 225.280  1.00  0.00     0.238 A 
ATOM      4  O   UNL     1     210.561 214.247 225.565  1.00  0.00    -0.285 OA
ATOM      5  C   UNL     1     212.773 214.411 224.868  1.00  0.00     0.111 A 
ATOM      6  C   UNL     1     212.978 213.016 224.742  1.00  0.00     0.134 A 
ATOM      7  C   UNL     1     214.228 212.529 224.334  1.00  0.00     0.093 A 
ATOM      8  C   UNL     1     215.276 213.409 224.051  1.00  0.00     0.123 A 
ATOM      9  C   UNL     1     215.080 214.789 224.173  1.00  0.00     0.094 A 
ATOM     10  C   UNL     1     213.840 215.293 224.576  1.00  0.00     0.146 A 
ATOM     11  O   UNL     1     213.679 216.607 224.678  1.00  0.00    -0.452 OA
ENDROOT
BRANCH   1  12
ATOM     12  C   UNL     1     212.483 218.655 225.114  1.00  0.00     0.025 A 
ATOM     13  C   UNL     1     213.173 219.327 226.132  1.00  0.00     0.016 A 
ATOM     14  C   UNL     1     213.152 220.721 226.199  1.00  0.00     0.051 A 
ATOM     15  C   UNL     1     212.457 221.472 225.244  1.00  0.00     0.157 A 
ATOM     16  C   UNL     1     211.800 219.406 224.141  1.00  0.00     0.062 A 
ATOM     17  C   UNL     1     211.777 220.806 224.198  1.00  0.00     0.158 A 
BRANCH  15  18
ATOM     18  O   UNL     1     212.469 222.862 225.373  1.00  0.00    -0.504 OA
ATOM     19  H   UNL     1     211.713 223.398 225.773  1.00  0.00     0.293 HD
ENDBRANCH  15  18
BRANCH  17  20
ATOM     20  O   UNL     1     211.079 221.487 223.199  1.00  0.00    -0.504 OA
ATOM     21  H   UNL     1     210.911 222.483 223.206  1.00  0.00     0.293 HD
ENDBRANCH  17  20
ENDBRANCH   1  12
BRANCH   2  22
ATOM     22  O   UNL     1     210.243 216.956 225.835  1.00  0.00    -0.502 OA
ATOM     23  H   UNL     1     209.346 216.491 225.761  1.00  0.00     0.293 HD
ENDBRANCH   2  22
BRANCH   6  24
ATOM     24  O   UNL     1     211.951 212.111 225.019  1.00  0.00    -0.507 OA
ATOM     25  H   UNL     1     212.141 211.145 225.255  1.00  0.00     0.293 HD
ENDBRANCH   6  24
BRANCH   8  26
ATOM     26  O   UNL     1     216.509 212.900 223.649  1.00  0.00    -0.508 OA
ATOM     27  H   UNL     1     216.935 212.108 224.117  1.00  0.00     0.293 HD
ENDBRANCH   8  26
TORSDOF 6
ENDMDL
MODEL 6
REMARK VINA RESULT:    -4.711      5.563      8.009
REMARK INTER + INTRA:          -5.996
REMARK INTER:                  -5.724
REMARK INTRA:                  -0.271
REMARK UNBOUND:                -0.321
REMARK SMILES O=c1c(O)c(-c2ccc(O)c(O)c2)oc2cc(O)cc(O)c12
REMARK SMILES IDX 5 1 3 2 2 3 1 4 22 5 20 6 19 7 17 8 16 9 15 10 14 11 6 12
REMARK SMILES IDX 7 13 8 14 9 15 13 16 11 17 10 18 12 20 4 22 21 24 18 26
REMARK H PARENT 10 19 12 21 4 23 21 25 18 27
REMARK Flexibility Score: inf
ROOT
ATOM      1  C   UNL     1     217.209 221.880 225.061  1.00  0.00     0.180 A 
ATOM      2  C   UNL     1     216.420 222.994 225.404  1.00  0.00     0.208 A 
ATOM      3  C   UNL     1     215.024 222.895 225.302  1.00  0.00     0.238 A 
ATOM      4  O   UNL     1     214.308 223.891 225.596  1.00  0.00    -0.285 OA
ATOM      5  C   UNL     1     214.441 221.683 224.880  1.00  0.00     0.111 A 
ATOM      6  C   UNL     1     213.043 221.499 224.754  1.00  0.00     0.134 A 
ATOM      7  C   UNL     1     212.538 220.259 224.336  1.00  0.00     0.093 A 
ATOM      8  C   UNL     1     213.403 219.201 224.044  1.00  0.00     0.123 A 
ATOM      9  C   UNL     1     214.785 219.376 224.166  1.00  0.00     0.094 A 
ATOM     10  C   UNL     1     215.307 220.606 224.579  1.00  0.00     0.146 A 
ATOM     11  O   UNL     1     216.623 220.747 224.682  1.00  0.00    -0.452 OA
ENDROOT
BRANCH   1  12
ATOM     12  C   UNL     1     218.688 221.912 225.125  1.00  0.00     0.025 A 
ATOM     13  C   UNL     1     219.352 221.188 226.126  1.00  0.00     0.016 A 
ATOM     14  C   UNL     1     220.746 221.189 226.192  1.00  0.00     0.051 A 
ATOM     15  C   UNL     1     221.505 221.896 225.253  1.00  0.00     0.157 A 
ATOM     16  C   UNL     1     219.447 222.606 224.168  1.00  0.00     0.062 A 
ATOM     17  C   UNL     1     220.847 222.609 224.223  1.00  0.00     0.158 A 
BRANCH  15  18
ATOM     18  O   UNL     1     222.896 221.863 225.380  1.00  0.00    -0.504 OA
ATOM     19  H   UNL     1     223.453 221.029 225.266  1.00  0.00     0.293 HD
ENDBRANCH  15  18
BRANCH  17  20
ATOM     20  O   UNL     1     221.537 223.322 223.240  1.00  0.00    -0.504 OA
ATOM     21  H   UNL     1     221.582 223.046 222.270  1.00  0.00     0.293 HD
ENDBRANCH  17  20
ENDBRANCH   1  12
BRANCH   2  22
ATOM     22  O   UNL     1     217.021 224.169 225.867  1.00  0.00    -0.502 OA
ATOM     23  H   UNL     1     217.891 224.165 226.387  1.00  0.00     0.293 HD
ENDBRANCH   2  22
BRANCH   6  24
ATOM     24  O   UNL     1     212.153 222.536 225.040  1.00  0.00    -0.507 OA
ATOM     25  H   UNL     1     211.243 222.595 224.598  1.00  0.00     0.293 HD
ENDBRANCH   6  24
BRANCH   8  26
ATOM     26  O   UNL     1     212.876 217.978 223.631  1.00  0.00    -0.508 OA
ATOM     27  H   UNL     1     213.065 217.604 222.708  1.00  0.00     0.293 HD
ENDBRANCH   8  26
TORSDOF 6
ENDMDL
MODEL 7
REMARK VINA RESULT:    -4.710      5.176      7.971
REMARK INTER + INTRA:          -5.995
REMARK INTER:                  -5.728
REMARK INTRA:                  -0.267
REMARK UNBOUND:                -0.321
REMARK SMILES O=c1c(O)c(-c2ccc(O)c(O)c2)oc2cc(O)cc(O)c12
REMARK SMILES IDX 5 1 3 2 2 3 1 4 22 5 20 6 19 7 17 8 16 9 15 10 14 11 6 12
REMARK SMILES IDX 7 13 8 14 9 15 13 16 11 17 10 18 12 20 4 22 21 24 18 26
REMARK H PARENT 10 19 12 21 4 23 21 25 18 27
REMARK Flexibility Score: inf
ROOT
ATOM      1  C   UNL     1     217.187 212.504 225.061  1.00  0.00     0.180 A 
ATOM      2  C   UNL     1     217.977 211.390 225.404  1.00  0.00     0.208 A 
ATOM      3  C   UNL     1     219.373 211.489 225.300  1.00  0.00     0.238 A 
ATOM      4  O   UNL     1     220.090 210.494 225.594  1.00  0.00    -0.285 OA
ATOM      5  C   UNL     1     219.955 212.702 224.877  1.00  0.00     0.111 A 
ATOM      6  C   UNL     1     221.353 212.886 224.749  1.00  0.00     0.134 A 
ATOM      7  C   UNL     1     221.856 214.126 224.329  1.00  0.00     0.093 A 
ATOM      8  C   UNL     1     220.991 215.183 224.037  1.00  0.00     0.123 A 
ATOM      9  C   UNL     1     219.609 215.008 224.161  1.00  0.00     0.094 A 
ATOM     10  C   UNL     1     219.088 213.778 224.576  1.00  0.00     0.146 A 
ATOM     11  O   UNL     1     217.772 213.636 224.680  1.00  0.00    -0.452 OA
ENDROOT
BRANCH   1  12
ATOM     12  C   UNL     1     215.708 212.471 225.127  1.00  0.00     0.025 A 
ATOM     13  C   UNL     1     215.045 213.209 226.118  1.00  0.00     0.016 A 
ATOM     14  C   UNL     1     213.651 213.207 226.185  1.00  0.00     0.051 A 
ATOM     15  C   UNL     1     212.891 212.485 225.257  1.00  0.00     0.157 A 
ATOM     16  C   UNL     1     214.949 211.761 224.181  1.00  0.00     0.062 A 
ATOM     17  C   UNL     1     213.549 211.757 224.238  1.00  0.00     0.158 A 
BRANCH  15  18
ATOM     18  O   UNL     1     211.501 212.518 225.385  1.00  0.00    -0.504 OA
ATOM     19  H   UNL     1     210.926 213.292 225.086  1.00  0.00     0.293 HD
ENDBRANCH  15  18
BRANCH  17  20
ATOM     20  O   UNL     1     212.859 211.030 223.266  1.00  0.00    -0.504 OA
ATOM     21  H   UNL     1     212.100 210.397 223.468  1.00  0.00     0.293 HD
ENDBRANCH  17  20
ENDBRANCH   1  12
BRANCH   2  22
ATOM     22  O   UNL     1     217.377 210.215 225.869  1.00  0.00    -0.502 OA
ATOM     23  H   UNL     1     217.876 209.537 226.431  1.00  0.00     0.293 HD
ENDBRANCH   2  22
BRANCH   6  24
ATOM     24  O   UNL     1     222.244 211.850 225.034  1.00  0.00    -0.507 OA
ATOM     25  H   UNL     1     222.631 211.720 225.962  1.00  0.00     0.293 HD
ENDBRANCH   6  24
BRANCH   8  26
ATOM     26  O   UNL     1     221.516 216.406 223.623  1.00  0.00    -0.508 OA
ATOM     27  H   UNL     1     221.381 217.252 224.165  1.00  0.00     0.293 HD
ENDBRANCH   8  26
TORSDOF 6
ENDMDL
MODEL 8
REMARK VINA RESULT:    -4.710      1.456      3.219
REMARK INTER + INTRA:          -5.995
REMARK INTER:                  -5.719
REMARK INTRA:                  -0.276
REMARK UNBOUND:                -0.321
REMARK SMILES O=c1c(O)c(-c2ccc(O)c(O)c2)oc2cc(O)cc(O)c12
REMARK SMILES IDX 5 1 3 2 2 3 1 4 22 5 20 6 19 7 17 8 16 9 15 10 14 11 6 12
REMARK SMILES IDX 7 13 8 14 9 15 13 16 11 17 10 18 12 20 4 22 21 24 18 26
REMARK H PARENT 10 19 12 21 4 23 21 25 18 27
REMARK Flexibility Score: inf
ROOT
ATOM      1  C   UNL     1     221.893 217.173 225.060  1.00  0.00     0.180 A 
ATOM      2  C   UNL     1     223.006 217.963 225.405  1.00  0.00     0.208 A 
ATOM      3  C   UNL     1     222.905 219.360 225.303  1.00  0.00     0.238 A 
ATOM      4  O   UNL     1     223.900 220.077 225.599  1.00  0.00    -0.285 OA
ATOM      5  C   UNL     1     221.692 219.942 224.881  1.00  0.00     0.111 A 
ATOM      6  C   UNL     1     221.507 221.340 224.755  1.00  0.00     0.134 A 
ATOM      7  C   UNL     1     220.266 221.842 224.337  1.00  0.00     0.093 A 
ATOM      8  C   UNL     1     219.210 220.976 224.043  1.00  0.00     0.123 A 
ATOM      9  C   UNL     1     219.387 219.594 224.164  1.00  0.00     0.094 A 
ATOM     10  C   UNL     1     220.617 219.074 224.578  1.00  0.00     0.146 A 
ATOM     11  O   UNL     1     220.760 217.758 224.680  1.00  0.00    -0.452 OA
ENDROOT
BRANCH   1  12
ATOM     12  C   UNL     1     221.927 215.694 225.123  1.00  0.00     0.025 A 
ATOM     13  C   UNL     1     221.213 215.030 226.130  1.00  0.00     0.016 A 
ATOM     14  C   UNL     1     221.216 213.635 226.195  1.00  0.00     0.051 A 
ATOM     15  C   UNL     1     221.917 212.877 225.250  1.00  0.00     0.157 A 
ATOM     16  C   UNL     1     222.615 214.936 224.160  1.00  0.00     0.062 A 
ATOM     17  C   UNL     1     222.620 213.536 224.215  1.00  0.00     0.158 A 
BRANCH  15  18
ATOM     18  O   UNL     1     221.886 211.487 225.376  1.00  0.00    -0.504 OA
ATOM     19  H   UNL     1     222.554 210.866 224.943  1.00  0.00     0.293 HD
ENDBRANCH  15  18
BRANCH  17  20
ATOM     20  O   UNL     1     223.325 212.848 223.225  1.00  0.00    -0.504 OA
ATOM     21  H   UNL     1     224.035 212.157 223.416  1.00  0.00     0.293 HD
ENDBRANCH  17  20
ENDBRANCH   1  12
BRANCH   2  22
ATOM     22  O   UNL     1     224.181 217.364 225.868  1.00  0.00    -0.502 OA
ATOM     23  H   UNL     1     225.002 217.257 225.285  1.00  0.00     0.293 HD
ENDBRANCH   2  22
BRANCH   6  24
ATOM     24  O   UNL     1     222.542 222.231 225.043  1.00  0.00    -0.507 OA
ATOM     25  H   UNL     1     223.499 222.044 224.767  1.00  0.00     0.293 HD
ENDBRANCH   6  24
BRANCH   8  26
ATOM     26  O   UNL     1     217.987 221.501 223.630  1.00  0.00    -0.508 OA
ATOM     27  H   UNL     1     217.916 222.110 222.822  1.00  0.00     0.293 HD
ENDBRANCH   8  26
TORSDOF 6
ENDMDL
MODEL 9
REMARK VINA RESULT:    -4.564      4.097      6.541
REMARK INTER + INTRA:          -5.819
REMARK INTER:                  -5.514
REMARK INTRA:                  -0.305
REMARK UNBOUND:                -0.321
REMARK SMILES O=c1c(O)c(-c2ccc(O)c(O)c2)oc2cc(O)cc(O)c12
REMARK SMILES IDX 5 1 3 2 2 3 1 4 22 5 20 6 19 7 17 8 16 9 15 10 14 11 6 12
REMARK SMILES IDX 7 13 8 14 9 15 13 16 11 17 10 18 12 20 4 22 21 24 18 26
REMARK H PARENT 10 19 12 21 4 23 21 25 18 27
REMARK Flexibility Score: inf
ROOT
ATOM      1  C   UNL     1     219.144 213.536 224.735  1.00  0.00     0.180 A 
ATOM      2  C   UNL     1     218.393 214.722 224.840  1.00  0.00     0.208 A 
ATOM      3  C   UNL     1     217.011 214.674 224.597  1.00  0.00     0.238 A 
ATOM      4  O   UNL     1     216.331 215.733 224.677  1.00  0.00    -0.285 OA
ATOM      5  C   UNL     1     216.403 213.444 224.274  1.00  0.00     0.111 A 
ATOM      6  C   UNL     1     215.017 213.309 224.018  1.00  0.00     0.134 A 
ATOM      7  C   UNL     1     214.485 212.048 223.712  1.00  0.00     0.093 A 
ATOM      8  C   UNL     1     215.309 210.922 223.658  1.00  0.00     0.123 A 
ATOM      9  C   UNL     1     216.680 211.048 223.909  1.00  0.00     0.094 A 
ATOM     10  C   UNL     1     217.229 212.298 224.214  1.00  0.00     0.146 A 
ATOM     11  O   UNL     1     218.534 212.391 224.444  1.00  0.00    -0.452 OA
ENDROOT
BRANCH   1  12
ATOM     12  C   UNL     1     220.608 213.508 224.959  1.00  0.00     0.025 A 
ATOM     13  C   UNL     1     221.472 213.906 223.929  1.00  0.00     0.016 A 
ATOM     14  C   UNL     1     222.853 213.906 224.126  1.00  0.00     0.051 A 
ATOM     15  C   UNL     1     223.399 213.526 225.358  1.00  0.00     0.157 A 
ATOM     16  C   UNL     1     221.151 213.147 226.204  1.00  0.00     0.062 A 
ATOM     17  C   UNL     1     222.536 213.148 226.413  1.00  0.00     0.158 A 
BRANCH  15  18
ATOM     18  O   UNL     1     224.790 213.540 225.488  1.00  0.00    -0.504 OA
ATOM     19  H   UNL     1     225.361 214.361 225.348  1.00  0.00     0.293 HD
ENDBRANCH  15  18
BRANCH  17  20
ATOM     20  O   UNL     1     223.005 212.776 227.674  1.00  0.00    -0.504 OA
ATOM     21  H   UNL     1     223.882 213.089 228.065  1.00  0.00     0.293 HD
ENDBRANCH  17  20
ENDBRANCH   1  12
BRANCH   2  22
ATOM     22  O   UNL     1     219.013 215.920 225.210  1.00  0.00    -0.502 OA
ATOM     23  H   UNL     1     219.618 216.433 224.581  1.00  0.00     0.293 HD
ENDBRANCH   2  22
BRANCH   6  24
ATOM     24  O   UNL     1     214.166 214.416 224.066  1.00  0.00    -0.507 OA
ATOM     25  H   UNL     1     213.170 214.316 224.218  1.00  0.00     0.293 HD
ENDBRANCH   6  24
BRANCH   8  26
ATOM     26  O   UNL     1     214.756 209.680 223.353  1.00  0.00    -0.508 OA
ATOM     27  H   UNL     1     215.333 208.852 223.255  1.00  0.00     0.293 HD
ENDBRANCH   8  26
TORSDOF 6
ENDMDL
