MODEL 1
REMARK VINA RESULT:    -6.342      0.000      0.000
REMARK INTER + INTRA:          -7.980
REMARK INTER:                  -7.640
REMARK INTRA:                  -0.340
REMARK UNBOUND:                -0.340
REMARK SMILES O=c1ccn([C@@H]2O[C@H](CO)[C@H](O)[C@@H]2O)c(=O)[nH]1
REMARK SMILES IDX 6 1 13 2 11 3 8 4 7 5 5 6 3 7 4 8 2 9 17 10 1 11 15 12 16 14
REMARK SMILES IDX 14 15 12 17 9 19 10 20
REMARK H PARENT 17 13 14 16 12 18 10 21
REMARK Flexibility Score: inf
ROOT
ATOM      1  C   UNL     1       8.825 -23.034  35.604  1.00  0.00     0.255 C 
ATOM      2  C   UNL     1       7.400 -22.839  36.151  1.00  0.00     0.196 C 
ATOM      3  C   UNL     1       7.544 -21.669  37.099  1.00  0.00     0.179 C 
ATOM      4  C   UNL     1       8.753 -20.949  36.510  1.00  0.00     0.178 C 
ATOM      5  O   UNL     1       9.617 -21.916  35.962  1.00  0.00    -0.347 OA
ENDROOT
BRANCH   1   6
ATOM      6  N   UNL     1       9.444 -24.283  36.101  1.00  0.00    -0.271 N 
ATOM      7  C   UNL     1      10.931 -25.401  37.617  1.00  0.00     0.090 A 
ATOM      8  C   UNL     1      10.360 -24.234  37.118  1.00  0.00     0.099 A 
ATOM      9  C   UNL     1      10.542 -26.620  37.073  1.00  0.00     0.253 A 
ATOM     10  N   UNL     1       9.618 -26.651  36.079  1.00  0.00    -0.274 N 
ATOM     11  O   UNL     1      11.043 -27.692  37.507  1.00  0.00    -0.269 OA
ATOM     12  C   UNL     1       9.063 -25.504  35.597  1.00  0.00     0.330 A 
ATOM     13  H   UNL     1       9.324 -27.572  35.681  1.00  0.00     0.175 HD
ATOM     14  O   UNL     1       8.192 -25.579  34.686  1.00  0.00    -0.248 OA
ENDBRANCH   1   6
BRANCH   2  15
ATOM     15  O   UNL     1       6.906 -23.989  36.791  1.00  0.00    -0.386 OA
ATOM     16  H   UNL     1       7.526 -24.181  37.543  1.00  0.00     0.211 HD
ENDBRANCH   2  15
BRANCH   3  17
ATOM     17  O   UNL     1       7.810 -22.114  38.407  1.00  0.00    -0.387 OA
ATOM     18  H   UNL     1       8.676 -22.597  38.373  1.00  0.00     0.211 HD
ENDBRANCH   3  17
BRANCH   4  19
ATOM     19  C   UNL     1       9.515 -20.080  37.524  1.00  0.00     0.191 C 
BRANCH  19  20
ATOM     20  O   UNL     1      10.329 -20.872  38.346  1.00  0.00    -0.394 OA
ATOM     21  H   UNL     1      11.263 -20.736  38.036  1.00  0.00     0.210 HD
ENDBRANCH  19  20
ENDBRANCH   4  19
TORSDOF 5
ENDMDL
MODEL 2
REMARK VINA RESULT:    -6.314      2.369      2.958
REMARK INTER + INTRA:          -7.947
REMARK INTER:                  -7.513
REMARK INTRA:                  -0.433
REMARK UNBOUND:                -0.340
REMARK SMILES O=c1ccn([C@@H]2O[C@H](CO)[C@H](O)[C@@H]2O)c(=O)[nH]1
REMARK SMILES IDX 6 1 13 2 11 3 8 4 7 5 5 6 3 7 4 8 2 9 17 10 1 11 15 12 16 14
REMARK SMILES IDX 14 15 12 17 9 19 10 20
REMARK H PARENT 17 13 14 16 12 18 10 21
REMARK Flexibility Score: inf
ROOT
ATOM      1  C   UNL     1       7.740 -24.370  35.214  1.00  0.00     0.255 C 
ATOM      2  C   UNL     1       7.506 -23.068  35.999  1.00  0.00     0.196 C 
ATOM      3  C   UNL     1       8.886 -22.454  36.081  1.00  0.00     0.179 C 
ATOM      4  C   UNL     1       9.559 -23.053  34.850  1.00  0.00     0.178 C 
ATOM      5  O   UNL     1       9.039 -24.347  34.651  1.00  0.00    -0.347 OA
ENDROOT
BRANCH   1   6
ATOM      6  N   UNL     1       7.569 -25.569  36.064  1.00  0.00    -0.271 N 
ATOM      7  C   UNL     1       8.496 -27.201  37.560  1.00  0.00     0.090 A 
ATOM      8  C   UNL     1       8.644 -26.092  36.733  1.00  0.00     0.099 A 
ATOM      9  C   UNL     1       7.232 -27.761  37.705  1.00  0.00     0.253 A 
ATOM     10  N   UNL     1       6.174 -27.218  37.050  1.00  0.00    -0.274 N 
ATOM     11  O   UNL     1       7.070 -28.766  38.448  1.00  0.00    -0.269 OA
ATOM     12  C   UNL     1       6.327 -26.131  36.243  1.00  0.00     0.330 A 
ATOM     13  H   UNL     1       5.225 -27.639  37.171  1.00  0.00     0.175 HD
ATOM     14  O   UNL     1       5.313 -25.645  35.669  1.00  0.00    -0.248 OA
ENDBRANCH   1   6
BRANCH   2  15
ATOM     15  O   UNL     1       6.945 -23.296  37.267  1.00  0.00    -0.386 OA
ATOM     16  H   UNL     1       6.153 -22.701  37.336  1.00  0.00     0.211 HD
ENDBRANCH   2  15
BRANCH   3  17
ATOM     17  O   UNL     1       9.542 -22.855  37.260  1.00  0.00    -0.387 OA
ATOM     18  H   UNL     1      10.318 -22.247  37.375  1.00  0.00     0.211 HD
ENDBRANCH   3  17
BRANCH   4  19
ATOM     19  C   UNL     1      11.091 -23.113  34.946  1.00  0.00     0.191 C 
BRANCH  19  20
ATOM     20  O   UNL     1      11.505 -24.269  35.622  1.00  0.00    -0.394 OA
ATOM     21  H   UNL     1      10.992 -24.299  36.472  1.00  0.00     0.210 HD
ENDBRANCH  19  20
ENDBRANCH   4  19
TORSDOF 5
ENDMDL
MODEL 3
REMARK VINA RESULT:    -6.087      2.188      4.551
REMARK INTER + INTRA:          -7.673
REMARK INTER:                  -7.220
REMARK INTRA:                  -0.453
REMARK UNBOUND:                -0.340
REMARK SMILES O=c1ccn([C@@H]2O[C@H](CO)[C@H](O)[C@@H]2O)c(=O)[nH]1
REMARK SMILES IDX 6 1 13 2 11 3 8 4 7 5 5 6 3 7 4 8 2 9 17 10 1 11 15 12 16 14
REMARK SMILES IDX 14 15 12 17 9 19 10 20
REMARK H PARENT 17 13 14 16 12 18 10 21
REMARK Flexibility Score: inf
ROOT
ATOM      1  C   UNL     1       8.498 -24.386  34.828  1.00  0.00     0.255 C 
ATOM      2  C   UNL     1       7.968 -25.759  35.274  1.00  0.00     0.196 C 
ATOM      3  C   UNL     1       6.546 -25.772  34.759  1.00  0.00     0.179 C 
ATOM      4  C   UNL     1       6.641 -24.803  33.584  1.00  0.00     0.178 C 
ATOM      5  O   UNL     1       7.590 -23.814  33.905  1.00  0.00    -0.347 OA
ENDROOT
BRANCH   1   6
ATOM      6  N   UNL     1       8.709 -23.473  35.974  1.00  0.00    -0.271 N 
ATOM      7  C   UNL     1       7.880 -21.773  37.452  1.00  0.00     0.090 A 
ATOM      8  C   UNL     1       7.711 -22.617  36.359  1.00  0.00     0.099 A 
ATOM      9  C   UNL     1       9.078 -21.825  38.156  1.00  0.00     0.253 A 
ATOM     10  N   UNL     1      10.049 -22.693  37.773  1.00  0.00    -0.274 N 
ATOM     11  O   UNL     1       9.258 -21.071  39.150  1.00  0.00    -0.269 OA
ATOM     12  C   UNL     1       9.874 -23.518  36.702  1.00  0.00     0.330 A 
ATOM     13  H   UNL     1      10.944 -22.733  38.312  1.00  0.00     0.175 HD
ATOM     14  O   UNL     1      10.794 -24.325  36.392  1.00  0.00    -0.248 OA
ENDBRANCH   1   6
BRANCH   2  15
ATOM     15  O   UNL     1       8.034 -25.937  36.667  1.00  0.00    -0.386 OA
ATOM     16  H   UNL     1       8.928 -25.609  36.950  1.00  0.00     0.211 HD
ENDBRANCH   2  15
BRANCH   3  17
ATOM     17  O   UNL     1       5.655 -25.292  35.736  1.00  0.00    -0.387 OA
ATOM     18  H   UNL     1       5.822 -24.317  35.820  1.00  0.00     0.211 HD
ENDBRANCH   3  17
BRANCH   4  19
ATOM     19  C   UNL     1       5.303 -24.145  33.210  1.00  0.00     0.191 C 
BRANCH  19  20
ATOM     20  O   UNL     1       5.064 -23.015  34.004  1.00  0.00    -0.394 OA
ATOM     21  H   UNL     1       4.117 -23.070  34.298  1.00  0.00     0.210 HD
ENDBRANCH  19  20
ENDBRANCH   4  19
TORSDOF 5
ENDMDL
MODEL 4
REMARK VINA RESULT:    -6.078      1.940      5.049
REMARK INTER + INTRA:          -7.662
REMARK INTER:                  -7.541
REMARK INTRA:                  -0.120
REMARK UNBOUND:                -0.340
REMARK SMILES O=c1ccn([C@@H]2O[C@H](CO)[C@H](O)[C@@H]2O)c(=O)[nH]1
REMARK SMILES IDX 6 1 13 2 11 3 8 4 7 5 5 6 3 7 4 8 2 9 17 10 1 11 15 12 16 14
REMARK SMILES IDX 14 15 12 17 9 19 10 20
REMARK H PARENT 17 13 14 16 12 18 10 21
REMARK Flexibility Score: inf
ROOT
ATOM      1  C   UNL     1       9.804 -25.012  37.945  1.00  0.00     0.255 C 
ATOM      2  C   UNL     1       8.648 -25.929  37.512  1.00  0.00     0.196 C 
ATOM      3  C   UNL     1       9.323 -27.262  37.281  1.00  0.00     0.179 C 
ATOM      4  C   UNL     1      10.537 -27.150  38.199  1.00  0.00     0.178 C 
ATOM      5  O   UNL     1      10.945 -25.802  38.226  1.00  0.00    -0.347 OA
ENDROOT
BRANCH   1   6
ATOM      6  N   UNL     1      10.123 -23.996  36.918  1.00  0.00    -0.271 N 
ATOM      7  C   UNL     1      11.309 -23.355  34.932  1.00  0.00     0.090 A 
ATOM      8  C   UNL     1      11.019 -24.287  35.924  1.00  0.00     0.099 A 
ATOM      9  C   UNL     1      10.659 -22.126  34.961  1.00  0.00     0.253 A 
ATOM     10  N   UNL     1       9.759 -21.862  35.942  1.00  0.00    -0.274 N 
ATOM     11  O   UNL     1      10.903 -21.263  34.075  1.00  0.00    -0.269 OA
ATOM     12  C   UNL     1       9.480 -22.780  36.909  1.00  0.00     0.330 A 
ATOM     13  H   UNL     1       9.268 -20.939  35.953  1.00  0.00     0.175 HD
ATOM     14  O   UNL     1       8.621 -22.502  37.790  1.00  0.00    -0.248 OA
ENDBRANCH   1   6
BRANCH   2  15
ATOM     15  O   UNL     1       7.987 -25.458  36.364  1.00  0.00    -0.386 OA
ATOM     16  H   UNL     1       8.612 -24.828  35.918  1.00  0.00     0.211 HD
ENDBRANCH   2  15
BRANCH   3  17
ATOM     17  O   UNL     1       9.719 -27.397  35.937  1.00  0.00    -0.387 OA
ATOM     18  H   UNL     1       9.011 -27.922  35.483  1.00  0.00     0.211 HD
ENDBRANCH   3  17
BRANCH   4  19
ATOM     19  C   UNL     1      11.715 -28.046  37.785  1.00  0.00     0.191 C 
BRANCH  19  20
ATOM     20  O   UNL     1      12.788 -27.901  38.675  1.00  0.00    -0.394 OA
ATOM     21  H   UNL     1      12.774 -28.698  39.268  1.00  0.00     0.210 HD
ENDBRANCH  19  20
ENDBRANCH   4  19
TORSDOF 5
ENDMDL
MODEL 5
REMARK VINA RESULT:    -6.057      2.025      2.118
REMARK INTER + INTRA:          -7.637
REMARK INTER:                  -7.261
REMARK INTRA:                  -0.376
REMARK UNBOUND:                -0.340
REMARK SMILES O=c1ccn([C@@H]2O[C@H](CO)[C@H](O)[C@@H]2O)c(=O)[nH]1
REMARK SMILES IDX 6 1 13 2 11 3 8 4 7 5 5 6 3 7 4 8 2 9 17 10 1 11 15 12 16 14
REMARK SMILES IDX 14 15 12 17 9 19 10 20
REMARK H PARENT 17 13 14 16 12 18 10 21
REMARK Flexibility Score: inf
ROOT
ATOM      1  C   UNL     1       8.484 -22.567  35.278  1.00  0.00     0.255 C 
ATOM      2  C   UNL     1       7.201 -21.734  35.118  1.00  0.00     0.196 C 
ATOM      3  C   UNL     1       7.152 -20.914  36.387  1.00  0.00     0.179 C 
ATOM      4  C   UNL     1       8.629 -20.853  36.766  1.00  0.00     0.178 C 
ATOM      5  O   UNL     1       9.237 -22.058  36.364  1.00  0.00    -0.347 OA
ENDROOT
BRANCH   1   6
ATOM      6  N   UNL     1       8.193 -24.003  35.483  1.00  0.00    -0.271 N 
ATOM      7  C   UNL     1       7.918 -25.874  36.962  1.00  0.00     0.090 A 
ATOM      8  C   UNL     1       8.219 -24.532  36.747  1.00  0.00     0.099 A 
ATOM      9  C   UNL     1       7.576 -26.665  35.871  1.00  0.00     0.253 A 
ATOM     10  N   UNL     1       7.536 -26.119  34.629  1.00  0.00    -0.274 N 
ATOM     11  O   UNL     1       7.300 -27.883  36.038  1.00  0.00    -0.269 OA
ATOM     12  C   UNL     1       7.830 -24.804  34.426  1.00  0.00     0.330 A 
ATOM     13  H   UNL     1       7.270 -26.717  33.814  1.00  0.00     0.175 HD
ATOM     14  O   UNL     1       7.760 -24.332  33.258  1.00  0.00    -0.248 OA
ENDBRANCH   1   6
BRANCH   2  15
ATOM     15  O   UNL     1       6.057 -22.533  34.951  1.00  0.00    -0.386 OA
ATOM     16  H   UNL     1       5.468 -22.347  35.729  1.00  0.00     0.211 HD
ENDBRANCH   2  15
BRANCH   3  17
ATOM     17  O   UNL     1       6.405 -21.575  37.381  1.00  0.00    -0.387 OA
ATOM     18  H   UNL     1       6.693 -21.197  38.252  1.00  0.00     0.211 HD
ENDBRANCH   3  17
BRANCH   4  19
ATOM     19  C   UNL     1       8.878 -20.613  38.263  1.00  0.00     0.191 C 
BRANCH  19  20
ATOM     20  O   UNL     1       8.619 -21.774  39.004  1.00  0.00    -0.394 OA
ATOM     21  H   UNL     1       7.749 -22.128  38.681  1.00  0.00     0.210 HD
ENDBRANCH  19  20
ENDBRANCH   4  19
TORSDOF 5
ENDMDL
MODEL 6
REMARK VINA RESULT:    -6.012      2.061      4.861
REMARK INTER + INTRA:          -7.582
REMARK INTER:                  -7.132
REMARK INTRA:                  -0.450
REMARK UNBOUND:                -0.340
REMARK SMILES O=c1ccn([C@@H]2O[C@H](CO)[C@H](O)[C@@H]2O)c(=O)[nH]1
REMARK SMILES IDX 6 1 13 2 11 3 8 4 7 5 5 6 3 7 4 8 2 9 17 10 1 11 15 12 16 14
REMARK SMILES IDX 14 15 12 17 9 19 10 20
REMARK H PARENT 17 13 14 16 12 18 10 21
REMARK Flexibility Score: inf
ROOT
ATOM      1  C   UNL     1      10.107 -24.070  36.148  1.00  0.00     0.255 C 
ATOM      2  C   UNL     1       9.702 -24.024  37.631  1.00  0.00     0.196 C 
ATOM      3  C   UNL     1       9.929 -25.443  38.102  1.00  0.00     0.179 C 
ATOM      4  C   UNL     1      10.999 -25.920  37.125  1.00  0.00     0.178 C 
ATOM      5  O   UNL     1      10.775 -25.290  35.885  1.00  0.00    -0.347 OA
ENDROOT
BRANCH   1   6
ATOM      6  N   UNL     1       8.941 -23.919  35.249  1.00  0.00    -0.271 N 
ATOM      7  C   UNL     1       7.198 -24.907  33.928  1.00  0.00     0.090 A 
ATOM      8  C   UNL     1       8.314 -25.029  34.750  1.00  0.00     0.099 A 
ATOM      9  C   UNL     1       6.722 -23.634  33.633  1.00  0.00     0.253 A 
ATOM     10  N   UNL     1       7.344 -22.545  34.152  1.00  0.00    -0.274 N 
ATOM     11  O   UNL     1       5.714 -23.494  32.891  1.00  0.00    -0.269 OA
ATOM     12  C   UNL     1       8.435 -22.673  34.958  1.00  0.00     0.330 A 
ATOM     13  H   UNL     1       6.976 -21.591  33.934  1.00  0.00     0.175 HD
ATOM     14  O   UNL     1       8.971 -21.635  35.437  1.00  0.00    -0.248 OA
ENDBRANCH   1   6
BRANCH   2  15
ATOM     15  O   UNL     1       8.373 -23.604  37.815  1.00  0.00    -0.386 OA
ATOM     16  H   UNL     1       8.297 -22.714  37.381  1.00  0.00     0.211 HD
ENDBRANCH   2  15
BRANCH   3  17
ATOM     17  O   UNL     1       8.753 -26.206  37.974  1.00  0.00    -0.387 OA
ATOM     18  H   UNL     1       8.865 -27.002  38.555  1.00  0.00     0.211 HD
ENDBRANCH   3  17
BRANCH   4  19
ATOM     19  C   UNL     1      11.038 -27.445  36.940  1.00  0.00     0.191 C 
BRANCH  19  20
ATOM     20  O   UNL     1      10.206 -27.840  35.883  1.00  0.00    -0.394 OA
ATOM     21  H   UNL     1      10.671 -27.580  35.045  1.00  0.00     0.210 HD
ENDBRANCH  19  20
ENDBRANCH   4  19
TORSDOF 5
ENDMDL
MODEL 7
REMARK VINA RESULT:    -5.966      1.952      5.102
REMARK INTER + INTRA:          -7.526
REMARK INTER:                  -7.142
REMARK INTRA:                  -0.385
REMARK UNBOUND:                -0.340
REMARK SMILES O=c1ccn([C@@H]2O[C@H](CO)[C@H](O)[C@@H]2O)c(=O)[nH]1
REMARK SMILES IDX 6 1 13 2 11 3 8 4 7 5 5 6 3 7 4 8 2 9 17 10 1 11 15 12 16 14
REMARK SMILES IDX 14 15 12 17 9 19 10 20
REMARK H PARENT 17 13 14 16 12 18 10 21
REMARK Flexibility Score: inf
ROOT
ATOM      1  C   UNL     1       9.474 -24.750  35.740  1.00  0.00     0.255 C 
ATOM      2  C   UNL     1      10.644 -25.587  36.285  1.00  0.00     0.196 C 
ATOM      3  C   UNL     1       9.959 -26.656  37.107  1.00  0.00     0.179 C 
ATOM      4  C   UNL     1       8.593 -26.730  36.431  1.00  0.00     0.178 C 
ATOM      5  O   UNL     1       8.260 -25.441  35.970  1.00  0.00    -0.347 OA
ENDROOT
BRANCH   1   6
ATOM      6  N   UNL     1       9.422 -23.403  36.351  1.00  0.00    -0.271 N 
ATOM      7  C   UNL     1       8.614 -21.933  38.068  1.00  0.00     0.090 A 
ATOM      8  C   UNL     1       8.652 -23.186  37.462  1.00  0.00     0.099 A 
ATOM      9  C   UNL     1       9.386 -20.909  37.531  1.00  0.00     0.253 A 
ATOM     10  N   UNL     1      10.159 -21.147  36.440  1.00  0.00    -0.274 N 
ATOM     11  O   UNL     1       9.370 -19.765  38.059  1.00  0.00    -0.269 OA
ATOM     12  C   UNL     1      10.191 -22.377  35.854  1.00  0.00     0.330 A 
ATOM     13  H   UNL     1      10.743 -20.375  36.047  1.00  0.00     0.175 HD
ATOM     14  O   UNL     1      10.940 -22.561  34.855  1.00  0.00    -0.248 OA
ENDBRANCH   1   6
BRANCH   2  15
ATOM     15  O   UNL     1      11.545 -24.822  37.046  1.00  0.00    -0.386 OA
ATOM     16  H   UNL     1      11.187 -23.896  37.060  1.00  0.00     0.211 HD
ENDBRANCH   2  15
BRANCH   3  17
ATOM     17  O   UNL     1       9.835 -26.252  38.450  1.00  0.00    -0.387 OA
ATOM     18  H   UNL     1      10.023 -25.278  38.473  1.00  0.00     0.211 HD
ENDBRANCH   3  17
BRANCH   4  19
ATOM     19  C   UNL     1       7.476 -27.266  37.341  1.00  0.00     0.191 C 
BRANCH  19  20
ATOM     20  O   UNL     1       7.922 -28.372  38.078  1.00  0.00    -0.394 OA
ATOM     21  H   UNL     1       7.871 -28.113  39.036  1.00  0.00     0.210 HD
ENDBRANCH  19  20
ENDBRANCH   4  19
TORSDOF 5
ENDMDL
MODEL 8
REMARK VINA RESULT:    -5.924      1.838      2.864
REMARK INTER + INTRA:          -7.476
REMARK INTER:                  -7.155
REMARK INTRA:                  -0.321
REMARK UNBOUND:                -0.340
REMARK SMILES O=c1ccn([C@@H]2O[C@H](CO)[C@H](O)[C@@H]2O)c(=O)[nH]1
REMARK SMILES IDX 6 1 13 2 11 3 8 4 7 5 5 6 3 7 4 8 2 9 17 10 1 11 15 12 16 14
REMARK SMILES IDX 14 15 12 17 9 19 10 20
REMARK H PARENT 17 13 14 16 12 18 10 21
REMARK Flexibility Score: inf
ROOT
ATOM      1  C   UNL     1      10.305 -24.238  36.882  1.00  0.00     0.255 C 
ATOM      2  C   UNL     1      10.536 -23.342  35.653  1.00  0.00     0.196 C 
ATOM      3  C   UNL     1       9.992 -22.000  36.088  1.00  0.00     0.179 C 
ATOM      4  C   UNL     1      10.146 -22.087  37.603  1.00  0.00     0.178 C 
ATOM      5  O   UNL     1       9.955 -23.427  37.989  1.00  0.00    -0.347 OA
ENDROOT
BRANCH   1   6
ATOM      6  N   UNL     1       9.259 -25.255  36.639  1.00  0.00    -0.271 N 
ATOM      7  C   UNL     1       6.938 -25.845  36.464  1.00  0.00     0.090 A 
ATOM      8  C   UNL     1       7.936 -24.909  36.718  1.00  0.00     0.099 A 
ATOM      9  C   UNL     1       7.311 -27.138  36.112  1.00  0.00     0.253 A 
ATOM     10  N   UNL     1       8.626 -27.459  36.019  1.00  0.00    -0.274 N 
ATOM     11  O   UNL     1       6.428 -28.005  35.877  1.00  0.00    -0.269 OA
ATOM     12  C   UNL     1       9.597 -26.536  36.269  1.00  0.00     0.330 A 
ATOM     13  H   UNL     1       8.899 -28.431  35.746  1.00  0.00     0.175 HD
ATOM     14  O   UNL     1      10.808 -26.871  36.150  1.00  0.00    -0.248 OA
ENDBRANCH   1   6
BRANCH   2  15
ATOM     15  O   UNL     1       9.897 -23.832  34.501  1.00  0.00    -0.386 OA
ATOM     16  H   UNL     1      10.591 -24.307  33.974  1.00  0.00     0.211 HD
ENDBRANCH   2  15
BRANCH   3  17
ATOM     17  O   UNL     1       8.638 -21.868  35.727  1.00  0.00    -0.387 OA
ATOM     18  H   UNL     1       8.266 -22.787  35.674  1.00  0.00     0.211 HD
ENDBRANCH   3  17
BRANCH   4  19
ATOM     19  C   UNL     1       9.183 -21.175  38.380  1.00  0.00     0.191 C 
BRANCH  19  20
ATOM     20  O   UNL     1       7.946 -21.805  38.574  1.00  0.00    -0.394 OA
ATOM     21  H   UNL     1       7.658 -22.143  37.685  1.00  0.00     0.210 HD
ENDBRANCH  19  20
ENDBRANCH   4  19
TORSDOF 5
ENDMDL
MODEL 9
REMARK VINA RESULT:    -5.803      1.724      3.083
REMARK INTER + INTRA:          -7.331
REMARK INTER:                  -6.886
REMARK INTRA:                  -0.444
REMARK UNBOUND:                -0.340
REMARK SMILES O=c1ccn([C@@H]2O[C@H](CO)[C@H](O)[C@@H]2O)c(=O)[nH]1
REMARK SMILES IDX 6 1 13 2 11 3 8 4 7 5 5 6 3 7 4 8 2 9 17 10 1 11 15 12 16 14
REMARK SMILES IDX 14 15 12 17 9 19 10 20
REMARK H PARENT 17 13 14 16 12 18 10 21
REMARK Flexibility Score: inf
ROOT
ATOM      1  C   UNL     1       8.943 -23.823  37.627  1.00  0.00     0.255 C 
ATOM      2  C   UNL     1      10.230 -23.124  37.159  1.00  0.00     0.196 C 
ATOM      3  C   UNL     1       9.727 -21.851  36.516  1.00  0.00     0.179 C 
ATOM      4  C   UNL     1       8.402 -21.647  37.245  1.00  0.00     0.178 C 
ATOM      5  O   UNL     1       7.861 -22.914  37.537  1.00  0.00    -0.347 OA
ENDROOT
BRANCH   1   6
ATOM      6  N   UNL     1       8.655 -25.042  36.839  1.00  0.00    -0.271 N 
ATOM      7  C   UNL     1       7.602 -26.097  34.958  1.00  0.00     0.090 A 
ATOM      8  C   UNL     1       7.859 -24.966  35.727  1.00  0.00     0.099 A 
ATOM      9  C   UNL     1       8.181 -27.305  35.332  1.00  0.00     0.253 A 
ATOM     10  N   UNL     1       8.983 -27.358  36.426  1.00  0.00    -0.274 N 
ATOM     11  O   UNL     1       7.964 -28.344  34.654  1.00  0.00    -0.269 OA
ATOM     12  C   UNL     1       9.231 -26.246  37.173  1.00  0.00     0.330 A 
ATOM     13  H   UNL     1       9.422 -28.267  36.697  1.00  0.00     0.175 HD
ATOM     14  O   UNL     1       9.999 -26.335  38.170  1.00  0.00    -0.248 OA
ENDBRANCH   1   6
BRANCH   2  15
ATOM     15  O   UNL     1      10.979 -23.913  36.269  1.00  0.00    -0.386 OA
ATOM     16  H   UNL     1      11.376 -23.290  35.605  1.00  0.00     0.211 HD
ENDBRANCH   2  15
BRANCH   3  17
ATOM     17  O   UNL     1       9.519 -22.035  35.136  1.00  0.00    -0.387 OA
ATOM     18  H   UNL     1      10.178 -22.714  34.837  1.00  0.00     0.211 HD
ENDBRANCH   3  17
BRANCH   4  19
ATOM     19  C   UNL     1       7.382 -20.809  36.459  1.00  0.00     0.191 C 
BRANCH  19  20
ATOM     20  O   UNL     1       6.561 -21.630  35.674  1.00  0.00    -0.394 OA
ATOM     21  H   UNL     1       6.150 -21.044  34.985  1.00  0.00     0.210 HD
ENDBRANCH  19  20
ENDBRANCH   4  19
TORSDOF 5
ENDMDL
