MODEL 1
REMARK VINA RESULT:    -2.415      0.000      0.000
REMARK INTER + INTRA:          -2.946
REMARK INTER:                  -2.839
REMARK INTRA:                  -0.107
REMARK UNBOUND:                -0.107
REMARK SMILES CCCCC(=O)[O-]
REMARK SMILES IDX 4 1 5 2 6 3 7 4 3 5 2 6 1 7
REMARK H PARENT
REMARK Flexibility Score: inf
ROOT
ATOM      1  C   UNL     1       1.157 -50.172  10.816  1.00  0.00     0.053 C 
ENDROOT
BRANCH   1   2
ATOM      2  C   UNL     1       2.431 -50.563  10.134  1.00  0.00     0.041 C 
ATOM      3  O   UNL     1       2.626 -50.253   8.929  1.00  0.00    -0.550 OA
ATOM      4  O   UNL     1       3.382 -51.314  10.814  1.00  0.00    -0.550 OA
ENDBRANCH   1   2
BRANCH   1   5
ATOM      5  C   UNL     1       0.094 -51.262  10.630  1.00  0.00     0.006 C 
BRANCH   5   6
ATOM      6  C   UNL     1      -0.837 -50.979   9.441  1.00  0.00    -0.003 C 
ATOM      7  C   UNL     1      -1.125 -49.490   9.256  1.00  0.00     0.004 C 
ENDBRANCH   5   6
ENDBRANCH   1   5
TORSDOF 3
ENDMDL
MODEL 2
REMARK VINA RESULT:    -2.389      1.085      1.555
REMARK INTER + INTRA:          -2.915
REMARK INTER:                  -2.855
REMARK INTRA:                  -0.060
REMARK UNBOUND:                -0.107
REMARK SMILES CCCCC(=O)[O-]
REMARK SMILES IDX 4 1 5 2 6 3 7 4 3 5 2 6 1 7
REMARK H PARENT
REMARK Flexibility Score: inf
ROOT
ATOM      1  C   UNL     1       0.689 -50.886  10.053  1.00  0.00     0.053 C 
ENDROOT
BRANCH   1   2
ATOM      2  C   UNL     1       2.116 -50.437  10.041  1.00  0.00     0.041 C 
ATOM      3  O   UNL     1       2.599 -49.831  11.034  1.00  0.00    -0.550 OA
ATOM      4  O   UNL     1       2.901 -50.645   8.914  1.00  0.00    -0.550 OA
ENDBRANCH   1   2
BRANCH   1   5
ATOM      5  C   UNL     1      -0.104 -50.120  11.120  1.00  0.00     0.006 C 
BRANCH   5   6
ATOM      6  C   UNL     1      -1.052 -49.075  10.513  1.00  0.00    -0.003 C 
ATOM      7  C   UNL     1      -1.125 -49.158   8.988  1.00  0.00     0.004 C 
ENDBRANCH   5   6
ENDBRANCH   1   5
TORSDOF 3
ENDMDL
MODEL 3
REMARK VINA RESULT:    -2.349      2.298      3.514
REMARK INTER + INTRA:          -2.869
REMARK INTER:                  -2.770
REMARK INTRA:                  -0.099
REMARK UNBOUND:                -0.107
REMARK SMILES CCCCC(=O)[O-]
REMARK SMILES IDX 4 1 5 2 6 3 7 4 3 5 2 6 1 7
REMARK H PARENT
REMARK Flexibility Score: inf
ROOT
ATOM      1  C   UNL     1       0.258 -49.946  10.831  1.00  0.00     0.053 C 
ENDROOT
BRANCH   1   2
ATOM      2  C   UNL     1      -0.586 -50.190   9.620  1.00  0.00     0.041 C 
ATOM      3  O   UNL     1      -0.774 -51.364   9.205  1.00  0.00    -0.550 OA
ATOM      4  O   UNL     1      -1.125 -49.117   8.921  1.00  0.00    -0.550 OA
ENDBRANCH   1   2
BRANCH   1   5
ATOM      5  C   UNL     1       1.481 -50.872  10.827  1.00  0.00     0.006 C 
BRANCH   5   6
ATOM      6  C   UNL     1       2.723 -50.206  10.215  1.00  0.00    -0.003 C 
ATOM      7  C   UNL     1       2.990 -50.659   8.780  1.00  0.00     0.004 C 
ENDBRANCH   5   6
ENDBRANCH   1   5
TORSDOF 3
ENDMDL
MODEL 4
REMARK VINA RESULT:    -2.292      2.958      4.878
REMARK INTER + INTRA:          -2.802
REMARK INTER:                  -2.781
REMARK INTRA:                  -0.021
REMARK UNBOUND:                -0.107
REMARK SMILES CCCCC(=O)[O-]
REMARK SMILES IDX 4 1 5 2 6 3 7 4 3 5 2 6 1 7
REMARK H PARENT
REMARK Flexibility Score: inf
ROOT
ATOM      1  C   UNL     1       3.508 -51.827  11.125  1.00  0.00     0.053 C 
ENDROOT
BRANCH   1   2
ATOM      2  C   UNL     1       2.857 -50.673  10.429  1.00  0.00     0.041 C 
ATOM      3  O   UNL     1       2.217 -49.813  11.090  1.00  0.00    -0.550 OA
ATOM      4  O   UNL     1       2.916 -50.573   9.045  1.00  0.00    -0.550 OA
ENDBRANCH   1   2
BRANCH   1   5
ATOM      5  C   UNL     1       4.442 -52.573  10.164  1.00  0.00     0.006 C 
BRANCH   5   6
ATOM      6  C   UNL     1       5.615 -53.250  10.890  1.00  0.00    -0.003 C 
ATOM      7  C   UNL     1       6.889 -53.289  10.047  1.00  0.00     0.004 C 
ENDBRANCH   5   6
ENDBRANCH   1   5
TORSDOF 3
ENDMDL
MODEL 5
REMARK VINA RESULT:    -2.134      4.539      5.832
REMARK INTER + INTRA:          -2.616
REMARK INTER:                  -2.601
REMARK INTRA:                  -0.015
REMARK UNBOUND:                -0.107
REMARK SMILES CCCCC(=O)[O-]
REMARK SMILES IDX 4 1 5 2 6 3 7 4 3 5 2 6 1 7
REMARK H PARENT
REMARK Flexibility Score: inf
ROOT
ATOM      1  C   UNL     1       6.364 -53.246   9.994  1.00  0.00     0.053 C 
ENDROOT
BRANCH   1   2
ATOM      2  C   UNL     1       7.766 -53.326  10.512  1.00  0.00     0.041 C 
ATOM      3  O   UNL     1       8.249 -54.434  10.865  1.00  0.00    -0.550 OA
ATOM      4  O   UNL     1       8.522 -52.169  10.651  1.00  0.00    -0.550 OA
ENDBRANCH   1   2
BRANCH   1   5
ATOM      5  C   UNL     1       5.395 -52.880  11.125  1.00  0.00     0.006 C 
BRANCH   5   6
ATOM      6  C   UNL     1       3.939 -52.781  10.645  1.00  0.00    -0.003 C 
ATOM      7  C   UNL     1       3.331 -51.398  10.882  1.00  0.00     0.004 C 
ENDBRANCH   5   6
ENDBRANCH   1   5
TORSDOF 3
ENDMDL
MODEL 6
REMARK VINA RESULT:    -2.026      2.205      3.858
REMARK INTER + INTRA:          -2.489
REMARK INTER:                  -2.408
REMARK INTRA:                  -0.081
REMARK UNBOUND:                -0.107
REMARK SMILES CCCCC(=O)[O-]
REMARK SMILES IDX 4 1 5 2 6 3 7 4 3 5 2 6 1 7
REMARK H PARENT
REMARK Flexibility Score: inf
ROOT
ATOM      1  C   UNL     1       2.175 -50.294   9.586  1.00  0.00     0.053 C 
ENDROOT
BRANCH   1   2
ATOM      2  C   UNL     1       0.768 -50.443  10.072  1.00  0.00     0.041 C 
ATOM      3  O   UNL     1       0.339 -49.714  11.005  1.00  0.00    -0.550 OA
ATOM      4  O   UNL     1      -0.055 -51.422   9.530  1.00  0.00    -0.550 OA
ENDBRANCH   1   2
BRANCH   1   5
ATOM      5  C   UNL     1       3.166 -50.535  10.731  1.00  0.00     0.006 C 
BRANCH   5   6
ATOM      6  C   UNL     1       3.262 -52.017  11.125  1.00  0.00    -0.003 C 
ATOM      7  C   UNL     1       4.593 -52.651  10.722  1.00  0.00     0.004 C 
ENDBRANCH   5   6
ENDBRANCH   1   5
TORSDOF 3
ENDMDL
MODEL 7
REMARK VINA RESULT:    -1.999      2.323      3.212
REMARK INTER + INTRA:          -2.457
REMARK INTER:                  -2.442
REMARK INTRA:                  -0.015
REMARK UNBOUND:                -0.107
REMARK SMILES CCCCC(=O)[O-]
REMARK SMILES IDX 4 1 5 2 6 3 7 4 3 5 2 6 1 7
REMARK H PARENT
REMARK Flexibility Score: inf
ROOT
ATOM      1  C   UNL     1       3.720 -51.762  11.109  1.00  0.00     0.053 C 
ENDROOT
BRANCH   1   2
ATOM      2  C   UNL     1       4.472 -53.028  10.842  1.00  0.00     0.041 C 
ATOM      3  O   UNL     1       5.663 -52.984  10.434  1.00  0.00    -0.550 OA
ATOM      4  O   UNL     1       3.843 -54.257  10.997  1.00  0.00    -0.550 OA
ENDBRANCH   1   2
BRANCH   1   5
ATOM      5  C   UNL     1       3.090 -51.231   9.815  1.00  0.00     0.006 C 
BRANCH   5   6
ATOM      6  C   UNL     1       2.179 -50.018  10.057  1.00  0.00    -0.003 C 
ATOM      7  C   UNL     1       0.699 -50.341   9.854  1.00  0.00     0.004 C 
ENDBRANCH   5   6
ENDBRANCH   1   5
TORSDOF 3
ENDMDL
MODEL 8
REMARK VINA RESULT:     0.420      1.445      1.738
REMARK INTER + INTRA:           0.386
REMARK INTER:                  -0.027
REMARK INTRA:                   0.413
REMARK UNBOUND:                -0.107
REMARK SMILES CCCCC(=O)[O-]
REMARK SMILES IDX 4 1 5 2 6 3 7 4 3 5 2 6 1 7
REMARK H PARENT
REMARK Flexibility Score: inf
ROOT
ATOM      1  C   UNL     1       0.734 -50.395   8.359  1.00  0.00     0.053 C 
ENDROOT
BRANCH   1   2
ATOM      2  C   UNL     1       2.079 -50.341   9.012  1.00  0.00     0.041 C 
ATOM      3  O   UNL     1       3.051 -50.969   8.514  1.00  0.00    -0.550 OA
ATOM      4  O   UNL     1       2.249 -49.639  10.198  1.00  0.00    -0.550 OA
ENDBRANCH   1   2
BRANCH   1   5
ATOM      5  C   UNL     1      -0.079 -51.575   8.904  1.00  0.00     0.006 C 
BRANCH   5   6
ATOM      6  C   UNL     1      -1.125 -51.141   9.942  1.00  0.00    -0.003 C 
ATOM      7  C   UNL     1      -0.510 -50.387  11.120  1.00  0.00     0.004 C 
ENDBRANCH   5   6
ENDBRANCH   1   5
TORSDOF 3
ENDMDL
