MODEL 1
REMARK VINA RESULT:    -3.722      0.000      0.000
REMARK INTER + INTRA:          -3.831
REMARK INTER:                  -3.831
REMARK INTRA:                   0.000
REMARK UNBOUND:                 0.000
REMARK SMILES Cc1ccccc1O
REMARK SMILES IDX 1 1 2 2 3 3 4 4 5 5 6 6 7 7 8 8
REMARK H PARENT 8 9
REMARK Flexibility Score: inf
ROOT
ATOM      1  C   UNL     1      11.697   6.268  19.986  1.00  0.00     0.048 C 
ATOM      2  C   UNL     1      11.409   6.624  18.553  1.00  0.00    -0.009 A 
ATOM      3  C   UNL     1      11.375   7.976  18.167  1.00  0.00     0.007 A 
ATOM      4  C   UNL     1      11.109   8.327  16.841  1.00  0.00     0.001 A 
ATOM      5  C   UNL     1      10.875   7.335  15.888  1.00  0.00     0.004 A 
ATOM      6  C   UNL     1      10.906   5.989  16.258  1.00  0.00     0.046 A 
ATOM      7  C   UNL     1      11.170   5.622  17.583  1.00  0.00     0.118 A 
ENDROOT
BRANCH   7   8
ATOM      8  O   UNL     1      11.190   4.263  17.903  1.00  0.00    -0.508 OA
ATOM      9  H   UNL     1      10.414   3.642  17.715  1.00  0.00     0.293 HD
ENDBRANCH   7   8
TORSDOF 1
ENDMDL
MODEL 2
REMARK VINA RESULT:    -3.350      2.338      3.573
REMARK INTER + INTRA:          -3.448
REMARK INTER:                  -3.448
REMARK INTRA:                   0.000
REMARK UNBOUND:                 0.000
REMARK SMILES Cc1ccccc1O
REMARK SMILES IDX 1 1 2 2 3 3 4 4 5 5 6 6 7 7 8 8
REMARK H PARENT 8 9
REMARK Flexibility Score: inf
ROOT
ATOM      1  C   UNL     1      11.467   6.925  16.026  1.00  0.00     0.048 C 
ATOM      2  C   UNL     1      12.380   5.852  16.552  1.00  0.00    -0.009 A 
ATOM      3  C   UNL     1      13.582   5.570  15.877  1.00  0.00     0.007 A 
ATOM      4  C   UNL     1      14.442   4.576  16.349  1.00  0.00     0.001 A 
ATOM      5  C   UNL     1      14.115   3.855  17.498  1.00  0.00     0.004 A 
ATOM      6  C   UNL     1      12.926   4.125  18.178  1.00  0.00     0.046 A 
ATOM      7  C   UNL     1      12.052   5.117  17.715  1.00  0.00     0.118 A 
ENDROOT
BRANCH   7   8
ATOM      8  O   UNL     1      10.875   5.350  18.430  1.00  0.00    -0.508 OA
ATOM      9  H   UNL     1      10.771   6.112  19.087  1.00  0.00     0.293 HD
ENDBRANCH   7   8
TORSDOF 1
ENDMDL
MODEL 3
REMARK VINA RESULT:    -3.335      2.203      3.431
REMARK INTER + INTRA:          -3.432
REMARK INTER:                  -3.432
REMARK INTRA:                   0.000
REMARK UNBOUND:                 0.000
REMARK SMILES Cc1ccccc1O
REMARK SMILES IDX 1 1 2 2 3 3 4 4 5 5 6 6 7 7 8 8
REMARK H PARENT 8 9
REMARK Flexibility Score: inf
ROOT
ATOM      1  C   UNL     1      10.875   7.660  16.217  1.00  0.00     0.048 C 
ATOM      2  C   UNL     1      11.611   6.498  16.826  1.00  0.00    -0.009 A 
ATOM      3  C   UNL     1      10.906   5.559  17.601  1.00  0.00     0.007 A 
ATOM      4  C   UNL     1      11.571   4.474  18.175  1.00  0.00     0.001 A 
ATOM      5  C   UNL     1      12.943   4.312  17.983  1.00  0.00     0.004 A 
ATOM      6  C   UNL     1      13.655   5.236  17.215  1.00  0.00     0.046 A 
ATOM      7  C   UNL     1      13.002   6.330  16.634  1.00  0.00     0.118 A 
ENDROOT
BRANCH   7   8
ATOM      8  O   UNL     1      13.758   7.227  15.875  1.00  0.00    -0.508 OA
ATOM      9  H   UNL     1      14.737   7.082  15.666  1.00  0.00     0.293 HD
ENDBRANCH   7   8
TORSDOF 1
ENDMDL
MODEL 4
REMARK VINA RESULT:    -3.320      2.266      2.584
REMARK INTER + INTRA:          -3.417
REMARK INTER:                  -3.417
REMARK INTRA:                   0.000
REMARK UNBOUND:                 0.000
REMARK SMILES Cc1ccccc1O
REMARK SMILES IDX 1 1 2 2 3 3 4 4 5 5 6 6 7 7 8 8
REMARK H PARENT 8 9
REMARK Flexibility Score: inf
ROOT
ATOM      1  C   UNL     1      15.074   6.742  16.500  1.00  0.00     0.048 C 
ATOM      2  C   UNL     1      13.609   7.005  16.283  1.00  0.00    -0.009 A 
ATOM      3  C   UNL     1      13.152   8.331  16.166  1.00  0.00     0.007 A 
ATOM      4  C   UNL     1      11.796   8.596  15.965  1.00  0.00     0.001 A 
ATOM      5  C   UNL     1      10.882   7.545  15.876  1.00  0.00     0.004 A 
ATOM      6  C   UNL     1      11.322   6.224  15.989  1.00  0.00     0.046 A 
ATOM      7  C   UNL     1      12.680   5.943  16.193  1.00  0.00     0.118 A 
ENDROOT
BRANCH   7   8
ATOM      8  O   UNL     1      13.070   4.606  16.300  1.00  0.00    -0.508 OA
ATOM      9  H   UNL     1      12.737   3.883  15.676  1.00  0.00     0.293 HD
ENDBRANCH   7   8
TORSDOF 1
ENDMDL
MODEL 5
REMARK VINA RESULT:    -3.301      1.738      1.960
REMARK INTER + INTRA:          -3.398
REMARK INTER:                  -3.398
REMARK INTRA:                   0.000
REMARK UNBOUND:                 0.000
REMARK SMILES Cc1ccccc1O
REMARK SMILES IDX 1 1 2 2 3 3 4 4 5 5 6 6 7 7 8 8
REMARK H PARENT 8 9
REMARK Flexibility Score: inf
ROOT
ATOM      1  C   UNL     1      12.960   4.125  18.884  1.00  0.00     0.048 C 
ATOM      2  C   UNL     1      12.343   5.214  18.050  1.00  0.00    -0.009 A 
ATOM      3  C   UNL     1      11.461   6.132  18.649  1.00  0.00     0.007 A 
ATOM      4  C   UNL     1      10.877   7.149  17.891  1.00  0.00     0.001 A 
ATOM      5  C   UNL     1      11.167   7.264  16.531  1.00  0.00     0.004 A 
ATOM      6  C   UNL     1      12.041   6.360  15.924  1.00  0.00     0.046 A 
ATOM      7  C   UNL     1      12.633   5.333  16.671  1.00  0.00     0.118 A 
ENDROOT
BRANCH   7   8
ATOM      8  O   UNL     1      13.500   4.454  16.018  1.00  0.00    -0.508 OA
ATOM      9  H   UNL     1      14.469   4.336  16.285  1.00  0.00     0.293 HD
ENDBRANCH   7   8
TORSDOF 1
ENDMDL
MODEL 6
REMARK VINA RESULT:    -3.246      1.730      2.390
REMARK INTER + INTRA:          -3.341
REMARK INTER:                  -3.341
REMARK INTRA:                   0.000
REMARK UNBOUND:                 0.000
REMARK SMILES Cc1ccccc1O
REMARK SMILES IDX 1 1 2 2 3 3 4 4 5 5 6 6 7 7 8 8
REMARK H PARENT 8 9
REMARK Flexibility Score: inf
ROOT
ATOM      1  C   UNL     1      14.083   4.263  16.962  1.00  0.00     0.048 C 
ATOM      2  C   UNL     1      12.958   5.262  16.959  1.00  0.00    -0.009 A 
ATOM      3  C   UNL     1      12.878   6.214  15.926  1.00  0.00     0.007 A 
ATOM      4  C   UNL     1      11.841   7.150  15.906  1.00  0.00     0.001 A 
ATOM      5  C   UNL     1      10.875   7.146  16.913  1.00  0.00     0.004 A 
ATOM      6  C   UNL     1      10.943   6.207  17.944  1.00  0.00     0.046 A 
ATOM      7  C   UNL     1      11.977   5.263  17.978  1.00  0.00     0.118 A 
ENDROOT
BRANCH   7   8
ATOM      8  O   UNL     1      12.001   4.344  19.030  1.00  0.00    -0.508 OA
ATOM      9  H   UNL     1      12.339   4.575  19.955  1.00  0.00     0.293 HD
ENDBRANCH   7   8
TORSDOF 1
ENDMDL
MODEL 7
REMARK VINA RESULT:    -2.429      2.278      3.091
REMARK INTER + INTRA:          -2.500
REMARK INTER:                  -2.500
REMARK INTRA:                   0.000
REMARK UNBOUND:                 0.000
REMARK SMILES Cc1ccccc1O
REMARK SMILES IDX 1 1 2 2 3 3 4 4 5 5 6 6 7 7 8 8
REMARK H PARENT 8 9
REMARK Flexibility Score: inf
ROOT
ATOM      1  C   UNL     1      14.871   5.493  15.875  1.00  0.00     0.048 C 
ATOM      2  C   UNL     1      13.484   5.457  16.457  1.00  0.00    -0.009 A 
ATOM      3  C   UNL     1      12.509   6.353  15.982  1.00  0.00     0.007 A 
ATOM      4  C   UNL     1      11.216   6.337  16.510  1.00  0.00     0.001 A 
ATOM      5  C   UNL     1      10.882   5.428  17.515  1.00  0.00     0.004 A 
ATOM      6  C   UNL     1      11.840   4.533  17.995  1.00  0.00     0.046 A 
ATOM      7  C   UNL     1      13.141   4.539  17.476  1.00  0.00     0.118 A 
ENDROOT
BRANCH   7   8
ATOM      8  O   UNL     1      14.063   3.624  17.990  1.00  0.00    -0.508 OA
ATOM      9  H   UNL     1      13.846   2.990  18.747  1.00  0.00     0.293 HD
ENDBRANCH   7   8
TORSDOF 1
ENDMDL
MODEL 8
REMARK VINA RESULT:    -2.259      2.454      3.089
REMARK INTER + INTRA:          -2.325
REMARK INTER:                  -2.325
REMARK INTRA:                   0.000
REMARK UNBOUND:                 0.000
REMARK SMILES Cc1ccccc1O
REMARK SMILES IDX 1 1 2 2 3 3 4 4 5 5 6 6 7 7 8 8
REMARK H PARENT 8 9
REMARK Flexibility Score: inf
ROOT
ATOM      1  C   UNL     1      14.244   3.607  18.096  1.00  0.00     0.048 C 
ATOM      2  C   UNL     1      13.176   4.516  17.554  1.00  0.00    -0.009 A 
ATOM      3  C   UNL     1      11.889   4.490  18.122  1.00  0.00     0.007 A 
ATOM      4  C   UNL     1      10.883   5.327  17.633  1.00  0.00     0.001 A 
ATOM      5  C   UNL     1      11.148   6.197  16.575  1.00  0.00     0.004 A 
ATOM      6  C   UNL     1      12.421   6.233  16.002  1.00  0.00     0.046 A 
ATOM      7  C   UNL     1      13.440   5.399  16.481  1.00  0.00     0.118 A 
ENDROOT
BRANCH   7   8
ATOM      8  O   UNL     1      14.696   5.472  15.875  1.00  0.00    -0.508 OA
ATOM      9  H   UNL     1      15.556   5.255  16.362  1.00  0.00     0.293 HD
ENDBRANCH   7   8
TORSDOF 1
ENDMDL
MODEL 9
REMARK VINA RESULT:    -1.408      2.026      2.710
REMARK INTER + INTRA:          -1.449
REMARK INTER:                  -1.449
REMARK INTRA:                   0.000
REMARK UNBOUND:                 0.000
REMARK SMILES Cc1ccccc1O
REMARK SMILES IDX 1 1 2 2 3 3 4 4 5 5 6 6 7 7 8 8
REMARK H PARENT 8 9
REMARK Flexibility Score: inf
ROOT
ATOM      1  C   UNL     1      11.209   8.484  19.570  1.00  0.00     0.048 C 
ATOM      2  C   UNL     1      11.115   7.630  18.336  1.00  0.00    -0.009 A 
ATOM      3  C   UNL     1      11.183   6.229  18.454  1.00  0.00     0.007 A 
ATOM      4  C   UNL     1      11.098   5.418  17.320  1.00  0.00     0.001 A 
ATOM      5  C   UNL     1      10.944   5.994  16.058  1.00  0.00     0.004 A 
ATOM      6  C   UNL     1      10.875   7.382  15.926  1.00  0.00     0.046 A 
ATOM      7  C   UNL     1      10.960   8.208  17.054  1.00  0.00     0.118 A 
ENDROOT
BRANCH   7   8
ATOM      8  O   UNL     1      10.886   9.591  16.870  1.00  0.00    -0.508 OA
ATOM      9  H   UNL     1      11.572  10.113  16.343  1.00  0.00     0.293 HD
ENDBRANCH   7   8
TORSDOF 1
ENDMDL
