MODEL 1
REMARK VINA RESULT:     0.000      0.000      0.000
REMARK INTER + INTRA:          -3.105
REMARK INTER:                   0.000
REMARK INTRA:                  -3.105
REMARK UNBOUND:                -3.105
REMARK SMILES CCCCCCCCCCCCCCCC(=O)[O-]
REMARK SMILES IDX 9 1 10 2 11 3 12 4 13 5 14 6 15 7 16 8 17 9 18 10 8 11 7 12
REMARK SMILES IDX 6 13 5 14 4 15 3 16 2 17 1 18
REMARK H PARENT
REMARK Flexibility Score: inf
ROOT
ATOM      1  C   UNL     1     175.037 190.370 196.056  1.00  0.00     0.000 C 
ENDROOT
BRANCH   1   2
ATOM      2  C   UNL     1     174.873 191.493 197.098  1.00  0.00     0.000 C 
BRANCH   2   3
ATOM      3  C   UNL     1     174.400 190.972 198.469  1.00  0.00     0.000 C 
BRANCH   3   4
ATOM      4  C   UNL     1     173.023 191.491 198.923  1.00  0.00     0.000 C 
BRANCH   4   5
ATOM      5  C   UNL     1     171.967 190.377 199.028  1.00  0.00     0.000 C 
BRANCH   5   6
ATOM      6  C   UNL     1     172.555 189.040 199.521  1.00  0.00     0.006 C 
BRANCH   6   7
ATOM      7  C   UNL     1     171.730 187.808 199.108  1.00  0.00     0.053 C 
BRANCH   7   8
ATOM      8  C   UNL     1     170.271 187.968 199.406  1.00  0.00     0.041 C 
ATOM      9  O   UNL     1     169.429 187.973 198.468  1.00  0.00    -0.550 OA
ATOM     10  O   UNL     1     169.839 188.103 200.720  1.00  0.00    -0.550 OA
ENDBRANCH   7   8
ENDBRANCH   6   7
ENDBRANCH   5   6
ENDBRANCH   4   5
ENDBRANCH   3   4
ENDBRANCH   2   3
ENDBRANCH   1   2
BRANCH   1  11
ATOM     11  C   UNL     1     175.011 188.974 196.696  1.00  0.00     0.000 C 
BRANCH  11  12
ATOM     12  C   UNL     1     173.918 188.073 196.095  1.00  0.00    -0.000 C 
BRANCH  12  13
ATOM     13  C   UNL     1     172.936 188.867 195.208  1.00  0.00    -0.000 C 
BRANCH  13  14
ATOM     14  C   UNL     1     171.459 188.627 195.570  1.00  0.00    -0.000 C 
BRANCH  14  15
ATOM     15  C   UNL     1     170.650 189.930 195.681  1.00  0.00    -0.000 C 
BRANCH  15  16
ATOM     16  C   UNL     1     171.497 191.172 195.329  1.00  0.00    -0.000 C 
BRANCH  16  17
ATOM     17  C   UNL     1     170.989 192.467 195.985  1.00  0.00    -0.003 C 
ATOM     18  C   UNL     1     172.018 193.595 195.962  1.00  0.00     0.004 C 
ENDBRANCH  16  17
ENDBRANCH  15  16
ENDBRANCH  14  15
ENDBRANCH  13  14
ENDBRANCH  12  13
ENDBRANCH  11  12
ENDBRANCH   1  11
TORSDOF 14
ENDMDL
MODEL 2
REMARK VINA RESULT:     0.006     10.247     12.428
REMARK INTER + INTRA:          -3.094
REMARK INTER:                   0.000
REMARK INTRA:                  -3.094
REMARK UNBOUND:                -3.105
REMARK SMILES CCCCCCCCCCCCCCCC(=O)[O-]
REMARK SMILES IDX 9 1 10 2 11 3 12 4 13 5 14 6 15 7 16 8 17 9 18 10 8 11 7 12
REMARK SMILES IDX 6 13 5 14 4 15 3 16 2 17 1 18
REMARK H PARENT
REMARK Flexibility Score: inf
ROOT
ATOM      1  C   UNL     1     166.555 186.148 189.710  1.00  0.00     0.000 C 
ENDROOT
BRANCH   1   2
ATOM      2  C   UNL     1     167.932 186.090 190.397  1.00  0.00     0.000 C 
BRANCH   2   3
ATOM      3  C   UNL     1     169.055 185.634 189.446  1.00  0.00     0.000 C 
BRANCH   3   4
ATOM      4  C   UNL     1     169.740 184.310 189.836  1.00  0.00     0.000 C 
BRANCH   4   5
ATOM      5  C   UNL     1     169.923 183.356 188.643  1.00  0.00     0.000 C 
BRANCH   5   6
ATOM      6  C   UNL     1     169.754 184.061 187.282  1.00  0.00     0.006 C 
BRANCH   6   7
ATOM      7  C   UNL     1     168.865 183.291 186.290  1.00  0.00     0.053 C 
BRANCH   7   8
ATOM      8  C   UNL     1     169.324 181.881 186.080  1.00  0.00     0.041 C 
ATOM      9  O   UNL     1     170.432 181.651 185.526  1.00  0.00    -0.550 OA
ATOM     10  O   UNL     1     168.532 180.821 186.503  1.00  0.00    -0.550 OA
ENDBRANCH   7   8
ENDBRANCH   6   7
ENDBRANCH   5   6
ENDBRANCH   4   5
ENDBRANCH   3   4
ENDBRANCH   2   3
ENDBRANCH   1   2
BRANCH   1  11
ATOM     11  C   UNL     1     166.642 185.859 188.205  1.00  0.00     0.000 C 
BRANCH  11  12
ATOM     12  C   UNL     1     165.721 184.704 187.774  1.00  0.00    -0.000 C 
BRANCH  12  13
ATOM     13  C   UNL     1     165.468 183.705 188.922  1.00  0.00    -0.000 C 
BRANCH  13  14
ATOM     14  C   UNL     1     166.321 182.428 188.818  1.00  0.00    -0.000 C 
BRANCH  14  15
ATOM     15  C   UNL     1     166.841 181.942 190.180  1.00  0.00    -0.000 C 
BRANCH  15  16
ATOM     16  C   UNL     1     166.329 182.816 191.344  1.00  0.00    -0.000 C 
BRANCH  16  17
ATOM     17  C   UNL     1     167.371 183.034 192.454  1.00  0.00    -0.003 C 
ATOM     18  C   UNL     1     168.479 181.983 192.450  1.00  0.00     0.004 C 
ENDBRANCH  16  17
ENDBRANCH  15  16
ENDBRANCH  14  15
ENDBRANCH  13  14
ENDBRANCH  12  13
ENDBRANCH  11  12
ENDBRANCH   1  11
TORSDOF 14
ENDMDL
MODEL 3
REMARK VINA RESULT:     0.011      7.851     10.226
REMARK INTER + INTRA:          -3.084
REMARK INTER:                   0.000
REMARK INTRA:                  -3.084
REMARK UNBOUND:                -3.105
REMARK SMILES CCCCCCCCCCCCCCCC(=O)[O-]
REMARK SMILES IDX 9 1 10 2 11 3 12 4 13 5 14 6 15 7 16 8 17 9 18 10 8 11 7 12
REMARK SMILES IDX 6 13 5 14 4 15 3 16 2 17 1 18
REMARK H PARENT
REMARK Flexibility Score: inf
ROOT
ATOM      1  C   UNL     1     175.714 192.235 191.994  1.00  0.00     0.000 C 
ENDROOT
BRANCH   1   2
ATOM      2  C   UNL     1     175.816 190.793 192.526  1.00  0.00     0.000 C 
BRANCH   2   3
ATOM      3  C   UNL     1     176.764 189.913 191.691  1.00  0.00     0.000 C 
BRANCH   3   4
ATOM      4  C   UNL     1     178.110 189.584 192.364  1.00  0.00     0.000 C 
BRANCH   4   5
ATOM      5  C   UNL     1     179.307 189.713 191.407  1.00  0.00     0.000 C 
BRANCH   5   6
ATOM      6  C   UNL     1     178.883 189.826 189.930  1.00  0.00     0.006 C 
BRANCH   6   7
ATOM      7  C   UNL     1     179.699 190.852 189.125  1.00  0.00     0.053 C 
BRANCH   7   8
ATOM      8  C   UNL     1     181.175 190.712 189.344  1.00  0.00     0.041 C 
ATOM      9  O   UNL     1     181.826 191.642 189.891  1.00  0.00    -0.550 OA
ATOM     10  O   UNL     1     181.829 189.550 188.952  1.00  0.00    -0.550 OA
ENDBRANCH   7   8
ENDBRANCH   6   7
ENDBRANCH   5   6
ENDBRANCH   4   5
ENDBRANCH   3   4
ENDBRANCH   2   3
ENDBRANCH   1   2
BRANCH   1  11
ATOM     11  C   UNL     1     176.104 192.337 190.512  1.00  0.00     0.000 C 
BRANCH  11  12
ATOM     12  C   UNL     1     177.232 193.356 190.271  1.00  0.00    -0.000 C 
BRANCH  12  13
ATOM     13  C   UNL     1     177.857 193.852 191.591  1.00  0.00    -0.000 C 
BRANCH  13  14
ATOM     14  C   UNL     1     179.318 193.405 191.778  1.00  0.00    -0.000 C 
BRANCH  14  15
ATOM     15  C   UNL     1     179.620 192.928 193.209  1.00  0.00    -0.000 C 
BRANCH  15  16
ATOM     16  C   UNL     1     178.493 193.301 194.196  1.00  0.00    -0.000 C 
BRANCH  16  17
ATOM     17  C   UNL     1     178.082 192.145 195.123  1.00  0.00    -0.003 C 
ATOM     18  C   UNL     1     179.244 191.221 195.481  1.00  0.00     0.004 C 
ENDBRANCH  16  17
ENDBRANCH  15  16
ENDBRANCH  14  15
ENDBRANCH  13  14
ENDBRANCH  12  13
ENDBRANCH  11  12
ENDBRANCH   1  11
TORSDOF 14
ENDMDL
MODEL 4
REMARK VINA RESULT:     0.017      6.587      8.691
REMARK INTER + INTRA:          -3.074
REMARK INTER:                   0.000
REMARK INTRA:                  -3.074
REMARK UNBOUND:                -3.105
REMARK SMILES CCCCCCCCCCCCCCCC(=O)[O-]
REMARK SMILES IDX 9 1 10 2 11 3 12 4 13 5 14 6 15 7 16 8 17 9 18 10 8 11 7 12
REMARK SMILES IDX 6 13 5 14 4 15 3 16 2 17 1 18
REMARK H PARENT
REMARK Flexibility Score: inf
ROOT
ATOM      1  C   UNL     1     174.668 189.958 190.708  1.00  0.00     0.000 C 
ENDROOT
BRANCH   1   2
ATOM      2  C   UNL     1     174.167 188.655 191.358  1.00  0.00     0.000 C 
BRANCH   2   3
ATOM      3  C   UNL     1     172.721 188.764 191.878  1.00  0.00     0.000 C 
BRANCH   3   4
ATOM      4  C   UNL     1     171.754 187.691 191.342  1.00  0.00     0.000 C 
BRANCH   4   5
ATOM      5  C   UNL     1     170.586 188.286 190.536  1.00  0.00     0.000 C 
BRANCH   5   6
ATOM      6  C   UNL     1     170.314 189.763 190.879  1.00  0.00     0.006 C 
BRANCH   6   7
ATOM      7  C   UNL     1     169.320 190.450 189.926  1.00  0.00     0.053 C 
BRANCH   7   8
ATOM      8  C   UNL     1     169.536 191.930 189.839  1.00  0.00     0.041 C 
ATOM      9  O   UNL     1     169.356 192.534 188.749  1.00  0.00    -0.550 OA
ATOM     10  O   UNL     1     169.929 192.643 190.966  1.00  0.00    -0.550 OA
ENDBRANCH   7   8
ENDBRANCH   6   7
ENDBRANCH   5   6
ENDBRANCH   4   5
ENDBRANCH   3   4
ENDBRANCH   2   3
ENDBRANCH   1   2
BRANCH   1  11
ATOM     11  C   UNL     1     173.712 191.135 190.951  1.00  0.00     0.000 C 
BRANCH  11  12
ATOM     12  C   UNL     1     173.243 191.792 189.641  1.00  0.00    -0.000 C 
BRANCH  12  13
ATOM     13  C   UNL     1     173.487 190.884 188.417  1.00  0.00    -0.000 C 
BRANCH  13  14
ATOM     14  C   UNL     1     172.214 190.615 187.595  1.00  0.00    -0.000 C 
BRANCH  14  15
ATOM     15  C   UNL     1     172.003 189.123 187.288  1.00  0.00    -0.000 C 
BRANCH  15  16
ATOM     16  C   UNL     1     173.206 188.263 187.729  1.00  0.00    -0.000 C 
BRANCH  16  17
ATOM     17  C   UNL     1     172.861 186.775 187.916  1.00  0.00    -0.003 C 
ATOM     18  C   UNL     1     173.898 186.019 188.744  1.00  0.00     0.004 C 
ENDBRANCH  16  17
ENDBRANCH  15  16
ENDBRANCH  14  15
ENDBRANCH  13  14
ENDBRANCH  12  13
ENDBRANCH  11  12
ENDBRANCH   1  11
TORSDOF 14
ENDMDL
MODEL 5
REMARK VINA RESULT:     0.020     10.925     13.360
REMARK INTER + INTRA:          -3.069
REMARK INTER:                   0.000
REMARK INTRA:                  -3.069
REMARK UNBOUND:                -3.105
REMARK SMILES CCCCCCCCCCCCCCCC(=O)[O-]
REMARK SMILES IDX 9 1 10 2 11 3 12 4 13 5 14 6 15 7 16 8 17 9 18 10 8 11 7 12
REMARK SMILES IDX 6 13 5 14 4 15 3 16 2 17 1 18
REMARK H PARENT
REMARK Flexibility Score: inf
ROOT
ATOM      1  C   UNL     1     181.303 188.945 191.446  1.00  0.00     0.000 C 
ENDROOT
BRANCH   1   2
ATOM      2  C   UNL     1     182.206 188.485 190.285  1.00  0.00     0.000 C 
BRANCH   2   3
ATOM      3  C   UNL     1     183.706 188.649 190.594  1.00  0.00     0.000 C 
BRANCH   3   4
ATOM      4  C   UNL     1     184.542 187.363 190.462  1.00  0.00     0.000 C 
BRANCH   4   5
ATOM      5  C   UNL     1     183.796 186.235 189.729  1.00  0.00     0.000 C 
BRANCH   5   6
ATOM      6  C   UNL     1     184.404 184.844 189.994  1.00  0.00     0.006 C 
BRANCH   6   7
ATOM      7  C   UNL     1     183.400 183.688 189.848  1.00  0.00     0.053 C 
BRANCH   7   8
ATOM      8  C   UNL     1     182.662 183.728 188.545  1.00  0.00     0.041 C 
ATOM      9  O   UNL     1     181.412 183.878 188.528  1.00  0.00    -0.550 OA
ATOM     10  O   UNL     1     183.358 183.606 187.348  1.00  0.00    -0.550 OA
ENDBRANCH   7   8
ENDBRANCH   6   7
ENDBRANCH   5   6
ENDBRANCH   4   5
ENDBRANCH   3   4
ENDBRANCH   2   3
ENDBRANCH   1   2
BRANCH   1  11
ATOM     11  C   UNL     1     180.299 187.861 191.865  1.00  0.00     0.000 C 
BRANCH  11  12
ATOM     12  C   UNL     1     180.332 186.637 190.933  1.00  0.00    -0.000 C 
BRANCH  12  13
ATOM     13  C   UNL     1     180.655 185.336 191.697  1.00  0.00    -0.000 C 
BRANCH  13  14
ATOM     14  C   UNL     1     181.230 185.582 193.103  1.00  0.00    -0.000 C 
BRANCH  14  15
ATOM     15  C   UNL     1     182.660 185.041 193.268  1.00  0.00    -0.000 C 
BRANCH  15  16
ATOM     16  C   UNL     1     183.644 186.133 193.737  1.00  0.00    -0.000 C 
BRANCH  16  17
ATOM     17  C   UNL     1     182.956 187.332 194.412  1.00  0.00    -0.003 C 
ATOM     18  C   UNL     1     183.751 188.630 194.285  1.00  0.00     0.004 C 
ENDBRANCH  16  17
ENDBRANCH  15  16
ENDBRANCH  14  15
ENDBRANCH  13  14
ENDBRANCH  12  13
ENDBRANCH  11  12
ENDBRANCH   1  11
TORSDOF 14
ENDMDL
MODEL 6
REMARK VINA RESULT:     0.024      4.914      7.285
REMARK INTER + INTRA:          -3.061
REMARK INTER:                   0.000
REMARK INTRA:                  -3.061
REMARK UNBOUND:                -3.105
REMARK SMILES CCCCCCCCCCCCCCCC(=O)[O-]
REMARK SMILES IDX 9 1 10 2 11 3 12 4 13 5 14 6 15 7 16 8 17 9 18 10 8 11 7 12
REMARK SMILES IDX 6 13 5 14 4 15 3 16 2 17 1 18
REMARK H PARENT
REMARK Flexibility Score: inf
ROOT
ATOM      1  C   UNL     1     178.045 190.998 195.718  1.00  0.00     0.000 C 
ENDROOT
BRANCH   1   2
ATOM      2  C   UNL     1     177.788 190.241 194.402  1.00  0.00     0.000 C 
BRANCH   2   3
ATOM      3  C   UNL     1     177.072 188.895 194.616  1.00  0.00     0.000 C 
BRANCH   3   4
ATOM      4  C   UNL     1     177.932 187.648 194.339  1.00  0.00     0.000 C 
BRANCH   4   5
ATOM      5  C   UNL     1     177.782 186.564 195.420  1.00  0.00     0.000 C 
BRANCH   5   6
ATOM      6  C   UNL     1     176.644 186.865 196.415  1.00  0.00     0.006 C 
BRANCH   6   7
ATOM      7  C   UNL     1     176.908 186.343 197.838  1.00  0.00     0.053 C 
BRANCH   7   8
ATOM      8  C   UNL     1     176.042 187.007 198.864  1.00  0.00     0.041 C 
ATOM      9  O   UNL     1     175.211 187.889 198.518  1.00  0.00    -0.550 OA
ATOM     10  O   UNL     1     176.148 186.648 200.203  1.00  0.00    -0.550 OA
ENDBRANCH   7   8
ENDBRANCH   6   7
ENDBRANCH   5   6
ENDBRANCH   4   5
ENDBRANCH   3   4
ENDBRANCH   2   3
ENDBRANCH   1   2
BRANCH   1  11
ATOM     11  C   UNL     1     177.194 190.457 196.876  1.00  0.00     0.000 C 
BRANCH  11  12
ATOM     12  C   UNL     1     178.048 190.025 198.081  1.00  0.00    -0.000 C 
BRANCH  12  13
ATOM     13  C   UNL     1     179.528 189.814 197.698  1.00  0.00    -0.000 C 
BRANCH  13  14
ATOM     14  C   UNL     1     180.000 188.359 197.872  1.00  0.00    -0.000 C 
BRANCH  14  15
ATOM     15  C   UNL     1     180.932 187.893 196.742  1.00  0.00    -0.000 C 
BRANCH  15  16
ATOM     16  C   UNL     1     181.166 188.996 195.687  1.00  0.00    -0.000 C 
BRANCH  16  17
ATOM     17  C   UNL     1     181.543 188.449 194.300  1.00  0.00    -0.003 C 
ATOM     18  C   UNL     1     181.121 189.370 193.158  1.00  0.00     0.004 C 
ENDBRANCH  16  17
ENDBRANCH  15  16
ENDBRANCH  14  15
ENDBRANCH  13  14
ENDBRANCH  12  13
ENDBRANCH  11  12
ENDBRANCH   1  11
TORSDOF 14
ENDMDL
MODEL 7
REMARK VINA RESULT:     0.024      3.802      5.684
REMARK INTER + INTRA:          -3.060
REMARK INTER:                   0.000
REMARK INTRA:                  -3.060
REMARK UNBOUND:                -3.105
REMARK SMILES CCCCCCCCCCCCCCCC(=O)[O-]
REMARK SMILES IDX 9 1 10 2 11 3 12 4 13 5 14 6 15 7 16 8 17 9 18 10 8 11 7 12
REMARK SMILES IDX 6 13 5 14 4 15 3 16 2 17 1 18
REMARK H PARENT
REMARK Flexibility Score: inf
ROOT
ATOM      1  C   UNL     1     175.897 191.472 197.682  1.00  0.00     0.000 C 
ENDROOT
BRANCH   1   2
ATOM      2  C   UNL     1     174.394 191.230 197.454  1.00  0.00     0.000 C 
BRANCH   2   3
ATOM      3  C   UNL     1     173.504 192.063 198.394  1.00  0.00     0.000 C 
BRANCH   3   4
ATOM      4  C   UNL     1     172.614 193.107 197.694  1.00  0.00     0.000 C 
BRANCH   4   5
ATOM      5  C   UNL     1     172.330 192.762 196.222  1.00  0.00     0.000 C 
BRANCH   5   6
ATOM      6  C   UNL     1     171.734 193.945 195.434  1.00  0.00     0.006 C 
BRANCH   6   7
ATOM      7  C   UNL     1     172.052 193.913 193.929  1.00  0.00     0.053 C 
BRANCH   7   8
ATOM      8  C   UNL     1     171.712 192.597 193.298  1.00  0.00     0.041 C 
ATOM      9  O   UNL     1     170.510 192.235 193.195  1.00  0.00    -0.550 OA
ATOM     10  O   UNL     1     172.724 191.775 192.816  1.00  0.00    -0.550 OA
ENDBRANCH   7   8
ENDBRANCH   6   7
ENDBRANCH   5   6
ENDBRANCH   4   5
ENDBRANCH   3   4
ENDBRANCH   2   3
ENDBRANCH   1   2
BRANCH   1  11
ATOM     11  C   UNL     1     176.630 191.847 196.386  1.00  0.00     0.000 C 
BRANCH  11  12
ATOM     12  C   UNL     1     175.715 191.769 195.150  1.00  0.00    -0.000 C 
BRANCH  12  13
ATOM     13  C   UNL     1     175.625 193.119 194.409  1.00  0.00    -0.000 C 
BRANCH  13  14
ATOM     14  C   UNL     1     176.177 194.301 195.227  1.00  0.00    -0.000 C 
BRANCH  14  15
ATOM     15  C   UNL     1     175.137 195.409 195.455  1.00  0.00    -0.000 C 
BRANCH  15  16
ATOM     16  C   UNL     1     174.981 195.763 196.949  1.00  0.00    -0.000 C 
BRANCH  16  17
ATOM     17  C   UNL     1     176.121 195.224 197.830  1.00  0.00    -0.003 C 
ATOM     18  C   UNL     1     175.678 194.906 199.256  1.00  0.00     0.004 C 
ENDBRANCH  16  17
ENDBRANCH  15  16
ENDBRANCH  14  15
ENDBRANCH  13  14
ENDBRANCH  12  13
ENDBRANCH  11  12
ENDBRANCH   1  11
TORSDOF 14
ENDMDL
MODEL 8
REMARK VINA RESULT:     0.031      7.469      9.365
REMARK INTER + INTRA:          -3.049
REMARK INTER:                   0.000
REMARK INTRA:                  -3.049
REMARK UNBOUND:                -3.105
REMARK SMILES CCCCCCCCCCCCCCCC(=O)[O-]
REMARK SMILES IDX 9 1 10 2 11 3 12 4 13 5 14 6 15 7 16 8 17 9 18 10 8 11 7 12
REMARK SMILES IDX 6 13 5 14 4 15 3 16 2 17 1 18
REMARK H PARENT
REMARK Flexibility Score: inf
ROOT
ATOM      1  C   UNL     1     176.103 187.625 190.609  1.00  0.00     0.000 C 
ENDROOT
BRANCH   1   2
ATOM      2  C   UNL     1     174.709 187.573 191.263  1.00  0.00     0.000 C 
BRANCH   2   3
ATOM      3  C   UNL     1     173.717 186.688 190.486  1.00  0.00     0.000 C 
BRANCH   3   4
ATOM      4  C   UNL     1     172.316 187.297 190.292  1.00  0.00     0.000 C 
BRANCH   4   5
ATOM      5  C   UNL     1     172.142 188.645 191.013  1.00  0.00     0.000 C 
BRANCH   5   6
ATOM      6  C   UNL     1     171.250 189.630 190.233  1.00  0.00     0.006 C 
BRANCH   6   7
ATOM      7  C   UNL     1     170.416 188.969 189.122  1.00  0.00     0.053 C 
BRANCH   7   8
ATOM      8  C   UNL     1     170.090 189.916 188.008  1.00  0.00     0.041 C 
ATOM      9  O   UNL     1     170.088 191.159 188.212  1.00  0.00    -0.550 OA
ATOM     10  O   UNL     1     169.797 189.425 186.741  1.00  0.00    -0.550 OA
ENDBRANCH   7   8
ENDBRANCH   6   7
ENDBRANCH   5   6
ENDBRANCH   4   5
ENDBRANCH   3   4
ENDBRANCH   2   3
ENDBRANCH   1   2
BRANCH   1  11
ATOM     11  C   UNL     1     176.482 189.044 190.161  1.00  0.00     0.000 C 
BRANCH  11  12
ATOM     12  C   UNL     1     175.520 190.111 190.711  1.00  0.00    -0.000 C 
BRANCH  12  13
ATOM     13  C   UNL     1     174.795 190.875 189.584  1.00  0.00    -0.000 C 
BRANCH  13  14
ATOM     14  C   UNL     1     175.029 190.267 188.189  1.00  0.00    -0.000 C 
BRANCH  14  15
ATOM     15  C   UNL     1     173.730 189.801 187.513  1.00  0.00    -0.000 C 
BRANCH  15  16
ATOM     16  C   UNL     1     173.792 188.317 187.094  1.00  0.00    -0.000 C 
BRANCH  16  17
ATOM     17  C   UNL     1     175.225 187.782 186.936  1.00  0.00    -0.003 C 
ATOM     18  C   UNL     1     175.334 186.278 187.173  1.00  0.00     0.004 C 
ENDBRANCH  16  17
ENDBRANCH  15  16
ENDBRANCH  14  15
ENDBRANCH  13  14
ENDBRANCH  12  13
ENDBRANCH  11  12
ENDBRANCH   1  11
TORSDOF 14
ENDMDL
MODEL 9
REMARK VINA RESULT:     0.036      4.343      7.149
REMARK INTER + INTRA:          -3.039
REMARK INTER:                   0.000
REMARK INTRA:                  -3.039
REMARK UNBOUND:                -3.105
REMARK SMILES CCCCCCCCCCCCCCCC(=O)[O-]
REMARK SMILES IDX 9 1 10 2 11 3 12 4 13 5 14 6 15 7 16 8 17 9 18 10 8 11 7 12
REMARK SMILES IDX 6 13 5 14 4 15 3 16 2 17 1 18
REMARK H PARENT
REMARK Flexibility Score: inf
ROOT
ATOM      1  C   UNL     1     167.146 193.185 195.946  1.00  0.00     0.000 C 
ENDROOT
BRANCH   1   2
ATOM      2  C   UNL     1     167.687 193.632 194.575  1.00  0.00     0.000 C 
BRANCH   2   3
ATOM      3  C   UNL     1     168.765 194.727 194.686  1.00  0.00     0.000 C 
BRANCH   3   4
ATOM      4  C   UNL     1     170.217 194.223 194.601  1.00  0.00     0.000 C 
BRANCH   4   5
ATOM      5  C   UNL     1     171.162 194.950 195.573  1.00  0.00     0.000 C 
BRANCH   5   6
ATOM      6  C   UNL     1     170.458 196.065 196.370  1.00  0.00     0.006 C 
BRANCH   6   7
ATOM      7  C   UNL     1     170.883 196.138 197.847  1.00  0.00     0.053 C 
BRANCH   7   8
ATOM      8  C   UNL     1     169.968 196.994 198.667  1.00  0.00     0.041 C 
ATOM      9  O   UNL     1     169.539 198.085 198.207  1.00  0.00    -0.550 OA
ATOM     10  O   UNL     1     169.584 196.583 199.938  1.00  0.00    -0.550 OA
ENDBRANCH   7   8
ENDBRANCH   6   7
ENDBRANCH   5   6
ENDBRANCH   4   5
ENDBRANCH   3   4
ENDBRANCH   2   3
ENDBRANCH   1   2
BRANCH   1  11
ATOM     11  C   UNL     1     167.250 194.294 197.002  1.00  0.00     0.000 C 
BRANCH  11  12
ATOM     12  C   UNL     1     167.986 193.830 198.272  1.00  0.00    -0.000 C 
BRANCH  12  13
ATOM     13  C   UNL     1     168.634 192.441 198.091  1.00  0.00    -0.000 C 
BRANCH  13  14
ATOM     14  C   UNL     1     170.172 192.476 198.143  1.00  0.00    -0.000 C 
BRANCH  14  15
ATOM     15  C   UNL     1     170.827 191.542 197.112  1.00  0.00    -0.000 C 
BRANCH  15  16
ATOM     16  C   UNL     1     169.811 190.568 196.480  1.00  0.00    -0.000 C 
BRANCH  16  17
ATOM     17  C   UNL     1     169.844 190.559 194.942  1.00  0.00    -0.003 C 
ATOM     18  C   UNL     1     168.555 190.027 194.318  1.00  0.00     0.004 C 
ENDBRANCH  16  17
ENDBRANCH  15  16
ENDBRANCH  14  15
ENDBRANCH  13  14
ENDBRANCH  12  13
ENDBRANCH  11  12
ENDBRANCH   1  11
TORSDOF 14
ENDMDL
