MODEL 1
REMARK VINA RESULT:    -1.015      0.000      0.000
REMARK INTER + INTRA:          -1.454
REMARK INTER:                  -1.252
REMARK INTRA:                  -0.202
REMARK UNBOUND:                -0.202
REMARK SMILES CCCCCC(=O)[O-]
REMARK SMILES IDX 4 1 5 2 6 3 7 4 8 5 3 6 2 7 1 8
REMARK H PARENT
REMARK Flexibility Score: inf
ROOT
ATOM      1  C   UNL     1      35.209   3.874  42.121  1.00  0.00     0.006 C 
ENDROOT
BRANCH   1   2
ATOM      2  C   UNL     1      34.304   3.410  40.977  1.00  0.00     0.053 C 
BRANCH   2   3
ATOM      3  C   UNL     1      34.379   1.924  40.818  1.00  0.00     0.041 C 
ATOM      4  O   UNL     1      35.253   1.411  40.071  1.00  0.00    -0.550 OA
ATOM      5  O   UNL     1      33.515   1.104  41.532  1.00  0.00    -0.550 OA
ENDBRANCH   2   3
ENDBRANCH   1   2
BRANCH   1   6
ATOM      6  C   UNL     1      36.389   4.701  41.588  1.00  0.00     0.000 C 
BRANCH   6   7
ATOM      7  C   UNL     1      37.743   4.213  42.125  1.00  0.00    -0.003 C 
ATOM      8  C   UNL     1      37.899   2.695  42.044  1.00  0.00     0.004 C 
ENDBRANCH   6   7
ENDBRANCH   1   6
TORSDOF 4
ENDMDL
MODEL 2
REMARK VINA RESULT:    -1.012      1.883      2.576
REMARK INTER + INTRA:          -1.451
REMARK INTER:                  -1.319
REMARK INTRA:                  -0.132
REMARK UNBOUND:                -0.202
REMARK SMILES CCCCCC(=O)[O-]
REMARK SMILES IDX 4 1 5 2 6 3 7 4 8 5 3 6 2 7 1 8
REMARK H PARENT
REMARK Flexibility Score: inf
ROOT
ATOM      1  C   UNL     1      37.089   4.285  42.125  1.00  0.00     0.006 C 
ENDROOT
BRANCH   1   2
ATOM      2  C   UNL     1      36.036   3.174  42.109  1.00  0.00     0.053 C 
BRANCH   2   3
ATOM      3  C   UNL     1      34.684   3.736  41.803  1.00  0.00     0.041 C 
ATOM      4  O   UNL     1      33.648   3.061  42.038  1.00  0.00    -0.550 OA
ATOM      5  O   UNL     1      34.566   5.027  41.302  1.00  0.00    -0.550 OA
ENDBRANCH   2   3
ENDBRANCH   1   2
BRANCH   1   6
ATOM      6  C   UNL     1      38.461   3.749  41.688  1.00  0.00     0.000 C 
BRANCH   6   7
ATOM      7  C   UNL     1      38.360   2.420  40.924  1.00  0.00    -0.003 C 
ATOM      8  C   UNL     1      39.504   1.461  41.251  1.00  0.00     0.004 C 
ENDBRANCH   6   7
ENDBRANCH   1   6
TORSDOF 4
ENDMDL
MODEL 3
REMARK VINA RESULT:    -1.008      3.641      5.033
REMARK INTER + INTRA:          -1.446
REMARK INTER:                  -1.349
REMARK INTRA:                  -0.097
REMARK UNBOUND:                -0.202
REMARK SMILES CCCCCC(=O)[O-]
REMARK SMILES IDX 4 1 5 2 6 3 7 4 8 5 3 6 2 7 1 8
REMARK H PARENT
REMARK Flexibility Score: inf
ROOT
ATOM      1  C   UNL     1      38.308   1.569  42.022  1.00  0.00     0.006 C 
ENDROOT
BRANCH   1   2
ATOM      2  C   UNL     1      39.195   1.088  40.871  1.00  0.00     0.053 C 
BRANCH   2   3
ATOM      3  C   UNL     1      40.577   1.644  41.007  1.00  0.00     0.041 C 
ATOM      4  O   UNL     1      41.552   0.876  41.217  1.00  0.00    -0.550 OA
ATOM      5  O   UNL     1      40.796   3.008  40.852  1.00  0.00    -0.550 OA
ENDBRANCH   2   3
ENDBRANCH   1   2
BRANCH   1   6
ATOM      6  C   UNL     1      36.829   1.265  41.739  1.00  0.00     0.000 C 
BRANCH   6   7
ATOM      7  C   UNL     1      35.903   2.430  42.122  1.00  0.00    -0.003 C 
ATOM      8  C   UNL     1      36.598   3.789  42.045  1.00  0.00     0.004 C 
ENDBRANCH   6   7
ENDBRANCH   1   6
TORSDOF 4
ENDMDL
MODEL 4
REMARK VINA RESULT:    -0.968      2.001      2.458
REMARK INTER + INTRA:          -1.396
REMARK INTER:                  -1.292
REMARK INTRA:                  -0.104
REMARK UNBOUND:                -0.202
REMARK SMILES CCCCCC(=O)[O-]
REMARK SMILES IDX 4 1 5 2 6 3 7 4 8 5 3 6 2 7 1 8
REMARK H PARENT
REMARK Flexibility Score: inf
ROOT
ATOM      1  C   UNL     1      35.715   2.127  40.778  1.00  0.00     0.006 C 
ENDROOT
BRANCH   1   2
ATOM      2  C   UNL     1      34.721   1.624  41.828  1.00  0.00     0.053 C 
BRANCH   2   3
ATOM      3  C   UNL     1      33.554   2.554  41.933  1.00  0.00     0.041 C 
ATOM      4  O   UNL     1      32.379   2.103  41.893  1.00  0.00    -0.550 OA
ATOM      5  O   UNL     1      33.764   3.914  42.124  1.00  0.00    -0.550 OA
ENDBRANCH   2   3
ENDBRANCH   1   2
BRANCH   1   6
ATOM      6  C   UNL     1      37.020   2.597  41.438  1.00  0.00     0.000 C 
BRANCH   6   7
ATOM      7  C   UNL     1      37.782   1.452  42.124  1.00  0.00    -0.003 C 
ATOM      8  C   UNL     1      39.186   1.251  41.554  1.00  0.00     0.004 C 
ENDBRANCH   6   7
ENDBRANCH   1   6
TORSDOF 4
ENDMDL
MODEL 5
REMARK VINA RESULT:    -0.927      2.393      3.688
REMARK INTER + INTRA:          -1.346
REMARK INTER:                  -1.106
REMARK INTRA:                  -0.240
REMARK UNBOUND:                -0.202
REMARK SMILES CCCCCC(=O)[O-]
REMARK SMILES IDX 4 1 5 2 6 3 7 4 8 5 3 6 2 7 1 8
REMARK H PARENT
REMARK Flexibility Score: inf
ROOT
ATOM      1  C   UNL     1      36.257   2.378  41.215  1.00  0.00     0.006 C 
ENDROOT
BRANCH   1   2
ATOM      2  C   UNL     1      36.368   3.616  42.108  1.00  0.00     0.053 C 
BRANCH   2   3
ATOM      3  C   UNL     1      35.446   4.693  41.628  1.00  0.00     0.041 C 
ATOM      4  O   UNL     1      35.906   5.701  41.031  1.00  0.00    -0.550 OA
ATOM      5  O   UNL     1      34.074   4.559  41.798  1.00  0.00    -0.550 OA
ENDBRANCH   2   3
ENDBRANCH   1   2
BRANCH   1   6
ATOM      6  C   UNL     1      35.841   1.146  42.033  1.00  0.00     0.000 C 
BRANCH   6   7
ATOM      7  C   UNL     1      34.317   0.979  42.117  1.00  0.00    -0.003 C 
ATOM      8  C   UNL     1      33.624   1.181  40.770  1.00  0.00     0.004 C 
ENDBRANCH   6   7
ENDBRANCH   1   6
TORSDOF 4
ENDMDL
MODEL 6
REMARK VINA RESULT:    -0.905      2.456      3.644
REMARK INTER + INTRA:          -1.319
REMARK INTER:                  -1.191
REMARK INTRA:                  -0.128
REMARK UNBOUND:                -0.202
REMARK SMILES CCCCCC(=O)[O-]
REMARK SMILES IDX 4 1 5 2 6 3 7 4 8 5 3 6 2 7 1 8
REMARK H PARENT
REMARK Flexibility Score: inf
ROOT
ATOM      1  C   UNL     1      38.561   2.795  40.970  1.00  0.00     0.006 C 
ENDROOT
BRANCH   1   2
ATOM      2  C   UNL     1      37.847   3.501  42.125  1.00  0.00     0.053 C 
BRANCH   2   3
ATOM      3  C   UNL     1      36.371   3.545  41.880  1.00  0.00     0.041 C 
ATOM      4  O   UNL     1      35.721   4.596  42.118  1.00  0.00    -0.550 OA
ATOM      5  O   UNL     1      35.722   2.441  41.342  1.00  0.00    -0.550 OA
ENDBRANCH   2   3
ENDBRANCH   1   2
BRANCH   1   6
ATOM      6  C   UNL     1      39.124   1.438  41.418  1.00  0.00     0.000 C 
BRANCH   6   7
ATOM      7  C   UNL     1      40.603   1.259  41.047  1.00  0.00    -0.003 C 
ATOM      8  C   UNL     1      41.262   2.562  40.595  1.00  0.00     0.004 C 
ENDBRANCH   6   7
ENDBRANCH   1   6
TORSDOF 4
ENDMDL
MODEL 7
REMARK VINA RESULT:    -0.899      1.549      2.004
REMARK INTER + INTRA:          -1.311
REMARK INTER:                  -1.203
REMARK INTRA:                  -0.108
REMARK UNBOUND:                -0.202
REMARK SMILES CCCCCC(=O)[O-]
REMARK SMILES IDX 4 1 5 2 6 3 7 4 8 5 3 6 2 7 1 8
REMARK H PARENT
REMARK Flexibility Score: inf
ROOT
ATOM      1  C   UNL     1      35.969   2.899  40.703  1.00  0.00     0.006 C 
ENDROOT
BRANCH   1   2
ATOM      2  C   UNL     1      35.458   2.652  42.125  1.00  0.00     0.053 C 
BRANCH   2   3
ATOM      3  C   UNL     1      34.022   2.233  42.101  1.00  0.00     0.041 C 
ATOM      4  O   UNL     1      33.111   3.098  42.031  1.00  0.00    -0.550 OA
ATOM      5  O   UNL     1      33.692   0.883  42.106  1.00  0.00    -0.550 OA
ENDBRANCH   2   3
ENDBRANCH   1   2
BRANCH   1   6
ATOM      6  C   UNL     1      37.498   2.768  40.637  1.00  0.00     0.000 C 
BRANCH   6   7
ATOM      7  C   UNL     1      38.192   3.297  41.902  1.00  0.00    -0.003 C 
ATOM      8  C   UNL     1      38.572   4.773  41.794  1.00  0.00     0.004 C 
ENDBRANCH   6   7
ENDBRANCH   1   6
TORSDOF 4
ENDMDL
MODEL 8
REMARK VINA RESULT:    -0.897      2.353      2.830
REMARK INTER + INTRA:          -1.309
REMARK INTER:                  -1.156
REMARK INTRA:                  -0.153
REMARK UNBOUND:                -0.202
REMARK SMILES CCCCCC(=O)[O-]
REMARK SMILES IDX 4 1 5 2 6 3 7 4 8 5 3 6 2 7 1 8
REMARK H PARENT
REMARK Flexibility Score: inf
ROOT
ATOM      1  C   UNL     1      36.621   3.433  41.237  1.00  0.00     0.006 C 
ENDROOT
BRANCH   1   2
ATOM      2  C   UNL     1      35.396   3.708  42.114  1.00  0.00     0.053 C 
BRANCH   2   3
ATOM      3  C   UNL     1      34.461   4.653  41.428  1.00  0.00     0.041 C 
ATOM      4  O   UNL     1      33.719   4.245  40.496  1.00  0.00    -0.550 OA
ATOM      5  O   UNL     1      34.374   5.974  41.850  1.00  0.00    -0.550 OA
ENDBRANCH   2   3
ENDBRANCH   1   2
BRANCH   1   6
ATOM      6  C   UNL     1      37.911   3.459  42.070  1.00  0.00     0.000 C 
BRANCH   6   7
ATOM      7  C   UNL     1      38.553   4.853  42.122  1.00  0.00    -0.003 C 
ATOM      8  C   UNL     1      38.282   5.677  40.863  1.00  0.00     0.004 C 
ENDBRANCH   6   7
ENDBRANCH   1   6
TORSDOF 4
ENDMDL
MODEL 9
REMARK VINA RESULT:    -0.858      2.367      3.566
REMARK INTER + INTRA:          -1.261
REMARK INTER:                  -1.064
REMARK INTRA:                  -0.197
REMARK UNBOUND:                -0.202
REMARK SMILES CCCCCC(=O)[O-]
REMARK SMILES IDX 4 1 5 2 6 3 7 4 8 5 3 6 2 7 1 8
REMARK H PARENT
REMARK Flexibility Score: inf
ROOT
ATOM      1  C   UNL     1      36.311   3.654  40.546  1.00  0.00     0.006 C 
ENDROOT
BRANCH   1   2
ATOM      2  C   UNL     1      36.947   2.289  40.268  1.00  0.00     0.053 C 
BRANCH   2   3
ATOM      3  C   UNL     1      38.098   2.049  41.194  1.00  0.00     0.041 C 
ATOM      4  O   UNL     1      39.077   2.840  41.207  1.00  0.00    -0.550 OA
ATOM      5  O   UNL     1      38.066   0.977  42.078  1.00  0.00    -0.550 OA
ENDBRANCH   2   3
ENDBRANCH   1   2
BRANCH   1   6
ATOM      6  C   UNL     1      35.670   3.688  41.941  1.00  0.00     0.000 C 
BRANCH   6   7
ATOM      7  C   UNL     1      34.598   2.603  42.125  1.00  0.00    -0.003 C 
ATOM      8  C   UNL     1      33.226   3.031  41.605  1.00  0.00     0.004 C 
ENDBRANCH   6   7
ENDBRANCH   1   6
TORSDOF 4
ENDMDL
