MODEL 1
REMARK VINA RESULT:    -4.776      0.000      0.000
REMARK INTER + INTRA:          -4.915
REMARK INTER:                  -4.915
REMARK INTRA:                   0.000
REMARK UNBOUND:                 0.000
REMARK SMILES Cc1ccccc1O
REMARK SMILES IDX 1 1 2 2 3 3 4 4 5 5 6 6 7 7 8 8
REMARK H PARENT 8 9
REMARK Flexibility Score: inf
ROOT
ATOM      1  C   UNL     1      -6.707   9.213  -6.259  1.00  0.00     0.048 C 
ATOM      2  C   UNL     1      -5.649   9.939  -7.044  1.00  0.00    -0.009 A 
ATOM      3  C   UNL     1      -4.831  10.884  -6.399  1.00  0.00     0.007 A 
ATOM      4  C   UNL     1      -3.844  11.569  -7.111  1.00  0.00     0.001 A 
ATOM      5  C   UNL     1      -3.661  11.319  -8.471  1.00  0.00     0.004 A 
ATOM      6  C   UNL     1      -4.466  10.383  -9.125  1.00  0.00     0.046 A 
ATOM      7  C   UNL     1      -5.460   9.689  -8.424  1.00  0.00     0.118 A 
ENDROOT
BRANCH   7   8
ATOM      8  O   UNL     1      -6.239   8.764  -9.121  1.00  0.00    -0.508 OA
ATOM      9  H   UNL     1      -6.924   9.032  -9.816  1.00  0.00     0.293 HD
ENDBRANCH   7   8
TORSDOF 1
ENDMDL
MODEL 2
REMARK VINA RESULT:    -4.581      1.995      2.876
REMARK INTER + INTRA:          -4.715
REMARK INTER:                  -4.715
REMARK INTRA:                   0.000
REMARK UNBOUND:                 0.000
REMARK SMILES Cc1ccccc1O
REMARK SMILES IDX 1 1 2 2 3 3 4 4 5 5 6 6 7 7 8 8
REMARK H PARENT 8 9
REMARK Flexibility Score: inf
ROOT
ATOM      1  C   UNL     1      -5.101  12.382  -5.336  1.00  0.00     0.048 C 
ATOM      2  C   UNL     1      -5.123  11.345  -6.426  1.00  0.00    -0.009 A 
ATOM      3  C   UNL     1      -6.238  10.498  -6.556  1.00  0.00     0.007 A 
ATOM      4  C   UNL     1      -6.277   9.528  -7.561  1.00  0.00     0.001 A 
ATOM      5  C   UNL     1      -5.207   9.394  -8.446  1.00  0.00     0.004 A 
ATOM      6  C   UNL     1      -4.093  10.228  -8.328  1.00  0.00     0.046 A 
ATOM      7  C   UNL     1      -4.040  11.204  -7.325  1.00  0.00     0.118 A 
ENDROOT
BRANCH   7   8
ATOM      8  O   UNL     1      -2.905  12.014  -7.248  1.00  0.00    -0.508 OA
ATOM      9  H   UNL     1      -2.855  12.840  -6.666  1.00  0.00     0.293 HD
ENDBRANCH   7   8
TORSDOF 1
ENDMDL
MODEL 3
REMARK VINA RESULT:    -4.412     17.484     18.470
REMARK INTER + INTRA:          -4.541
REMARK INTER:                  -4.541
REMARK INTRA:                   0.000
REMARK UNBOUND:                 0.000
REMARK SMILES Cc1ccccc1O
REMARK SMILES IDX 1 1 2 2 3 3 4 4 5 5 6 6 7 7 8 8
REMARK H PARENT 8 9
REMARK Flexibility Score: inf
ROOT
ATOM      1  C   UNL     1       8.469  10.936   7.274  1.00  0.00     0.048 C 
ATOM      2  C   UNL     1       7.096  10.862   6.665  1.00  0.00    -0.009 A 
ATOM      3  C   UNL     1       6.900  11.295   5.340  1.00  0.00     0.007 A 
ATOM      4  C   UNL     1       5.632  11.234   4.757  1.00  0.00     0.001 A 
ATOM      5  C   UNL     1       4.548  10.742   5.485  1.00  0.00     0.004 A 
ATOM      6  C   UNL     1       4.729  10.310   6.800  1.00  0.00     0.046 A 
ATOM      7  C   UNL     1       5.994  10.364   7.399  1.00  0.00     0.118 A 
ENDROOT
BRANCH   7   8
ATOM      8  O   UNL     1       6.123   9.920   8.716  1.00  0.00    -0.508 OA
ATOM      9  H   UNL     1       6.956  10.071   9.270  1.00  0.00     0.293 HD
ENDBRANCH   7   8
TORSDOF 1
ENDMDL
MODEL 4
REMARK VINA RESULT:    -4.364     17.261     18.127
REMARK INTER + INTRA:          -4.492
REMARK INTER:                  -4.492
REMARK INTRA:                   0.000
REMARK UNBOUND:                 0.000
REMARK SMILES Cc1ccccc1O
REMARK SMILES IDX 1 1 2 2 3 3 4 4 5 5 6 6 7 7 8 8
REMARK H PARENT 8 9
REMARK Flexibility Score: inf
ROOT
ATOM      1  C   UNL     1       3.916  10.023   7.769  1.00  0.00     0.048 C 
ATOM      2  C   UNL     1       5.013  10.476   6.845  1.00  0.00    -0.009 A 
ATOM      3  C   UNL     1       4.697  10.875   5.534  1.00  0.00     0.007 A 
ATOM      4  C   UNL     1       5.703  11.298   4.661  1.00  0.00     0.001 A 
ATOM      5  C   UNL     1       7.031  11.329   5.086  1.00  0.00     0.004 A 
ATOM      6  C   UNL     1       7.360  10.935   6.384  1.00  0.00     0.046 A 
ATOM      7  C   UNL     1       6.362  10.508   7.271  1.00  0.00     0.118 A 
ENDROOT
BRANCH   7   8
ATOM      8  O   UNL     1       6.741  10.125   8.559  1.00  0.00    -0.508 OA
ATOM      9  H   UNL     1       7.671  10.275   8.928  1.00  0.00     0.293 HD
ENDBRANCH   7   8
TORSDOF 1
ENDMDL
MODEL 5
REMARK VINA RESULT:    -4.331     18.352     19.128
REMARK INTER + INTRA:          -4.458
REMARK INTER:                  -4.458
REMARK INTRA:                   0.000
REMARK UNBOUND:                 0.000
REMARK SMILES Cc1ccccc1O
REMARK SMILES IDX 1 1 2 2 3 3 4 4 5 5 6 6 7 7 8 8
REMARK H PARENT 8 9
REMARK Flexibility Score: inf
ROOT
ATOM      1  C   UNL     1       4.113   8.770   8.102  1.00  0.00     0.048 C 
ATOM      2  C   UNL     1       4.737  10.137   8.040  1.00  0.00    -0.009 A 
ATOM      3  C   UNL     1       5.290  10.594   6.831  1.00  0.00     0.007 A 
ATOM      4  C   UNL     1       5.874  11.861   6.754  1.00  0.00     0.001 A 
ATOM      5  C   UNL     1       5.912  12.684   7.880  1.00  0.00     0.004 A 
ATOM      6  C   UNL     1       5.367  12.242   9.088  1.00  0.00     0.046 A 
ATOM      7  C   UNL     1       4.778  10.975   9.179  1.00  0.00     0.118 A 
ENDROOT
BRANCH   7   8
ATOM      8  O   UNL     1       4.247  10.579  10.409  1.00  0.00    -0.508 OA
ATOM      9  H   UNL     1       4.464  11.045  11.279  1.00  0.00     0.293 HD
ENDBRANCH   7   8
TORSDOF 1
ENDMDL
MODEL 6
REMARK VINA RESULT:    -4.280     17.020     17.931
REMARK INTER + INTRA:          -4.405
REMARK INTER:                  -4.405
REMARK INTRA:                   0.000
REMARK UNBOUND:                 0.000
REMARK SMILES Cc1ccccc1O
REMARK SMILES IDX 1 1 2 2 3 3 4 4 5 5 6 6 7 7 8 8
REMARK H PARENT 8 9
REMARK Flexibility Score: inf
ROOT
ATOM      1  C   UNL     1       5.876  11.777   8.669  1.00  0.00     0.048 C 
ATOM      2  C   UNL     1       5.955  11.812   7.168  1.00  0.00    -0.009 A 
ATOM      3  C   UNL     1       6.539  12.921   6.528  1.00  0.00     0.007 A 
ATOM      4  C   UNL     1       6.622  12.971   5.134  1.00  0.00     0.001 A 
ATOM      5  C   UNL     1       6.125  11.919   4.365  1.00  0.00     0.004 A 
ATOM      6  C   UNL     1       5.543  10.812   4.986  1.00  0.00     0.046 A 
ATOM      7  C   UNL     1       5.453  10.747   6.382  1.00  0.00     0.118 A 
ENDROOT
BRANCH   7   8
ATOM      8  O   UNL     1       4.863   9.619   6.957  1.00  0.00    -0.508 OA
ATOM      9  H   UNL     1       5.367   8.977   7.553  1.00  0.00     0.293 HD
ENDBRANCH   7   8
TORSDOF 1
ENDMDL
MODEL 7
REMARK VINA RESULT:    -4.263      1.896      3.559
REMARK INTER + INTRA:          -4.388
REMARK INTER:                  -4.388
REMARK INTRA:                   0.000
REMARK UNBOUND:                 0.000
REMARK SMILES Cc1ccccc1O
REMARK SMILES IDX 1 1 2 2 3 3 4 4 5 5 6 6 7 7 8 8
REMARK H PARENT 8 9
REMARK Flexibility Score: inf
ROOT
ATOM      1  C   UNL     1      -3.365  11.560  -9.120  1.00  0.00     0.048 C 
ATOM      2  C   UNL     1      -4.331  10.729  -8.322  1.00  0.00    -0.009 A 
ATOM      3  C   UNL     1      -5.074   9.720  -8.962  1.00  0.00     0.007 A 
ATOM      4  C   UNL     1      -5.977   8.938  -8.237  1.00  0.00     0.001 A 
ATOM      5  C   UNL     1      -6.148   9.153  -6.869  1.00  0.00     0.004 A 
ATOM      6  C   UNL     1      -5.418  10.151  -6.221  1.00  0.00     0.046 A 
ATOM      7  C   UNL     1      -4.509  10.943  -6.935  1.00  0.00     0.118 A 
ENDROOT
BRANCH   7   8
ATOM      8  O   UNL     1      -3.803  11.928  -6.242  1.00  0.00    -0.508 OA
ATOM      9  H   UNL     1      -2.934  11.746  -5.758  1.00  0.00     0.293 HD
ENDBRANCH   7   8
TORSDOF 1
ENDMDL
MODEL 8
REMARK VINA RESULT:    -4.080     17.813     18.790
REMARK INTER + INTRA:          -4.199
REMARK INTER:                  -4.199
REMARK INTRA:                   0.000
REMARK UNBOUND:                 0.000
REMARK SMILES Cc1ccccc1O
REMARK SMILES IDX 1 1 2 2 3 3 4 4 5 5 6 6 7 7 8 8
REMARK H PARENT 8 9
REMARK Flexibility Score: inf
ROOT
ATOM      1  C   UNL     1       5.564  11.323   4.517  1.00  0.00     0.048 C 
ATOM      2  C   UNL     1       6.781  11.434   5.393  1.00  0.00    -0.009 A 
ATOM      3  C   UNL     1       7.806  12.333   5.047  1.00  0.00     0.007 A 
ATOM      4  C   UNL     1       8.946  12.450   5.847  1.00  0.00     0.001 A 
ATOM      5  C   UNL     1       9.074  11.673   6.999  1.00  0.00     0.004 A 
ATOM      6  C   UNL     1       8.065  10.776   7.355  1.00  0.00     0.046 A 
ATOM      7  C   UNL     1       6.917  10.648   6.562  1.00  0.00     0.118 A 
ENDROOT
BRANCH   7   8
ATOM      8  O   UNL     1       5.936   9.738   6.959  1.00  0.00    -0.508 OA
ATOM      9  H   UNL     1       5.544   9.722   7.891  1.00  0.00     0.293 HD
ENDBRANCH   7   8
TORSDOF 1
ENDMDL
MODEL 9
REMARK VINA RESULT:    -4.034      1.737      2.427
REMARK INTER + INTRA:          -4.152
REMARK INTER:                  -4.152
REMARK INTRA:                   0.000
REMARK UNBOUND:                 0.000
REMARK SMILES Cc1ccccc1O
REMARK SMILES IDX 1 1 2 2 3 3 4 4 5 5 6 6 7 7 8 8
REMARK H PARENT 8 9
REMARK Flexibility Score: inf
ROOT
ATOM      1  C   UNL     1      -6.747   9.414  -6.499  1.00  0.00     0.048 C 
ATOM      2  C   UNL     1      -5.579  10.050  -7.200  1.00  0.00    -0.009 A 
ATOM      3  C   UNL     1      -5.175   9.565  -8.458  1.00  0.00     0.007 A 
ATOM      4  C   UNL     1      -4.091  10.143  -9.125  1.00  0.00     0.001 A 
ATOM      5  C   UNL     1      -3.400  11.208  -8.546  1.00  0.00     0.004 A 
ATOM      6  C   UNL     1      -3.790  11.700  -7.299  1.00  0.00     0.046 A 
ATOM      7  C   UNL     1      -4.874  11.131  -6.619  1.00  0.00     0.118 A 
ENDROOT
BRANCH   7   8
ATOM      8  O   UNL     1      -5.226  11.657  -5.374  1.00  0.00    -0.508 OA
ATOM      9  H   UNL     1      -4.723  12.418  -4.936  1.00  0.00     0.293 HD
ENDBRANCH   7   8
TORSDOF 1
ENDMDL
