MODEL 1
REMARK VINA RESULT:    -2.761      0.000      0.000
REMARK INTER + INTRA:          -7.545
REMARK INTER:                  -5.020
REMARK INTRA:                  -2.524
REMARK UNBOUND:                -2.524
REMARK SMILES CCCCCCCCCCCCCCCC(=O)[O-]
REMARK SMILES IDX 9 1 10 2 11 3 12 4 13 5 14 6 15 7 16 8 17 9 18 10 8 11 7 12
REMARK SMILES IDX 6 13 5 14 4 15 3 16 2 17 1 18
REMARK H PARENT
REMARK Flexibility Score: inf
ROOT
ATOM      1  C   UNL     1     146.489 165.144 151.991  1.00  0.00     0.000 C 
ENDROOT
BRANCH   1   2
ATOM      2  C   UNL     1     146.013 163.821 151.361  1.00  0.00     0.000 C 
BRANCH   2   3
ATOM      3  C   UNL     1     145.913 162.630 152.333  1.00  0.00     0.000 C 
BRANCH   3   4
ATOM      4  C   UNL     1     146.784 161.422 151.930  1.00  0.00     0.000 C 
BRANCH   4   5
ATOM      5  C   UNL     1     148.072 161.319 152.761  1.00  0.00     0.000 C 
BRANCH   5   6
ATOM      6  C   UNL     1     149.282 161.013 151.864  1.00  0.00     0.006 C 
BRANCH   6   7
ATOM      7  C   UNL     1     150.611 161.127 152.623  1.00  0.00     0.053 C 
BRANCH   7   8
ATOM      8  C   UNL     1     150.836 159.953 153.525  1.00  0.00     0.041 C 
ATOM      9  O   UNL     1     151.030 160.128 154.758  1.00  0.00    -0.550 OA
ATOM     10  O   UNL     1     150.864 158.667 153.000  1.00  0.00    -0.550 OA
ENDBRANCH   7   8
ENDBRANCH   6   7
ENDBRANCH   5   6
ENDBRANCH   4   5
ENDBRANCH   3   4
ENDBRANCH   2   3
ENDBRANCH   1   2
BRANCH   1  11
ATOM     11  C   UNL     1     147.839 165.669 151.468  1.00  0.00     0.000 C 
BRANCH  11  12
ATOM     12  C   UNL     1     149.039 164.867 152.000  1.00  0.00    -0.000 C 
BRANCH  12  13
ATOM     13  C   UNL     1     149.534 165.379 153.362  1.00  0.00    -0.000 C 
BRANCH  13  14
ATOM     14  C   UNL     1     149.809 164.244 154.360  1.00  0.00    -0.000 C 
BRANCH  14  15
ATOM     15  C   UNL     1     148.920 164.385 155.606  1.00  0.00    -0.000 C 
BRANCH  15  16
ATOM     16  C   UNL     1     147.491 163.853 155.387  1.00  0.00    -0.000 C 
BRANCH  16  17
ATOM     17  C   UNL     1     146.371 164.851 155.729  1.00  0.00    -0.003 C 
ATOM     18  C   UNL     1     146.772 166.306 155.489  1.00  0.00     0.004 C 
ENDBRANCH  16  17
ENDBRANCH  15  16
ENDBRANCH  14  15
ENDBRANCH  13  14
ENDBRANCH  12  13
ENDBRANCH  11  12
ENDBRANCH   1  11
TORSDOF 14
ENDMDL
MODEL 2
REMARK VINA RESULT:    -2.676      1.593      3.655
REMARK INTER + INTRA:          -7.391
REMARK INTER:                  -5.168
REMARK INTRA:                  -2.223
REMARK UNBOUND:                -2.524
REMARK SMILES CCCCCCCCCCCCCCCC(=O)[O-]
REMARK SMILES IDX 9 1 10 2 11 3 12 4 13 5 14 6 15 7 16 8 17 9 18 10 8 11 7 12
REMARK SMILES IDX 6 13 5 14 4 15 3 16 2 17 1 18
REMARK H PARENT
REMARK Flexibility Score: inf
ROOT
ATOM      1  C   UNL     1     146.198 163.224 154.882  1.00  0.00     0.000 C 
ENDROOT
BRANCH   1   2
ATOM      2  C   UNL     1     146.927 162.316 153.874  1.00  0.00     0.000 C 
BRANCH   2   3
ATOM      3  C   UNL     1     146.189 162.090 152.540  1.00  0.00     0.000 C 
BRANCH   3   4
ATOM      4  C   UNL     1     147.092 162.232 151.297  1.00  0.00     0.000 C 
BRANCH   4   5
ATOM      5  C   UNL     1     148.507 162.713 151.646  1.00  0.00     0.000 C 
BRANCH   5   6
ATOM      6  C   UNL     1     149.558 161.665 151.249  1.00  0.00     0.006 C 
BRANCH   6   7
ATOM      7  C   UNL     1     149.726 160.578 152.321  1.00  0.00     0.053 C 
BRANCH   7   8
ATOM      8  C   UNL     1     150.868 159.662 152.007  1.00  0.00     0.041 C 
ATOM      9  O   UNL     1     151.059 158.626 152.698  1.00  0.00    -0.550 OA
ATOM     10  O   UNL     1     151.742 159.969 150.972  1.00  0.00    -0.550 OA
ENDBRANCH   7   8
ENDBRANCH   6   7
ENDBRANCH   5   6
ENDBRANCH   4   5
ENDBRANCH   3   4
ENDBRANCH   2   3
ENDBRANCH   1   2
BRANCH   1  11
ATOM     11  C   UNL     1     146.992 164.463 155.339  1.00  0.00     0.000 C 
BRANCH  11  12
ATOM     12  C   UNL     1     146.756 165.688 154.440  1.00  0.00    -0.000 C 
BRANCH  12  13
ATOM     13  C   UNL     1     147.946 165.976 153.511  1.00  0.00    -0.000 C 
BRANCH  13  14
ATOM     14  C   UNL     1     147.512 166.340 152.083  1.00  0.00    -0.000 C 
BRANCH  14  15
ATOM     15  C   UNL     1     146.151 165.709 151.748  1.00  0.00    -0.000 C 
BRANCH  15  16
ATOM     16  C   UNL     1     145.934 165.521 150.235  1.00  0.00    -0.000 C 
BRANCH  16  17
ATOM     17  C   UNL     1     147.128 165.929 149.355  1.00  0.00    -0.003 C 
ATOM     18  C   UNL     1     147.708 164.764 148.554  1.00  0.00     0.004 C 
ENDBRANCH  16  17
ENDBRANCH  15  16
ENDBRANCH  14  15
ENDBRANCH  13  14
ENDBRANCH  12  13
ENDBRANCH  11  12
ENDBRANCH   1  11
TORSDOF 14
ENDMDL
MODEL 3
REMARK VINA RESULT:    -2.672      2.392      4.456
REMARK INTER + INTRA:          -7.384
REMARK INTER:                  -4.975
REMARK INTRA:                  -2.409
REMARK UNBOUND:                -2.524
REMARK SMILES CCCCCCCCCCCCCCCC(=O)[O-]
REMARK SMILES IDX 9 1 10 2 11 3 12 4 13 5 14 6 15 7 16 8 17 9 18 10 8 11 7 12
REMARK SMILES IDX 6 13 5 14 4 15 3 16 2 17 1 18
REMARK H PARENT
REMARK Flexibility Score: inf
ROOT
ATOM      1  C   UNL     1     148.317 165.566 152.473  1.00  0.00     0.000 C 
ENDROOT
BRANCH   1   2
ATOM      2  C   UNL     1     148.709 165.205 153.919  1.00  0.00     0.000 C 
BRANCH   2   3
ATOM      3  C   UNL     1     147.540 165.140 154.919  1.00  0.00     0.000 C 
BRANCH   3   4
ATOM      4  C   UNL     1     146.959 163.722 155.107  1.00  0.00     0.000 C 
BRANCH   4   5
ATOM      5  C   UNL     1     148.031 162.692 155.492  1.00  0.00     0.000 C 
BRANCH   5   6
ATOM      6  C   UNL     1     147.387 161.370 155.941  1.00  0.00     0.006 C 
BRANCH   6   7
ATOM      7  C   UNL     1     148.431 160.338 156.386  1.00  0.00     0.053 C 
BRANCH   7   8
ATOM      8  C   UNL     1     147.815 159.236 157.191  1.00  0.00     0.041 C 
ATOM      9  O   UNL     1     146.562 159.120 157.253  1.00  0.00    -0.550 OA
ATOM     10  O   UNL     1     148.623 158.356 157.899  1.00  0.00    -0.550 OA
ENDBRANCH   7   8
ENDBRANCH   6   7
ENDBRANCH   5   6
ENDBRANCH   4   5
ENDBRANCH   3   4
ENDBRANCH   2   3
ENDBRANCH   1   2
BRANCH   1  11
ATOM     11  C   UNL     1     146.875 166.079 152.296  1.00  0.00     0.000 C 
BRANCH  11  12
ATOM     12  C   UNL     1     145.941 165.032 151.667  1.00  0.00    -0.000 C 
BRANCH  12  13
ATOM     13  C   UNL     1     146.707 163.842 151.067  1.00  0.00    -0.000 C 
BRANCH  13  14
ATOM     14  C   UNL     1     146.213 162.488 151.596  1.00  0.00    -0.000 C 
BRANCH  14  15
ATOM     15  C   UNL     1     147.396 161.597 152.009  1.00  0.00    -0.000 C 
BRANCH  15  16
ATOM     16  C   UNL     1     148.756 162.155 151.548  1.00  0.00    -0.000 C 
BRANCH  16  17
ATOM     17  C   UNL     1     149.959 161.700 152.390  1.00  0.00    -0.003 C 
ATOM     18  C   UNL     1     149.779 160.305 152.988  1.00  0.00     0.004 C 
ENDBRANCH  16  17
ENDBRANCH  15  16
ENDBRANCH  14  15
ENDBRANCH  13  14
ENDBRANCH  12  13
ENDBRANCH  11  12
ENDBRANCH   1  11
TORSDOF 14
ENDMDL
MODEL 4
REMARK VINA RESULT:    -2.645      7.749     10.092
REMARK INTER + INTRA:          -7.334
REMARK INTER:                  -5.124
REMARK INTRA:                  -2.210
REMARK UNBOUND:                -2.524
REMARK SMILES CCCCCCCCCCCCCCCC(=O)[O-]
REMARK SMILES IDX 9 1 10 2 11 3 12 4 13 5 14 6 15 7 16 8 17 9 18 10 8 11 7 12
REMARK SMILES IDX 6 13 5 14 4 15 3 16 2 17 1 18
REMARK H PARENT
REMARK Flexibility Score: inf
ROOT
ATOM      1  C   UNL     1     147.014 157.942 162.210  1.00  0.00     0.000 C 
ENDROOT
BRANCH   1   2
ATOM      2  C   UNL     1     146.410 159.360 162.217  1.00  0.00     0.000 C 
BRANCH   2   3
ATOM      3  C   UNL     1     146.189 159.985 160.826  1.00  0.00     0.000 C 
BRANCH   3   4
ATOM      4  C   UNL     1     146.639 159.083 159.658  1.00  0.00     0.000 C 
BRANCH   4   5
ATOM      5  C   UNL     1     148.069 159.392 159.191  1.00  0.00     0.000 C 
BRANCH   5   6
ATOM      6  C   UNL     1     148.268 158.982 157.723  1.00  0.00     0.006 C 
BRANCH   6   7
ATOM      7  C   UNL     1     147.149 159.513 156.816  1.00  0.00     0.053 C 
BRANCH   7   8
ATOM      8  C   UNL     1     147.320 160.971 156.521  1.00  0.00     0.041 C 
ATOM      9  O   UNL     1     148.351 161.382 155.926  1.00  0.00    -0.550 OA
ATOM     10  O   UNL     1     146.354 161.881 156.933  1.00  0.00    -0.550 OA
ENDBRANCH   7   8
ENDBRANCH   6   7
ENDBRANCH   5   6
ENDBRANCH   4   5
ENDBRANCH   3   4
ENDBRANCH   2   3
ENDBRANCH   1   2
BRANCH   1  11
ATOM     11  C   UNL     1     146.242 156.898 163.038  1.00  0.00     0.000 C 
BRANCH  11  12
ATOM     12  C   UNL     1     145.967 155.602 162.259  1.00  0.00    -0.000 C 
BRANCH  12  13
ATOM     13  C   UNL     1     146.093 155.789 160.738  1.00  0.00    -0.000 C 
BRANCH  13  14
ATOM     14  C   UNL     1     147.106 154.826 160.101  1.00  0.00    -0.000 C 
BRANCH  14  15
ATOM     15  C   UNL     1     148.179 155.600 159.319  1.00  0.00    -0.000 C 
BRANCH  15  16
ATOM     16  C   UNL     1     149.416 155.938 160.172  1.00  0.00    -0.000 C 
BRANCH  16  17
ATOM     17  C   UNL     1     149.733 154.921 161.281  1.00  0.00    -0.003 C 
ATOM     18  C   UNL     1     149.929 155.570 162.651  1.00  0.00     0.004 C 
ENDBRANCH  16  17
ENDBRANCH  15  16
ENDBRANCH  14  15
ENDBRANCH  13  14
ENDBRANCH  12  13
ENDBRANCH  11  12
ENDBRANCH   1  11
TORSDOF 14
ENDMDL
MODEL 5
REMARK VINA RESULT:    -2.635      7.234      9.325
REMARK INTER + INTRA:          -7.317
REMARK INTER:                  -4.783
REMARK INTRA:                  -2.534
REMARK UNBOUND:                -2.524
REMARK SMILES CCCCCCCCCCCCCCCC(=O)[O-]
REMARK SMILES IDX 9 1 10 2 11 3 12 4 13 5 14 6 15 7 16 8 17 9 18 10 8 11 7 12
REMARK SMILES IDX 6 13 5 14 4 15 3 16 2 17 1 18
REMARK H PARENT
REMARK Flexibility Score: inf
ROOT
ATOM      1  C   UNL     1     148.691 160.232 161.498  1.00  0.00     0.000 C 
ENDROOT
BRANCH   1   2
ATOM      2  C   UNL     1     147.397 159.605 162.052  1.00  0.00     0.000 C 
BRANCH   2   3
ATOM      3  C   UNL     1     146.121 159.912 161.243  1.00  0.00     0.000 C 
BRANCH   3   4
ATOM      4  C   UNL     1     146.391 160.274 159.768  1.00  0.00     0.000 C 
BRANCH   4   5
ATOM      5  C   UNL     1     145.979 159.155 158.800  1.00  0.00     0.000 C 
BRANCH   5   6
ATOM      6  C   UNL     1     147.184 158.662 157.984  1.00  0.00     0.006 C 
BRANCH   6   7
ATOM      7  C   UNL     1     148.180 159.790 157.681  1.00  0.00     0.053 C 
BRANCH   7   8
ATOM      8  C   UNL     1     147.946 160.389 156.329  1.00  0.00     0.041 C 
ATOM      9  O   UNL     1     148.563 159.947 155.324  1.00  0.00    -0.550 OA
ATOM     10  O   UNL     1     147.068 161.456 156.183  1.00  0.00    -0.550 OA
ENDBRANCH   7   8
ENDBRANCH   6   7
ENDBRANCH   5   6
ENDBRANCH   4   5
ENDBRANCH   3   4
ENDBRANCH   2   3
ENDBRANCH   1   2
BRANCH   1  11
ATOM     11  C   UNL     1     149.834 159.236 161.226  1.00  0.00     0.000 C 
BRANCH  11  12
ATOM     12  C   UNL     1     149.460 157.786 161.576  1.00  0.00    -0.000 C 
BRANCH  12  13
ATOM     13  C   UNL     1     149.426 156.871 160.341  1.00  0.00    -0.000 C 
BRANCH  13  14
ATOM     14  C   UNL     1     149.525 155.381 160.701  1.00  0.00    -0.000 C 
BRANCH  14  15
ATOM     15  C   UNL     1     148.222 154.645 160.351  1.00  0.00    -0.000 C 
BRANCH  15  16
ATOM     16  C   UNL     1     147.169 155.566 159.706  1.00  0.00    -0.000 C 
BRANCH  16  17
ATOM     17  C   UNL     1     145.875 155.736 160.520  1.00  0.00    -0.003 C 
ATOM     18  C   UNL     1     146.131 156.107 161.981  1.00  0.00     0.004 C 
ENDBRANCH  16  17
ENDBRANCH  15  16
ENDBRANCH  14  15
ENDBRANCH  13  14
ENDBRANCH  12  13
ENDBRANCH  11  12
ENDBRANCH   1  11
TORSDOF 14
ENDMDL
MODEL 6
REMARK VINA RESULT:    -2.602      1.297      3.964
REMARK INTER + INTRA:          -7.256
REMARK INTER:                  -4.571
REMARK INTRA:                  -2.685
REMARK UNBOUND:                -2.524
REMARK SMILES CCCCCCCCCCCCCCCC(=O)[O-]
REMARK SMILES IDX 9 1 10 2 11 3 12 4 13 5 14 6 15 7 16 8 17 9 18 10 8 11 7 12
REMARK SMILES IDX 6 13 5 14 4 15 3 16 2 17 1 18
REMARK H PARENT
REMARK Flexibility Score: inf
ROOT
ATOM      1  C   UNL     1     147.690 163.571 155.628  1.00  0.00     0.000 C 
ENDROOT
BRANCH   1   2
ATOM      2  C   UNL     1     148.172 164.986 155.257  1.00  0.00     0.000 C 
BRANCH   2   3
ATOM      3  C   UNL     1     149.230 165.047 154.138  1.00  0.00     0.000 C 
BRANCH   3   4
ATOM      4  C   UNL     1     150.028 163.738 153.964  1.00  0.00     0.000 C 
BRANCH   4   5
ATOM      5  C   UNL     1     150.559 163.555 152.535  1.00  0.00     0.000 C 
BRANCH   5   6
ATOM      6  C   UNL     1     151.409 162.280 152.423  1.00  0.00     0.006 C 
BRANCH   6   7
ATOM      7  C   UNL     1     150.759 161.086 153.135  1.00  0.00     0.053 C 
BRANCH   7   8
ATOM      8  C   UNL     1     150.659 159.892 152.237  1.00  0.00     0.041 C 
ATOM      9  O   UNL     1     150.957 158.746 152.668  1.00  0.00    -0.550 OA
ATOM     10  O   UNL     1     150.267 160.048 150.913  1.00  0.00    -0.550 OA
ENDBRANCH   7   8
ENDBRANCH   6   7
ENDBRANCH   5   6
ENDBRANCH   4   5
ENDBRANCH   3   4
ENDBRANCH   2   3
ENDBRANCH   1   2
BRANCH   1  11
ATOM     11  C   UNL     1     146.225 163.263 155.264  1.00  0.00     0.000 C 
BRANCH  11  12
ATOM     12  C   UNL     1     146.045 162.868 153.789  1.00  0.00    -0.000 C 
BRANCH  12  13
ATOM     13  C   UNL     1     146.999 161.741 153.359  1.00  0.00    -0.000 C 
BRANCH  13  14
ATOM     14  C   UNL     1     147.299 161.756 151.853  1.00  0.00    -0.000 C 
BRANCH  14  15
ATOM     15  C   UNL     1     146.643 162.971 151.177  1.00  0.00    -0.000 C 
BRANCH  15  16
ATOM     16  C   UNL     1     147.638 163.805 150.348  1.00  0.00    -0.000 C 
BRANCH  16  17
ATOM     17  C   UNL     1     147.712 165.292 150.734  1.00  0.00    -0.003 C 
ATOM     18  C   UNL     1     146.562 165.735 151.637  1.00  0.00     0.004 C 
ENDBRANCH  16  17
ENDBRANCH  15  16
ENDBRANCH  14  15
ENDBRANCH  13  14
ENDBRANCH  12  13
ENDBRANCH  11  12
ENDBRANCH   1  11
TORSDOF 14
ENDMDL
MODEL 7
REMARK VINA RESULT:    -2.597      3.542      5.436
REMARK INTER + INTRA:          -7.246
REMARK INTER:                  -4.500
REMARK INTRA:                  -2.746
REMARK UNBOUND:                -2.524
REMARK SMILES CCCCCCCCCCCCCCCC(=O)[O-]
REMARK SMILES IDX 9 1 10 2 11 3 12 4 13 5 14 6 15 7 16 8 17 9 18 10 8 11 7 12
REMARK SMILES IDX 6 13 5 14 4 15 3 16 2 17 1 18
REMARK H PARENT
REMARK Flexibility Score: inf
ROOT
ATOM      1  C   UNL     1     149.991 164.024 151.699  1.00  0.00     0.000 C 
ENDROOT
BRANCH   1   2
ATOM      2  C   UNL     1     149.453 165.439 151.985  1.00  0.00     0.000 C 
BRANCH   2   3
ATOM      3  C   UNL     1     148.200 165.496 152.880  1.00  0.00     0.000 C 
BRANCH   3   4
ATOM      4  C   UNL     1     147.027 166.282 152.259  1.00  0.00     0.000 C 
BRANCH   4   5
ATOM      5  C   UNL     1     146.047 165.378 151.497  1.00  0.00     0.000 C 
BRANCH   5   6
ATOM      6  C   UNL     1     145.875 165.852 150.046  1.00  0.00     0.006 C 
BRANCH   6   7
ATOM      7  C   UNL     1     146.927 165.243 149.108  1.00  0.00     0.053 C 
BRANCH   7   8
ATOM      8  C   UNL     1     147.913 166.268 148.641  1.00  0.00     0.041 C 
ATOM      9  O   UNL     1     149.122 165.955 148.472  1.00  0.00    -0.550 OA
ATOM     10  O   UNL     1     147.505 167.578 148.422  1.00  0.00    -0.550 OA
ENDBRANCH   7   8
ENDBRANCH   6   7
ENDBRANCH   5   6
ENDBRANCH   4   5
ENDBRANCH   3   4
ENDBRANCH   2   3
ENDBRANCH   1   2
BRANCH   1  11
ATOM     11  C   UNL     1     149.041 163.113 150.898  1.00  0.00     0.000 C 
BRANCH  11  12
ATOM     12  C   UNL     1     148.583 161.880 151.695  1.00  0.00    -0.000 C 
BRANCH  12  13
ATOM     13  C   UNL     1     147.053 161.781 151.802  1.00  0.00    -0.000 C 
BRANCH  13  14
ATOM     14  C   UNL     1     146.523 162.199 153.182  1.00  0.00    -0.000 C 
BRANCH  14  15
ATOM     15  C   UNL     1     147.521 161.821 154.288  1.00  0.00    -0.000 C 
BRANCH  15  16
ATOM     16  C   UNL     1     147.630 162.892 155.389  1.00  0.00    -0.000 C 
BRANCH  16  17
ATOM     17  C   UNL     1     149.046 163.450 155.609  1.00  0.00    -0.003 C 
ATOM     18  C   UNL     1     150.142 162.533 155.069  1.00  0.00     0.004 C 
ENDBRANCH  16  17
ENDBRANCH  15  16
ENDBRANCH  14  15
ENDBRANCH  13  14
ENDBRANCH  12  13
ENDBRANCH  11  12
ENDBRANCH   1  11
TORSDOF 14
ENDMDL
MODEL 8
REMARK VINA RESULT:    -2.556      1.650      4.048
REMARK INTER + INTRA:          -7.172
REMARK INTER:                  -4.900
REMARK INTRA:                  -2.272
REMARK UNBOUND:                -2.524
REMARK SMILES CCCCCCCCCCCCCCCC(=O)[O-]
REMARK SMILES IDX 9 1 10 2 11 3 12 4 13 5 14 6 15 7 16 8 17 9 18 10 8 11 7 12
REMARK SMILES IDX 6 13 5 14 4 15 3 16 2 17 1 18
REMARK H PARENT
REMARK Flexibility Score: inf
ROOT
ATOM      1  C   UNL     1     145.875 165.303 154.686  1.00  0.00     0.000 C 
ENDROOT
BRANCH   1   2
ATOM      2  C   UNL     1     146.068 164.670 156.078  1.00  0.00     0.000 C 
BRANCH   2   3
ATOM      3  C   UNL     1     146.125 163.130 156.095  1.00  0.00     0.000 C 
BRANCH   3   4
ATOM      4  C   UNL     1     146.638 162.511 154.778  1.00  0.00     0.000 C 
BRANCH   4   5
ATOM      5  C   UNL     1     148.164 162.340 154.761  1.00  0.00     0.000 C 
BRANCH   5   6
ATOM      6  C   UNL     1     148.734 162.639 153.366  1.00  0.00     0.006 C 
BRANCH   6   7
ATOM      7  C   UNL     1     148.413 161.527 152.358  1.00  0.00     0.053 C 
BRANCH   7   8
ATOM      8  C   UNL     1     149.606 160.664 152.084  1.00  0.00     0.041 C 
ATOM      9  O   UNL     1     149.859 160.284 150.910  1.00  0.00    -0.550 OA
ATOM     10  O   UNL     1     150.422 160.254 153.131  1.00  0.00    -0.550 OA
ENDBRANCH   7   8
ENDBRANCH   6   7
ENDBRANCH   5   6
ENDBRANCH   4   5
ENDBRANCH   3   4
ENDBRANCH   2   3
ENDBRANCH   1   2
BRANCH   1  11
ATOM     11  C   UNL     1     147.122 165.997 154.106  1.00  0.00     0.000 C 
BRANCH  11  12
ATOM     12  C   UNL     1     147.121 166.039 152.569  1.00  0.00    -0.000 C 
BRANCH  12  13
ATOM     13  C   UNL     1     145.902 165.327 151.960  1.00  0.00    -0.000 C 
BRANCH  13  14
ATOM     14  C   UNL     1     146.293 164.217 150.971  1.00  0.00    -0.000 C 
BRANCH  14  15
ATOM     15  C   UNL     1     147.173 164.776 149.842  1.00  0.00    -0.000 C 
BRANCH  15  16
ATOM     16  C   UNL     1     148.479 163.982 149.651  1.00  0.00    -0.000 C 
BRANCH  16  17
ATOM     17  C   UNL     1     149.728 164.638 150.262  1.00  0.00    -0.003 C 
ATOM     18  C   UNL     1     149.780 166.150 150.042  1.00  0.00     0.004 C 
ENDBRANCH  16  17
ENDBRANCH  15  16
ENDBRANCH  14  15
ENDBRANCH  13  14
ENDBRANCH  12  13
ENDBRANCH  11  12
ENDBRANCH   1  11
TORSDOF 14
ENDMDL
MODEL 9
REMARK VINA RESULT:    -2.511      3.086      4.927
REMARK INTER + INTRA:          -7.091
REMARK INTER:                  -4.623
REMARK INTRA:                  -2.468
REMARK UNBOUND:                -2.524
REMARK SMILES CCCCCCCCCCCCCCCC(=O)[O-]
REMARK SMILES IDX 9 1 10 2 11 3 12 4 13 5 14 6 15 7 16 8 17 9 18 10 8 11 7 12
REMARK SMILES IDX 6 13 5 14 4 15 3 16 2 17 1 18
REMARK H PARENT
REMARK Flexibility Score: inf
ROOT
ATOM      1  C   UNL     1     148.242 161.439 152.681  1.00  0.00     0.000 C 
ENDROOT
BRANCH   1   2
ATOM      2  C   UNL     1     149.490 160.830 152.014  1.00  0.00     0.000 C 
BRANCH   2   3
ATOM      3  C   UNL     1     150.569 161.846 151.590  1.00  0.00     0.000 C 
BRANCH   3   4
ATOM      4  C   UNL     1     150.464 162.288 150.115  1.00  0.00     0.000 C 
BRANCH   4   5
ATOM      5  C   UNL     1     149.601 163.546 149.936  1.00  0.00     0.000 C 
BRANCH   5   6
ATOM      6  C   UNL     1     149.977 164.621 150.967  1.00  0.00     0.006 C 
BRANCH   6   7
ATOM      7  C   UNL     1     148.752 165.148 151.729  1.00  0.00     0.053 C 
BRANCH   7   8
ATOM      8  C   UNL     1     148.001 166.170 150.933  1.00  0.00     0.041 C 
ATOM      9  O   UNL     1     148.622 166.987 150.203  1.00  0.00    -0.550 OA
ATOM     10  O   UNL     1     146.617 166.241 151.022  1.00  0.00    -0.550 OA
ENDBRANCH   7   8
ENDBRANCH   6   7
ENDBRANCH   5   6
ENDBRANCH   4   5
ENDBRANCH   3   4
ENDBRANCH   2   3
ENDBRANCH   1   2
BRANCH   1  11
ATOM     11  C   UNL     1     146.993 161.515 151.784  1.00  0.00     0.000 C 
BRANCH  11  12
ATOM     12  C   UNL     1     146.094 162.720 152.111  1.00  0.00    -0.000 C 
BRANCH  12  13
ATOM     13  C   UNL     1     145.977 162.975 153.623  1.00  0.00    -0.000 C 
BRANCH  13  14
ATOM     14  C   UNL     1     145.876 164.468 153.969  1.00  0.00    -0.000 C 
BRANCH  14  15
ATOM     15  C   UNL     1     146.654 164.785 155.256  1.00  0.00    -0.000 C 
BRANCH  15  16
ATOM     16  C   UNL     1     147.783 163.776 155.538  1.00  0.00    -0.000 C 
BRANCH  16  17
ATOM     17  C   UNL     1     149.201 164.298 155.251  1.00  0.00    -0.003 C 
ATOM     18  C   UNL     1     150.252 163.189 155.222  1.00  0.00     0.004 C 
ENDBRANCH  16  17
ENDBRANCH  15  16
ENDBRANCH  14  15
ENDBRANCH  13  14
ENDBRANCH  12  13
ENDBRANCH  11  12
ENDBRANCH   1  11
TORSDOF 14
ENDMDL
