MODEL 1
REMARK VINA RESULT:    -3.793      0.000      0.000
REMARK INTER + INTRA:          -9.408
REMARK INTER:                  -7.120
REMARK INTRA:                  -2.288
REMARK UNBOUND:                -2.288
REMARK SMILES CCCCCCCCC=CCCCCCCCC(=O)[O-]
REMARK SMILES IDX 10 1 9 2 11 3 12 4 13 5 14 6 15 7 16 8 17 9 18 10 19 11
REMARK SMILES IDX 20 12 8 13 7 14 6 15 5 16 4 17 3 18 2 19 1 20
REMARK H PARENT
REMARK Flexibility Score: inf
ROOT
ATOM      1  C   UNL     1      11.408   3.640   0.792  1.00  0.00    -0.031 C 
ATOM      2  C   UNL     1      12.401   3.082   0.075  1.00  0.00    -0.031 C 
ENDROOT
BRANCH   1   3
ATOM      3  C   UNL     1      11.593   4.363   2.104  1.00  0.00     0.027 C 
BRANCH   3   4
ATOM      4  C   UNL     1      10.609   3.877   3.182  1.00  0.00     0.004 C 
BRANCH   4   5
ATOM      5  C   UNL     1       9.937   2.529   2.862  1.00  0.00     0.000 C 
BRANCH   5   6
ATOM      6  C   UNL     1       9.255   1.899   4.086  1.00  0.00     0.000 C 
BRANCH   6   7
ATOM      7  C   UNL     1       7.733   2.079   4.020  1.00  0.00     0.000 C 
BRANCH   7   8
ATOM      8  C   UNL     1       7.027   0.725   3.861  1.00  0.00     0.006 C 
BRANCH   8   9
ATOM      9  C   UNL     1       7.382  -0.255   4.987  1.00  0.00     0.053 C 
BRANCH   9  10
ATOM     10  C   UNL     1       6.320  -1.294   5.181  1.00  0.00     0.041 C 
ATOM     11  O   UNL     1       5.416  -1.445   4.316  1.00  0.00    -0.550 OA
ATOM     12  O   UNL     1       6.338  -2.110   6.306  1.00  0.00    -0.550 OA
ENDBRANCH   9  10
ENDBRANCH   8   9
ENDBRANCH   7   8
ENDBRANCH   6   7
ENDBRANCH   5   6
ENDBRANCH   4   5
ENDBRANCH   3   4
ENDBRANCH   1   3
BRANCH   2  13
ATOM     13  C   UNL     1      13.866   3.180   0.417  1.00  0.00     0.027 C 
BRANCH  13  14
ATOM     14  C   UNL     1      14.556   1.820   0.251  1.00  0.00     0.004 C 
BRANCH  14  15
ATOM     15  C   UNL     1      13.588   0.675   0.576  1.00  0.00     0.000 C 
BRANCH  15  16
ATOM     16  C   UNL     1      14.301  -0.448   1.342  1.00  0.00     0.000 C 
BRANCH  16  17
ATOM     17  C   UNL     1      14.009  -0.422   2.853  1.00  0.00    -0.000 C 
BRANCH  17  18
ATOM     18  C   UNL     1      12.905   0.564   3.290  1.00  0.00    -0.000 C 
BRANCH  18  19
ATOM     19  C   UNL     1      13.297   1.516   4.433  1.00  0.00    -0.003 C 
ATOM     20  C   UNL     1      14.278   2.603   3.997  1.00  0.00     0.004 C 
ENDBRANCH  18  19
ENDBRANCH  17  18
ENDBRANCH  16  17
ENDBRANCH  15  16
ENDBRANCH  14  15
ENDBRANCH  13  14
ENDBRANCH   2  13
TORSDOF 15
ENDMDL
MODEL 2
REMARK VINA RESULT:    -3.726      1.865      4.357
REMARK INTER + INTRA:          -9.281
REMARK INTER:                  -6.666
REMARK INTRA:                  -2.614
REMARK UNBOUND:                -2.288
REMARK SMILES CCCCCCCCC=CCCCCCCCC(=O)[O-]
REMARK SMILES IDX 10 1 9 2 11 3 12 4 13 5 14 6 15 7 16 8 17 9 18 10 19 11
REMARK SMILES IDX 20 12 8 13 7 14 6 15 5 16 4 17 3 18 2 19 1 20
REMARK H PARENT
REMARK Flexibility Score: inf
ROOT
ATOM      1  C   UNL     1       7.762   1.924   3.670  1.00  0.00    -0.031 C 
ATOM      2  C   UNL     1       8.438   0.882   4.190  1.00  0.00    -0.031 C 
ENDROOT
BRANCH   1   3
ATOM      3  C   UNL     1       7.779   3.327   4.227  1.00  0.00     0.027 C 
BRANCH   3   4
ATOM      4  C   UNL     1       6.362   3.902   4.401  1.00  0.00     0.004 C 
BRANCH   4   5
ATOM      5  C   UNL     1       5.434   3.041   5.278  1.00  0.00     0.000 C 
BRANCH   5   6
ATOM      6  C   UNL     1       5.812   3.085   6.766  1.00  0.00     0.000 C 
BRANCH   6   7
ATOM      7  C   UNL     1       5.689   1.697   7.407  1.00  0.00     0.000 C 
BRANCH   7   8
ATOM      8  C   UNL     1       5.356   0.633   6.350  1.00  0.00     0.006 C 
BRANCH   8   9
ATOM      9  C   UNL     1       6.159  -0.659   6.550  1.00  0.00     0.053 C 
BRANCH   9  10
ATOM     10  C   UNL     1       5.632  -1.782   5.708  1.00  0.00     0.041 C 
ATOM     11  O   UNL     1       5.361  -1.588   4.492  1.00  0.00    -0.550 OA
ATOM     12  O   UNL     1       5.458  -3.046   6.258  1.00  0.00    -0.550 OA
ENDBRANCH   9  10
ENDBRANCH   8   9
ENDBRANCH   7   8
ENDBRANCH   6   7
ENDBRANCH   5   6
ENDBRANCH   4   5
ENDBRANCH   3   4
ENDBRANCH   1   3
BRANCH   2  13
ATOM     13  C   UNL     1       9.398   0.975   5.349  1.00  0.00     0.027 C 
BRANCH  13  14
ATOM     14  C   UNL     1      10.770   0.406   4.966  1.00  0.00     0.004 C 
BRANCH  14  15
ATOM     15  C   UNL     1      11.392   1.210   3.817  1.00  0.00     0.000 C 
BRANCH  15  16
ATOM     16  C   UNL     1      11.831   2.602   4.294  1.00  0.00     0.000 C 
BRANCH  16  17
ATOM     17  C   UNL     1      11.367   3.731   3.355  1.00  0.00    -0.000 C 
BRANCH  17  18
ATOM     18  C   UNL     1      10.780   3.262   2.008  1.00  0.00    -0.000 C 
BRANCH  18  19
ATOM     19  C   UNL     1      11.616   3.628   0.769  1.00  0.00    -0.003 C 
ATOM     20  C   UNL     1      12.863   2.760   0.612  1.00  0.00     0.004 C 
ENDBRANCH  18  19
ENDBRANCH  17  18
ENDBRANCH  16  17
ENDBRANCH  15  16
ENDBRANCH  14  15
ENDBRANCH  13  14
ENDBRANCH   2  13
TORSDOF 15
ENDMDL
MODEL 3
REMARK VINA RESULT:    -3.714      1.002      3.110
REMARK INTER + INTRA:          -9.258
REMARK INTER:                  -7.324
REMARK INTRA:                  -1.934
REMARK UNBOUND:                -2.288
REMARK SMILES CCCCCCCCC=CCCCCCCCC(=O)[O-]
REMARK SMILES IDX 10 1 9 2 11 3 12 4 13 5 14 6 15 7 16 8 17 9 18 10 19 11
REMARK SMILES IDX 20 12 8 13 7 14 6 15 5 16 4 17 3 18 2 19 1 20
REMARK H PARENT
REMARK Flexibility Score: inf
ROOT
ATOM      1  C   UNL     1      11.529   1.371   4.066  1.00  0.00    -0.031 C 
ATOM      2  C   UNL     1      12.521   0.470   3.941  1.00  0.00    -0.031 C 
ENDROOT
BRANCH   1   3
ATOM      3  C   UNL     1      11.575   2.783   3.532  1.00  0.00     0.027 C 
BRANCH   3   4
ATOM      4  C   UNL     1      10.281   3.561   3.830  1.00  0.00     0.004 C 
BRANCH   4   5
ATOM      5  C   UNL     1       9.250   2.777   4.663  1.00  0.00     0.000 C 
BRANCH   5   6
ATOM      6  C   UNL     1       7.881   2.675   3.974  1.00  0.00     0.000 C 
BRANCH   6   7
ATOM      7  C   UNL     1       7.616   1.246   3.486  1.00  0.00     0.000 C 
BRANCH   7   8
ATOM      8  C   UNL     1       7.873   0.228   4.606  1.00  0.00     0.006 C 
BRANCH   8   9
ATOM      9  C   UNL     1       6.617  -0.049   5.444  1.00  0.00     0.053 C 
BRANCH   9  10
ATOM     10  C   UNL     1       6.075  -1.425   5.204  1.00  0.00     0.041 C 
ATOM     11  O   UNL     1       6.548  -2.410   5.832  1.00  0.00    -0.550 OA
ATOM     12  O   UNL     1       5.036  -1.620   4.301  1.00  0.00    -0.550 OA
ENDBRANCH   9  10
ENDBRANCH   8   9
ENDBRANCH   7   8
ENDBRANCH   6   7
ENDBRANCH   5   6
ENDBRANCH   4   5
ENDBRANCH   3   4
ENDBRANCH   1   3
BRANCH   2  13
ATOM     13  C   UNL     1      13.792   0.695   3.161  1.00  0.00     0.027 C 
BRANCH  13  14
ATOM     14  C   UNL     1      13.790  -0.131   1.869  1.00  0.00     0.004 C 
BRANCH  14  15
ATOM     15  C   UNL     1      13.649   0.778   0.641  1.00  0.00     0.000 C 
BRANCH  15  16
ATOM     16  C   UNL     1      14.489   2.053   0.800  1.00  0.00     0.000 C 
BRANCH  16  17
ATOM     17  C   UNL     1      13.696   3.336   0.490  1.00  0.00    -0.000 C 
BRANCH  17  18
ATOM     18  C   UNL     1      12.372   3.119  -0.272  1.00  0.00    -0.000 C 
BRANCH  18  19
ATOM     19  C   UNL     1      11.199   3.999   0.196  1.00  0.00    -0.003 C 
ATOM     20  C   UNL     1      11.301   5.442  -0.297  1.00  0.00     0.004 C 
ENDBRANCH  18  19
ENDBRANCH  17  18
ENDBRANCH  16  17
ENDBRANCH  15  16
ENDBRANCH  14  15
ENDBRANCH  13  14
ENDBRANCH   2  13
TORSDOF 15
ENDMDL
MODEL 4
REMARK VINA RESULT:    -3.705      1.743      4.330
REMARK INTER + INTRA:          -9.242
REMARK INTER:                  -6.511
REMARK INTRA:                  -2.730
REMARK UNBOUND:                -2.288
REMARK SMILES CCCCCCCCC=CCCCCCCCC(=O)[O-]
REMARK SMILES IDX 10 1 9 2 11 3 12 4 13 5 14 6 15 7 16 8 17 9 18 10 19 11
REMARK SMILES IDX 20 12 8 13 7 14 6 15 5 16 4 17 3 18 2 19 1 20
REMARK H PARENT
REMARK Flexibility Score: inf
ROOT
ATOM      1  C   UNL     1      13.655  -0.462   0.633  1.00  0.00    -0.031 C 
ATOM      2  C   UNL     1      13.756   0.599  -0.188  1.00  0.00    -0.031 C 
ENDROOT
BRANCH   1   3
ATOM      3  C   UNL     1      14.564  -0.732   1.808  1.00  0.00     0.027 C 
BRANCH   3   4
ATOM      4  C   UNL     1      13.927  -0.318   3.146  1.00  0.00     0.004 C 
BRANCH   4   5
ATOM      5  C   UNL     1      14.449   1.018   3.708  1.00  0.00     0.000 C 
BRANCH   5   6
ATOM      6  C   UNL     1      13.319   2.000   4.053  1.00  0.00     0.000 C 
BRANCH   6   7
ATOM      7  C   UNL     1      12.026   1.633   3.313  1.00  0.00     0.000 C 
BRANCH   7   8
ATOM      8  C   UNL     1      10.809   1.766   4.239  1.00  0.00     0.006 C 
BRANCH   8   9
ATOM      9  C   UNL     1       9.541   2.184   3.481  1.00  0.00     0.053 C 
BRANCH   9  10
ATOM     10  C   UNL     1       8.428   1.198   3.665  1.00  0.00     0.041 C 
ATOM     11  O   UNL     1       7.418   1.236   2.912  1.00  0.00    -0.550 OA
ATOM     12  O   UNL     1       8.512   0.225   4.654  1.00  0.00    -0.550 OA
ENDBRANCH   9  10
ENDBRANCH   8   9
ENDBRANCH   7   8
ENDBRANCH   6   7
ENDBRANCH   5   6
ENDBRANCH   4   5
ENDBRANCH   3   4
ENDBRANCH   1   3
BRANCH   2  13
ATOM     13  C   UNL     1      14.727   1.738  -0.004  1.00  0.00     0.027 C 
BRANCH  13  14
ATOM     14  C   UNL     1      14.010   2.983   0.531  1.00  0.00     0.004 C 
BRANCH  14  15
ATOM     15  C   UNL     1      12.613   3.116  -0.088  1.00  0.00     0.000 C 
BRANCH  15  16
ATOM     16  C   UNL     1      12.292   4.582  -0.414  1.00  0.00     0.000 C 
BRANCH  16  17
ATOM     17  C   UNL     1      10.939   5.041   0.158  1.00  0.00    -0.000 C 
BRANCH  17  18
ATOM     18  C   UNL     1      10.888   5.171   1.694  1.00  0.00    -0.000 C 
BRANCH  18  19
ATOM     19  C   UNL     1      12.168   5.727   2.344  1.00  0.00    -0.003 C 
ATOM     20  C   UNL     1      12.202   5.531   3.859  1.00  0.00     0.004 C 
ENDBRANCH  18  19
ENDBRANCH  17  18
ENDBRANCH  16  17
ENDBRANCH  15  16
ENDBRANCH  14  15
ENDBRANCH  13  14
ENDBRANCH   2  13
TORSDOF 15
ENDMDL
MODEL 5
REMARK VINA RESULT:    -3.686      1.046      3.224
REMARK INTER + INTRA:          -9.207
REMARK INTER:                  -6.899
REMARK INTRA:                  -2.308
REMARK UNBOUND:                -2.288
REMARK SMILES CCCCCCCCC=CCCCCCCCC(=O)[O-]
REMARK SMILES IDX 10 1 9 2 11 3 12 4 13 5 14 6 15 7 16 8 17 9 18 10 19 11
REMARK SMILES IDX 20 12 8 13 7 14 6 15 5 16 4 17 3 18 2 19 1 20
REMARK H PARENT
REMARK Flexibility Score: inf
ROOT
ATOM      1  C   UNL     1      13.617   0.126   4.050  1.00  0.00    -0.031 C 
ATOM      2  C   UNL     1      14.444  -0.555   3.235  1.00  0.00    -0.031 C 
ENDROOT
BRANCH   1   3
ATOM      3  C   UNL     1      13.149   1.542   3.816  1.00  0.00     0.027 C 
BRANCH   3   4
ATOM      4  C   UNL     1      11.803   1.596   3.073  1.00  0.00     0.004 C 
BRANCH   4   5
ATOM      5  C   UNL     1      10.694   2.353   3.827  1.00  0.00     0.000 C 
BRANCH   5   6
ATOM      6  C   UNL     1       9.407   2.500   3.002  1.00  0.00     0.000 C 
BRANCH   6   7
ATOM      7  C   UNL     1       8.337   1.504   3.468  1.00  0.00     0.000 C 
BRANCH   7   8
ATOM      8  C   UNL     1       8.632   1.011   4.892  1.00  0.00     0.006 C 
BRANCH   8   9
ATOM      9  C   UNL     1       7.947  -0.328   5.200  1.00  0.00     0.053 C 
BRANCH   9  10
ATOM     10  C   UNL     1       6.460  -0.250   5.023  1.00  0.00     0.041 C 
ATOM     11  O   UNL     1       5.853  -1.141   4.371  1.00  0.00    -0.550 OA
ATOM     12  O   UNL     1       5.742   0.795   5.593  1.00  0.00    -0.550 OA
ENDBRANCH   9  10
ENDBRANCH   8   9
ENDBRANCH   7   8
ENDBRANCH   6   7
ENDBRANCH   5   6
ENDBRANCH   4   5
ENDBRANCH   3   4
ENDBRANCH   1   3
BRANCH   2  13
ATOM     13  C   UNL     1      14.951  -0.047   1.908  1.00  0.00     0.027 C 
BRANCH  13  14
ATOM     14  C   UNL     1      14.011  -0.466   0.771  1.00  0.00     0.004 C 
BRANCH  14  15
ATOM     15  C   UNL     1      13.654   0.736  -0.112  1.00  0.00     0.000 C 
BRANCH  15  16
ATOM     16  C   UNL     1      14.522   1.954   0.237  1.00  0.00     0.000 C 
BRANCH  16  17
ATOM     17  C   UNL     1      13.712   3.260   0.330  1.00  0.00    -0.000 C 
BRANCH  17  18
ATOM     18  C   UNL     1      12.254   3.163  -0.165  1.00  0.00    -0.000 C 
BRANCH  18  19
ATOM     19  C   UNL     1      11.346   4.332   0.253  1.00  0.00    -0.003 C 
ATOM     20  C   UNL     1      11.863   5.083   1.480  1.00  0.00     0.004 C 
ENDBRANCH  18  19
ENDBRANCH  17  18
ENDBRANCH  16  17
ENDBRANCH  15  16
ENDBRANCH  14  15
ENDBRANCH  13  14
ENDBRANCH   2  13
TORSDOF 15
ENDMDL
MODEL 6
REMARK VINA RESULT:    -3.637      3.110      6.583
REMARK INTER + INTRA:          -9.114
REMARK INTER:                  -6.595
REMARK INTRA:                  -2.519
REMARK UNBOUND:                -2.288
REMARK SMILES CCCCCCCCC=CCCCCCCCC(=O)[O-]
REMARK SMILES IDX 10 1 9 2 11 3 12 4 13 5 14 6 15 7 16 8 17 9 18 10 19 11
REMARK SMILES IDX 20 12 8 13 7 14 6 15 5 16 4 17 3 18 2 19 1 20
REMARK H PARENT
REMARK Flexibility Score: inf
ROOT
ATOM      1  C   UNL     1      11.658   1.574   3.339  1.00  0.00    -0.031 C 
ATOM      2  C   UNL     1      11.348   0.918   4.473  1.00  0.00    -0.031 C 
ENDROOT
BRANCH   1   3
ATOM      3  C   UNL     1      11.582   3.071   3.161  1.00  0.00     0.027 C 
BRANCH   3   4
ATOM      4  C   UNL     1      10.908   3.467   1.836  1.00  0.00     0.004 C 
BRANCH   4   5
ATOM      5  C   UNL     1      11.878   4.010   0.770  1.00  0.00     0.000 C 
BRANCH   5   6
ATOM      6  C   UNL     1      12.558   2.894  -0.039  1.00  0.00     0.000 C 
BRANCH   6   7
ATOM      7  C   UNL     1      14.050   2.799   0.302  1.00  0.00     0.000 C 
BRANCH   7   8
ATOM      8  C   UNL     1      14.398   1.411   0.859  1.00  0.00     0.006 C 
BRANCH   8   9
ATOM      9  C   UNL     1      13.602   0.291   0.175  1.00  0.00     0.053 C 
BRANCH   9  10
ATOM     10  C   UNL     1      13.728  -1.011   0.906  1.00  0.00     0.041 C 
ATOM     11  O   UNL     1      14.414  -1.082   1.960  1.00  0.00    -0.550 OA
ATOM     12  O   UNL     1      13.072  -2.143   0.434  1.00  0.00    -0.550 OA
ENDBRANCH   9  10
ENDBRANCH   8   9
ENDBRANCH   7   8
ENDBRANCH   6   7
ENDBRANCH   5   6
ENDBRANCH   4   5
ENDBRANCH   3   4
ENDBRANCH   1   3
BRANCH   2  13
ATOM     13  C   UNL     1      10.973   1.583   5.774  1.00  0.00     0.027 C 
BRANCH  13  14
ATOM     14  C   UNL     1       9.858   0.804   6.481  1.00  0.00     0.004 C 
BRANCH  14  15
ATOM     15  C   UNL     1       9.442  -0.422   5.658  1.00  0.00     0.000 C 
BRANCH  15  16
ATOM     16  C   UNL     1       7.935  -0.686   5.786  1.00  0.00     0.000 C 
BRANCH  16  17
ATOM     17  C   UNL     1       7.078   0.370   5.065  1.00  0.00    -0.000 C 
BRANCH  17  18
ATOM     18  C   UNL     1       7.661   0.888   3.734  1.00  0.00    -0.000 C 
BRANCH  18  19
ATOM     19  C   UNL     1       7.858   2.412   3.658  1.00  0.00    -0.003 C 
ATOM     20  C   UNL     1       7.415   3.136   4.929  1.00  0.00     0.004 C 
ENDBRANCH  18  19
ENDBRANCH  17  18
ENDBRANCH  16  17
ENDBRANCH  15  16
ENDBRANCH  14  15
ENDBRANCH  13  14
ENDBRANCH   2  13
TORSDOF 15
ENDMDL
MODEL 7
REMARK VINA RESULT:    -3.588      1.326      2.038
REMARK INTER + INTRA:          -9.022
REMARK INTER:                  -6.369
REMARK INTRA:                  -2.654
REMARK UNBOUND:                -2.288
REMARK SMILES CCCCCCCCC=CCCCCCCCC(=O)[O-]
REMARK SMILES IDX 10 1 9 2 11 3 12 4 13 5 14 6 15 7 16 8 17 9 18 10 19 11
REMARK SMILES IDX 20 12 8 13 7 14 6 15 5 16 4 17 3 18 2 19 1 20
REMARK H PARENT
REMARK Flexibility Score: inf
ROOT
ATOM      1  C   UNL     1      12.891   3.417   0.535  1.00  0.00    -0.031 C 
ATOM      2  C   UNL     1      13.127   2.257  -0.107  1.00  0.00    -0.031 C 
ENDROOT
BRANCH   1   3
ATOM      3  C   UNL     1      13.621   3.881   1.773  1.00  0.00     0.027 C 
BRANCH   3   4
ATOM      4  C   UNL     1      12.669   4.106   2.961  1.00  0.00     0.004 C 
BRANCH   4   5
ATOM      5  C   UNL     1      11.229   3.616   2.719  1.00  0.00     0.000 C 
BRANCH   5   6
ATOM      6  C   UNL     1      10.192   4.386   3.549  1.00  0.00     0.000 C 
BRANCH   6   7
ATOM      7  C   UNL     1       9.117   3.440   4.100  1.00  0.00     0.000 C 
BRANCH   7   8
ATOM      8  C   UNL     1       9.135   2.097   3.355  1.00  0.00     0.006 C 
BRANCH   8   9
ATOM      9  C   UNL     1       8.776   0.918   4.269  1.00  0.00     0.053 C 
BRANCH   9  10
ATOM     10  C   UNL     1       7.349   0.492   4.100  1.00  0.00     0.041 C 
ATOM     11  O   UNL     1       6.703   0.836   3.074  1.00  0.00    -0.550 OA
ATOM     12  O   UNL     1       6.737  -0.301   5.065  1.00  0.00    -0.550 OA
ENDBRANCH   9  10
ENDBRANCH   8   9
ENDBRANCH   7   8
ENDBRANCH   6   7
ENDBRANCH   5   6
ENDBRANCH   4   5
ENDBRANCH   3   4
ENDBRANCH   1   3
BRANCH   2  13
ATOM     13  C   UNL     1      14.225   1.287   0.249  1.00  0.00     0.027 C 
BRANCH  13  14
ATOM     14  C   UNL     1      13.697  -0.152   0.260  1.00  0.00     0.004 C 
BRANCH  14  15
ATOM     15  C   UNL     1      14.012  -0.838   1.595  1.00  0.00     0.000 C 
BRANCH  15  16
ATOM     16  C   UNL     1      14.992   0.001   2.429  1.00  0.00     0.000 C 
BRANCH  16  17
ATOM     17  C   UNL     1      14.398   0.453   3.775  1.00  0.00    -0.000 C 
BRANCH  17  18
ATOM     18  C   UNL     1      12.857   0.493   3.831  1.00  0.00    -0.000 C 
BRANCH  18  19
ATOM     19  C   UNL     1      12.255   0.446   5.246  1.00  0.00    -0.003 C 
ATOM     20  C   UNL     1      12.136   1.827   5.891  1.00  0.00     0.004 C 
ENDBRANCH  18  19
ENDBRANCH  17  18
ENDBRANCH  16  17
ENDBRANCH  15  16
ENDBRANCH  14  15
ENDBRANCH  13  14
ENDBRANCH   2  13
TORSDOF 15
ENDMDL
MODEL 8
REMARK VINA RESULT:    -3.554      2.256      4.113
REMARK INTER + INTRA:          -8.958
REMARK INTER:                  -6.471
REMARK INTRA:                  -2.488
REMARK UNBOUND:                -2.288
REMARK SMILES CCCCCCCCC=CCCCCCCCC(=O)[O-]
REMARK SMILES IDX 10 1 9 2 11 3 12 4 13 5 14 6 15 7 16 8 17 9 18 10 19 11
REMARK SMILES IDX 20 12 8 13 7 14 6 15 5 16 4 17 3 18 2 19 1 20
REMARK H PARENT
REMARK Flexibility Score: inf
ROOT
ATOM      1  C   UNL     1      11.443   0.509   4.712  1.00  0.00    -0.031 C 
ATOM      2  C   UNL     1      11.490   1.264   3.599  1.00  0.00    -0.031 C 
ENDROOT
BRANCH   1   3
ATOM      3  C   UNL     1      11.203   1.040   6.105  1.00  0.00     0.027 C 
BRANCH   3   4
ATOM      4  C   UNL     1      10.091   0.270   6.839  1.00  0.00     0.004 C 
BRANCH   4   5
ATOM      5  C   UNL     1       9.106  -0.459   5.906  1.00  0.00     0.000 C 
BRANCH   5   6
ATOM      6  C   UNL     1       7.765   0.277   5.765  1.00  0.00     0.000 C 
BRANCH   6   7
ATOM      7  C   UNL     1       7.255   0.219   4.320  1.00  0.00     0.000 C 
BRANCH   7   8
ATOM      8  C   UNL     1       7.605   1.507   3.562  1.00  0.00     0.006 C 
BRANCH   8   9
ATOM      9  C   UNL     1       7.661   2.731   4.486  1.00  0.00     0.053 C 
BRANCH   9  10
ATOM     10  C   UNL     1       6.381   3.510   4.462  1.00  0.00     0.041 C 
ATOM     11  O   UNL     1       6.400   4.753   4.251  1.00  0.00    -0.550 OA
ATOM     12  O   UNL     1       5.165   2.863   4.652  1.00  0.00    -0.550 OA
ENDBRANCH   9  10
ENDBRANCH   8   9
ENDBRANCH   7   8
ENDBRANCH   6   7
ENDBRANCH   5   6
ENDBRANCH   4   5
ENDBRANCH   3   4
ENDBRANCH   1   3
BRANCH   2  13
ATOM     13  C   UNL     1      11.208   2.745   3.555  1.00  0.00     0.027 C 
BRANCH  13  14
ATOM     14  C   UNL     1      11.275   3.269   2.115  1.00  0.00     0.004 C 
BRANCH  14  15
ATOM     15  C   UNL     1      12.547   4.098   1.896  1.00  0.00     0.000 C 
BRANCH  15  16
ATOM     16  C   UNL     1      13.670   3.238   1.298  1.00  0.00     0.000 C 
BRANCH  16  17
ATOM     17  C   UNL     1      13.163   2.245   0.237  1.00  0.00    -0.000 C 
BRANCH  17  18
ATOM     18  C   UNL     1      13.672   0.798   0.399  1.00  0.00    -0.000 C 
BRANCH  18  19
ATOM     19  C   UNL     1      14.554   0.552   1.636  1.00  0.00    -0.003 C 
ATOM     20  C   UNL     1      14.268  -0.785   2.319  1.00  0.00     0.004 C 
ENDBRANCH  18  19
ENDBRANCH  17  18
ENDBRANCH  16  17
ENDBRANCH  15  16
ENDBRANCH  14  15
ENDBRANCH  13  14
ENDBRANCH   2  13
TORSDOF 15
ENDMDL
MODEL 9
REMARK VINA RESULT:    -3.536      1.702      3.164
REMARK INTER + INTRA:          -8.925
REMARK INTER:                  -6.322
REMARK INTRA:                  -2.603
REMARK UNBOUND:                -2.288
REMARK SMILES CCCCCCCCC=CCCCCCCCC(=O)[O-]
REMARK SMILES IDX 10 1 9 2 11 3 12 4 13 5 14 6 15 7 16 8 17 9 18 10 19 11
REMARK SMILES IDX 20 12 8 13 7 14 6 15 5 16 4 17 3 18 2 19 1 20
REMARK H PARENT
REMARK Flexibility Score: inf
ROOT
ATOM      1  C   UNL     1      10.532   2.748   2.860  1.00  0.00    -0.031 C 
ATOM      2  C   UNL     1      11.038   1.768   3.631  1.00  0.00    -0.031 C 
ENDROOT
BRANCH   1   3
ATOM      3  C   UNL     1      10.948   4.198   2.925  1.00  0.00     0.027 C 
BRANCH   3   4
ATOM      4  C   UNL     1       9.845   5.094   3.515  1.00  0.00     0.004 C 
BRANCH   4   5
ATOM      5  C   UNL     1       9.791   5.099   5.054  1.00  0.00     0.000 C 
BRANCH   5   6
ATOM      6  C   UNL     1       8.361   4.961   5.599  1.00  0.00     0.000 C 
BRANCH   6   7
ATOM      7  C   UNL     1       7.370   4.651   4.470  1.00  0.00     0.000 C 
BRANCH   7   8
ATOM      8  C   UNL     1       6.553   3.391   4.788  1.00  0.00     0.006 C 
BRANCH   8   9
ATOM      9  C   UNL     1       7.434   2.141   4.915  1.00  0.00     0.053 C 
BRANCH   9  10
ATOM     10  C   UNL     1       7.105   1.115   3.873  1.00  0.00     0.041 C 
ATOM     11  O   UNL     1       6.506   0.054   4.195  1.00  0.00    -0.550 OA
ATOM     12  O   UNL     1       7.442   1.338   2.542  1.00  0.00    -0.550 OA
ENDBRANCH   9  10
ENDBRANCH   8   9
ENDBRANCH   7   8
ENDBRANCH   6   7
ENDBRANCH   5   6
ENDBRANCH   4   5
ENDBRANCH   3   4
ENDBRANCH   1   3
BRANCH   2  13
ATOM     13  C   UNL     1      12.170   1.945   4.611  1.00  0.00     0.027 C 
BRANCH  13  14
ATOM     14  C   UNL     1      13.501   1.504   3.988  1.00  0.00     0.004 C 
BRANCH  14  15
ATOM     15  C   UNL     1      13.399   0.076   3.438  1.00  0.00     0.000 C 
BRANCH  15  16
ATOM     16  C   UNL     1      14.376  -0.136   2.272  1.00  0.00     0.000 C 
BRANCH  16  17
ATOM     17  C   UNL     1      13.686  -0.092   0.897  1.00  0.00    -0.000 C 
BRANCH  17  18
ATOM     18  C   UNL     1      14.035   1.133   0.028  1.00  0.00    -0.000 C 
BRANCH  18  19
ATOM     19  C   UNL     1      13.189   2.389   0.302  1.00  0.00    -0.003 C 
ATOM     20  C   UNL     1      13.995   3.528   0.927  1.00  0.00     0.004 C 
ENDBRANCH  18  19
ENDBRANCH  17  18
ENDBRANCH  16  17
ENDBRANCH  15  16
ENDBRANCH  14  15
ENDBRANCH  13  14
ENDBRANCH   2  13
TORSDOF 15
ENDMDL
