MODEL 1
REMARK VINA RESULT:    -4.055      0.000      0.000
REMARK INTER + INTRA:          -8.722
REMARK INTER:                  -7.137
REMARK INTRA:                  -1.585
REMARK UNBOUND:                -1.585
REMARK SMILES CCCCCCC=CCCCCCCCC(=O)[O-]
REMARK SMILES IDX 10 1 11 2 12 3 13 4 14 5 15 6 16 7 17 8 18 9 9 10 8 11 7 12
REMARK SMILES IDX 6 13 5 14 4 15 3 16 2 17 1 18
REMARK H PARENT
REMARK Flexibility Score: inf
ROOT
ATOM      1  C   UNL     1      43.479  29.197   2.486  1.00  0.00     0.004 C 
ENDROOT
BRANCH   1   2
ATOM      2  C   UNL     1      44.372  29.886   1.434  1.00  0.00     0.000 C 
BRANCH   2   3
ATOM      3  C   UNL     1      45.868  29.942   1.790  1.00  0.00     0.000 C 
BRANCH   3   4
ATOM      4  C   UNL     1      46.720  28.982   0.948  1.00  0.00     0.000 C 
BRANCH   4   5
ATOM      5  C   UNL     1      45.914  28.428  -0.237  1.00  0.00     0.006 C 
BRANCH   5   6
ATOM      6  C   UNL     1      46.340  29.053  -1.572  1.00  0.00     0.053 C 
BRANCH   6   7
ATOM      7  C   UNL     1      46.139  28.107  -2.716  1.00  0.00     0.041 C 
ATOM      8  O   UNL     1      46.630  26.948  -2.676  1.00  0.00    -0.550 OA
ATOM      9  O   UNL     1      45.437  28.517  -3.841  1.00  0.00    -0.550 OA
ENDBRANCH   6   7
ENDBRANCH   5   6
ENDBRANCH   4   5
ENDBRANCH   3   4
ENDBRANCH   2   3
ENDBRANCH   1   2
BRANCH   1  10
ATOM     10  C   UNL     1      43.044  27.768   2.117  1.00  0.00     0.027 C 
BRANCH  10  11
ATOM     11  C   UNL     1      44.067  26.733   2.498  1.00  0.00    -0.031 C 
ATOM     12  C   UNL     1      44.853  26.885   3.574  1.00  0.00    -0.031 C 
BRANCH  12  13
ATOM     13  C   UNL     1      45.869  25.835   3.935  1.00  0.00     0.027 C 
BRANCH  13  14
ATOM     14  C   UNL     1      46.793  26.321   5.056  1.00  0.00     0.004 C 
BRANCH  14  15
ATOM     15  C   UNL     1      46.393  27.726   5.529  1.00  0.00     0.000 C 
BRANCH  15  16
ATOM     16  C   UNL     1      46.307  27.833   7.060  1.00  0.00    -0.000 C 
BRANCH  16  17
ATOM     17  C   UNL     1      46.020  26.483   7.733  1.00  0.00    -0.003 C 
ATOM     18  C   UNL     1      45.536  26.674   9.167  1.00  0.00     0.004 C 
ENDBRANCH  16  17
ENDBRANCH  15  16
ENDBRANCH  14  15
ENDBRANCH  13  14
ENDBRANCH  12  13
ENDBRANCH  10  11
ENDBRANCH   1  10
TORSDOF 13
ENDMDL
MODEL 2
REMARK VINA RESULT:    -3.783      0.832      1.448
REMARK INTER + INTRA:          -8.243
REMARK INTER:                  -7.202
REMARK INTRA:                  -1.041
REMARK UNBOUND:                -1.585
REMARK SMILES CCCCCCC=CCCCCCCCC(=O)[O-]
REMARK SMILES IDX 10 1 11 2 12 3 13 4 14 5 15 6 16 7 17 8 18 9 9 10 8 11 7 12
REMARK SMILES IDX 6 13 5 14 4 15 3 16 2 17 1 18
REMARK H PARENT
REMARK Flexibility Score: inf
ROOT
ATOM      1  C   UNL     1      42.972  28.377   2.292  1.00  0.00     0.004 C 
ENDROOT
BRANCH   1   2
ATOM      2  C   UNL     1      43.832  29.656   2.358  1.00  0.00     0.000 C 
BRANCH   2   3
ATOM      3  C   UNL     1      44.487  30.068   1.028  1.00  0.00     0.000 C 
BRANCH   3   4
ATOM      4  C   UNL     1      46.017  29.937   1.048  1.00  0.00     0.000 C 
BRANCH   4   5
ATOM      5  C   UNL     1      46.485  28.827   0.094  1.00  0.00     0.006 C 
BRANCH   5   6
ATOM      6  C   UNL     1      46.668  29.336  -1.342  1.00  0.00     0.053 C 
BRANCH   6   7
ATOM      7  C   UNL     1      46.235  28.316  -2.351  1.00  0.00     0.041 C 
ATOM      8  O   UNL     1      46.256  28.590  -3.579  1.00  0.00    -0.550 OA
ATOM      9  O   UNL     1      45.779  27.074  -1.931  1.00  0.00    -0.550 OA
ENDBRANCH   6   7
ENDBRANCH   5   6
ENDBRANCH   4   5
ENDBRANCH   3   4
ENDBRANCH   2   3
ENDBRANCH   1   2
BRANCH   1  10
ATOM     10  C   UNL     1      43.776  27.076   2.128  1.00  0.00     0.027 C 
BRANCH  10  11
ATOM     11  C   UNL     1      44.989  27.027   3.018  1.00  0.00    -0.031 C 
ATOM     12  C   UNL     1      45.087  26.147   4.024  1.00  0.00    -0.031 C 
BRANCH  12  13
ATOM     13  C   UNL     1      46.310  26.116   4.900  1.00  0.00     0.027 C 
BRANCH  13  14
ATOM     14  C   UNL     1      46.338  27.313   5.856  1.00  0.00     0.004 C 
BRANCH  14  15
ATOM     15  C   UNL     1      46.890  26.905   7.230  1.00  0.00     0.000 C 
BRANCH  15  16
ATOM     16  C   UNL     1      45.797  26.378   8.174  1.00  0.00    -0.000 C 
BRANCH  16  17
ATOM     17  C   UNL     1      45.644  27.235   9.439  1.00  0.00    -0.003 C 
ATOM     18  C   UNL     1      45.183  28.648   9.094  1.00  0.00     0.004 C 
ENDBRANCH  16  17
ENDBRANCH  15  16
ENDBRANCH  14  15
ENDBRANCH  13  14
ENDBRANCH  12  13
ENDBRANCH  10  11
ENDBRANCH   1  10
TORSDOF 13
ENDMDL
MODEL 3
REMARK VINA RESULT:    -3.726      2.960      5.687
REMARK INTER + INTRA:          -8.143
REMARK INTER:                  -7.202
REMARK INTRA:                  -0.941
REMARK UNBOUND:                -1.585
REMARK SMILES CCCCCCC=CCCCCCCCC(=O)[O-]
REMARK SMILES IDX 10 1 11 2 12 3 13 4 14 5 15 6 16 7 17 8 18 9 9 10 8 11 7 12
REMARK SMILES IDX 6 13 5 14 4 15 3 16 2 17 1 18
REMARK H PARENT
REMARK Flexibility Score: inf
ROOT
ATOM      1  C   UNL     1      45.996  27.804  -2.594  1.00  0.00     0.004 C 
ENDROOT
BRANCH   1   2
ATOM      2  C   UNL     1      46.678  27.428  -3.925  1.00  0.00     0.000 C 
BRANCH   2   3
ATOM      3  C   UNL     1      45.714  27.058  -5.067  1.00  0.00     0.000 C 
BRANCH   3   4
ATOM      4  C   UNL     1      45.880  27.953  -6.303  1.00  0.00     0.000 C 
BRANCH   4   5
ATOM      5  C   UNL     1      44.513  28.375  -6.862  1.00  0.00     0.006 C 
BRANCH   5   6
ATOM      6  C   UNL     1      43.349  27.806  -6.041  1.00  0.00     0.053 C 
BRANCH   6   7
ATOM      7  C   UNL     1      42.371  28.873  -5.652  1.00  0.00     0.041 C 
ATOM      8  O   UNL     1      42.607  29.623  -4.668  1.00  0.00    -0.550 OA
ATOM      9  O   UNL     1      41.183  29.016  -6.356  1.00  0.00    -0.550 OA
ENDBRANCH   6   7
ENDBRANCH   5   6
ENDBRANCH   4   5
ENDBRANCH   3   4
ENDBRANCH   2   3
ENDBRANCH   1   2
BRANCH   1  10
ATOM     10  C   UNL     1      46.126  29.288  -2.208  1.00  0.00     0.027 C 
BRANCH  10  11
ATOM     11  C   UNL     1      46.004  29.515  -0.726  1.00  0.00    -0.031 C 
ATOM     12  C   UNL     1      45.947  28.492   0.140  1.00  0.00    -0.031 C 
BRANCH  12  13
ATOM     13  C   UNL     1      45.827  28.744   1.618  1.00  0.00     0.027 C 
BRANCH  13  14
ATOM     14  C   UNL     1      45.744  27.429   2.400  1.00  0.00     0.004 C 
BRANCH  14  15
ATOM     15  C   UNL     1      44.347  27.239   3.009  1.00  0.00     0.000 C 
BRANCH  15  16
ATOM     16  C   UNL     1      43.236  27.229   1.948  1.00  0.00    -0.000 C 
BRANCH  16  17
ATOM     17  C   UNL     1      42.016  28.065   2.360  1.00  0.00    -0.003 C 
ATOM     18  C   UNL     1      42.399  29.525   2.583  1.00  0.00     0.004 C 
ENDBRANCH  16  17
ENDBRANCH  15  16
ENDBRANCH  14  15
ENDBRANCH  13  14
ENDBRANCH  12  13
ENDBRANCH  10  11
ENDBRANCH   1  10
TORSDOF 13
ENDMDL
MODEL 4
REMARK VINA RESULT:    -3.709      4.476      8.550
REMARK INTER + INTRA:          -8.113
REMARK INTER:                  -7.220
REMARK INTRA:                  -0.894
REMARK UNBOUND:                -1.585
REMARK SMILES CCCCCCC=CCCCCCCCC(=O)[O-]
REMARK SMILES IDX 10 1 11 2 12 3 13 4 14 5 15 6 16 7 17 8 18 9 9 10 8 11 7 12
REMARK SMILES IDX 6 13 5 14 4 15 3 16 2 17 1 18
REMARK H PARENT
REMARK Flexibility Score: inf
ROOT
ATOM      1  C   UNL     1      44.863  26.085   3.881  1.00  0.00     0.004 C 
ENDROOT
BRANCH   1   2
ATOM      2  C   UNL     1      46.391  25.887   3.949  1.00  0.00     0.000 C 
BRANCH   2   3
ATOM      3  C   UNL     1      47.055  26.400   5.239  1.00  0.00     0.000 C 
BRANCH   3   4
ATOM      4  C   UNL     1      46.570  27.798   5.647  1.00  0.00     0.000 C 
BRANCH   4   5
ATOM      5  C   UNL     1      46.357  27.885   7.166  1.00  0.00     0.006 C 
BRANCH   5   6
ATOM      6  C   UNL     1      45.972  26.530   7.776  1.00  0.00     0.053 C 
BRANCH   6   7
ATOM      7  C   UNL     1      45.605  26.658   9.223  1.00  0.00     0.041 C 
ATOM      8  O   UNL     1      45.898  25.742  10.035  1.00  0.00    -0.550 OA
ATOM      9  O   UNL     1      44.910  27.775   9.667  1.00  0.00    -0.550 OA
ENDBRANCH   6   7
ENDBRANCH   5   6
ENDBRANCH   4   5
ENDBRANCH   3   4
ENDBRANCH   2   3
ENDBRANCH   1   2
BRANCH   1  10
ATOM     10  C   UNL     1      44.396  27.081   2.806  1.00  0.00     0.027 C 
BRANCH  10  11
ATOM     11  C   UNL     1      45.518  27.537   1.912  1.00  0.00    -0.031 C 
ATOM     12  C   UNL     1      45.281  28.156   0.747  1.00  0.00    -0.031 C 
BRANCH  12  13
ATOM     13  C   UNL     1      46.419  28.604  -0.130  1.00  0.00     0.027 C 
BRANCH  13  14
ATOM     14  C   UNL     1      45.975  29.707  -1.096  1.00  0.00     0.004 C 
BRANCH  14  15
ATOM     15  C   UNL     1      45.946  29.191  -2.542  1.00  0.00     0.000 C 
BRANCH  15  16
ATOM     16  C   UNL     1      46.303  27.700  -2.646  1.00  0.00    -0.000 C 
BRANCH  16  17
ATOM     17  C   UNL     1      46.336  27.199  -4.097  1.00  0.00    -0.003 C 
ATOM     18  C   UNL     1      44.937  27.178  -4.704  1.00  0.00     0.004 C 
ENDBRANCH  16  17
ENDBRANCH  15  16
ENDBRANCH  14  15
ENDBRANCH  13  14
ENDBRANCH  12  13
ENDBRANCH  10  11
ENDBRANCH   1  10
TORSDOF 13
ENDMDL
MODEL 5
REMARK VINA RESULT:    -3.636      4.173      8.527
REMARK INTER + INTRA:          -7.984
REMARK INTER:                  -7.176
REMARK INTRA:                  -0.808
REMARK UNBOUND:                -1.585
REMARK SMILES CCCCCCC=CCCCCCCCC(=O)[O-]
REMARK SMILES IDX 10 1 11 2 12 3 13 4 14 5 15 6 16 7 17 8 18 9 9 10 8 11 7 12
REMARK SMILES IDX 6 13 5 14 4 15 3 16 2 17 1 18
REMARK H PARENT
REMARK Flexibility Score: inf
ROOT
ATOM      1  C   UNL     1      43.770  27.622   2.112  1.00  0.00     0.004 C 
ENDROOT
BRANCH   1   2
ATOM      2  C   UNL     1      44.557  26.763   3.124  1.00  0.00     0.000 C 
BRANCH   2   3
ATOM      3  C   UNL     1      45.602  27.531   3.954  1.00  0.00     0.000 C 
BRANCH   3   4
ATOM      4  C   UNL     1      46.286  26.654   5.012  1.00  0.00     0.000 C 
BRANCH   4   5
ATOM      5  C   UNL     1      46.446  27.417   6.336  1.00  0.00     0.006 C 
BRANCH   5   6
ATOM      6  C   UNL     1      46.326  26.494   7.556  1.00  0.00     0.053 C 
BRANCH   6   7
ATOM      7  C   UNL     1      45.565  27.144   8.671  1.00  0.00     0.041 C 
ATOM      8  O   UNL     1      45.264  28.365   8.607  1.00  0.00    -0.550 OA
ATOM      9  O   UNL     1      45.217  26.407   9.796  1.00  0.00    -0.550 OA
ENDBRANCH   6   7
ENDBRANCH   5   6
ENDBRANCH   4   5
ENDBRANCH   3   4
ENDBRANCH   2   3
ENDBRANCH   1   2
BRANCH   1  10
ATOM     10  C   UNL     1      44.225  29.090   2.033  1.00  0.00     0.027 C 
BRANCH  10  11
ATOM     11  C   UNL     1      45.145  29.350   0.871  1.00  0.00    -0.031 C 
ATOM     12  C   UNL     1      45.690  28.347   0.168  1.00  0.00    -0.031 C 
BRANCH  12  13
ATOM     13  C   UNL     1      46.606  28.631  -0.991  1.00  0.00     0.027 C 
BRANCH  13  14
ATOM     14  C   UNL     1      46.016  29.700  -1.917  1.00  0.00     0.004 C 
BRANCH  14  15
ATOM     15  C   UNL     1      45.785  29.138  -3.327  1.00  0.00     0.000 C 
BRANCH  15  16
ATOM     16  C   UNL     1      46.114  27.641  -3.429  1.00  0.00    -0.000 C 
BRANCH  16  17
ATOM     17  C   UNL     1      45.470  26.975  -4.653  1.00  0.00    -0.003 C 
ATOM     18  C   UNL     1      44.257  27.766  -5.136  1.00  0.00     0.004 C 
ENDBRANCH  16  17
ENDBRANCH  15  16
ENDBRANCH  14  15
ENDBRANCH  13  14
ENDBRANCH  12  13
ENDBRANCH  10  11
ENDBRANCH   1  10
TORSDOF 13
ENDMDL
MODEL 6
REMARK VINA RESULT:    -3.607      1.267      2.748
REMARK INTER + INTRA:          -7.933
REMARK INTER:                  -6.783
REMARK INTRA:                  -1.150
REMARK UNBOUND:                -1.585
REMARK SMILES CCCCCCC=CCCCCCCCC(=O)[O-]
REMARK SMILES IDX 10 1 11 2 12 3 13 4 14 5 15 6 16 7 17 8 18 9 9 10 8 11 7 12
REMARK SMILES IDX 6 13 5 14 4 15 3 16 2 17 1 18
REMARK H PARENT
REMARK Flexibility Score: inf
ROOT
ATOM      1  C   UNL     1      44.980  26.311   3.439  1.00  0.00     0.004 C 
ENDROOT
BRANCH   1   2
ATOM      2  C   UNL     1      44.048  27.237   2.631  1.00  0.00     0.000 C 
BRANCH   2   3
ATOM      3  C   UNL     1      44.486  27.492   1.178  1.00  0.00     0.000 C 
BRANCH   3   4
ATOM      4  C   UNL     1      45.207  28.835   0.997  1.00  0.00     0.000 C 
BRANCH   4   5
ATOM      5  C   UNL     1      46.391  28.696   0.028  1.00  0.00     0.006 C 
BRANCH   5   6
ATOM      6  C   UNL     1      46.088  29.299  -1.350  1.00  0.00     0.053 C 
BRANCH   6   7
ATOM      7  C   UNL     1      46.265  28.294  -2.447  1.00  0.00     0.041 C 
ATOM      8  O   UNL     1      45.988  27.082  -2.248  1.00  0.00    -0.550 OA
ATOM      9  O   UNL     1      46.769  28.691  -3.678  1.00  0.00    -0.550 OA
ENDBRANCH   6   7
ENDBRANCH   5   6
ENDBRANCH   4   5
ENDBRANCH   3   4
ENDBRANCH   2   3
ENDBRANCH   1   2
BRANCH   1  10
ATOM     10  C   UNL     1      46.281  26.977   3.919  1.00  0.00     0.027 C 
BRANCH  10  11
ATOM     11  C   UNL     1      46.051  28.343   4.507  1.00  0.00    -0.031 C 
ATOM     12  C   UNL     1      46.216  28.581   5.816  1.00  0.00    -0.031 C 
BRANCH  12  13
ATOM     13  C   UNL     1      45.981  29.955   6.382  1.00  0.00     0.027 C 
BRANCH  13  14
ATOM     14  C   UNL     1      45.433  29.882   7.811  1.00  0.00     0.004 C 
BRANCH  14  15
ATOM     15  C   UNL     1      46.120  28.761   8.605  1.00  0.00     0.000 C 
BRANCH  15  16
ATOM     16  C   UNL     1      45.124  27.916   9.416  1.00  0.00    -0.000 C 
BRANCH  16  17
ATOM     17  C   UNL     1      45.401  26.409   9.309  1.00  0.00    -0.003 C 
ATOM     18  C   UNL     1      46.645  26.137   8.468  1.00  0.00     0.004 C 
ENDBRANCH  16  17
ENDBRANCH  15  16
ENDBRANCH  14  15
ENDBRANCH  13  14
ENDBRANCH  12  13
ENDBRANCH  10  11
ENDBRANCH   1  10
TORSDOF 13
ENDMDL
MODEL 7
REMARK VINA RESULT:    -3.593      1.288      1.978
REMARK INTER + INTRA:          -7.908
REMARK INTER:                  -7.152
REMARK INTRA:                  -0.755
REMARK UNBOUND:                -1.585
REMARK SMILES CCCCCCC=CCCCCCCCC(=O)[O-]
REMARK SMILES IDX 10 1 11 2 12 3 13 4 14 5 15 6 16 7 17 8 18 9 9 10 8 11 7 12
REMARK SMILES IDX 6 13 5 14 4 15 3 16 2 17 1 18
REMARK H PARENT
REMARK Flexibility Score: inf
ROOT
ATOM      1  C   UNL     1      45.241  27.869   0.825  1.00  0.00     0.004 C 
ENDROOT
BRANCH   1   2
ATOM      2  C   UNL     1      45.572  29.329   0.454  1.00  0.00     0.000 C 
BRANCH   2   3
ATOM      3  C   UNL     1      45.998  29.547  -1.009  1.00  0.00     0.000 C 
BRANCH   3   4
ATOM      4  C   UNL     1      46.742  28.342  -1.601  1.00  0.00     0.000 C 
BRANCH   4   5
ATOM      5  C   UNL     1      46.840  28.454  -3.130  1.00  0.00     0.006 C 
BRANCH   5   6
ATOM      6  C   UNL     1      45.556  29.017  -3.753  1.00  0.00     0.053 C 
BRANCH   6   7
ATOM      7  C   UNL     1      44.825  27.980  -4.550  1.00  0.00     0.041 C 
ATOM      8  O   UNL     1      45.128  26.763  -4.438  1.00  0.00    -0.550 OA
ATOM      9  O   UNL     1      43.831  28.362  -5.441  1.00  0.00    -0.550 OA
ENDBRANCH   6   7
ENDBRANCH   5   6
ENDBRANCH   4   5
ENDBRANCH   3   4
ENDBRANCH   2   3
ENDBRANCH   1   2
BRANCH   1  10
ATOM     10  C   UNL     1      44.021  27.706   1.747  1.00  0.00     0.027 C 
BRANCH  10  11
ATOM     11  C   UNL     1      44.354  26.995   3.031  1.00  0.00    -0.031 C 
ATOM     12  C   UNL     1      45.621  26.854   3.447  1.00  0.00    -0.031 C 
BRANCH  12  13
ATOM     13  C   UNL     1      45.930  26.140   4.735  1.00  0.00     0.027 C 
BRANCH  13  14
ATOM     14  C   UNL     1      46.960  26.913   5.565  1.00  0.00     0.004 C 
BRANCH  14  15
ATOM     15  C   UNL     1      46.300  27.570   6.786  1.00  0.00     0.000 C 
BRANCH  15  16
ATOM     16  C   UNL     1      45.996  26.565   7.908  1.00  0.00    -0.000 C 
BRANCH  16  17
ATOM     17  C   UNL     1      45.456  27.239   9.177  1.00  0.00    -0.003 C 
ATOM     18  C   UNL     1      45.210  28.728   8.948  1.00  0.00     0.004 C 
ENDBRANCH  16  17
ENDBRANCH  15  16
ENDBRANCH  14  15
ENDBRANCH  13  14
ENDBRANCH  12  13
ENDBRANCH  10  11
ENDBRANCH   1  10
TORSDOF 13
ENDMDL
MODEL 8
REMARK VINA RESULT:    -3.389      2.462      5.153
REMARK INTER + INTRA:          -7.549
REMARK INTER:                  -6.552
REMARK INTRA:                  -0.997
REMARK UNBOUND:                -1.585
REMARK SMILES CCCCCCC=CCCCCCCCC(=O)[O-]
REMARK SMILES IDX 10 1 11 2 12 3 13 4 14 5 15 6 16 7 17 8 18 9 9 10 8 11 7 12
REMARK SMILES IDX 6 13 5 14 4 15 3 16 2 17 1 18
REMARK H PARENT
REMARK Flexibility Score: inf
ROOT
ATOM      1  C   UNL     1      46.025  27.595  -2.386  1.00  0.00     0.004 C 
ENDROOT
BRANCH   1   2
ATOM      2  C   UNL     1      46.484  27.201  -3.805  1.00  0.00     0.000 C 
BRANCH   2   3
ATOM      3  C   UNL     1      45.347  26.990  -4.821  1.00  0.00     0.000 C 
BRANCH   3   4
ATOM      4  C   UNL     1      45.442  27.932  -6.030  1.00  0.00     0.000 C 
BRANCH   4   5
ATOM      5  C   UNL     1      45.105  29.376  -5.628  1.00  0.00     0.006 C 
BRANCH   5   6
ATOM      6  C   UNL     1      43.773  29.472  -4.873  1.00  0.00     0.053 C 
BRANCH   6   7
ATOM      7  C   UNL     1      42.606  29.186  -5.768  1.00  0.00     0.041 C 
ATOM      8  O   UNL     1      42.484  29.792  -6.865  1.00  0.00    -0.550 OA
ATOM      9  O   UNL     1      41.636  28.274  -5.375  1.00  0.00    -0.550 OA
ENDBRANCH   6   7
ENDBRANCH   5   6
ENDBRANCH   4   5
ENDBRANCH   3   4
ENDBRANCH   2   3
ENDBRANCH   1   2
BRANCH   1  10
ATOM     10  C   UNL     1      46.848  28.722  -1.739  1.00  0.00     0.027 C 
BRANCH  10  11
ATOM     11  C   UNL     1      46.037  29.558  -0.786  1.00  0.00    -0.031 C 
ATOM     12  C   UNL     1      45.498  29.035   0.324  1.00  0.00    -0.031 C 
BRANCH  12  13
ATOM     13  C   UNL     1      44.692  29.892   1.262  1.00  0.00     0.027 C 
BRANCH  13  14
ATOM     14  C   UNL     1      44.332  29.129   2.541  1.00  0.00     0.004 C 
BRANCH  14  15
ATOM     15  C   UNL     1      45.286  27.946   2.762  1.00  0.00     0.000 C 
BRANCH  15  16
ATOM     16  C   UNL     1      44.558  26.680   3.241  1.00  0.00    -0.000 C 
BRANCH  16  17
ATOM     17  C   UNL     1      45.455  25.766   4.089  1.00  0.00    -0.003 C 
ATOM     18  C   UNL     1      46.026  26.516   5.289  1.00  0.00     0.004 C 
ENDBRANCH  16  17
ENDBRANCH  15  16
ENDBRANCH  14  15
ENDBRANCH  13  14
ENDBRANCH  12  13
ENDBRANCH  10  11
ENDBRANCH   1  10
TORSDOF 13
ENDMDL
MODEL 9
REMARK VINA RESULT:    -3.349      3.616      8.617
REMARK INTER + INTRA:          -7.479
REMARK INTER:                  -6.484
REMARK INTRA:                  -0.995
REMARK UNBOUND:                -1.585
REMARK SMILES CCCCCCC=CCCCCCCCC(=O)[O-]
REMARK SMILES IDX 10 1 11 2 12 3 13 4 14 5 15 6 16 7 17 8 18 9 9 10 8 11 7 12
REMARK SMILES IDX 6 13 5 14 4 15 3 16 2 17 1 18
REMARK H PARENT
REMARK Flexibility Score: inf
ROOT
ATOM      1  C   UNL     1      46.002  28.707  -0.252  1.00  0.00     0.004 C 
ENDROOT
BRANCH   1   2
ATOM      2  C   UNL     1      46.763  29.385   0.906  1.00  0.00     0.000 C 
BRANCH   2   3
ATOM      3  C   UNL     1      46.485  28.794   2.300  1.00  0.00     0.000 C 
BRANCH   3   4
ATOM      4  C   UNL     1      46.019  27.332   2.247  1.00  0.00     0.000 C 
BRANCH   4   5
ATOM      5  C   UNL     1      44.662  27.163   2.947  1.00  0.00     0.006 C 
BRANCH   5   6
ATOM      6  C   UNL     1      43.491  27.191   1.956  1.00  0.00     0.053 C 
BRANCH   6   7
ATOM      7  C   UNL     1      42.509  28.274   2.289  1.00  0.00     0.041 C 
ATOM      8  O   UNL     1      42.881  29.476   2.335  1.00  0.00    -0.550 OA
ATOM      9  O   UNL     1      41.191  27.949   2.579  1.00  0.00    -0.550 OA
ENDBRANCH   6   7
ENDBRANCH   5   6
ENDBRANCH   4   5
ENDBRANCH   3   4
ENDBRANCH   2   3
ENDBRANCH   1   2
BRANCH   1  10
ATOM     10  C   UNL     1      46.803  28.591  -1.560  1.00  0.00     0.027 C 
BRANCH  10  11
ATOM     11  C   UNL     1      46.117  27.728  -2.585  1.00  0.00    -0.031 C 
ATOM     12  C   UNL     1      46.187  28.004  -3.895  1.00  0.00    -0.031 C 
BRANCH  12  13
ATOM     13  C   UNL     1      45.495  27.126  -4.902  1.00  0.00     0.027 C 
BRANCH  13  14
ATOM     14  C   UNL     1      45.016  27.937  -6.110  1.00  0.00     0.004 C 
BRANCH  14  15
ATOM     15  C   UNL     1      43.551  27.616  -6.442  1.00  0.00     0.000 C 
BRANCH  15  16
ATOM     16  C   UNL     1      42.573  28.161  -5.389  1.00  0.00    -0.000 C 
BRANCH  16  17
ATOM     17  C   UNL     1      42.400  29.684  -5.474  1.00  0.00    -0.003 C 
ATOM     18  C   UNL     1      41.959  30.112  -6.871  1.00  0.00     0.004 C 
ENDBRANCH  16  17
ENDBRANCH  15  16
ENDBRANCH  14  15
ENDBRANCH  13  14
ENDBRANCH  12  13
ENDBRANCH  10  11
ENDBRANCH   1  10
TORSDOF 13
ENDMDL
