MODEL 1
REMARK VINA RESULT:    -3.696      0.000      0.000
REMARK INTER + INTRA:          -4.390
REMARK INTER:                  -4.345
REMARK INTRA:                  -0.045
REMARK UNBOUND:                -0.045
REMARK SMILES CCCCC(=O)[O-]
REMARK SMILES IDX 4 1 5 2 6 3 7 4 3 5 2 6 1 7
REMARK H PARENT
REMARK Flexibility Score: inf
ROOT
ATOM      1  C   UNL     1      36.774 105.744 260.732  1.00  0.00     0.053 C 
ENDROOT
BRANCH   1   2
ATOM      2  C   UNL     1      36.994 106.571 261.960  1.00  0.00     0.041 C 
ATOM      3  O   UNL     1      36.036 106.816 262.740  1.00  0.00    -0.550 OA
ATOM      4  O   UNL     1      38.268 107.030 262.270  1.00  0.00    -0.550 OA
ENDBRANCH   1   2
BRANCH   1   5
ATOM      5  C   UNL     1      37.793 106.109 259.650  1.00  0.00     0.006 C 
BRANCH   5   6
ATOM      6  C   UNL     1      37.153 106.071 258.258  1.00  0.00    -0.003 C 
ATOM      7  C   UNL     1      36.124 107.187 258.094  1.00  0.00     0.004 C 
ENDBRANCH   5   6
ENDBRANCH   1   5
TORSDOF 3
ENDMDL
MODEL 2
REMARK VINA RESULT:    -3.455      1.360      1.946
REMARK INTER + INTRA:          -4.106
REMARK INTER:                  -4.085
REMARK INTRA:                  -0.021
REMARK UNBOUND:                -0.045
REMARK SMILES CCCCC(=O)[O-]
REMARK SMILES IDX 4 1 5 2 6 3 7 4 3 5 2 6 1 7
REMARK H PARENT
REMARK Flexibility Score: inf
ROOT
ATOM      1  C   UNL     1      37.078 106.588 261.994  1.00  0.00     0.053 C 
ENDROOT
BRANCH   1   2
ATOM      2  C   UNL     1      36.186 106.184 263.125  1.00  0.00     0.041 C 
ATOM      3  O   UNL     1      36.041 106.943 264.121  1.00  0.00    -0.550 OA
ATOM      4  O   UNL     1      35.476 104.992 263.061  1.00  0.00    -0.550 OA
ENDBRANCH   1   2
BRANCH   1   5
ATOM      5  C   UNL     1      36.780 105.746 260.750  1.00  0.00     0.006 C 
BRANCH   5   6
ATOM      6  C   UNL     1      37.846 105.965 259.671  1.00  0.00    -0.003 C 
ATOM      7  C   UNL     1      37.218 106.025 258.281  1.00  0.00     0.004 C 
ENDBRANCH   5   6
ENDBRANCH   1   5
TORSDOF 3
ENDMDL
MODEL 3
REMARK VINA RESULT:    -3.432      1.548      2.023
REMARK INTER + INTRA:          -4.079
REMARK INTER:                  -4.059
REMARK INTRA:                  -0.020
REMARK UNBOUND:                -0.045
REMARK SMILES CCCCC(=O)[O-]
REMARK SMILES IDX 4 1 5 2 6 3 7 4 3 5 2 6 1 7
REMARK H PARENT
REMARK Flexibility Score: inf
ROOT
ATOM      1  C   UNL     1      36.863 106.612 261.976  1.00  0.00     0.053 C 
ENDROOT
BRANCH   1   2
ATOM      2  C   UNL     1      35.846 106.248 263.012  1.00  0.00     0.041 C 
ATOM      3  O   UNL     1      35.655 105.040 263.316  1.00  0.00    -0.550 OA
ATOM      4  O   UNL     1      35.142 107.244 263.677  1.00  0.00    -0.550 OA
ENDBRANCH   1   2
BRANCH   1   5
ATOM      5  C   UNL     1      36.787 105.647 260.789  1.00  0.00     0.006 C 
BRANCH   5   6
ATOM      6  C   UNL     1      37.898 105.939 259.774  1.00  0.00    -0.003 C 
ATOM      7  C   UNL     1      37.345 105.992 258.352  1.00  0.00     0.004 C 
ENDBRANCH   5   6
ENDBRANCH   1   5
TORSDOF 3
ENDMDL
MODEL 4
REMARK VINA RESULT:    -3.385      2.417      3.789
REMARK INTER + INTRA:          -4.023
REMARK INTER:                  -3.970
REMARK INTRA:                  -0.054
REMARK UNBOUND:                -0.045
REMARK SMILES CCCCC(=O)[O-]
REMARK SMILES IDX 4 1 5 2 6 3 7 4 3 5 2 6 1 7
REMARK H PARENT
REMARK Flexibility Score: inf
ROOT
ATOM      1  C   UNL     1      37.884 106.215 260.579  1.00  0.00     0.053 C 
ENDROOT
BRANCH   1   2
ATOM      2  C   UNL     1      37.312 106.485 259.223  1.00  0.00     0.041 C 
ATOM      3  O   UNL     1      36.422 107.365 259.073  1.00  0.00    -0.550 OA
ATOM      4  O   UNL     1      37.795 105.801 258.115  1.00  0.00    -0.550 OA
ENDBRANCH   1   2
BRANCH   1   5
ATOM      5  C   UNL     1      36.851 106.526 261.667  1.00  0.00     0.006 C 
BRANCH   5   6
ATOM      6  C   UNL     1      37.539 106.876 262.991  1.00  0.00    -0.003 C 
ATOM      7  C   UNL     1      39.005 107.242 262.771  1.00  0.00     0.004 C 
ENDBRANCH   5   6
ENDBRANCH   1   5
TORSDOF 3
ENDMDL
MODEL 5
REMARK VINA RESULT:    -3.304      2.240      4.115
REMARK INTER + INTRA:          -3.929
REMARK INTER:                  -3.907
REMARK INTRA:                  -0.021
REMARK UNBOUND:                -0.045
REMARK SMILES CCCCC(=O)[O-]
REMARK SMILES IDX 4 1 5 2 6 3 7 4 3 5 2 6 1 7
REMARK H PARENT
REMARK Flexibility Score: inf
ROOT
ATOM      1  C   UNL     1      37.453 106.868 261.915  1.00  0.00     0.053 C 
ENDROOT
BRANCH   1   2
ATOM      2  C   UNL     1      37.617 106.518 260.469  1.00  0.00     0.041 C 
ATOM      3  O   UNL     1      38.530 105.729 260.107  1.00  0.00    -0.550 OA
ATOM      4  O   UNL     1      36.732 107.025 259.525  1.00  0.00    -0.550 OA
ENDBRANCH   1   2
BRANCH   1   5
ATOM      5  C   UNL     1      36.292 106.079 262.528  1.00  0.00     0.006 C 
BRANCH   5   6
ATOM      6  C   UNL     1      35.570 106.907 263.597  1.00  0.00    -0.003 C 
ATOM      7  C   UNL     1      35.025 106.015 264.710  1.00  0.00     0.004 C 
ENDBRANCH   5   6
ENDBRANCH   1   5
TORSDOF 3
ENDMDL
MODEL 6
REMARK VINA RESULT:    -3.192      2.764      4.859
REMARK INTER + INTRA:          -3.796
REMARK INTER:                  -3.765
REMARK INTRA:                  -0.031
REMARK UNBOUND:                -0.045
REMARK SMILES CCCCC(=O)[O-]
REMARK SMILES IDX 4 1 5 2 6 3 7 4 3 5 2 6 1 7
REMARK H PARENT
REMARK Flexibility Score: inf
ROOT
ATOM      1  C   UNL     1      36.027 105.845 262.869  1.00  0.00     0.053 C 
ENDROOT
BRANCH   1   2
ATOM      2  C   UNL     1      37.126 106.669 262.274  1.00  0.00     0.041 C 
ATOM      3  O   UNL     1      38.081 107.066 262.994  1.00  0.00    -0.550 OA
ATOM      4  O   UNL     1      37.122 106.957 260.915  1.00  0.00    -0.550 OA
ENDBRANCH   1   2
BRANCH   1   5
ATOM      5  C   UNL     1      35.467 106.524 264.122  1.00  0.00     0.006 C 
BRANCH   5   6
ATOM      6  C   UNL     1      35.116 105.489 265.197  1.00  0.00    -0.003 C 
ATOM      7  C   UNL     1      35.117 106.117 266.588  1.00  0.00     0.004 C 
ENDBRANCH   5   6
ENDBRANCH   1   5
TORSDOF 3
ENDMDL
MODEL 7
REMARK VINA RESULT:    -3.125      5.061      6.450
REMARK INTER + INTRA:          -3.718
REMARK INTER:                  -3.697
REMARK INTRA:                  -0.021
REMARK UNBOUND:                -0.045
REMARK SMILES CCCCC(=O)[O-]
REMARK SMILES IDX 4 1 5 2 6 3 7 4 3 5 2 6 1 7
REMARK H PARENT
REMARK Flexibility Score: inf
ROOT
ATOM      1  C   UNL     1      35.014 106.126 267.024  1.00  0.00     0.053 C 
ENDROOT
BRANCH   1   2
ATOM      2  C   UNL     1      35.102 107.089 268.165  1.00  0.00     0.041 C 
ATOM      3  O   UNL     1      34.875 108.315 267.980  1.00  0.00    -0.550 OA
ATOM      4  O   UNL     1      35.387 106.629 269.445  1.00  0.00    -0.550 OA
ENDBRANCH   1   2
BRANCH   1   5
ATOM      5  C   UNL     1      35.186 106.859 265.691  1.00  0.00     0.006 C 
BRANCH   5   6
ATOM      6  C   UNL     1      35.149 105.875 264.515  1.00  0.00    -0.003 C 
ATOM      7  C   UNL     1      35.934 106.412 263.322  1.00  0.00     0.004 C 
ENDBRANCH   5   6
ENDBRANCH   1   5
TORSDOF 3
ENDMDL
MODEL 8
REMARK VINA RESULT:    -3.069      4.085      6.212
REMARK INTER + INTRA:          -3.652
REMARK INTER:                  -3.630
REMARK INTRA:                  -0.022
REMARK UNBOUND:                -0.045
REMARK SMILES CCCCC(=O)[O-]
REMARK SMILES IDX 4 1 5 2 6 3 7 4 3 5 2 6 1 7
REMARK H PARENT
REMARK Flexibility Score: inf
ROOT
ATOM      1  C   UNL     1      35.138 105.533 265.079  1.00  0.00     0.053 C 
ENDROOT
BRANCH   1   2
ATOM      2  C   UNL     1      35.693 105.539 263.690  1.00  0.00     0.041 C 
ATOM      3  O   UNL     1      36.574 106.378 263.362  1.00  0.00    -0.550 OA
ATOM      4  O   UNL     1      35.273 104.587 262.769  1.00  0.00    -0.550 OA
ENDBRANCH   1   2
BRANCH   1   5
ATOM      5  C   UNL     1      35.254 106.925 265.708  1.00  0.00     0.006 C 
BRANCH   5   6
ATOM      6  C   UNL     1      34.886 106.887 267.196  1.00  0.00    -0.003 C 
ATOM      7  C   UNL     1      35.030 108.266 267.834  1.00  0.00     0.004 C 
ENDBRANCH   5   6
ENDBRANCH   1   5
TORSDOF 3
ENDMDL
MODEL 9
REMARK VINA RESULT:    -2.989      2.644      3.330
REMARK INTER + INTRA:          -3.558
REMARK INTER:                  -3.481
REMARK INTRA:                  -0.077
REMARK UNBOUND:                -0.045
REMARK SMILES CCCCC(=O)[O-]
REMARK SMILES IDX 4 1 5 2 6 3 7 4 3 5 2 6 1 7
REMARK H PARENT
REMARK Flexibility Score: inf
ROOT
ATOM      1  C   UNL     1      36.152 105.574 262.375  1.00  0.00     0.053 C 
ENDROOT
BRANCH   1   2
ATOM      2  C   UNL     1      35.702 105.879 263.769  1.00  0.00     0.041 C 
ATOM      3  O   UNL     1      35.881 105.040 264.691  1.00  0.00    -0.550 OA
ATOM      4  O   UNL     1      35.130 107.111 264.062  1.00  0.00    -0.550 OA
ENDBRANCH   1   2
BRANCH   1   5
ATOM      5  C   UNL     1      36.794 106.809 261.737  1.00  0.00     0.006 C 
BRANCH   5   6
ATOM      6  C   UNL     1      38.309 106.626 261.591  1.00  0.00    -0.003 C 
ATOM      7  C   UNL     1      39.055 107.254 262.766  1.00  0.00     0.004 C 
ENDBRANCH   5   6
ENDBRANCH   1   5
TORSDOF 3
ENDMDL
