MODEL 1
REMARK VINA RESULT:    11.834      0.000      0.000
REMARK INTER + INTRA:          18.563
REMARK INTER:                  15.985
REMARK INTRA:                   2.578
REMARK UNBOUND:                 2.578
REMARK SMILES CC[C@@H](CC[C@H](C)[C@@H]1CC[C@@H]2[C@H]3CC(=O)C4=CC(=O)CC[C@@]4(C)[C@H]3CC[C@@]21C)C(C)C
REMARK SMILES IDX 4 1 3 2 2 3 1 4 29 5 30 6 31 7 5 8 6 9 7 10 8 11 9 12 27 13
REMARK SMILES IDX 10 14 11 15 26 16 28 17 12 18 25 19 24 20 13 21 22 22 14 23
REMARK SMILES IDX 16 24 21 25 23 26 15 27 17 28 20 29 18 30 19 31
REMARK H PARENT
REMARK Flexibility Score: inf
ROOT
ATOM      1  C   UNL     1      14.794 -31.644  15.168  1.00  0.00     0.004 C 
ENDROOT
BRANCH   1   2
ATOM      2  C   UNL     1      16.123 -30.854  14.980  1.00  0.00    -0.009 C 
BRANCH   2   3
ATOM      3  C   UNL     1      16.088 -30.047  13.651  1.00  0.00     0.000 C 
ATOM      4  C   UNL     1      14.697 -29.537  13.271  1.00  0.00     0.004 C 
ENDBRANCH   2   3
BRANCH   2   5
ATOM      5  C   UNL     1      17.387 -31.773  15.104  1.00  0.00    -0.014 C 
ATOM      6  C   UNL     1      18.562 -31.332  14.217  1.00  0.00     0.007 C 
ATOM      7  C   UNL     1      17.060 -33.256  14.849  1.00  0.00     0.007 C 
ENDBRANCH   2   5
ENDBRANCH   1   2
BRANCH   1   8
ATOM      8  C   UNL     1      13.965 -31.758  13.869  1.00  0.00     0.004 C 
BRANCH   8   9
ATOM      9  C   UNL     1      12.599 -31.008  13.929  1.00  0.00    -0.011 C 
ATOM     10  C   UNL     1      12.226 -30.758  15.404  1.00  0.00     0.008 C 
BRANCH   9  11
ATOM     11  C   UNL     1      11.491 -31.812  13.142  1.00  0.00    -0.002 C 
ATOM     12  C   UNL     1      10.248 -30.937  12.878  1.00  0.00     0.005 C 
ATOM     13  C   UNL     1      10.923 -33.140  13.764  1.00  0.00    -0.026 C 
ATOM     14  C   UNL     1       9.023 -31.838  12.886  1.00  0.00     0.005 C 
ATOM     15  C   UNL     1       9.532 -33.266  13.072  1.00  0.00    -0.001 C 
ATOM     16  C   UNL     1      10.748 -33.017  15.307  1.00  0.00     0.007 C 
ATOM     17  C   UNL     1      11.825 -34.356  13.393  1.00  0.00     0.012 C 
ATOM     18  C   UNL     1       8.474 -34.184  13.763  1.00  0.00     0.004 C 
ATOM     19  C   UNL     1       9.803 -34.060  15.920  1.00  0.00     0.005 C 
ATOM     20  C   UNL     1       8.388 -33.966  15.305  1.00  0.00     0.003 C 
ATOM     21  C   UNL     1       8.699 -35.664  13.395  1.00  0.00     0.085 C 
ATOM     22  C   UNL     1       7.281 -34.877  15.990  1.00  0.00    -0.000 C 
ATOM     23  C   UNL     1       7.713 -36.562  14.061  1.00  0.00     0.159 C 
ATOM     24  C   UNL     1       7.308 -36.313  15.461  1.00  0.00     0.005 C 
ATOM     25  C   UNL     1       7.450 -34.902  17.544  1.00  0.00     0.020 C 
ATOM     26  C   UNL     1       5.884 -34.284  15.655  1.00  0.00     0.017 C 
ATOM     27  O   UNL     1       7.289 -37.576  13.441  1.00  0.00    -0.295 OA
ATOM     28  C   UNL     1       6.826 -37.332  16.200  1.00  0.00     0.055 C 
ATOM     29  C   UNL     1       6.425 -35.800  18.247  1.00  0.00     0.081 C 
ATOM     30  C   UNL     1       6.360 -37.144  17.586  1.00  0.00     0.156 C 
ATOM     31  O   UNL     1       5.875 -38.123  18.215  1.00  0.00    -0.295 OA
ENDBRANCH   9  11
ENDBRANCH   8   9
ENDBRANCH   1   8
TORSDOF 6
ENDMDL
MODEL 2
REMARK VINA RESULT:    13.161      3.185      8.049
REMARK INTER + INTRA:          20.355
REMARK INTER:                  19.418
REMARK INTRA:                   0.937
REMARK UNBOUND:                 2.578
REMARK SMILES CC[C@@H](CC[C@H](C)[C@@H]1CC[C@@H]2[C@H]3CC(=O)C4=CC(=O)CC[C@@]4(C)[C@H]3CC[C@@]21C)C(C)C
REMARK SMILES IDX 4 1 3 2 2 3 1 4 29 5 30 6 31 7 5 8 6 9 7 10 8 11 9 12 27 13
REMARK SMILES IDX 10 14 11 15 26 16 28 17 12 18 25 19 24 20 13 21 22 22 14 23
REMARK SMILES IDX 16 24 21 25 23 26 15 27 17 28 20 29 18 30 19 31
REMARK H PARENT
REMARK Flexibility Score: inf
ROOT
ATOM      1  C   UNL     1       7.564 -36.735  15.245  1.00  0.00     0.004 C 
ENDROOT
BRANCH   1   2
ATOM      2  C   UNL     1       7.097 -36.950  13.776  1.00  0.00    -0.009 C 
BRANCH   2   3
ATOM      3  C   UNL     1       7.883 -38.125  13.126  1.00  0.00     0.000 C 
ATOM      4  C   UNL     1       9.403 -37.976  13.211  1.00  0.00     0.004 C 
ENDBRANCH   2   3
BRANCH   2   5
ATOM      5  C   UNL     1       7.159 -35.632  12.930  1.00  0.00    -0.014 C 
ATOM      6  C   UNL     1       8.555 -34.991  12.885  1.00  0.00     0.007 C 
ATOM      7  C   UNL     1       6.116 -34.595  13.384  1.00  0.00     0.007 C 
ENDBRANCH   2   5
ENDBRANCH   1   2
BRANCH   1   8
ATOM      8  C   UNL     1       6.781 -37.593  16.265  1.00  0.00     0.004 C 
BRANCH   8   9
ATOM      9  C   UNL     1       6.938 -37.111  17.740  1.00  0.00    -0.011 C 
ATOM     10  C   UNL     1       5.876 -37.809  18.613  1.00  0.00     0.008 C 
BRANCH   9  11
ATOM     11  C   UNL     1       6.859 -35.536  17.818  1.00  0.00    -0.002 C 
ATOM     12  C   UNL     1       5.889 -34.972  16.759  1.00  0.00     0.005 C 
ATOM     13  C   UNL     1       8.176 -34.695  17.645  1.00  0.00    -0.026 C 
ATOM     14  C   UNL     1       6.401 -33.608  16.326  1.00  0.00     0.005 C 
ATOM     15  C   UNL     1       7.632 -33.311  17.181  1.00  0.00    -0.001 C 
ATOM     16  C   UNL     1       9.101 -35.305  16.551  1.00  0.00     0.007 C 
ATOM     17  C   UNL     1       8.926 -34.553  19.004  1.00  0.00     0.012 C 
ATOM     18  C   UNL     1       8.635 -32.357  16.458  1.00  0.00     0.004 C 
ATOM     19  C   UNL     1      10.158 -34.334  16.005  1.00  0.00     0.005 C 
ATOM     20  C   UNL     1       9.501 -33.081  15.382  1.00  0.00     0.003 C 
ATOM     21  C   UNL     1       9.496 -31.584  17.476  1.00  0.00     0.085 C 
ATOM     22  C   UNL     1      10.490 -32.093  14.628  1.00  0.00    -0.000 C 
ATOM     23  C   UNL     1      10.478 -30.682  16.808  1.00  0.00     0.159 C 
ATOM     24  C   UNL     1      11.187 -31.127  15.589  1.00  0.00     0.005 C 
ATOM     25  C   UNL     1      11.574 -32.882  13.822  1.00  0.00     0.020 C 
ATOM     26  C   UNL     1       9.660 -31.238  13.630  1.00  0.00     0.017 C 
ATOM     27  O   UNL     1      10.749 -29.569  17.338  1.00  0.00    -0.295 OA
ATOM     28  C   UNL     1      12.368 -30.562  15.269  1.00  0.00     0.055 C 
ATOM     29  C   UNL     1      12.575 -31.967  13.105  1.00  0.00     0.081 C 
ATOM     30  C   UNL     1      13.104 -30.926  14.044  1.00  0.00     0.156 C 
ATOM     31  O   UNL     1      14.182 -30.332  13.770  1.00  0.00    -0.295 OA
ENDBRANCH   9  11
ENDBRANCH   8   9
ENDBRANCH   1   8
TORSDOF 6
ENDMDL
