MODEL 1
REMARK VINA RESULT:    -6.978      0.000      0.000
REMARK INTER + INTRA:          -8.775
REMARK INTER:                  -8.406
REMARK INTRA:                  -0.369
REMARK UNBOUND:                -0.369
REMARK SMILES O=c1c(O)c(-c2ccc(O)cc2O)oc2cc(O)cc(O)c12
REMARK SMILES IDX 5 1 3 2 2 3 1 4 22 5 20 6 19 7 17 8 16 9 15 10 14 11 6 12
REMARK SMILES IDX 8 13 7 14 9 15 11 16 12 17 10 18 13 20 4 22 21 24 18 26
REMARK H PARENT 10 19 13 21 4 23 21 25 18 27
REMARK Flexibility Score: inf
ROOT
ATOM      1  C   UNL     1      18.604  24.461  41.772  1.00  0.00     0.184 A 
ATOM      2  C   UNL     1      17.333  24.167  42.287  1.00  0.00     0.208 A 
ATOM      3  C   UNL     1      16.851  24.911  43.375  1.00  0.00     0.238 A 
ATOM      4  O   UNL     1      15.683  24.689  43.789  1.00  0.00    -0.285 OA
ATOM      5  C   UNL     1      17.666  25.911  43.961  1.00  0.00     0.111 A 
ATOM      6  C   UNL     1      17.298  26.696  45.095  1.00  0.00     0.134 A 
ATOM      7  C   UNL     1      18.138  27.733  45.519  1.00  0.00     0.093 A 
ATOM      8  C   UNL     1      19.363  27.971  44.890  1.00  0.00     0.123 A 
ATOM      9  C   UNL     1      19.756  27.175  43.818  1.00  0.00     0.094 A 
ATOM     10  C   UNL     1      18.923  26.157  43.348  1.00  0.00     0.146 A 
ATOM     11  O   UNL     1      19.330  25.433  42.311  1.00  0.00    -0.451 OA
ENDROOT
BRANCH   1  12
ATOM     12  C   UNL     1      19.159  23.720  40.619  1.00  0.00     0.063 A 
ATOM     13  C   UNL     1      20.551  21.909  39.779  1.00  0.00     0.047 A 
ATOM     14  C   UNL     1      20.054  22.660  40.846  1.00  0.00     0.020 A 
ATOM     15  C   UNL     1      20.154  22.202  38.469  1.00  0.00     0.119 A 
ATOM     16  C   UNL     1      19.262  23.252  38.233  1.00  0.00     0.093 A 
ATOM     17  C   UNL     1      18.765  24.018  39.294  1.00  0.00     0.130 A 
BRANCH  15  18
ATOM     18  O   UNL     1      20.639  21.457  37.397  1.00  0.00    -0.508 OA
ATOM     19  H   UNL     1      21.550  21.640  36.993  1.00  0.00     0.293 HD
ENDBRANCH  15  18
BRANCH  17  20
ATOM     20  O   UNL     1      17.903  25.077  38.996  1.00  0.00    -0.507 OA
ATOM     21  H   UNL     1      17.362  25.562  39.700  1.00  0.00     0.293 HD
ENDBRANCH  17  20
ENDBRANCH   1  12
BRANCH   2  22
ATOM     22  O   UNL     1      16.571  23.142  41.721  1.00  0.00    -0.502 OA
ATOM     23  H   UNL     1      16.437  23.054  40.721  1.00  0.00     0.293 HD
ENDBRANCH   2  22
BRANCH   6  24
ATOM     24  O   UNL     1      16.141  26.484  45.852  1.00  0.00    -0.507 OA
ATOM     25  H   UNL     1      15.673  25.596  45.954  1.00  0.00     0.293 HD
ENDBRANCH   6  24
BRANCH   8  26
ATOM     26  O   UNL     1      20.200  28.994  45.330  1.00  0.00    -0.508 OA
ATOM     27  H   UNL     1      20.995  29.302  44.782  1.00  0.00     0.293 HD
ENDBRANCH   8  26
TORSDOF 6
ENDMDL
MODEL 2
REMARK VINA RESULT:    -6.643      1.201      2.815
REMARK INTER + INTRA:          -8.372
REMARK INTER:                  -7.955
REMARK INTRA:                  -0.417
REMARK UNBOUND:                -0.369
REMARK SMILES O=c1c(O)c(-c2ccc(O)cc2O)oc2cc(O)cc(O)c12
REMARK SMILES IDX 5 1 3 2 2 3 1 4 22 5 20 6 19 7 17 8 16 9 15 10 14 11 6 12
REMARK SMILES IDX 8 13 7 14 9 15 11 16 12 17 10 18 13 20 4 22 21 24 18 26
REMARK H PARENT 10 19 13 21 4 23 21 25 18 27
REMARK Flexibility Score: inf
ROOT
ATOM      1  C   UNL     1      19.214  24.829  41.461  1.00  0.00     0.184 A 
ATOM      2  C   UNL     1      19.995  25.968  41.705  1.00  0.00     0.208 A 
ATOM      3  C   UNL     1      19.711  26.761  42.827  1.00  0.00     0.238 A 
ATOM      4  O   UNL     1      20.457  27.743  43.078  1.00  0.00    -0.285 OA
ATOM      5  C   UNL     1      18.618  26.428  43.666  1.00  0.00     0.111 A 
ATOM      6  C   UNL     1      18.210  27.185  44.805  1.00  0.00     0.134 A 
ATOM      7  C   UNL     1      17.186  26.699  45.627  1.00  0.00     0.093 A 
ATOM      8  C   UNL     1      16.512  25.515  45.314  1.00  0.00     0.123 A 
ATOM      9  C   UNL     1      16.866  24.799  44.175  1.00  0.00     0.094 A 
ATOM     10  C   UNL     1      17.909  25.239  43.356  1.00  0.00     0.146 A 
ATOM     11  O   UNL     1      18.225  24.514  42.289  1.00  0.00    -0.451 OA
ENDROOT
BRANCH   1  12
ATOM     12  C   UNL     1      19.475  23.948  40.303  1.00  0.00     0.063 A 
ATOM     13  C   UNL     1      20.510  21.936  39.405  1.00  0.00     0.047 A 
ATOM     14  C   UNL     1      20.291  22.815  40.468  1.00  0.00     0.020 A 
ATOM     15  C   UNL     1      19.910  22.174  38.163  1.00  0.00     0.119 A 
ATOM     16  C   UNL     1      19.095  23.295  37.989  1.00  0.00     0.093 A 
ATOM     17  C   UNL     1      18.876  24.189  39.045  1.00  0.00     0.130 A 
BRANCH  15  18
ATOM     18  O   UNL     1      20.118  21.302  37.096  1.00  0.00    -0.508 OA
ATOM     19  H   UNL     1      20.435  21.635  36.194  1.00  0.00     0.293 HD
ENDBRANCH  15  18
BRANCH  17  20
ATOM     20  O   UNL     1      18.079  25.311  38.804  1.00  0.00    -0.507 OA
ATOM     21  H   UNL     1      18.256  25.962  38.050  1.00  0.00     0.293 HD
ENDBRANCH  17  20
ENDBRANCH   1  12
BRANCH   2  22
ATOM     22  O   UNL     1      21.034  26.301  40.833  1.00  0.00    -0.502 OA
ATOM     23  H   UNL     1      21.894  25.768  40.784  1.00  0.00     0.293 HD
ENDBRANCH   2  22
BRANCH   6  24
ATOM     24  O   UNL     1      18.755  28.425  45.158  1.00  0.00    -0.507 OA
ATOM     25  H   UNL     1      18.850  28.765  46.102  1.00  0.00     0.293 HD
ENDBRANCH   6  24
BRANCH   8  26
ATOM     26  O   UNL     1      15.482  25.048  46.128  1.00  0.00    -0.508 OA
ATOM     27  H   UNL     1      14.536  24.946  45.780  1.00  0.00     0.293 HD
ENDBRANCH   8  26
TORSDOF 6
ENDMDL
MODEL 3
REMARK VINA RESULT:    -6.452      1.603      6.652
REMARK INTER + INTRA:          -8.141
REMARK INTER:                  -7.747
REMARK INTRA:                  -0.394
REMARK UNBOUND:                -0.369
REMARK SMILES O=c1c(O)c(-c2ccc(O)cc2O)oc2cc(O)cc(O)c12
REMARK SMILES IDX 5 1 3 2 2 3 1 4 22 5 20 6 19 7 17 8 16 9 15 10 14 11 6 12
REMARK SMILES IDX 8 13 7 14 9 15 11 16 12 17 10 18 13 20 4 22 21 24 18 26
REMARK H PARENT 10 19 13 21 4 23 21 25 18 27
REMARK Flexibility Score: inf
ROOT
ATOM      1  C   UNL     1      17.292  25.109  42.395  1.00  0.00     0.184 A 
ATOM      2  C   UNL     1      16.504  25.441  41.283  1.00  0.00     0.208 A 
ATOM      3  C   UNL     1      16.849  24.923  40.025  1.00  0.00     0.238 A 
ATOM      4  O   UNL     1      16.099  25.169  39.045  1.00  0.00    -0.285 OA
ATOM      5  C   UNL     1      18.005  24.116  39.889  1.00  0.00     0.111 A 
ATOM      6  C   UNL     1      18.475  23.573  38.655  1.00  0.00     0.134 A 
ATOM      7  C   UNL     1      19.566  22.695  38.658  1.00  0.00     0.093 A 
ATOM      8  C   UNL     1      20.244  22.391  39.842  1.00  0.00     0.123 A 
ATOM      9  C   UNL     1      19.826  22.959  41.042  1.00  0.00     0.094 A 
ATOM     10  C   UNL     1      18.718  23.809  41.078  1.00  0.00     0.146 A 
ATOM     11  O   UNL     1      18.345  24.313  42.248  1.00  0.00    -0.451 OA
ENDROOT
BRANCH   1  12
ATOM     12  C   UNL     1      16.970  25.613  43.747  1.00  0.00     0.063 A 
ATOM     13  C   UNL     1      15.614  25.458  45.762  1.00  0.00     0.047 A 
ATOM     14  C   UNL     1      15.906  25.038  44.463  1.00  0.00     0.020 A 
ATOM     15  C   UNL     1      16.388  26.453  46.369  1.00  0.00     0.119 A 
ATOM     16  C   UNL     1      17.451  27.030  45.667  1.00  0.00     0.093 A 
ATOM     17  C   UNL     1      17.746  26.624  44.360  1.00  0.00     0.130 A 
BRANCH  15  18
ATOM     18  O   UNL     1      16.110  26.877  47.666  1.00  0.00    -0.508 OA
ATOM     19  H   UNL     1      16.018  27.860  47.895  1.00  0.00     0.293 HD
ENDBRANCH  15  18
BRANCH  17  20
ATOM     20  O   UNL     1      18.798  27.259  43.695  1.00  0.00    -0.507 OA
ATOM     21  H   UNL     1      18.812  28.252  43.505  1.00  0.00     0.293 HD
ENDBRANCH  17  20
ENDBRANCH   1  12
BRANCH   2  22
ATOM     22  O   UNL     1      15.398  26.281  41.438  1.00  0.00    -0.502 OA
ATOM     23  H   UNL     1      15.490  27.279  41.585  1.00  0.00     0.293 HD
ENDBRANCH   2  22
BRANCH   6  24
ATOM     24  O   UNL     1      17.928  23.883  37.405  1.00  0.00    -0.507 OA
ATOM     25  H   UNL     1      17.208  23.350  36.943  1.00  0.00     0.293 HD
ENDBRANCH   6  24
BRANCH   8  26
ATOM     26  O   UNL     1      21.339  21.530  39.831  1.00  0.00    -0.508 OA
ATOM     27  H   UNL     1      21.727  21.176  38.965  1.00  0.00     0.293 HD
ENDBRANCH   8  26
TORSDOF 6
ENDMDL
MODEL 4
REMARK VINA RESULT:    -6.060      4.156      7.241
REMARK INTER + INTRA:          -7.669
REMARK INTER:                  -7.302
REMARK INTRA:                  -0.367
REMARK UNBOUND:                -0.369
REMARK SMILES O=c1c(O)c(-c2ccc(O)cc2O)oc2cc(O)cc(O)c12
REMARK SMILES IDX 5 1 3 2 2 3 1 4 22 5 20 6 19 7 17 8 16 9 15 10 14 11 6 12
REMARK SMILES IDX 8 13 7 14 9 15 11 16 12 17 10 18 13 20 4 22 21 24 18 26
REMARK H PARENT 10 19 13 21 4 23 21 25 18 27
REMARK Flexibility Score: inf
ROOT
ATOM      1  C   UNL     1      15.725  24.181  45.256  1.00  0.00     0.184 A 
ATOM      2  C   UNL     1      14.335  24.000  45.212  1.00  0.00     0.208 A 
ATOM      3  C   UNL     1      13.823  22.707  45.020  1.00  0.00     0.238 A 
ATOM      4  O   UNL     1      12.576  22.541  45.049  1.00  0.00    -0.285 OA
ATOM      5  C   UNL     1      14.711  21.619  44.828  1.00  0.00     0.111 A 
ATOM      6  C   UNL     1      14.304  20.274  44.580  1.00  0.00     0.134 A 
ATOM      7  C   UNL     1      15.269  19.261  44.520  1.00  0.00     0.093 A 
ATOM      8  C   UNL     1      16.631  19.554  44.634  1.00  0.00     0.123 A 
ATOM      9  C   UNL     1      17.040  20.871  44.821  1.00  0.00     0.094 A 
ATOM     10  C   UNL     1      16.100  21.899  44.923  1.00  0.00     0.146 A 
ATOM     11  O   UNL     1      16.535  23.138  45.120  1.00  0.00    -0.451 OA
ENDROOT
BRANCH   1  12
ATOM     12  C   UNL     1      16.322  25.517  45.470  1.00  0.00     0.063 A 
ATOM     13  C   UNL     1      16.746  27.398  46.956  1.00  0.00     0.047 A 
ATOM     14  C   UNL     1      16.148  26.160  46.708  1.00  0.00     0.020 A 
ATOM     15  C   UNL     1      17.533  28.007  45.972  1.00  0.00     0.119 A 
ATOM     16  C   UNL     1      17.715  27.374  44.739  1.00  0.00     0.093 A 
ATOM     17  C   UNL     1      17.112  26.139  44.475  1.00  0.00     0.130 A 
BRANCH  15  18
ATOM     18  O   UNL     1      18.139  29.239  46.210  1.00  0.00    -0.508 OA
ATOM     19  H   UNL     1      18.986  29.316  46.760  1.00  0.00     0.293 HD
ENDBRANCH  15  18
BRANCH  17  20
ATOM     20  O   UNL     1      17.301  25.569  43.214  1.00  0.00    -0.507 OA
ATOM     21  H   UNL     1      17.138  26.072  42.351  1.00  0.00     0.293 HD
ENDBRANCH  17  20
ENDBRANCH   1  12
BRANCH   2  22
ATOM     22  O   UNL     1      13.483  25.098  45.354  1.00  0.00    -0.502 OA
ATOM     23  H   UNL     1      13.104  25.597  44.558  1.00  0.00     0.293 HD
ENDBRANCH   2  22
BRANCH   6  24
ATOM     24  O   UNL     1      12.979  19.885  44.361  1.00  0.00    -0.507 OA
ATOM     25  H   UNL     1      12.268  20.467  43.946  1.00  0.00     0.293 HD
ENDBRANCH   6  24
BRANCH   8  26
ATOM     26  O   UNL     1      17.584  18.541  44.555  1.00  0.00    -0.508 OA
ATOM     27  H   UNL     1      17.451  17.733  43.958  1.00  0.00     0.293 HD
ENDBRANCH   8  26
TORSDOF 6
ENDMDL
MODEL 5
REMARK VINA RESULT:    -6.035      3.269      5.891
REMARK INTER + INTRA:          -7.640
REMARK INTER:                  -7.220
REMARK INTRA:                  -0.419
REMARK UNBOUND:                -0.369
REMARK SMILES O=c1c(O)c(-c2ccc(O)cc2O)oc2cc(O)cc(O)c12
REMARK SMILES IDX 5 1 3 2 2 3 1 4 22 5 20 6 19 7 17 8 16 9 15 10 14 11 6 12
REMARK SMILES IDX 8 13 7 14 9 15 11 16 12 17 10 18 13 20 4 22 21 24 18 26
REMARK H PARENT 10 19 13 21 4 23 21 25 18 27
REMARK Flexibility Score: inf
ROOT
ATOM      1  C   UNL     1      16.931  23.761  43.102  1.00  0.00     0.184 A 
ATOM      2  C   UNL     1      15.575  23.930  42.784  1.00  0.00     0.208 A 
ATOM      3  C   UNL     1      14.692  22.856  42.978  1.00  0.00     0.238 A 
ATOM      4  O   UNL     1      13.467  23.034  42.754  1.00  0.00    -0.285 OA
ATOM      5  C   UNL     1      15.186  21.614  43.447  1.00  0.00     0.111 A 
ATOM      6  C   UNL     1      14.391  20.445  43.638  1.00  0.00     0.134 A 
ATOM      7  C   UNL     1      14.966  19.304  44.214  1.00  0.00     0.093 A 
ATOM      8  C   UNL     1      16.323  19.271  44.546  1.00  0.00     0.123 A 
ATOM      9  C   UNL     1      17.119  20.388  44.312  1.00  0.00     0.094 A 
ATOM     10  C   UNL     1      16.567  21.553  43.773  1.00  0.00     0.146 A 
ATOM     11  O   UNL     1      17.360  22.601  43.584  1.00  0.00    -0.451 OA
ENDROOT
BRANCH   1  12
ATOM     12  C   UNL     1      17.905  24.861  42.932  1.00  0.00     0.063 A 
ATOM     13  C   UNL     1      19.131  26.729  43.897  1.00  0.00     0.047 A 
ATOM     14  C   UNL     1      18.176  25.717  44.014  1.00  0.00     0.020 A 
ATOM     15  C   UNL     1      19.835  26.895  42.699  1.00  0.00     0.119 A 
ATOM     16  C   UNL     1      19.576  26.047  41.619  1.00  0.00     0.093 A 
ATOM     17  C   UNL     1      18.613  25.036  41.721  1.00  0.00     0.130 A 
BRANCH  15  18
ATOM     18  O   UNL     1      20.794  27.898  42.573  1.00  0.00    -0.508 OA
ATOM     19  H   UNL     1      20.793  28.535  41.785  1.00  0.00     0.293 HD
ENDBRANCH  15  18
BRANCH  17  20
ATOM     20  O   UNL     1      18.372  24.240  40.598  1.00  0.00    -0.507 OA
ATOM     21  H   UNL     1      19.025  24.156  39.830  1.00  0.00     0.293 HD
ENDBRANCH  17  20
ENDBRANCH   1  12
BRANCH   2  22
ATOM     22  O   UNL     1      15.124  25.150  42.275  1.00  0.00    -0.502 OA
ATOM     23  H   UNL     1      14.504  25.760  42.795  1.00  0.00     0.293 HD
ENDBRANCH   2  22
BRANCH   6  24
ATOM     24  O   UNL     1      13.048  20.340  43.259  1.00  0.00    -0.507 OA
ATOM     25  H   UNL     1      12.294  20.074  43.874  1.00  0.00     0.293 HD
ENDBRANCH   6  24
BRANCH   8  26
ATOM     26  O   UNL     1      16.889  18.126  45.102  1.00  0.00    -0.508 OA
ATOM     27  H   UNL     1      17.380  17.447  44.533  1.00  0.00     0.293 HD
ENDBRANCH   8  26
TORSDOF 6
ENDMDL
MODEL 6
REMARK VINA RESULT:    -6.030      2.583      6.101
REMARK INTER + INTRA:          -7.633
REMARK INTER:                  -7.240
REMARK INTRA:                  -0.393
REMARK UNBOUND:                -0.369
REMARK SMILES O=c1c(O)c(-c2ccc(O)cc2O)oc2cc(O)cc(O)c12
REMARK SMILES IDX 5 1 3 2 2 3 1 4 22 5 20 6 19 7 17 8 16 9 15 10 14 11 6 12
REMARK SMILES IDX 8 13 7 14 9 15 11 16 12 17 10 18 13 20 4 22 21 24 18 26
REMARK H PARENT 10 19 13 21 4 23 21 25 18 27
REMARK Flexibility Score: inf
ROOT
ATOM      1  C   UNL     1      17.522  24.995  44.179  1.00  0.00     0.184 A 
ATOM      2  C   UNL     1      18.272  25.974  44.846  1.00  0.00     0.208 A 
ATOM      3  C   UNL     1      19.190  26.744  44.116  1.00  0.00     0.238 A 
ATOM      4  O   UNL     1      19.811  27.665  44.706  1.00  0.00    -0.285 OA
ATOM      5  C   UNL     1      19.377  26.492  42.734  1.00  0.00     0.111 A 
ATOM      6  C   UNL     1      20.313  27.180  41.903  1.00  0.00     0.134 A 
ATOM      7  C   UNL     1      20.331  26.925  40.526  1.00  0.00     0.093 A 
ATOM      8  C   UNL     1      19.492  25.961  39.960  1.00  0.00     0.123 A 
ATOM      9  C   UNL     1      18.615  25.247  40.771  1.00  0.00     0.094 A 
ATOM     10  C   UNL     1      18.547  25.504  42.142  1.00  0.00     0.146 A 
ATOM     11  O   UNL     1      17.683  24.811  42.874  1.00  0.00    -0.451 OA
ENDROOT
BRANCH   1  12
ATOM     12  C   UNL     1      16.530  24.164  44.894  1.00  0.00     0.063 A 
ATOM     13  C   UNL     1      14.337  23.964  45.932  1.00  0.00     0.047 A 
ATOM     14  C   UNL     1      15.314  24.739  45.304  1.00  0.00     0.020 A 
ATOM     15  C   UNL     1      14.558  22.600  46.152  1.00  0.00     0.119 A 
ATOM     16  C   UNL     1      15.761  22.017  45.746  1.00  0.00     0.093 A 
ATOM     17  C   UNL     1      16.752  22.786  45.124  1.00  0.00     0.130 A 
BRANCH  15  18
ATOM     18  O   UNL     1      13.589  21.815  46.774  1.00  0.00    -0.508 OA
ATOM     19  H   UNL     1      12.682  21.658  46.350  1.00  0.00     0.293 HD
ENDBRANCH  15  18
BRANCH  17  20
ATOM     20  O   UNL     1      17.949  22.158  44.770  1.00  0.00    -0.507 OA
ATOM     21  H   UNL     1      18.848  22.432  45.144  1.00  0.00     0.293 HD
ENDBRANCH  17  20
ENDBRANCH   1  12
BRANCH   2  22
ATOM     22  O   UNL     1      18.104  26.166  46.220  1.00  0.00    -0.502 OA
ATOM     23  H   UNL     1      17.447  26.838  46.598  1.00  0.00     0.293 HD
ENDBRANCH   2  22
BRANCH   6  24
ATOM     24  O   UNL     1      21.257  28.095  42.379  1.00  0.00    -0.507 OA
ATOM     25  H   UNL     1      22.007  27.872  43.015  1.00  0.00     0.293 HD
ENDBRANCH   6  24
BRANCH   8  26
ATOM     26  O   UNL     1      19.530  25.703  38.591  1.00  0.00    -0.508 OA
ATOM     27  H   UNL     1      20.394  25.758  38.065  1.00  0.00     0.293 HD
ENDBRANCH   8  26
TORSDOF 6
ENDMDL
MODEL 7
REMARK VINA RESULT:    -5.959      2.211      7.151
REMARK INTER + INTRA:          -7.548
REMARK INTER:                  -7.324
REMARK INTRA:                  -0.224
REMARK UNBOUND:                -0.369
REMARK SMILES O=c1c(O)c(-c2ccc(O)cc2O)oc2cc(O)cc(O)c12
REMARK SMILES IDX 5 1 3 2 2 3 1 4 22 5 20 6 19 7 17 8 16 9 15 10 14 11 6 12
REMARK SMILES IDX 8 13 7 14 9 15 11 16 12 17 10 18 13 20 4 22 21 24 18 26
REMARK H PARENT 10 19 13 21 4 23 21 25 18 27
REMARK Flexibility Score: inf
ROOT
ATOM      1  C   UNL     1      17.738  25.961  44.487  1.00  0.00     0.184 A 
ATOM      2  C   UNL     1      18.924  26.679  44.277  1.00  0.00     0.208 A 
ATOM      3  C   UNL     1      19.518  26.655  43.005  1.00  0.00     0.238 A 
ATOM      4  O   UNL     1      20.544  27.355  42.805  1.00  0.00    -0.285 OA
ATOM      5  C   UNL     1      18.940  25.874  41.973  1.00  0.00     0.111 A 
ATOM      6  C   UNL     1      19.481  25.739  40.659  1.00  0.00     0.134 A 
ATOM      7  C   UNL     1      18.763  25.032  39.686  1.00  0.00     0.093 A 
ATOM      8  C   UNL     1      17.556  24.401  39.999  1.00  0.00     0.123 A 
ATOM      9  C   UNL     1      17.049  24.481  41.292  1.00  0.00     0.094 A 
ATOM     10  C   UNL     1      17.722  25.210  42.275  1.00  0.00     0.146 A 
ATOM     11  O   UNL     1      17.192  25.274  43.491  1.00  0.00    -0.451 OA
ENDROOT
BRANCH   1  12
ATOM     12  C   UNL     1      17.059  25.961  45.801  1.00  0.00     0.063 A 
ATOM     13  C   UNL     1      16.062  27.216  47.633  1.00  0.00     0.047 A 
ATOM     14  C   UNL     1      16.751  27.186  46.419  1.00  0.00     0.020 A 
ATOM     15  C   UNL     1      15.664  26.021  48.244  1.00  0.00     0.119 A 
ATOM     16  C   UNL     1      15.963  24.798  47.637  1.00  0.00     0.093 A 
ATOM     17  C   UNL     1      16.662  24.755  46.425  1.00  0.00     0.130 A 
BRANCH  15  18
ATOM     18  O   UNL     1      14.973  26.038  49.453  1.00  0.00    -0.508 OA
ATOM     19  H   UNL     1      14.420  25.246  49.759  1.00  0.00     0.293 HD
ENDBRANCH  15  18
BRANCH  17  20
ATOM     20  O   UNL     1      16.963  23.504  45.881  1.00  0.00    -0.507 OA
ATOM     21  H   UNL     1      17.040  22.664  46.439  1.00  0.00     0.293 HD
ENDBRANCH  17  20
ENDBRANCH   1  12
BRANCH   2  22
ATOM     22  O   UNL     1      19.499  27.400  45.327  1.00  0.00    -0.502 OA
ATOM     23  H   UNL     1      20.460  27.264  45.616  1.00  0.00     0.293 HD
ENDBRANCH   2  22
BRANCH   6  24
ATOM     24  O   UNL     1      20.721  26.253  40.266  1.00  0.00    -0.507 OA
ATOM     25  H   UNL     1      21.609  25.806  40.432  1.00  0.00     0.293 HD
ENDBRANCH   6  24
BRANCH   8  26
ATOM     26  O   UNL     1      16.858  23.684  39.028  1.00  0.00    -0.508 OA
ATOM     27  H   UNL     1      16.936  23.911  38.044  1.00  0.00     0.293 HD
ENDBRANCH   8  26
TORSDOF 6
ENDMDL
MODEL 8
REMARK VINA RESULT:    -5.950      4.687      6.073
REMARK INTER + INTRA:          -7.537
REMARK INTER:                  -7.222
REMARK INTRA:                  -0.315
REMARK UNBOUND:                -0.369
REMARK SMILES O=c1c(O)c(-c2ccc(O)cc2O)oc2cc(O)cc(O)c12
REMARK SMILES IDX 5 1 3 2 2 3 1 4 22 5 20 6 19 7 17 8 16 9 15 10 14 11 6 12
REMARK SMILES IDX 8 13 7 14 9 15 11 16 12 17 10 18 13 20 4 22 21 24 18 26
REMARK H PARENT 10 19 13 21 4 23 21 25 18 27
REMARK Flexibility Score: inf
ROOT
ATOM      1  C   UNL     1      16.164  22.366  46.376  1.00  0.00     0.184 A 
ATOM      2  C   UNL     1      15.351  22.768  47.446  1.00  0.00     0.208 A 
ATOM      3  C   UNL     1      15.290  24.129  47.781  1.00  0.00     0.238 A 
ATOM      4  O   UNL     1      14.507  24.491  48.698  1.00  0.00    -0.285 OA
ATOM      5  C   UNL     1      16.080  25.065  47.069  1.00  0.00     0.111 A 
ATOM      6  C   UNL     1      16.132  26.464  47.351  1.00  0.00     0.134 A 
ATOM      7  C   UNL     1      16.862  27.312  46.508  1.00  0.00     0.093 A 
ATOM      8  C   UNL     1      17.593  26.803  45.432  1.00  0.00     0.123 A 
ATOM      9  C   UNL     1      17.592  25.433  45.182  1.00  0.00     0.094 A 
ATOM     10  C   UNL     1      16.844  24.566  45.982  1.00  0.00     0.146 A 
ATOM     11  O   UNL     1      16.859  23.270  45.696  1.00  0.00    -0.451 OA
ENDROOT
BRANCH   1  12
ATOM     12  C   UNL     1      16.257  20.948  45.968  1.00  0.00     0.063 A 
ATOM     13  C   UNL     1      15.892  19.237  44.276  1.00  0.00     0.047 A 
ATOM     14  C   UNL     1      15.768  20.559  44.709  1.00  0.00     0.020 A 
ATOM     15  C   UNL     1      16.514  18.286  45.093  1.00  0.00     0.119 A 
ATOM     16  C   UNL     1      17.007  18.663  46.346  1.00  0.00     0.093 A 
ATOM     17  C   UNL     1      16.879  19.983  46.794  1.00  0.00     0.130 A 
BRANCH  15  18
ATOM     18  O   UNL     1      16.648  16.965  44.670  1.00  0.00    -0.508 OA
ATOM     19  H   UNL     1      15.972  16.536  44.049  1.00  0.00     0.293 HD
ENDBRANCH  15  18
BRANCH  17  20
ATOM     20  O   UNL     1      17.359  20.296  48.069  1.00  0.00    -0.507 OA
ATOM     21  H   UNL     1      16.819  20.814  48.750  1.00  0.00     0.293 HD
ENDBRANCH  17  20
ENDBRANCH   1  12
BRANCH   2  22
ATOM     22  O   UNL     1      14.621  21.816  48.163  1.00  0.00    -0.502 OA
ATOM     23  H   UNL     1      13.946  22.071  48.874  1.00  0.00     0.293 HD
ENDBRANCH   2  22
BRANCH   6  24
ATOM     24  O   UNL     1      15.513  27.063  48.453  1.00  0.00    -0.507 OA
ATOM     25  H   UNL     1      14.695  27.652  48.405  1.00  0.00     0.293 HD
ENDBRANCH   6  24
BRANCH   8  26
ATOM     26  O   UNL     1      18.329  27.652  44.609  1.00  0.00    -0.508 OA
ATOM     27  H   UNL     1      19.019  27.295  43.960  1.00  0.00     0.293 HD
ENDBRANCH   8  26
TORSDOF 6
ENDMDL
MODEL 9
REMARK VINA RESULT:    -5.924      1.691      3.429
REMARK INTER + INTRA:          -7.505
REMARK INTER:                  -7.119
REMARK INTRA:                  -0.386
REMARK UNBOUND:                -0.369
REMARK SMILES O=c1c(O)c(-c2ccc(O)cc2O)oc2cc(O)cc(O)c12
REMARK SMILES IDX 5 1 3 2 2 3 1 4 22 5 20 6 19 7 17 8 16 9 15 10 14 11 6 12
REMARK SMILES IDX 8 13 7 14 9 15 11 16 12 17 10 18 13 20 4 22 21 24 18 26
REMARK H PARENT 10 19 13 21 4 23 21 25 18 27
REMARK Flexibility Score: inf
ROOT
ATOM      1  C   UNL     1      18.432  25.474  41.831  1.00  0.00     0.184 A 
ATOM      2  C   UNL     1      19.243  26.362  42.553  1.00  0.00     0.208 A 
ATOM      3  C   UNL     1      18.853  26.744  43.845  1.00  0.00     0.238 A 
ATOM      4  O   UNL     1      19.619  27.486  44.513  1.00  0.00    -0.285 OA
ATOM      5  C   UNL     1      17.631  26.267  44.382  1.00  0.00     0.111 A 
ATOM      6  C   UNL     1      17.114  26.623  45.663  1.00  0.00     0.134 A 
ATOM      7  C   UNL     1      15.951  26.001  46.136  1.00  0.00     0.093 A 
ATOM      8  C   UNL     1      15.253  25.084  45.347  1.00  0.00     0.123 A 
ATOM      9  C   UNL     1      15.720  24.772  44.073  1.00  0.00     0.094 A 
ATOM     10  C   UNL     1      16.896  25.347  43.588  1.00  0.00     0.146 A 
ATOM     11  O   UNL     1      17.315  25.006  42.375  1.00  0.00    -0.451 OA
ENDROOT
BRANCH   1  12
ATOM     12  C   UNL     1      18.799  25.026  40.471  1.00  0.00     0.063 A 
ATOM     13  C   UNL     1      19.032  25.530  38.101  1.00  0.00     0.047 A 
ATOM     14  C   UNL     1      18.642  25.908  39.388  1.00  0.00     0.020 A 
ATOM     15  C   UNL     1      19.591  24.266  37.880  1.00  0.00     0.119 A 
ATOM     16  C   UNL     1      19.754  23.382  38.951  1.00  0.00     0.093 A 
ATOM     17  C   UNL     1      19.358  23.747  40.243  1.00  0.00     0.130 A 
BRANCH  15  18
ATOM     18  O   UNL     1      19.988  23.879  36.602  1.00  0.00    -0.508 OA
ATOM     19  H   UNL     1      19.842  22.935  36.265  1.00  0.00     0.293 HD
ENDBRANCH  15  18
BRANCH  17  20
ATOM     20  O   UNL     1      19.514  22.811  41.269  1.00  0.00    -0.507 OA
ATOM     21  H   UNL     1      19.611  21.819  41.100  1.00  0.00     0.293 HD
ENDBRANCH  17  20
ENDBRANCH   1  12
BRANCH   2  22
ATOM     22  O   UNL     1      20.418  26.856  41.979  1.00  0.00    -0.502 OA
ATOM     23  H   UNL     1      20.427  27.336  41.088  1.00  0.00     0.293 HD
ENDBRANCH   2  22
BRANCH   6  24
ATOM     24  O   UNL     1      17.683  27.593  46.495  1.00  0.00    -0.507 OA
ATOM     25  H   UNL     1      18.030  28.488  46.184  1.00  0.00     0.293 HD
ENDBRANCH   6  24
BRANCH   8  26
ATOM     26  O   UNL     1      14.087  24.484  45.819  1.00  0.00    -0.508 OA
ATOM     27  H   UNL     1      14.092  23.892  46.641  1.00  0.00     0.293 HD
ENDBRANCH   8  26
TORSDOF 6
ENDMDL
