MODEL 1
REMARK VINA RESULT:    -2.878      0.000      0.000
REMARK INTER + INTRA:          -4.225
REMARK INTER:                  -3.887
REMARK INTRA:                  -0.337
REMARK UNBOUND:                -0.337
REMARK SMILES CCCCCCCC(=O)[O-]
REMARK SMILES IDX 5 1 6 2 7 3 8 4 9 5 10 6 4 7 3 8 2 9 1 10
REMARK H PARENT
REMARK Flexibility Score: inf
ROOT
ATOM      1  C   UNL     1      38.066  38.903  20.494  1.00  0.00     0.000 C 
ENDROOT
BRANCH   1   2
ATOM      2  C   UNL     1      38.057  39.693  19.177  1.00  0.00     0.006 C 
BRANCH   2   3
ATOM      3  C   UNL     1      39.446  40.234  18.814  1.00  0.00     0.053 C 
BRANCH   3   4
ATOM      4  C   UNL     1      40.094  39.424  17.733  1.00  0.00     0.041 C 
ATOM      5  O   UNL     1      39.932  39.738  16.524  1.00  0.00    -0.550 OA
ATOM      6  O   UNL     1      40.847  38.303  18.058  1.00  0.00    -0.550 OA
ENDBRANCH   3   4
ENDBRANCH   2   3
ENDBRANCH   1   2
BRANCH   1   7
ATOM      7  C   UNL     1      37.390  37.534  20.317  1.00  0.00     0.000 C 
BRANCH   7   8
ATOM      8  C   UNL     1      38.183  36.597  19.393  1.00  0.00    -0.000 C 
BRANCH   8   9
ATOM      9  C   UNL     1      38.567  35.277  20.077  1.00  0.00    -0.003 C 
ATOM     10  C   UNL     1      37.850  35.122  21.415  1.00  0.00     0.004 C 
ENDBRANCH   8   9
ENDBRANCH   7   8
ENDBRANCH   1   7
TORSDOF 6
ENDMDL
MODEL 2
REMARK VINA RESULT:    -2.800      2.523      3.527
REMARK INTER + INTRA:          -4.120
REMARK INTER:                  -3.710
REMARK INTRA:                  -0.410
REMARK UNBOUND:                -0.337
REMARK SMILES CCCCCCCC(=O)[O-]
REMARK SMILES IDX 5 1 6 2 7 3 8 4 9 5 10 6 4 7 3 8 2 9 1 10
REMARK H PARENT
REMARK Flexibility Score: inf
ROOT
ATOM      1  C   UNL     1      38.116  35.753  20.361  1.00  0.00     0.000 C 
ENDROOT
BRANCH   1   2
ATOM      2  C   UNL     1      37.428  37.126  20.331  1.00  0.00     0.006 C 
BRANCH   2   3
ATOM      3  C   UNL     1      38.358  38.232  19.816  1.00  0.00     0.053 C 
BRANCH   3   4
ATOM      4  C   UNL     1      37.668  39.561  19.766  1.00  0.00     0.041 C 
ATOM      5  O   UNL     1      38.221  40.541  19.201  1.00  0.00    -0.550 OA
ATOM      6  O   UNL     1      36.431  39.727  20.375  1.00  0.00    -0.550 OA
ENDBRANCH   3   4
ENDBRANCH   2   3
ENDBRANCH   1   2
BRANCH   1   7
ATOM      7  C   UNL     1      39.064  35.589  19.164  1.00  0.00     0.000 C 
BRANCH   7   8
ATOM      8  C   UNL     1      38.381  34.937  17.952  1.00  0.00    -0.000 C 
BRANCH   8   9
ATOM      9  C   UNL     1      38.889  35.496  16.615  1.00  0.00    -0.003 C 
ATOM     10  C   UNL     1      39.865  36.647  16.835  1.00  0.00     0.004 C 
ENDBRANCH   8   9
ENDBRANCH   7   8
ENDBRANCH   1   7
TORSDOF 6
ENDMDL
MODEL 3
REMARK VINA RESULT:    -2.761      2.693      3.646
REMARK INTER + INTRA:          -4.067
REMARK INTER:                  -3.711
REMARK INTRA:                  -0.356
REMARK UNBOUND:                -0.337
REMARK SMILES CCCCCCCC(=O)[O-]
REMARK SMILES IDX 5 1 6 2 7 3 8 4 9 5 10 6 4 7 3 8 2 9 1 10
REMARK H PARENT
REMARK Flexibility Score: inf
ROOT
ATOM      1  C   UNL     1      39.921  39.300  17.394  1.00  0.00     0.000 C 
ENDROOT
BRANCH   1   2
ATOM      2  C   UNL     1      39.377  38.881  18.768  1.00  0.00     0.006 C 
BRANCH   2   3
ATOM      3  C   UNL     1      38.275  39.823  19.269  1.00  0.00     0.053 C 
BRANCH   3   4
ATOM      4  C   UNL     1      37.233  39.091  20.057  1.00  0.00     0.041 C 
ATOM      5  O   UNL     1      36.196  39.690  20.446  1.00  0.00    -0.550 OA
ATOM      6  O   UNL     1      37.422  37.756  20.392  1.00  0.00    -0.550 OA
ENDBRANCH   3   4
ENDBRANCH   2   3
ENDBRANCH   1   2
BRANCH   1   7
ATOM      7  C   UNL     1      40.345  38.072  16.574  1.00  0.00     0.000 C 
BRANCH   7   8
ATOM      8  C   UNL     1      40.315  36.773  17.394  1.00  0.00    -0.000 C 
BRANCH   8   9
ATOM      9  C   UNL     1      39.299  35.756  16.856  1.00  0.00    -0.003 C 
ATOM     10  C   UNL     1      38.416  35.215  17.976  1.00  0.00     0.004 C 
ENDBRANCH   8   9
ENDBRANCH   7   8
ENDBRANCH   1   7
TORSDOF 6
ENDMDL
MODEL 4
REMARK VINA RESULT:    -2.756      1.379      2.018
REMARK INTER + INTRA:          -4.060
REMARK INTER:                  -3.730
REMARK INTRA:                  -0.330
REMARK UNBOUND:                -0.337
REMARK SMILES CCCCCCCC(=O)[O-]
REMARK SMILES IDX 5 1 6 2 7 3 8 4 9 5 10 6 4 7 3 8 2 9 1 10
REMARK H PARENT
REMARK Flexibility Score: inf
ROOT
ATOM      1  C   UNL     1      37.324  37.621  19.999  1.00  0.00     0.000 C 
ENDROOT
BRANCH   1   2
ATOM      2  C   UNL     1      38.078  38.886  20.436  1.00  0.00     0.006 C 
BRANCH   2   3
ATOM      3  C   UNL     1      38.054  39.978  19.359  1.00  0.00     0.053 C 
BRANCH   3   4
ATOM      4  C   UNL     1      39.331  40.018  18.578  1.00  0.00     0.041 C 
ATOM      5  O   UNL     1      40.197  40.899  18.824  1.00  0.00    -0.550 OA
ATOM      6  O   UNL     1      39.551  39.104  17.555  1.00  0.00    -0.550 OA
ENDBRANCH   3   4
ENDBRANCH   2   3
ENDBRANCH   1   2
BRANCH   1   7
ATOM      7  C   UNL     1      37.811  36.393  20.783  1.00  0.00     0.000 C 
BRANCH   7   8
ATOM      8  C   UNL     1      38.471  35.338  19.881  1.00  0.00    -0.000 C 
BRANCH   8   9
ATOM      9  C   UNL     1      38.748  35.860  18.464  1.00  0.00    -0.003 C 
ATOM     10  C   UNL     1      38.242  34.880  17.409  1.00  0.00     0.004 C 
ENDBRANCH   8   9
ENDBRANCH   7   8
ENDBRANCH   1   7
TORSDOF 6
ENDMDL
MODEL 5
REMARK VINA RESULT:    -2.739      2.344      3.641
REMARK INTER + INTRA:          -4.037
REMARK INTER:                  -3.603
REMARK INTRA:                  -0.434
REMARK UNBOUND:                -0.337
REMARK SMILES CCCCCCCC(=O)[O-]
REMARK SMILES IDX 5 1 6 2 7 3 8 4 9 5 10 6 4 7 3 8 2 9 1 10
REMARK H PARENT
REMARK Flexibility Score: inf
ROOT
ATOM      1  C   UNL     1      39.803  39.383  17.551  1.00  0.00     0.000 C 
ENDROOT
BRANCH   1   2
ATOM      2  C   UNL     1      40.300  38.062  16.944  1.00  0.00     0.006 C 
BRANCH   2   3
ATOM      3  C   UNL     1      40.099  36.874  17.894  1.00  0.00     0.053 C 
BRANCH   3   4
ATOM      4  C   UNL     1      39.155  35.860  17.325  1.00  0.00     0.041 C 
ATOM      5  O   UNL     1      39.182  35.588  16.096  1.00  0.00    -0.550 OA
ATOM      6  O   UNL     1      38.220  35.241  18.145  1.00  0.00    -0.550 OA
ENDBRANCH   3   4
ENDBRANCH   2   3
ENDBRANCH   1   2
BRANCH   1   7
ATOM      7  C   UNL     1      39.292  39.171  18.983  1.00  0.00     0.000 C 
BRANCH   7   8
ATOM      8  C   UNL     1      38.077  40.052  19.315  1.00  0.00    -0.000 C 
BRANCH   8   9
ATOM      9  C   UNL     1      36.993  39.297  20.098  1.00  0.00    -0.003 C 
ATOM     10  C   UNL     1      37.421  37.860  20.382  1.00  0.00     0.004 C 
ENDBRANCH   8   9
ENDBRANCH   7   8
ENDBRANCH   1   7
TORSDOF 6
ENDMDL
MODEL 6
REMARK VINA RESULT:    -2.661      1.614      3.736
REMARK INTER + INTRA:          -3.931
REMARK INTER:                  -3.492
REMARK INTRA:                  -0.439
REMARK UNBOUND:                -0.337
REMARK SMILES CCCCCCCC(=O)[O-]
REMARK SMILES IDX 5 1 6 2 7 3 8 4 9 5 10 6 4 7 3 8 2 9 1 10
REMARK H PARENT
REMARK Flexibility Score: inf
ROOT
ATOM      1  C   UNL     1      37.358  36.875  20.402  1.00  0.00     0.000 C 
ENDROOT
BRANCH   1   2
ATOM      2  C   UNL     1      38.410  35.863  19.926  1.00  0.00     0.006 C 
BRANCH   2   3
ATOM      3  C   UNL     1      38.342  35.621  18.413  1.00  0.00     0.053 C 
BRANCH   3   4
ATOM      4  C   UNL     1      39.646  35.928  17.741  1.00  0.00     0.041 C 
ATOM      5  O   UNL     1      39.665  36.317  16.544  1.00  0.00    -0.550 OA
ATOM      6  O   UNL     1      40.841  35.750  18.426  1.00  0.00    -0.550 OA
ENDBRANCH   3   4
ENDBRANCH   2   3
ENDBRANCH   1   2
BRANCH   1   7
ATOM      7  C   UNL     1      38.000  38.240  20.690  1.00  0.00     0.000 C 
BRANCH   7   8
ATOM      8  C   UNL     1      37.271  39.397  19.990  1.00  0.00    -0.000 C 
BRANCH   8   9
ATOM      9  C   UNL     1      38.223  40.302  19.194  1.00  0.00    -0.003 C 
ATOM     10  C   UNL     1      39.244  39.477  18.417  1.00  0.00     0.004 C 
ENDBRANCH   8   9
ENDBRANCH   7   8
ENDBRANCH   1   7
TORSDOF 6
ENDMDL
MODEL 7
REMARK VINA RESULT:    -2.580      1.605      3.091
REMARK INTER + INTRA:          -3.822
REMARK INTER:                  -3.422
REMARK INTRA:                  -0.399
REMARK UNBOUND:                -0.337
REMARK SMILES CCCCCCCC(=O)[O-]
REMARK SMILES IDX 5 1 6 2 7 3 8 4 9 5 10 6 4 7 3 8 2 9 1 10
REMARK H PARENT
REMARK Flexibility Score: inf
ROOT
ATOM      1  C   UNL     1      38.448  35.680  18.461  1.00  0.00     0.000 C 
ENDROOT
BRANCH   1   2
ATOM      2  C   UNL     1      39.897  35.647  17.953  1.00  0.00     0.006 C 
BRANCH   2   3
ATOM      3  C   UNL     1      40.619  36.984  18.166  1.00  0.00     0.053 C 
BRANCH   3   4
ATOM      4  C   UNL     1      40.288  37.973  17.091  1.00  0.00     0.041 C 
ATOM      5  O   UNL     1      40.290  37.619  15.882  1.00  0.00    -0.550 OA
ATOM      6  O   UNL     1      40.012  39.294  17.420  1.00  0.00    -0.550 OA
ENDBRANCH   3   4
ENDBRANCH   2   3
ENDBRANCH   1   2
BRANCH   1   7
ATOM      7  C   UNL     1      38.403  35.951  19.973  1.00  0.00     0.000 C 
BRANCH   7   8
ATOM      8  C   UNL     1      37.395  37.048  20.347  1.00  0.00    -0.000 C 
BRANCH   8   9
ATOM      9  C   UNL     1      37.935  38.462  20.089  1.00  0.00    -0.003 C 
ATOM     10  C   UNL     1      36.830  39.506  20.227  1.00  0.00     0.004 C 
ENDBRANCH   8   9
ENDBRANCH   7   8
ENDBRANCH   1   7
TORSDOF 6
ENDMDL
MODEL 8
REMARK VINA RESULT:    -2.557     13.144     14.155
REMARK INTER + INTRA:          -3.791
REMARK INTER:                  -3.583
REMARK INTRA:                  -0.208
REMARK UNBOUND:                -0.337
REMARK SMILES CCCCCCCC(=O)[O-]
REMARK SMILES IDX 5 1 6 2 7 3 8 4 9 5 10 6 4 7 3 8 2 9 1 10
REMARK H PARENT
REMARK Flexibility Score: inf
ROOT
ATOM      1  C   UNL     1      25.449  35.800  17.757  1.00  0.00     0.000 C 
ENDROOT
BRANCH   1   2
ATOM      2  C   UNL     1      26.539  34.875  18.320  1.00  0.00     0.006 C 
BRANCH   2   3
ATOM      3  C   UNL     1      26.641  34.959  19.848  1.00  0.00     0.053 C 
BRANCH   3   4
ATOM      4  C   UNL     1      28.054  35.159  20.301  1.00  0.00     0.041 C 
ATOM      5  O   UNL     1      28.987  35.227  19.458  1.00  0.00    -0.550 OA
ATOM      6  O   UNL     1      28.347  35.234  21.657  1.00  0.00    -0.550 OA
ENDBRANCH   3   4
ENDBRANCH   2   3
ENDBRANCH   1   2
BRANCH   1   7
ATOM      7  C   UNL     1      24.378  34.994  17.008  1.00  0.00     0.000 C 
BRANCH   7   8
ATOM      8  C   UNL     1      22.965  35.225  17.567  1.00  0.00    -0.000 C 
BRANCH   8   9
ATOM      9  C   UNL     1      22.359  36.560  17.113  1.00  0.00    -0.003 C 
ATOM     10  C   UNL     1      21.431  37.134  18.180  1.00  0.00     0.004 C 
ENDBRANCH   8   9
ENDBRANCH   7   8
ENDBRANCH   1   7
TORSDOF 6
ENDMDL
MODEL 9
REMARK VINA RESULT:    -2.548      2.476      4.266
REMARK INTER + INTRA:          -3.780
REMARK INTER:                  -3.389
REMARK INTRA:                  -0.391
REMARK UNBOUND:                -0.337
REMARK SMILES CCCCCCCC(=O)[O-]
REMARK SMILES IDX 5 1 6 2 7 3 8 4 9 5 10 6 4 7 3 8 2 9 1 10
REMARK H PARENT
REMARK Flexibility Score: inf
ROOT
ATOM      1  C   UNL     1      40.750  38.202  18.169  1.00  0.00     0.000 C 
ENDROOT
BRANCH   1   2
ATOM      2  C   UNL     1      40.490  36.785  17.636  1.00  0.00     0.006 C 
BRANCH   2   3
ATOM      3  C   UNL     1      40.247  35.775  18.764  1.00  0.00     0.053 C 
BRANCH   3   4
ATOM      4  C   UNL     1      38.794  35.440  18.907  1.00  0.00     0.041 C 
ATOM      5  O   UNL     1      38.243  35.480  20.039  1.00  0.00    -0.550 OA
ATOM      6  O   UNL     1      38.055  35.051  17.797  1.00  0.00    -0.550 OA
ENDBRANCH   3   4
ENDBRANCH   2   3
ENDBRANCH   1   2
BRANCH   1   7
ATOM      7  C   UNL     1      39.617  39.157  17.764  1.00  0.00     0.000 C 
BRANCH   7   8
ATOM      8  C   UNL     1      39.026  39.917  18.961  1.00  0.00    -0.000 C 
BRANCH   8   9
ATOM      9  C   UNL     1      38.313  38.990  19.957  1.00  0.00    -0.003 C 
ATOM     10  C   UNL     1      36.859  39.409  20.153  1.00  0.00     0.004 C 
ENDBRANCH   8   9
ENDBRANCH   7   8
ENDBRANCH   1   7
TORSDOF 6
ENDMDL
