MODEL 1
REMARK VINA RESULT:    -4.125      0.000      0.000
REMARK INTER + INTRA:         -14.527
REMARK INTER:                 -10.878
REMARK INTRA:                  -3.649
REMARK UNBOUND:                -3.649
REMARK SMILES CCCCCCCCCCCCCCCCCCCCCCCCCCCCCC(=O)[O-]
REMARK SMILES IDX 16 1 17 2 18 3 19 4 20 5 21 6 22 7 23 8 24 9 25 10 26 11
REMARK SMILES IDX 27 12 28 13 29 14 30 15 31 16 32 17 15 18 14 19 13 20 12 21
REMARK SMILES IDX 11 22 10 23 9 24 8 25 7 26 6 27 5 28 4 29 3 30 2 31 1 32
REMARK H PARENT
REMARK Flexibility Score: inf
ROOT
ATOM      1  C   UNL     1     139.537 133.090 130.632  1.00  0.00     0.000 C 
ENDROOT
BRANCH   1   2
ATOM      2  C   UNL     1     140.480 133.569 131.745  1.00  0.00     0.000 C 
BRANCH   2   3
ATOM      3  C   UNL     1     140.810 135.066 131.639  1.00  0.00     0.000 C 
BRANCH   3   4
ATOM      4  C   UNL     1     140.036 135.720 130.487  1.00  0.00     0.000 C 
BRANCH   4   5
ATOM      5  C   UNL     1     139.402 137.048 130.930  1.00  0.00     0.000 C 
BRANCH   5   6
ATOM      6  C   UNL     1     138.791 137.840 129.754  1.00  0.00     0.000 C 
BRANCH   6   7
ATOM      7  C   UNL     1     137.901 139.022 130.188  1.00  0.00     0.000 C 
BRANCH   7   8
ATOM      8  C   UNL     1     136.386 138.756 130.131  1.00  0.00     0.000 C 
BRANCH   8   9
ATOM      9  C   UNL     1     135.962 137.301 130.423  1.00  0.00     0.000 C 
BRANCH   9  10
ATOM     10  C   UNL     1     134.555 136.921 129.927  1.00  0.00     0.000 C 
BRANCH  10  11
ATOM     11  C   UNL     1     134.448 135.447 129.513  1.00  0.00     0.000 C 
BRANCH  11  12
ATOM     12  C   UNL     1     135.833 134.790 129.459  1.00  0.00     0.000 C 
BRANCH  12  13
ATOM     13  C   UNL     1     135.948 133.844 128.255  1.00  0.00     0.006 C 
BRANCH  13  14
ATOM     14  C   UNL     1     137.351 133.240 128.122  1.00  0.00     0.053 C 
BRANCH  14  15
ATOM     15  C   UNL     1     137.335 131.969 127.328  1.00  0.00     0.041 C 
ATOM     16  O   UNL     1     137.990 130.968 127.722  1.00  0.00    -0.550 OA
ATOM     17  O   UNL     1     136.630 131.903 126.134  1.00  0.00    -0.550 OA
ENDBRANCH  14  15
ENDBRANCH  13  14
ENDBRANCH  12  13
ENDBRANCH  11  12
ENDBRANCH  10  11
ENDBRANCH   9  10
ENDBRANCH   8   9
ENDBRANCH   7   8
ENDBRANCH   6   7
ENDBRANCH   5   6
ENDBRANCH   4   5
ENDBRANCH   3   4
ENDBRANCH   2   3
ENDBRANCH   1   2
BRANCH   1  18
ATOM     18  C   UNL     1     139.182 131.598 130.753  1.00  0.00     0.000 C 
BRANCH  18  19
ATOM     19  C   UNL     1     137.802 131.369 131.391  1.00  0.00     0.000 C 
BRANCH  19  20
ATOM     20  C   UNL     1     137.090 132.683 131.744  1.00  0.00     0.000 C 
BRANCH  20  21
ATOM     21  C   UNL     1     135.858 132.426 132.621  1.00  0.00     0.000 C 
BRANCH  21  22
ATOM     22  C   UNL     1     134.565 132.732 131.851  1.00  0.00     0.000 C 
BRANCH  22  23
ATOM     23  C   UNL     1     133.909 131.472 131.265  1.00  0.00     0.000 C 
BRANCH  23  24
ATOM     24  C   UNL     1     133.749 131.543 129.737  1.00  0.00    -0.000 C 
BRANCH  24  25
ATOM     25  C   UNL     1     134.570 130.471 128.999  1.00  0.00    -0.000 C 
BRANCH  25  26
ATOM     26  C   UNL     1     135.416 129.585 129.938  1.00  0.00    -0.000 C 
BRANCH  26  27
ATOM     27  C   UNL     1     134.853 128.158 130.058  1.00  0.00    -0.000 C 
BRANCH  27  28
ATOM     28  C   UNL     1     135.778 127.212 130.845  1.00  0.00    -0.000 C 
BRANCH  28  29
ATOM     29  C   UNL     1     135.524 125.712 130.613  1.00  0.00    -0.000 C 
BRANCH  29  30
ATOM     30  C   UNL     1     136.806 124.870 130.677  1.00  0.00    -0.000 C 
BRANCH  30  31
ATOM     31  C   UNL     1     136.758 123.884 131.850  1.00  0.00    -0.003 C 
ATOM     32  C   UNL     1     137.479 122.583 131.508  1.00  0.00     0.004 C 
ENDBRANCH  30  31
ENDBRANCH  29  30
ENDBRANCH  28  29
ENDBRANCH  27  28
ENDBRANCH  26  27
ENDBRANCH  25  26
ENDBRANCH  24  25
ENDBRANCH  23  24
ENDBRANCH  22  23
ENDBRANCH  21  22
ENDBRANCH  20  21
ENDBRANCH  19  20
ENDBRANCH  18  19
ENDBRANCH   1  18
TORSDOF 28
ENDMDL
MODEL 2
REMARK VINA RESULT:    -3.819      2.236      5.500
REMARK INTER + INTRA:         -13.719
REMARK INTER:                  -9.101
REMARK INTRA:                  -4.618
REMARK UNBOUND:                -3.649
REMARK SMILES CCCCCCCCCCCCCCCCCCCCCCCCCCCCCC(=O)[O-]
REMARK SMILES IDX 16 1 17 2 18 3 19 4 20 5 21 6 22 7 23 8 24 9 25 10 26 11
REMARK SMILES IDX 27 12 28 13 29 14 30 15 31 16 32 17 15 18 14 19 13 20 12 21
REMARK SMILES IDX 11 22 10 23 9 24 8 25 7 26 6 27 5 28 4 29 3 30 2 31 1 32
REMARK H PARENT
REMARK Flexibility Score: inf
ROOT
ATOM      1  C   UNL     1     137.888 138.555 130.377  1.00  0.00     0.000 C 
ENDROOT
BRANCH   1   2
ATOM      2  C   UNL     1     139.240 137.840 130.235  1.00  0.00     0.000 C 
BRANCH   2   3
ATOM      3  C   UNL     1     139.200 136.390 130.746  1.00  0.00     0.000 C 
BRANCH   3   4
ATOM      4  C   UNL     1     140.373 135.577 130.185  1.00  0.00     0.000 C 
BRANCH   4   5
ATOM      5  C   UNL     1     139.909 134.648 129.051  1.00  0.00     0.000 C 
BRANCH   5   6
ATOM      6  C   UNL     1     138.409 134.295 129.143  1.00  0.00     0.000 C 
BRANCH   6   7
ATOM      7  C   UNL     1     137.639 134.473 127.819  1.00  0.00     0.000 C 
BRANCH   7   8
ATOM      8  C   UNL     1     137.006 133.189 127.252  1.00  0.00     0.000 C 
BRANCH   8   9
ATOM      9  C   UNL     1     137.184 131.928 128.122  1.00  0.00     0.000 C 
BRANCH   9  10
ATOM     10  C   UNL     1     135.962 130.994 128.172  1.00  0.00     0.000 C 
BRANCH  10  11
ATOM     11  C   UNL     1     135.911 130.146 129.451  1.00  0.00     0.000 C 
BRANCH  11  12
ATOM     12  C   UNL     1     134.464 129.805 129.825  1.00  0.00     0.000 C 
BRANCH  12  13
ATOM     13  C   UNL     1     134.323 128.318 130.184  1.00  0.00     0.006 C 
BRANCH  13  14
ATOM     14  C   UNL     1     135.678 127.656 130.463  1.00  0.00     0.053 C 
BRANCH  14  15
ATOM     15  C   UNL     1     135.561 126.163 130.532  1.00  0.00     0.041 C 
ATOM     16  O   UNL     1     134.427 125.616 130.539  1.00  0.00    -0.550 OA
ATOM     17  O   UNL     1     136.703 125.380 130.630  1.00  0.00    -0.550 OA
ENDBRANCH  14  15
ENDBRANCH  13  14
ENDBRANCH  12  13
ENDBRANCH  11  12
ENDBRANCH  10  11
ENDBRANCH   9  10
ENDBRANCH   8   9
ENDBRANCH   7   8
ENDBRANCH   6   7
ENDBRANCH   5   6
ENDBRANCH   4   5
ENDBRANCH   3   4
ENDBRANCH   2   3
ENDBRANCH   1   2
BRANCH   1  18
ATOM     18  C   UNL     1     136.725 137.583 130.643  1.00  0.00     0.000 C 
BRANCH  18  19
ATOM     19  C   UNL     1     135.395 138.076 130.050  1.00  0.00     0.000 C 
BRANCH  19  20
ATOM     20  C   UNL     1     134.369 136.945 129.885  1.00  0.00     0.000 C 
BRANCH  20  21
ATOM     21  C   UNL     1     135.031 135.570 130.044  1.00  0.00     0.000 C 
BRANCH  21  22
ATOM     22  C   UNL     1     134.488 134.578 129.005  1.00  0.00     0.000 C 
BRANCH  22  23
ATOM     23  C   UNL     1     133.989 133.269 129.637  1.00  0.00     0.000 C 
BRANCH  23  24
ATOM     24  C   UNL     1     133.725 133.402 131.146  1.00  0.00    -0.000 C 
BRANCH  24  25
ATOM     25  C   UNL     1     134.456 132.334 131.978  1.00  0.00    -0.000 C 
BRANCH  25  26
ATOM     26  C   UNL     1     135.696 132.872 132.723  1.00  0.00    -0.000 C 
BRANCH  26  27
ATOM     27  C   UNL     1     136.919 133.008 131.799  1.00  0.00    -0.000 C 
BRANCH  27  28
ATOM     28  C   UNL     1     137.909 131.838 131.939  1.00  0.00    -0.000 C 
BRANCH  28  29
ATOM     29  C   UNL     1     139.330 132.122 131.419  1.00  0.00    -0.000 C 
BRANCH  29  30
ATOM     30  C   UNL     1     139.725 131.227 130.235  1.00  0.00    -0.000 C 
BRANCH  30  31
ATOM     31  C   UNL     1     139.281 129.778 130.469  1.00  0.00    -0.003 C 
ATOM     32  C   UNL     1     139.024 129.059 129.148  1.00  0.00     0.004 C 
ENDBRANCH  30  31
ENDBRANCH  29  30
ENDBRANCH  28  29
ENDBRANCH  27  28
ENDBRANCH  26  27
ENDBRANCH  25  26
ENDBRANCH  24  25
ENDBRANCH  23  24
ENDBRANCH  22  23
ENDBRANCH  21  22
ENDBRANCH  20  21
ENDBRANCH  19  20
ENDBRANCH  18  19
ENDBRANCH   1  18
TORSDOF 28
ENDMDL
MODEL 3
REMARK VINA RESULT:    -3.790      6.910      9.784
REMARK INTER + INTRA:         -13.644
REMARK INTER:                 -10.770
REMARK INTRA:                  -2.874
REMARK UNBOUND:                -3.649
REMARK SMILES CCCCCCCCCCCCCCCCCCCCCCCCCCCCCC(=O)[O-]
REMARK SMILES IDX 16 1 17 2 18 3 19 4 20 5 21 6 22 7 23 8 24 9 25 10 26 11
REMARK SMILES IDX 27 12 28 13 29 14 30 15 31 16 32 17 15 18 14 19 13 20 12 21
REMARK SMILES IDX 11 22 10 23 9 24 8 25 7 26 6 27 5 28 4 29 3 30 2 31 1 32
REMARK H PARENT
REMARK Flexibility Score: inf
ROOT
ATOM      1  C   UNL     1     136.635 133.159 124.885  1.00  0.00     0.000 C 
ENDROOT
BRANCH   1   2
ATOM      2  C   UNL     1     136.634 134.388 123.963  1.00  0.00     0.000 C 
BRANCH   2   3
ATOM      3  C   UNL     1     137.016 134.043 122.515  1.00  0.00     0.000 C 
BRANCH   3   4
ATOM      4  C   UNL     1     137.032 135.301 121.636  1.00  0.00     0.000 C 
BRANCH   4   5
ATOM      5  C   UNL     1     137.379 134.953 120.180  1.00  0.00     0.000 C 
BRANCH   5   6
ATOM      6  C   UNL     1     138.054 136.122 119.430  1.00  0.00     0.000 C 
BRANCH   6   7
ATOM      7  C   UNL     1     138.115 135.937 117.901  1.00  0.00     0.000 C 
BRANCH   7   8
ATOM      8  C   UNL     1     137.281 134.767 117.349  1.00  0.00     0.000 C 
BRANCH   8   9
ATOM      9  C   UNL     1     137.594 134.365 115.893  1.00  0.00     0.000 C 
BRANCH   9  10
ATOM     10  C   UNL     1     136.717 133.233 115.328  1.00  0.00     0.000 C 
BRANCH  10  11
ATOM     11  C   UNL     1     135.948 132.474 116.418  1.00  0.00     0.000 C 
BRANCH  11  12
ATOM     12  C   UNL     1     136.562 131.089 116.658  1.00  0.00     0.000 C 
BRANCH  12  13
ATOM     13  C   UNL     1     135.754 129.996 115.942  1.00  0.00     0.006 C 
BRANCH  13  14
ATOM     14  C   UNL     1     135.795 128.658 116.690  1.00  0.00     0.053 C 
BRANCH  14  15
ATOM     15  C   UNL     1     134.758 128.593 117.769  1.00  0.00     0.041 C 
ATOM     16  O   UNL     1     133.599 129.042 117.561  1.00  0.00    -0.550 OA
ATOM     17  O   UNL     1     135.081 128.075 119.015  1.00  0.00    -0.550 OA
ENDBRANCH  14  15
ENDBRANCH  13  14
ENDBRANCH  12  13
ENDBRANCH  11  12
ENDBRANCH  10  11
ENDBRANCH   9  10
ENDBRANCH   8   9
ENDBRANCH   7   8
ENDBRANCH   6   7
ENDBRANCH   5   6
ENDBRANCH   4   5
ENDBRANCH   3   4
ENDBRANCH   2   3
ENDBRANCH   1   2
BRANCH   1  18
ATOM     18  C   UNL     1     136.240 133.500 126.332  1.00  0.00     0.000 C 
BRANCH  18  19
ATOM     19  C   UNL     1     137.140 132.807 127.368  1.00  0.00     0.000 C 
BRANCH  19  20
ATOM     20  C   UNL     1     137.331 131.311 127.075  1.00  0.00     0.000 C 
BRANCH  20  21
ATOM     21  C   UNL     1     138.277 130.665 128.096  1.00  0.00     0.000 C 
BRANCH  21  22
ATOM     22  C   UNL     1     137.667 130.700 129.506  1.00  0.00     0.000 C 
BRANCH  22  23
ATOM     23  C   UNL     1     138.676 131.139 130.579  1.00  0.00     0.000 C 
BRANCH  23  24
ATOM     24  C   UNL     1     139.616 132.254 130.089  1.00  0.00    -0.000 C 
BRANCH  24  25
ATOM     25  C   UNL     1     139.846 133.349 131.145  1.00  0.00    -0.000 C 
BRANCH  25  26
ATOM     26  C   UNL     1     139.821 134.780 130.568  1.00  0.00    -0.000 C 
BRANCH  26  27
ATOM     27  C   UNL     1     138.571 135.041 129.710  1.00  0.00    -0.000 C 
BRANCH  27  28
ATOM     28  C   UNL     1     137.351 135.473 130.543  1.00  0.00    -0.000 C 
BRANCH  28  29
ATOM     29  C   UNL     1     135.998 134.934 130.045  1.00  0.00    -0.000 C 
BRANCH  29  30
ATOM     30  C   UNL     1     135.695 133.516 130.548  1.00  0.00    -0.000 C 
BRANCH  30  31
ATOM     31  C   UNL     1     134.454 132.940 129.856  1.00  0.00    -0.003 C 
ATOM     32  C   UNL     1     134.131 131.542 130.375  1.00  0.00     0.004 C 
ENDBRANCH  30  31
ENDBRANCH  29  30
ENDBRANCH  28  29
ENDBRANCH  27  28
ENDBRANCH  26  27
ENDBRANCH  25  26
ENDBRANCH  24  25
ENDBRANCH  23  24
ENDBRANCH  22  23
ENDBRANCH  21  22
ENDBRANCH  20  21
ENDBRANCH  19  20
ENDBRANCH  18  19
ENDBRANCH   1  18
TORSDOF 28
ENDMDL
MODEL 4
REMARK VINA RESULT:    -3.734      6.208      9.380
REMARK INTER + INTRA:         -13.495
REMARK INTER:                 -10.970
REMARK INTRA:                  -2.525
REMARK UNBOUND:                -3.649
REMARK SMILES CCCCCCCCCCCCCCCCCCCCCCCCCCCCCC(=O)[O-]
REMARK SMILES IDX 16 1 17 2 18 3 19 4 20 5 21 6 22 7 23 8 24 9 25 10 26 11
REMARK SMILES IDX 27 12 28 13 29 14 30 15 31 16 32 17 15 18 14 19 13 20 12 21
REMARK SMILES IDX 11 22 10 23 9 24 8 25 7 26 6 27 5 28 4 29 3 30 2 31 1 32
REMARK H PARENT
REMARK Flexibility Score: inf
ROOT
ATOM      1  C   UNL     1     137.009 132.301 126.558  1.00  0.00     0.000 C 
ENDROOT
BRANCH   1   2
ATOM      2  C   UNL     1     136.742 132.448 128.064  1.00  0.00     0.000 C 
BRANCH   2   3
ATOM      3  C   UNL     1     136.222 131.150 128.703  1.00  0.00     0.000 C 
BRANCH   3   4
ATOM      4  C   UNL     1     136.176 131.270 130.232  1.00  0.00     0.000 C 
BRANCH   4   5
ATOM      5  C   UNL     1     135.977 132.730 130.666  1.00  0.00     0.000 C 
BRANCH   5   6
ATOM      6  C   UNL     1     134.492 133.093 130.880  1.00  0.00     0.000 C 
BRANCH   6   7
ATOM      7  C   UNL     1     133.978 134.212 129.952  1.00  0.00     0.000 C 
BRANCH   7   8
ATOM      8  C   UNL     1     135.051 135.199 129.460  1.00  0.00     0.000 C 
BRANCH   8   9
ATOM      9  C   UNL     1     134.879 136.654 129.945  1.00  0.00     0.000 C 
BRANCH   9  10
ATOM     10  C   UNL     1     136.164 137.322 130.466  1.00  0.00     0.000 C 
BRANCH  10  11
ATOM     11  C   UNL     1     137.318 136.327 130.657  1.00  0.00     0.000 C 
BRANCH  11  12
ATOM     12  C   UNL     1     138.671 137.002 130.400  1.00  0.00     0.000 C 
BRANCH  12  13
ATOM     13  C   UNL     1     139.785 135.958 130.236  1.00  0.00     0.006 C 
BRANCH  13  14
ATOM     14  C   UNL     1     139.250 134.605 129.752  1.00  0.00     0.053 C 
BRANCH  14  15
ATOM     15  C   UNL     1     139.749 133.475 130.600  1.00  0.00     0.041 C 
ATOM     16  O   UNL     1     140.348 133.712 131.683  1.00  0.00    -0.550 OA
ATOM     17  O   UNL     1     139.590 132.163 130.176  1.00  0.00    -0.550 OA
ENDBRANCH  14  15
ENDBRANCH  13  14
ENDBRANCH  12  13
ENDBRANCH  11  12
ENDBRANCH  10  11
ENDBRANCH   9  10
ENDBRANCH   8   9
ENDBRANCH   7   8
ENDBRANCH   6   7
ENDBRANCH   5   6
ENDBRANCH   4   5
ENDBRANCH   3   4
ENDBRANCH   2   3
ENDBRANCH   1   2
BRANCH   1  18
ATOM     18  C   UNL     1     136.493 133.499 125.743  1.00  0.00     0.000 C 
BRANCH  18  19
ATOM     19  C   UNL     1     136.646 133.292 124.227  1.00  0.00     0.000 C 
BRANCH  19  20
ATOM     20  C   UNL     1     136.669 134.617 123.451  1.00  0.00     0.000 C 
BRANCH  20  21
ATOM     21  C   UNL     1     137.042 134.390 121.980  1.00  0.00     0.000 C 
BRANCH  21  22
ATOM     22  C   UNL     1     137.127 135.725 121.224  1.00  0.00     0.000 C 
BRANCH  22  23
ATOM     23  C   UNL     1     138.266 135.753 120.194  1.00  0.00     0.000 C 
BRANCH  23  24
ATOM     24  C   UNL     1     137.819 136.302 118.828  1.00  0.00    -0.000 C 
BRANCH  24  25
ATOM     25  C   UNL     1     138.000 135.288 117.686  1.00  0.00    -0.000 C 
BRANCH  25  26
ATOM     26  C   UNL     1     136.852 134.261 117.582  1.00  0.00    -0.000 C 
BRANCH  26  27
ATOM     27  C   UNL     1     136.828 133.549 116.218  1.00  0.00    -0.000 C 
BRANCH  27  28
ATOM     28  C   UNL     1     135.992 132.257 116.230  1.00  0.00    -0.000 C 
BRANCH  28  29
ATOM     29  C   UNL     1     136.457 131.191 117.238  1.00  0.00    -0.000 C 
BRANCH  29  30
ATOM     30  C   UNL     1     136.224 129.756 116.744  1.00  0.00    -0.000 C 
BRANCH  30  31
ATOM     31  C   UNL     1     134.819 129.268 117.119  1.00  0.00    -0.003 C 
ATOM     32  C   UNL     1     134.800 128.665 118.520  1.00  0.00     0.004 C 
ENDBRANCH  30  31
ENDBRANCH  29  30
ENDBRANCH  28  29
ENDBRANCH  27  28
ENDBRANCH  26  27
ENDBRANCH  25  26
ENDBRANCH  24  25
ENDBRANCH  23  24
ENDBRANCH  22  23
ENDBRANCH  21  22
ENDBRANCH  20  21
ENDBRANCH  19  20
ENDBRANCH  18  19
ENDBRANCH   1  18
TORSDOF 28
ENDMDL
MODEL 5
REMARK VINA RESULT:    -3.726      7.025     10.338
REMARK INTER + INTRA:         -13.473
REMARK INTER:                 -11.398
REMARK INTRA:                  -2.075
REMARK UNBOUND:                -3.649
REMARK SMILES CCCCCCCCCCCCCCCCCCCCCCCCCCCCCC(=O)[O-]
REMARK SMILES IDX 16 1 17 2 18 3 19 4 20 5 21 6 22 7 23 8 24 9 25 10 26 11
REMARK SMILES IDX 27 12 28 13 29 14 30 15 31 16 32 17 15 18 14 19 13 20 12 21
REMARK SMILES IDX 11 22 10 23 9 24 8 25 7 26 6 27 5 28 4 29 3 30 2 31 1 32
REMARK H PARENT
REMARK Flexibility Score: inf
ROOT
ATOM      1  C   UNL     1     136.656 134.241 123.598  1.00  0.00     0.000 C 
ENDROOT
BRANCH   1   2
ATOM      2  C   UNL     1     136.820 133.322 124.818  1.00  0.00     0.000 C 
BRANCH   2   3
ATOM      3  C   UNL     1     136.007 133.799 126.032  1.00  0.00     0.000 C 
BRANCH   3   4
ATOM      4  C   UNL     1     136.617 133.279 127.341  1.00  0.00     0.000 C 
BRANCH   4   5
ATOM      5  C   UNL     1     135.830 133.789 128.558  1.00  0.00     0.000 C 
BRANCH   5   6
ATOM      6  C   UNL     1     135.240 132.645 129.411  1.00  0.00     0.000 C 
BRANCH   6   7
ATOM      7  C   UNL     1     136.288 131.868 130.232  1.00  0.00     0.000 C 
BRANCH   7   8
ATOM      8  C   UNL     1     137.159 132.729 131.165  1.00  0.00     0.000 C 
BRANCH   8   9
ATOM      9  C   UNL     1     138.572 132.175 131.443  1.00  0.00     0.000 C 
BRANCH   9  10
ATOM     10  C   UNL     1     139.713 132.907 130.715  1.00  0.00     0.000 C 
BRANCH  10  11
ATOM     11  C   UNL     1     139.224 134.114 129.902  1.00  0.00     0.000 C 
BRANCH  11  12
ATOM     12  C   UNL     1     140.204 135.288 130.020  1.00  0.00     0.000 C 
BRANCH  12  13
ATOM     13  C   UNL     1     139.665 136.364 130.973  1.00  0.00     0.006 C 
BRANCH  13  14
ATOM     14  C   UNL     1     139.079 137.566 130.223  1.00  0.00     0.053 C 
BRANCH  14  15
ATOM     15  C   UNL     1     137.599 137.683 130.432  1.00  0.00     0.041 C 
ATOM     16  O   UNL     1     137.041 138.811 130.387  1.00  0.00    -0.550 OA
ATOM     17  O   UNL     1     136.845 136.553 130.716  1.00  0.00    -0.550 OA
ENDBRANCH  14  15
ENDBRANCH  13  14
ENDBRANCH  12  13
ENDBRANCH  11  12
ENDBRANCH  10  11
ENDBRANCH   9  10
ENDBRANCH   8   9
ENDBRANCH   7   8
ENDBRANCH   6   7
ENDBRANCH   5   6
ENDBRANCH   4   5
ENDBRANCH   3   4
ENDBRANCH   2   3
ENDBRANCH   1   2
BRANCH   1  18
ATOM     18  C   UNL     1     137.057 133.557 122.280  1.00  0.00     0.000 C 
BRANCH  18  19
ATOM     19  C   UNL     1     136.768 134.432 121.049  1.00  0.00     0.000 C 
BRANCH  19  20
ATOM     20  C   UNL     1     137.757 135.599 120.911  1.00  0.00     0.000 C 
BRANCH  20  21
ATOM     21  C   UNL     1     137.693 136.215 119.507  1.00  0.00     0.000 C 
BRANCH  21  22
ATOM     22  C   UNL     1     139.025 136.026 118.765  1.00  0.00     0.000 C 
BRANCH  22  23
ATOM     23  C   UNL     1     138.841 135.462 117.348  1.00  0.00     0.000 C 
BRANCH  23  24
ATOM     24  C   UNL     1     137.437 134.873 117.121  1.00  0.00    -0.000 C 
BRANCH  24  25
ATOM     25  C   UNL     1     137.250 134.302 115.705  1.00  0.00    -0.000 C 
BRANCH  25  26
ATOM     26  C   UNL     1     136.649 132.881 115.684  1.00  0.00    -0.000 C 
BRANCH  26  27
ATOM     27  C   UNL     1     136.507 132.288 117.097  1.00  0.00    -0.000 C 
BRANCH  27  28
ATOM     28  C   UNL     1     136.572 130.750 117.111  1.00  0.00    -0.000 C 
BRANCH  28  29
ATOM     29  C   UNL     1     135.213 130.040 116.979  1.00  0.00    -0.000 C 
BRANCH  29  30
ATOM     30  C   UNL     1     135.220 128.619 117.561  1.00  0.00    -0.000 C 
BRANCH  30  31
ATOM     31  C   UNL     1     134.800 128.627 119.035  1.00  0.00    -0.003 C 
ATOM     32  C   UNL     1     133.288 128.478 119.179  1.00  0.00     0.004 C 
ENDBRANCH  30  31
ENDBRANCH  29  30
ENDBRANCH  28  29
ENDBRANCH  27  28
ENDBRANCH  26  27
ENDBRANCH  25  26
ENDBRANCH  24  25
ENDBRANCH  23  24
ENDBRANCH  22  23
ENDBRANCH  21  22
ENDBRANCH  20  21
ENDBRANCH  19  20
ENDBRANCH  18  19
ENDBRANCH   1  18
TORSDOF 28
ENDMDL
MODEL 6
REMARK VINA RESULT:    -3.658      6.058      8.846
REMARK INTER + INTRA:         -13.296
REMARK INTER:                 -10.143
REMARK INTRA:                  -3.153
REMARK UNBOUND:                -3.649
REMARK SMILES CCCCCCCCCCCCCCCCCCCCCCCCCCCCCC(=O)[O-]
REMARK SMILES IDX 16 1 17 2 18 3 19 4 20 5 21 6 22 7 23 8 24 9 25 10 26 11
REMARK SMILES IDX 27 12 28 13 29 14 30 15 31 16 32 17 15 18 14 19 13 20 12 21
REMARK SMILES IDX 11 22 10 23 9 24 8 25 7 26 6 27 5 28 4 29 3 30 2 31 1 32
REMARK H PARENT
REMARK Flexibility Score: inf
ROOT
ATOM      1  C   UNL     1     137.218 131.601 127.174  1.00  0.00     0.000 C 
ENDROOT
BRANCH   1   2
ATOM      2  C   UNL     1     137.027 133.117 127.328  1.00  0.00     0.000 C 
BRANCH   2   3
ATOM      3  C   UNL     1     136.129 133.715 126.233  1.00  0.00     0.000 C 
BRANCH   3   4
ATOM      4  C   UNL     1     136.626 133.318 124.837  1.00  0.00     0.000 C 
BRANCH   4   5
ATOM      5  C   UNL     1     136.802 134.553 123.940  1.00  0.00     0.000 C 
BRANCH   5   6
ATOM      6  C   UNL     1     137.012 134.189 122.455  1.00  0.00     0.000 C 
BRANCH   6   7
ATOM      7  C   UNL     1     137.020 135.404 121.505  1.00  0.00     0.000 C 
BRANCH   7   8
ATOM      8  C   UNL     1     137.385 135.089 120.042  1.00  0.00     0.000 C 
BRANCH   8   9
ATOM      9  C   UNL     1     138.403 136.051 119.397  1.00  0.00     0.000 C 
BRANCH   9  10
ATOM     10  C   UNL     1     138.106 136.424 117.932  1.00  0.00     0.000 C 
BRANCH  10  11
ATOM     11  C   UNL     1     138.474 135.306 116.947  1.00  0.00     0.000 C 
BRANCH  11  12
ATOM     12  C   UNL     1     137.414 135.174 115.847  1.00  0.00     0.000 C 
BRANCH  12  13
ATOM     13  C   UNL     1     136.934 133.721 115.715  1.00  0.00     0.006 C 
BRANCH  13  14
ATOM     14  C   UNL     1     136.565 133.105 117.069  1.00  0.00     0.053 C 
BRANCH  14  15
ATOM     15  C   UNL     1     136.337 131.627 116.963  1.00  0.00     0.041 C 
ATOM     16  O   UNL     1     136.549 130.880 117.955  1.00  0.00    -0.550 OA
ATOM     17  O   UNL     1     135.930 131.071 115.758  1.00  0.00    -0.550 OA
ENDBRANCH  14  15
ENDBRANCH  13  14
ENDBRANCH  12  13
ENDBRANCH  11  12
ENDBRANCH  10  11
ENDBRANCH   9  10
ENDBRANCH   8   9
ENDBRANCH   7   8
ENDBRANCH   6   7
ENDBRANCH   5   6
ENDBRANCH   4   5
ENDBRANCH   3   4
ENDBRANCH   2   3
ENDBRANCH   1   2
BRANCH   1  18
ATOM     18  C   UNL     1     137.269 130.867 128.525  1.00  0.00     0.000 C 
BRANCH  18  19
ATOM     19  C   UNL     1     138.625 130.188 128.779  1.00  0.00     0.000 C 
BRANCH  19  20
ATOM     20  C   UNL     1     139.431 130.878 129.890  1.00  0.00     0.000 C 
BRANCH  20  21
ATOM     21  C   UNL     1     138.504 131.443 130.974  1.00  0.00     0.000 C 
BRANCH  21  22
ATOM     22  C   UNL     1     138.807 132.927 131.234  1.00  0.00     0.000 C 
BRANCH  22  23
ATOM     23  C   UNL     1     139.595 133.582 130.089  1.00  0.00     0.000 C 
BRANCH  23  24
ATOM     24  C   UNL     1     140.070 135.004 130.433  1.00  0.00    -0.000 C 
BRANCH  24  25
ATOM     25  C   UNL     1     139.205 136.098 129.783  1.00  0.00    -0.000 C 
BRANCH  25  26
ATOM     26  C   UNL     1     138.368 136.909 130.794  1.00  0.00    -0.000 C 
BRANCH  26  27
ATOM     27  C   UNL     1     136.857 136.799 130.523  1.00  0.00    -0.000 C 
BRANCH  27  28
ATOM     28  C   UNL     1     136.422 135.376 130.128  1.00  0.00    -0.000 C 
BRANCH  28  29
ATOM     29  C   UNL     1     134.900 135.145 130.102  1.00  0.00    -0.000 C 
BRANCH  29  30
ATOM     30  C   UNL     1     134.516 133.736 129.630  1.00  0.00    -0.000 C 
BRANCH  30  31
ATOM     31  C   UNL     1     134.953 132.677 130.649  1.00  0.00    -0.003 C 
ATOM     32  C   UNL     1     133.764 131.853 131.134  1.00  0.00     0.004 C 
ENDBRANCH  30  31
ENDBRANCH  29  30
ENDBRANCH  28  29
ENDBRANCH  27  28
ENDBRANCH  26  27
ENDBRANCH  25  26
ENDBRANCH  24  25
ENDBRANCH  23  24
ENDBRANCH  22  23
ENDBRANCH  21  22
ENDBRANCH  20  21
ENDBRANCH  19  20
ENDBRANCH  18  19
ENDBRANCH   1  18
TORSDOF 28
ENDMDL
MODEL 7
REMARK VINA RESULT:    -3.656      6.836     10.111
REMARK INTER + INTRA:         -13.290
REMARK INTER:                 -10.444
REMARK INTRA:                  -2.846
REMARK UNBOUND:                -3.649
REMARK SMILES CCCCCCCCCCCCCCCCCCCCCCCCCCCCCC(=O)[O-]
REMARK SMILES IDX 16 1 17 2 18 3 19 4 20 5 21 6 22 7 23 8 24 9 25 10 26 11
REMARK SMILES IDX 27 12 28 13 29 14 30 15 31 16 32 17 15 18 14 19 13 20 12 21
REMARK SMILES IDX 11 22 10 23 9 24 8 25 7 26 6 27 5 28 4 29 3 30 2 31 1 32
REMARK H PARENT
REMARK Flexibility Score: inf
ROOT
ATOM      1  C   UNL     1     136.635 133.285 124.656  1.00  0.00     0.000 C 
ENDROOT
BRANCH   1   2
ATOM      2  C   UNL     1     136.244 133.489 126.128  1.00  0.00     0.000 C 
BRANCH   2   3
ATOM      3  C   UNL     1     137.276 132.898 127.102  1.00  0.00     0.000 C 
BRANCH   3   4
ATOM      4  C   UNL     1     136.903 131.463 127.495  1.00  0.00     0.000 C 
BRANCH   4   5
ATOM      5  C   UNL     1     138.141 130.672 127.944  1.00  0.00     0.000 C 
BRANCH   5   6
ATOM      6  C   UNL     1     138.377 130.744 129.468  1.00  0.00     0.000 C 
BRANCH   6   7
ATOM      7  C   UNL     1     139.550 131.656 129.880  1.00  0.00     0.000 C 
BRANCH   7   8
ATOM      8  C   UNL     1     139.224 132.688 130.975  1.00  0.00     0.000 C 
BRANCH   8   9
ATOM      9  C   UNL     1     139.348 134.164 130.544  1.00  0.00     0.000 C 
BRANCH   9  10
ATOM     10  C   UNL     1     138.018 134.849 130.179  1.00  0.00     0.000 C 
BRANCH  10  11
ATOM     11  C   UNL     1     136.790 134.027 130.595  1.00  0.00     0.000 C 
BRANCH  11  12
ATOM     12  C   UNL     1     135.539 134.487 129.837  1.00  0.00     0.000 C 
BRANCH  12  13
ATOM     13  C   UNL     1     134.487 133.370 129.779  1.00  0.00     0.006 C 
BRANCH  13  14
ATOM     14  C   UNL     1     134.927 132.115 130.543  1.00  0.00     0.053 C 
BRANCH  14  15
ATOM     15  C   UNL     1     134.351 130.869 129.943  1.00  0.00     0.041 C 
ATOM     16  O   UNL     1     133.170 130.865 129.504  1.00  0.00    -0.550 OA
ATOM     17  O   UNL     1     135.102 129.703 129.905  1.00  0.00    -0.550 OA
ENDBRANCH  14  15
ENDBRANCH  13  14
ENDBRANCH  12  13
ENDBRANCH  11  12
ENDBRANCH  10  11
ENDBRANCH   9  10
ENDBRANCH   8   9
ENDBRANCH   7   8
ENDBRANCH   6   7
ENDBRANCH   5   6
ENDBRANCH   4   5
ENDBRANCH   3   4
ENDBRANCH   2   3
ENDBRANCH   1   2
BRANCH   1  18
ATOM     18  C   UNL     1     136.673 134.602 123.863  1.00  0.00     0.000 C 
BRANCH  18  19
ATOM     19  C   UNL     1     137.039 134.391 122.384  1.00  0.00     0.000 C 
BRANCH  19  20
ATOM     20  C   UNL     1     137.103 135.710 121.599  1.00  0.00     0.000 C 
BRANCH  20  21
ATOM     21  C   UNL     1     137.425 135.457 120.121  1.00  0.00     0.000 C 
BRANCH  21  22
ATOM     22  C   UNL     1     138.858 135.903 119.789  1.00  0.00     0.000 C 
BRANCH  22  23
ATOM     23  C   UNL     1     139.101 136.046 118.279  1.00  0.00     0.000 C 
BRANCH  23  24
ATOM     24  C   UNL     1     137.889 135.608 117.438  1.00  0.00    -0.000 C 
BRANCH  24  25
ATOM     25  C   UNL     1     138.272 135.193 116.007  1.00  0.00    -0.000 C 
BRANCH  25  26
ATOM     26  C   UNL     1     137.363 134.094 115.417  1.00  0.00    -0.000 C 
BRANCH  26  27
ATOM     27  C   UNL     1     136.664 133.266 116.510  1.00  0.00    -0.000 C 
BRANCH  27  28
ATOM     28  C   UNL     1     136.067 131.952 115.976  1.00  0.00    -0.000 C 
BRANCH  28  29
ATOM     29  C   UNL     1     136.225 130.739 116.911  1.00  0.00    -0.000 C 
BRANCH  29  30
ATOM     30  C   UNL     1     135.015 129.794 116.875  1.00  0.00    -0.000 C 
BRANCH  30  31
ATOM     31  C   UNL     1     135.138 128.704 117.947  1.00  0.00    -0.003 C 
ATOM     32  C   UNL     1     133.807 128.474 118.655  1.00  0.00     0.004 C 
ENDBRANCH  30  31
ENDBRANCH  29  30
ENDBRANCH  28  29
ENDBRANCH  27  28
ENDBRANCH  26  27
ENDBRANCH  25  26
ENDBRANCH  24  25
ENDBRANCH  23  24
ENDBRANCH  22  23
ENDBRANCH  21  22
ENDBRANCH  20  21
ENDBRANCH  19  20
ENDBRANCH  18  19
ENDBRANCH   1  18
TORSDOF 28
ENDMDL
MODEL 8
REMARK VINA RESULT:    -3.616      6.776      9.883
REMARK INTER + INTRA:         -13.185
REMARK INTER:                 -10.210
REMARK INTRA:                  -2.975
REMARK UNBOUND:                -3.649
REMARK SMILES CCCCCCCCCCCCCCCCCCCCCCCCCCCCCC(=O)[O-]
REMARK SMILES IDX 16 1 17 2 18 3 19 4 20 5 21 6 22 7 23 8 24 9 25 10 26 11
REMARK SMILES IDX 27 12 28 13 29 14 30 15 31 16 32 17 15 18 14 19 13 20 12 21
REMARK SMILES IDX 11 22 10 23 9 24 8 25 7 26 6 27 5 28 4 29 3 30 2 31 1 32
REMARK H PARENT
REMARK Flexibility Score: inf
ROOT
ATOM      1  C   UNL     1     136.644 133.047 123.336  1.00  0.00     0.000 C 
ENDROOT
BRANCH   1   2
ATOM      2  C   UNL     1     137.011 133.868 122.091  1.00  0.00     0.000 C 
BRANCH   2   3
ATOM      3  C   UNL     1     137.025 135.381 122.362  1.00  0.00     0.000 C 
BRANCH   3   4
ATOM      4  C   UNL     1     137.023 136.175 121.050  1.00  0.00     0.000 C 
BRANCH   4   5
ATOM      5  C   UNL     1     138.125 135.678 120.101  1.00  0.00     0.000 C 
BRANCH   5   6
ATOM      6  C   UNL     1     137.899 136.121 118.639  1.00  0.00     0.000 C 
BRANCH   6   7
ATOM      7  C   UNL     1     137.714 134.953 117.650  1.00  0.00     0.000 C 
BRANCH   7   8
ATOM      8  C   UNL     1     136.472 134.077 117.896  1.00  0.00     0.000 C 
BRANCH   8   9
ATOM      9  C   UNL     1     136.558 132.642 117.337  1.00  0.00     0.000 C 
BRANCH   9  10
ATOM     10  C   UNL     1     136.192 132.502 115.848  1.00  0.00     0.000 C 
BRANCH  10  11
ATOM     11  C   UNL     1     135.977 131.043 115.422  1.00  0.00     0.000 C 
BRANCH  11  12
ATOM     12  C   UNL     1     136.004 130.108 116.637  1.00  0.00     0.000 C 
BRANCH  12  13
ATOM     13  C   UNL     1     134.644 129.423 116.838  1.00  0.00     0.006 C 
BRANCH  13  14
ATOM     14  C   UNL     1     134.721 128.251 117.823  1.00  0.00     0.053 C 
BRANCH  14  15
ATOM     15  C   UNL     1     134.277 128.652 119.197  1.00  0.00     0.041 C 
ATOM     16  O   UNL     1     135.128 128.950 120.077  1.00  0.00    -0.550 OA
ATOM     17  O   UNL     1     132.926 128.656 119.518  1.00  0.00    -0.550 OA
ENDBRANCH  14  15
ENDBRANCH  13  14
ENDBRANCH  12  13
ENDBRANCH  11  12
ENDBRANCH  10  11
ENDBRANCH   9  10
ENDBRANCH   8   9
ENDBRANCH   7   8
ENDBRANCH   6   7
ENDBRANCH   5   6
ENDBRANCH   4   5
ENDBRANCH   3   4
ENDBRANCH   2   3
ENDBRANCH   1   2
BRANCH   1  18
ATOM     18  C   UNL     1     136.645 133.887 124.625  1.00  0.00     0.000 C 
BRANCH  18  19
ATOM     19  C   UNL     1     136.645 133.021 125.895  1.00  0.00     0.000 C 
BRANCH  19  20
ATOM     20  C   UNL     1     136.720 133.859 127.180  1.00  0.00     0.000 C 
BRANCH  20  21
ATOM     21  C   UNL     1     135.547 133.542 128.116  1.00  0.00     0.000 C 
BRANCH  21  22
ATOM     22  C   UNL     1     135.696 134.285 129.452  1.00  0.00     0.000 C 
BRANCH  22  23
ATOM     23  C   UNL     1     136.126 133.360 130.602  1.00  0.00     0.000 C 
BRANCH  23  24
ATOM     24  C   UNL     1     136.022 131.870 130.235  1.00  0.00    -0.000 C 
BRANCH  24  25
ATOM     25  C   UNL     1     137.290 131.075 130.594  1.00  0.00    -0.000 C 
BRANCH  25  26
ATOM     26  C   UNL     1     138.304 130.971 129.435  1.00  0.00    -0.000 C 
BRANCH  26  27
ATOM     27  C   UNL     1     139.723 131.387 129.864  1.00  0.00    -0.000 C 
BRANCH  27  28
ATOM     28  C   UNL     1     139.764 132.770 130.538  1.00  0.00    -0.000 C 
BRANCH  28  29
ATOM     29  C   UNL     1     139.617 133.965 129.580  1.00  0.00    -0.000 C 
BRANCH  29  30
ATOM     30  C   UNL     1     139.844 135.318 130.269  1.00  0.00    -0.000 C 
BRANCH  30  31
ATOM     31  C   UNL     1     138.836 136.362 129.775  1.00  0.00    -0.003 C 
ATOM     32  C   UNL     1     138.096 137.011 130.941  1.00  0.00     0.004 C 
ENDBRANCH  30  31
ENDBRANCH  29  30
ENDBRANCH  28  29
ENDBRANCH  27  28
ENDBRANCH  26  27
ENDBRANCH  25  26
ENDBRANCH  24  25
ENDBRANCH  23  24
ENDBRANCH  22  23
ENDBRANCH  21  22
ENDBRANCH  20  21
ENDBRANCH  19  20
ENDBRANCH  18  19
ENDBRANCH   1  18
TORSDOF 28
ENDMDL
MODEL 9
REMARK VINA RESULT:    -3.596      7.495     10.943
REMARK INTER + INTRA:         -13.132
REMARK INTER:                 -10.177
REMARK INTRA:                  -2.955
REMARK UNBOUND:                -3.649
REMARK SMILES CCCCCCCCCCCCCCCCCCCCCCCCCCCCCC(=O)[O-]
REMARK SMILES IDX 16 1 17 2 18 3 19 4 20 5 21 6 22 7 23 8 24 9 25 10 26 11
REMARK SMILES IDX 27 12 28 13 29 14 30 15 31 16 32 17 15 18 14 19 13 20 12 21
REMARK SMILES IDX 11 22 10 23 9 24 8 25 7 26 6 27 5 28 4 29 3 30 2 31 1 32
REMARK H PARENT
REMARK Flexibility Score: inf
ROOT
ATOM      1  C   UNL     1     136.621 134.541 123.845  1.00  0.00     0.000 C 
ENDROOT
BRANCH   1   2
ATOM      2  C   UNL     1     136.713 133.281 124.718  1.00  0.00     0.000 C 
BRANCH   2   3
ATOM      3  C   UNL     1     136.202 133.513 126.148  1.00  0.00     0.000 C 
BRANCH   3   4
ATOM      4  C   UNL     1     137.183 132.945 127.182  1.00  0.00     0.000 C 
BRANCH   4   5
ATOM      5  C   UNL     1     137.018 131.424 127.325  1.00  0.00     0.000 C 
BRANCH   5   6
ATOM      6  C   UNL     1     137.609 130.880 128.644  1.00  0.00     0.000 C 
BRANCH   6   7
ATOM      7  C   UNL     1     136.568 130.682 129.764  1.00  0.00     0.000 C 
BRANCH   7   8
ATOM      8  C   UNL     1     135.124 130.450 129.284  1.00  0.00     0.000 C 
BRANCH   8   9
ATOM      9  C   UNL     1     134.067 131.387 129.903  1.00  0.00     0.000 C 
BRANCH   9  10
ATOM     10  C   UNL     1     134.622 132.701 130.483  1.00  0.00     0.000 C 
BRANCH  10  11
ATOM     11  C   UNL     1     134.346 133.913 129.582  1.00  0.00     0.000 C 
BRANCH  11  12
ATOM     12  C   UNL     1     135.434 134.981 129.751  1.00  0.00     0.000 C 
BRANCH  12  13
ATOM     13  C   UNL     1     136.713 134.375 130.348  1.00  0.00     0.006 C 
BRANCH  13  14
ATOM     14  C   UNL     1     137.891 135.356 130.318  1.00  0.00     0.053 C 
BRANCH  14  15
ATOM     15  C   UNL     1     139.206 134.642 130.237  1.00  0.00     0.041 C 
ATOM     16  O   UNL     1     139.260 133.394 130.399  1.00  0.00    -0.550 OA
ATOM     17  O   UNL     1     140.376 135.359 130.025  1.00  0.00    -0.550 OA
ENDBRANCH  14  15
ENDBRANCH  13  14
ENDBRANCH  12  13
ENDBRANCH  11  12
ENDBRANCH  10  11
ENDBRANCH   9  10
ENDBRANCH   8   9
ENDBRANCH   7   8
ENDBRANCH   6   7
ENDBRANCH   5   6
ENDBRANCH   4   5
ENDBRANCH   3   4
ENDBRANCH   2   3
ENDBRANCH   1   2
BRANCH   1  18
ATOM     18  C   UNL     1     136.993 134.276 122.376  1.00  0.00     0.000 C 
BRANCH  18  19
ATOM     19  C   UNL     1     136.991 135.557 121.525  1.00  0.00     0.000 C 
BRANCH  19  20
ATOM     20  C   UNL     1     138.188 135.628 120.564  1.00  0.00     0.000 C 
BRANCH  20  21
ATOM     21  C   UNL     1     137.721 135.683 119.104  1.00  0.00     0.000 C 
BRANCH  21  22
ATOM     22  C   UNL     1     138.811 136.283 118.203  1.00  0.00     0.000 C 
BRANCH  22  23
ATOM     23  C   UNL     1     138.235 137.100 117.037  1.00  0.00     0.000 C 
BRANCH  23  24
ATOM     24  C   UNL     1     138.800 136.669 115.673  1.00  0.00    -0.000 C 
BRANCH  24  25
ATOM     25  C   UNL     1     138.604 135.169 115.391  1.00  0.00    -0.000 C 
BRANCH  25  26
ATOM     26  C   UNL     1     137.127 134.763 115.198  1.00  0.00    -0.000 C 
BRANCH  26  27
ATOM     27  C   UNL     1     136.906 133.254 115.402  1.00  0.00    -0.000 C 
BRANCH  27  28
ATOM     28  C   UNL     1     136.532 132.894 116.851  1.00  0.00    -0.000 C 
BRANCH  28  29
ATOM     29  C   UNL     1     135.984 131.469 117.047  1.00  0.00    -0.000 C 
BRANCH  29  30
ATOM     30  C   UNL     1     136.104 130.602 115.786  1.00  0.00    -0.000 C 
BRANCH  30  31
ATOM     31  C   UNL     1     134.832 129.775 115.565  1.00  0.00    -0.003 C 
ATOM     32  C   UNL     1     134.270 129.262 116.888  1.00  0.00     0.004 C 
ENDBRANCH  30  31
ENDBRANCH  29  30
ENDBRANCH  28  29
ENDBRANCH  27  28
ENDBRANCH  26  27
ENDBRANCH  25  26
ENDBRANCH  24  25
ENDBRANCH  23  24
ENDBRANCH  22  23
ENDBRANCH  21  22
ENDBRANCH  20  21
ENDBRANCH  19  20
ENDBRANCH  18  19
ENDBRANCH   1  18
TORSDOF 28
ENDMDL
