MODEL 1
REMARK VINA RESULT:    -2.425      0.000      0.000
REMARK INTER + INTRA:          -2.990
REMARK INTER:                  -2.851
REMARK INTRA:                  -0.140
REMARK UNBOUND:                -0.140
REMARK SMILES CCCCC(=O)[O-]
REMARK SMILES IDX 4 1 5 2 6 3 7 4 3 5 2 6 1 7
REMARK H PARENT
REMARK Flexibility Score: inf
ROOT
ATOM      1  C   UNL     1      12.875  65.026  16.187  1.00  0.00     0.053 C 
ENDROOT
BRANCH   1   2
ATOM      2  C   UNL     1      13.466  64.243  15.058  1.00  0.00     0.041 C 
ATOM      3  O   UNL     1      13.104  63.055  14.852  1.00  0.00    -0.550 OA
ATOM      4  O   UNL     1      14.453  64.810  14.260  1.00  0.00    -0.550 OA
ENDBRANCH   1   2
BRANCH   1   5
ATOM      5  C   UNL     1      13.977  65.716  16.996  1.00  0.00     0.006 C 
BRANCH   5   6
ATOM      6  C   UNL     1      14.774  64.698  17.818  1.00  0.00    -0.003 C 
ATOM      7  C   UNL     1      16.269  64.805  17.532  1.00  0.00     0.004 C 
ENDBRANCH   5   6
ENDBRANCH   1   5
TORSDOF 3
ENDMDL
MODEL 2
REMARK VINA RESULT:    -2.392      1.404      2.005
REMARK INTER + INTRA:          -2.951
REMARK INTER:                  -2.931
REMARK INTRA:                  -0.021
REMARK UNBOUND:                -0.140
REMARK SMILES CCCCC(=O)[O-]
REMARK SMILES IDX 4 1 5 2 6 3 7 4 3 5 2 6 1 7
REMARK H PARENT
REMARK Flexibility Score: inf
ROOT
ATOM      1  C   UNL     1      13.220  63.542  15.017  1.00  0.00     0.053 C 
ENDROOT
BRANCH   1   2
ATOM      2  C   UNL     1      13.162  63.563  13.522  1.00  0.00     0.041 C 
ATOM      3  O   UNL     1      13.027  64.654  12.908  1.00  0.00    -0.550 OA
ATOM      4  O   UNL     1      13.210  62.372  12.808  1.00  0.00    -0.550 OA
ENDBRANCH   1   2
BRANCH   1   5
ATOM      5  C   UNL     1      14.005  64.748  15.541  1.00  0.00     0.006 C 
BRANCH   5   6
ATOM      6  C   UNL     1      13.904  64.848  17.066  1.00  0.00    -0.003 C 
ATOM      7  C   UNL     1      15.236  64.512  17.731  1.00  0.00     0.004 C 
ENDBRANCH   5   6
ENDBRANCH   1   5
TORSDOF 3
ENDMDL
MODEL 3
REMARK VINA RESULT:    -2.325     17.312     18.188
REMARK INTER + INTRA:          -2.873
REMARK INTER:                  -2.763
REMARK INTRA:                  -0.109
REMARK UNBOUND:                -0.140
REMARK SMILES CCCCC(=O)[O-]
REMARK SMILES IDX 4 1 5 2 6 3 7 4 3 5 2 6 1 7
REMARK H PARENT
REMARK Flexibility Score: inf
ROOT
ATOM      1  C   UNL     1      32.940  63.989  17.363  1.00  0.00     0.053 C 
ENDROOT
BRANCH   1   2
ATOM      2  C   UNL     1      31.648  64.255  18.067  1.00  0.00     0.041 C 
ATOM      3  O   UNL     1      30.779  64.996  17.539  1.00  0.00    -0.550 OA
ATOM      4  O   UNL     1      31.423  63.722  19.331  1.00  0.00    -0.550 OA
ENDBRANCH   1   2
BRANCH   1   5
ATOM      5  C   UNL     1      32.798  62.797  16.412  1.00  0.00     0.006 C 
BRANCH   5   6
ATOM      6  C   UNL     1      32.722  63.263  14.955  1.00  0.00    -0.003 C 
ATOM      7  C   UNL     1      31.280  63.285  14.456  1.00  0.00     0.004 C 
ENDBRANCH   5   6
ENDBRANCH   1   5
TORSDOF 3
ENDMDL
MODEL 4
REMARK VINA RESULT:    -2.140     17.821     18.401
REMARK INTER + INTRA:          -2.655
REMARK INTER:                  -2.637
REMARK INTRA:                  -0.017
REMARK UNBOUND:                -0.140
REMARK SMILES CCCCC(=O)[O-]
REMARK SMILES IDX 4 1 5 2 6 3 7 4 3 5 2 6 1 7
REMARK H PARENT
REMARK Flexibility Score: inf
ROOT
ATOM      1  C   UNL     1      32.862  63.661  18.205  1.00  0.00     0.053 C 
ENDROOT
BRANCH   1   2
ATOM      2  C   UNL     1      31.964  63.590  19.400  1.00  0.00     0.041 C 
ATOM      3  O   UNL     1      31.194  64.548  19.672  1.00  0.00    -0.550 OA
ATOM      4  O   UNL     1      32.014  62.486  20.242  1.00  0.00    -0.550 OA
ENDBRANCH   1   2
BRANCH   1   5
ATOM      5  C   UNL     1      32.045  63.921  16.936  1.00  0.00     0.006 C 
BRANCH   5   6
ATOM      6  C   UNL     1      32.564  63.078  15.766  1.00  0.00    -0.003 C 
ATOM      7  C   UNL     1      31.649  63.197  14.551  1.00  0.00     0.004 C 
ENDBRANCH   5   6
ENDBRANCH   1   5
TORSDOF 3
ENDMDL
MODEL 5
REMARK VINA RESULT:    -2.128      3.317      4.501
REMARK INTER + INTRA:          -2.641
REMARK INTER:                  -2.599
REMARK INTRA:                  -0.042
REMARK UNBOUND:                -0.140
REMARK SMILES CCCCC(=O)[O-]
REMARK SMILES IDX 4 1 5 2 6 3 7 4 3 5 2 6 1 7
REMARK H PARENT
REMARK Flexibility Score: inf
ROOT
ATOM      1  C   UNL     1      17.684  65.669  16.437  1.00  0.00     0.053 C 
ENDROOT
BRANCH   1   2
ATOM      2  C   UNL     1      18.854  65.819  15.518  1.00  0.00     0.041 C 
ATOM      3  O   UNL     1      20.027  65.713  15.962  1.00  0.00    -0.550 OA
ATOM      4  O   UNL     1      18.651  66.125  14.178  1.00  0.00    -0.550 OA
ENDBRANCH   1   2
BRANCH   1   5
ATOM      5  C   UNL     1      16.396  66.125  15.745  1.00  0.00     0.006 C 
BRANCH   5   6
ATOM      6  C   UNL     1      15.160  65.664  16.524  1.00  0.00    -0.003 C 
ATOM      7  C   UNL     1      15.535  64.653  17.605  1.00  0.00     0.004 C 
ENDBRANCH   5   6
ENDBRANCH   1   5
TORSDOF 3
ENDMDL
MODEL 6
REMARK VINA RESULT:    -2.081     18.974     19.394
REMARK INTER + INTRA:          -2.586
REMARK INTER:                  -2.566
REMARK INTRA:                  -0.020
REMARK UNBOUND:                -0.140
REMARK SMILES CCCCC(=O)[O-]
REMARK SMILES IDX 4 1 5 2 6 3 7 4 3 5 2 6 1 7
REMARK H PARENT
REMARK Flexibility Score: inf
ROOT
ATOM      1  C   UNL     1      32.512  62.679  20.061  1.00  0.00     0.053 C 
ENDROOT
BRANCH   1   2
ATOM      2  C   UNL     1      32.689  61.501  20.965  1.00  0.00     0.041 C 
ATOM      3  O   UNL     1      32.413  60.342  20.558  1.00  0.00    -0.550 OA
ATOM      4  O   UNL     1      33.112  61.688  22.276  1.00  0.00    -0.550 OA
ENDBRANCH   1   2
BRANCH   1   5
ATOM      5  C   UNL     1      33.124  62.396  18.686  1.00  0.00     0.006 C 
BRANCH   5   6
ATOM      6  C   UNL     1      32.729  63.479  17.676  1.00  0.00    -0.003 C 
ATOM      7  C   UNL     1      32.714  62.927  16.253  1.00  0.00     0.004 C 
ENDBRANCH   5   6
ENDBRANCH   1   5
TORSDOF 3
ENDMDL
MODEL 7
REMARK VINA RESULT:    -2.045      2.221      3.590
REMARK INTER + INTRA:          -2.543
REMARK INTER:                  -2.487
REMARK INTRA:                  -0.055
REMARK UNBOUND:                -0.140
REMARK SMILES CCCCC(=O)[O-]
REMARK SMILES IDX 4 1 5 2 6 3 7 4 3 5 2 6 1 7
REMARK H PARENT
REMARK Flexibility Score: inf
ROOT
ATOM      1  C   UNL     1      14.344  64.853  15.361  1.00  0.00     0.053 C 
ENDROOT
BRANCH   1   2
ATOM      2  C   UNL     1      14.329  64.722  16.851  1.00  0.00     0.041 C 
ATOM      3  O   UNL     1      13.289  65.003  17.502  1.00  0.00    -0.550 OA
ATOM      4  O   UNL     1      15.480  64.334  17.525  1.00  0.00    -0.550 OA
ENDBRANCH   1   2
BRANCH   1   5
ATOM      5  C   UNL     1      12.970  64.509  14.778  1.00  0.00     0.006 C 
BRANCH   5   6
ATOM      6  C   UNL     1      12.875  63.019  14.437  1.00  0.00    -0.003 C 
ATOM      7  C   UNL     1      13.105  62.777  12.948  1.00  0.00     0.004 C 
ENDBRANCH   5   6
ENDBRANCH   1   5
TORSDOF 3
ENDMDL
MODEL 8
REMARK VINA RESULT:    -1.978     18.020     18.549
REMARK INTER + INTRA:          -2.465
REMARK INTER:                  -2.445
REMARK INTRA:                  -0.020
REMARK UNBOUND:                -0.140
REMARK SMILES CCCCC(=O)[O-]
REMARK SMILES IDX 4 1 5 2 6 3 7 4 3 5 2 6 1 7
REMARK H PARENT
REMARK Flexibility Score: inf
ROOT
ATOM      1  C   UNL     1      33.005  63.223  18.571  1.00  0.00     0.053 C 
ENDROOT
BRANCH   1   2
ATOM      2  C   UNL     1      32.276  63.708  17.358  1.00  0.00     0.041 C 
ATOM      3  O   UNL     1      32.593  63.284  16.216  1.00  0.00    -0.550 OA
ATOM      4  O   UNL     1      31.277  64.666  17.484  1.00  0.00    -0.550 OA
ENDBRANCH   1   2
BRANCH   1   5
ATOM      5  C   UNL     1      32.056  63.138  19.769  1.00  0.00     0.006 C 
BRANCH   5   6
ATOM      6  C   UNL     1      32.679  62.322  20.906  1.00  0.00    -0.003 C 
ATOM      7  C   UNL     1      32.282  60.851  20.813  1.00  0.00     0.004 C 
ENDBRANCH   5   6
ENDBRANCH   1   5
TORSDOF 3
ENDMDL
MODEL 9
REMARK VINA RESULT:    -1.959     17.913     18.899
REMARK INTER + INTRA:          -2.442
REMARK INTER:                  -2.399
REMARK INTRA:                  -0.043
REMARK UNBOUND:                -0.140
REMARK SMILES CCCCC(=O)[O-]
REMARK SMILES IDX 4 1 5 2 6 3 7 4 3 5 2 6 1 7
REMARK H PARENT
REMARK Flexibility Score: inf
ROOT
ATOM      1  C   UNL     1      32.259  62.524  20.062  1.00  0.00     0.053 C 
ENDROOT
BRANCH   1   2
ATOM      2  C   UNL     1      32.619  61.291  20.828  1.00  0.00     0.041 C 
ATOM      3  O   UNL     1      32.752  60.190  20.232  1.00  0.00    -0.550 OA
ATOM      4  O   UNL     1      32.759  61.347  22.210  1.00  0.00    -0.550 OA
ENDBRANCH   1   2
BRANCH   1   5
ATOM      5  C   UNL     1      32.291  63.752  20.977  1.00  0.00     0.006 C 
BRANCH   5   6
ATOM      6  C   UNL     1      31.552  64.932  20.337  1.00  0.00    -0.003 C 
ATOM      7  C   UNL     1      30.956  64.545  18.987  1.00  0.00     0.004 C 
ENDBRANCH   5   6
ENDBRANCH   1   5
TORSDOF 3
ENDMDL
