MODEL 1
REMARK VINA RESULT:     0.000      0.000      0.000
REMARK INTER + INTRA:          -0.577
REMARK INTER:                   0.000
REMARK INTRA:                  -0.577
REMARK UNBOUND:                -0.577
REMARK SMILES CC1=CCC[C@H](C)C(=O)C[C@H](C(C)C)C(=O)C1
REMARK SMILES IDX 8 1 9 2 6 3 7 4 5 5 4 6 3 7 2 8 1 9 10 11 11 12 15 13 16 14
REMARK SMILES IDX 17 15 12 17 13 18 14 19
REMARK H PARENT
REMARK Flexibility Score: 70.00
ROOT
ATOM      1  C   UNL     1      39.245  19.250  32.356  1.00  0.00     0.136 C 
ATOM      2  O   UNL     1      38.710  19.230  33.455  1.00  0.00    -0.299 OA
ENDROOT
BRANCH   1   3
ATOM      3  C   UNL     1      40.339  18.240  32.057  1.00  0.00     0.053 C 
ATOM      4  C   UNL     1      41.470  18.362  33.083  1.00  0.00     0.016 C 
BRANCH   3   5
ATOM      5  C   UNL     1      39.808  16.793  31.996  1.00  0.00     0.015 C 
BRANCH   5   6
ATOM      6  C   UNL     1      38.903  16.562  30.772  1.00  0.00     0.028 C 
BRANCH   6   7
ATOM      7  C   UNL     1      39.665  16.559  29.470  1.00  0.00    -0.028 C 
ATOM      8  C   UNL     1      39.627  17.534  28.525  1.00  0.00    -0.070 CG0
ATOM      9  C   UNL     1      40.557  17.385  27.345  1.00  0.00     0.039 C 
ATOM     10  G   UNL     1      38.669  18.721  28.551  1.00  0.00     0.000 G0
ENDBRANCH   6   7
ENDBRANCH   5   6
ENDBRANCH   3   5
ENDBRANCH   1   3
BRANCH   1  11
ATOM     11  C   UNL     1      38.746  20.234  31.320  1.00  0.00     0.087 C 
BRANCH  11  12
ATOM     12  C   UNL     1      39.783  20.500  30.193  1.00  0.00     0.066 C 
BRANCH  12  13
ATOM     13  C   UNL     1      39.315  20.058  28.809  1.00  0.00     0.140 C 
ATOM     14  O   UNL     1      39.359  20.867  27.893  1.00  0.00    -0.299 OA
BRANCH  13  15
ATOM     15  C   UNL     1      38.659  18.721  28.558  1.00  0.00     0.106 CG0
ATOM     16  G   UNL     1      39.627  17.542  28.514  1.00  0.00     0.000 G0
ENDBRANCH  13  15
ENDBRANCH  12  13
BRANCH  12  17
ATOM     17  C   UNL     1      40.314  21.971  30.164  1.00  0.00    -0.006 C 
ATOM     18  C   UNL     1      41.787  22.047  30.601  1.00  0.00     0.008 C 
ATOM     19  C   UNL     1      39.479  22.961  30.995  1.00  0.00     0.008 C 
ENDBRANCH  12  17
ENDBRANCH  11  12
ENDBRANCH   1  11
TORSDOF 1
ENDMDL
MODEL 2
REMARK VINA RESULT:     0.000      1.906      2.368
REMARK INTER + INTRA:          -0.577
REMARK INTER:                   0.000
REMARK INTRA:                  -0.577
REMARK UNBOUND:                -0.577
REMARK SMILES CC1=CCC[C@H](C)C(=O)C[C@H](C(C)C)C(=O)C1
REMARK SMILES IDX 8 1 9 2 6 3 7 4 5 5 4 6 3 7 2 8 1 9 10 11 11 12 15 13 16 14
REMARK SMILES IDX 17 15 12 17 13 18 14 19
REMARK H PARENT
REMARK Flexibility Score: 70.00
ROOT
ATOM      1  C   UNL     1      40.580  18.164  32.266  1.00  0.00     0.136 C 
ATOM      2  O   UNL     1      40.178  18.643  33.316  1.00  0.00    -0.299 OA
ENDROOT
BRANCH   1   3
ATOM      3  C   UNL     1      41.278  16.815  32.298  1.00  0.00     0.053 C 
ATOM      4  C   UNL     1      42.490  16.866  33.235  1.00  0.00     0.016 C 
BRANCH   3   5
ATOM      5  C   UNL     1      40.328  15.666  32.693  1.00  0.00     0.015 C 
BRANCH   5   6
ATOM      6  C   UNL     1      39.277  15.386  31.603  1.00  0.00     0.028 C 
BRANCH   6   7
ATOM      7  C   UNL     1      39.867  14.753  30.368  1.00  0.00    -0.028 C 
ATOM      8  C   UNL     1      40.034  15.361  29.165  1.00  0.00    -0.070 CG0
ATOM      9  C   UNL     1      40.751  14.579  28.090  1.00  0.00     0.039 C 
ATOM     10  G   UNL     1      39.492  16.744  28.818  1.00  0.00     0.000 G0
ENDBRANCH   6   7
ENDBRANCH   5   6
ENDBRANCH   3   5
ENDBRANCH   1   3
BRANCH   1  11
ATOM     11  C   UNL     1      40.304  18.902  30.974  1.00  0.00     0.087 C 
BRANCH  11  12
ATOM     12  C   UNL     1      41.255  18.473  29.820  1.00  0.00     0.066 C 
BRANCH  12  13
ATOM     13  C   UNL     1      40.538  17.816  28.644  1.00  0.00     0.140 C 
ATOM     14  O   UNL     1      40.735  18.258  27.521  1.00  0.00    -0.299 OA
BRANCH  13  15
ATOM     15  C   UNL     1      39.482  16.749  28.824  1.00  0.00     0.106 CG0
ATOM     16  G   UNL     1      40.035  15.366  29.151  1.00  0.00     0.000 G0
ENDBRANCH  13  15
ENDBRANCH  12  13
BRANCH  12  17
ATOM     17  C   UNL     1      42.204  19.617  29.332  1.00  0.00    -0.006 C 
ATOM     18  C   UNL     1      43.666  19.341  29.724  1.00  0.00     0.008 C 
ATOM     19  C   UNL     1      41.798  21.022  29.811  1.00  0.00     0.008 C 
ENDBRANCH  12  17
ENDBRANCH  11  12
ENDBRANCH   1  11
TORSDOF 1
ENDMDL
MODEL 3
REMARK VINA RESULT:     0.010     14.249     16.250
REMARK INTER + INTRA:          -0.561
REMARK INTER:                   0.000
REMARK INTRA:                  -0.561
REMARK UNBOUND:                -0.577
REMARK SMILES CC1=CCC[C@H](C)C(=O)C[C@H](C(C)C)C(=O)C1
REMARK SMILES IDX 8 1 9 2 6 3 7 4 5 5 4 6 3 7 2 8 1 9 10 11 11 12 15 13 16 14
REMARK SMILES IDX 17 15 12 17 13 18 14 19
REMARK H PARENT
REMARK Flexibility Score: 70.00
ROOT
ATOM      1  C   UNL     1      27.939  24.832  19.387  1.00  0.00     0.136 C 
ATOM      2  O   UNL     1      27.587  24.476  18.272  1.00  0.00    -0.299 OA
ENDROOT
BRANCH   1   3
ATOM      3  C   UNL     1      27.572  26.229  19.857  1.00  0.00     0.053 C 
ATOM      4  C   UNL     1      28.026  27.272  18.830  1.00  0.00     0.016 C 
BRANCH   3   5
ATOM      5  C   UNL     1      26.067  26.377  20.160  1.00  0.00     0.015 C 
BRANCH   5   6
ATOM      6  C   UNL     1      25.622  25.474  21.324  1.00  0.00     0.028 C 
BRANCH   6   7
ATOM      7  C   UNL     1      26.048  26.001  22.672  1.00  0.00    -0.028 C 
ATOM      8  C   UNL     1      27.001  25.456  23.473  1.00  0.00    -0.070 CG0
ATOM      9  C   UNL     1      27.354  26.209  24.733  1.00  0.00     0.039 C 
ATOM     10  G   UNL     1      27.681  24.116  23.212  1.00  0.00     0.000 G0
ENDBRANCH   6   7
ENDBRANCH   5   6
ENDBRANCH   3   5
ENDBRANCH   1   3
BRANCH   1  11
ATOM     11  C   UNL     1      28.663  23.843  20.273  1.00  0.00     0.087 C 
BRANCH  11  12
ATOM     12  C   UNL     1      29.542  24.534  21.355  1.00  0.00     0.066 C 
BRANCH  12  13
ATOM     13  C   UNL     1      29.126  24.207  22.786  1.00  0.00     0.140 C 
ATOM     14  O   UNL     1      29.995  23.887  23.586  1.00  0.00    -0.299 OA
BRANCH  13  15
ATOM     15  C   UNL     1      27.681  24.110  23.216  1.00  0.00     0.106 CG0
ATOM     16  G   UNL     1      27.004  25.457  23.455  1.00  0.00     0.000 G0
ENDBRANCH  13  15
ENDBRANCH  12  13
BRANCH  12  17
ATOM     17  C   UNL     1      31.077  24.313  21.150  1.00  0.00    -0.006 C 
ATOM     18  C   UNL     1      31.821  25.650  20.990  1.00  0.00     0.008 C 
ATOM     19  C   UNL     1      31.430  23.383  19.976  1.00  0.00     0.008 C 
ENDBRANCH  12  17
ENDBRANCH  11  12
ENDBRANCH   1  11
TORSDOF 1
ENDMDL
MODEL 4
REMARK VINA RESULT:     0.010     13.604     15.792
REMARK INTER + INTRA:          -0.561
REMARK INTER:                   0.000
REMARK INTRA:                  -0.561
REMARK UNBOUND:                -0.577
REMARK SMILES CC1=CCC[C@H](C)C(=O)C[C@H](C(C)C)C(=O)C1
REMARK SMILES IDX 8 1 9 2 6 3 7 4 5 5 4 6 3 7 2 8 1 9 10 11 11 12 15 13 16 14
REMARK SMILES IDX 17 15 12 17 13 18 14 19
REMARK H PARENT
REMARK Flexibility Score: 70.00
ROOT
ATOM      1  C   UNL     1      27.720  23.230  19.117  1.00  0.00     0.136 C 
ATOM      2  O   UNL     1      26.940  22.940  18.221  1.00  0.00    -0.299 OA
ENDROOT
BRANCH   1   3
ATOM      3  C   UNL     1      28.073  24.691  19.333  1.00  0.00     0.053 C 
ATOM      4  C   UNL     1      28.558  25.320  18.022  1.00  0.00     0.016 C 
BRANCH   3   5
ATOM      5  C   UNL     1      26.905  25.501  19.931  1.00  0.00     0.015 C 
BRANCH   5   6
ATOM      6  C   UNL     1      26.523  25.009  21.339  1.00  0.00     0.028 C 
BRANCH   6   7
ATOM      7  C   UNL     1      27.503  25.445  22.400  1.00  0.00    -0.028 C 
ATOM      8  C   UNL     1      28.369  24.636  23.062  1.00  0.00    -0.070 CG0
ATOM      9  C   UNL     1      29.344  25.297  24.007  1.00  0.00     0.039 C 
ATOM     10  G   UNL     1      28.374  23.114  22.960  1.00  0.00     0.000 G0
ENDBRANCH   6   7
ENDBRANCH   5   6
ENDBRANCH   3   5
ENDBRANCH   1   3
BRANCH   1  11
ATOM     11  C   UNL     1      28.243  22.129  20.013  1.00  0.00     0.087 C 
BRANCH  11  12
ATOM     12  C   UNL     1      29.600  22.489  20.682  1.00  0.00     0.066 C 
BRANCH  12  13
ATOM     13  C   UNL     1      29.544  22.529  22.206  1.00  0.00     0.140 C 
ATOM     14  O   UNL     1      30.422  21.958  22.837  1.00  0.00    -0.299 OA
BRANCH  13  15
ATOM     15  C   UNL     1      28.373  23.109  22.965  1.00  0.00     0.106 CG0
ATOM     16  G   UNL     1      28.367  24.633  23.045  1.00  0.00     0.000 G0
ENDBRANCH  13  15
ENDBRANCH  12  13
BRANCH  12  17
ATOM     17  C   UNL     1      30.796  21.611  20.185  1.00  0.00    -0.006 C 
ATOM     18  C   UNL     1      31.908  22.474  19.564  1.00  0.00     0.008 C 
ATOM     19  C   UNL     1      30.396  20.498  19.201  1.00  0.00     0.008 C 
ENDBRANCH  12  17
ENDBRANCH  11  12
ENDBRANCH   1  11
TORSDOF 1
ENDMDL
MODEL 5
REMARK VINA RESULT:     0.023      9.868     12.434
REMARK INTER + INTRA:          -0.543
REMARK INTER:                   0.000
REMARK INTRA:                  -0.543
REMARK UNBOUND:                -0.577
REMARK SMILES CC1=CCC[C@H](C)C(=O)C[C@H](C(C)C)C(=O)C1
REMARK SMILES IDX 8 1 9 2 6 3 7 4 5 5 4 6 3 7 2 8 1 9 10 11 11 12 15 13 16 14
REMARK SMILES IDX 17 15 12 17 13 18 14 19
REMARK H PARENT
REMARK Flexibility Score: 70.00
ROOT
ATOM      1  C   UNL     1      39.952  23.564  18.131  1.00  0.00     0.136 C 
ATOM      2  O   UNL     1      38.910  23.553  17.492  1.00  0.00    -0.299 OA
ENDROOT
BRANCH   1   3
ATOM      3  C   UNL     1      40.515  24.899  18.587  1.00  0.00     0.053 C 
ATOM      4  C   UNL     1      40.666  25.848  17.394  1.00  0.00     0.016 C 
BRANCH   3   5
ATOM      5  C   UNL     1      39.670  25.548  19.702  1.00  0.00     0.015 C 
BRANCH   5   6
ATOM      6  C   UNL     1      39.454  24.596  20.891  1.00  0.00     0.028 C 
BRANCH   6   7
ATOM      7  C   UNL     1      40.587  24.632  21.886  1.00  0.00    -0.028 C 
ATOM      8  C   UNL     1      41.513  23.655  22.072  1.00  0.00    -0.070 CG0
ATOM      9  C   UNL     1      42.633  23.943  23.043  1.00  0.00     0.039 C 
ATOM     10  G   UNL     1      41.455  22.279  21.417  1.00  0.00     0.000 G0
ENDBRANCH   6   7
ENDBRANCH   5   6
ENDBRANCH   3   5
ENDBRANCH   1   3
BRANCH   1  11
ATOM     11  C   UNL     1      40.597  22.245  18.496  1.00  0.00     0.087 C 
BRANCH  11  12
ATOM     12  C   UNL     1      42.110  22.385  18.827  1.00  0.00     0.066 C 
BRANCH  12  13
ATOM     13  C   UNL     1      42.451  22.090  20.285  1.00  0.00     0.140 C 
ATOM     14  O   UNL     1      43.528  21.566  20.537  1.00  0.00    -0.299 OA
BRANCH  13  15
ATOM     15  C   UNL     1      41.459  22.274  21.410  1.00  0.00     0.106 CG0
ATOM     16  G   UNL     1      41.514  23.643  22.079  1.00  0.00     0.000 G0
ENDBRANCH  13  15
ENDBRANCH  12  13
BRANCH  12  17
ATOM     17  C   UNL     1      43.040  21.583  17.858  1.00  0.00    -0.006 C 
ATOM     18  C   UNL     1      43.371  22.396  16.594  1.00  0.00     0.008 C 
ATOM     19  C   UNL     1      42.493  20.203  17.454  1.00  0.00     0.008 C 
ENDBRANCH  12  17
ENDBRANCH  11  12
ENDBRANCH   1  11
TORSDOF 1
ENDMDL
MODEL 6
REMARK VINA RESULT:     0.035      8.840     10.861
REMARK INTER + INTRA:          -0.524
REMARK INTER:                   0.000
REMARK INTRA:                  -0.524
REMARK UNBOUND:                -0.577
REMARK SMILES CC1=CCC[C@H](C)C(=O)C[C@H](C(C)C)C(=O)C1
REMARK SMILES IDX 8 1 9 2 6 3 7 4 5 5 4 6 3 7 2 8 1 9 10 11 11 12 15 13 16 14
REMARK SMILES IDX 17 15 12 17 13 18 14 19
REMARK H PARENT
REMARK Flexibility Score: 70.00
ROOT
ATOM      1  C   UNL     1      29.145  19.614  26.695  1.00  0.00     0.136 C 
ATOM      2  O   UNL     1      28.462  20.388  27.350  1.00  0.00    -0.299 OA
ENDROOT
BRANCH   1   3
ATOM      3  C   UNL     1      28.617  19.127  25.357  1.00  0.00     0.053 C 
ATOM      4  C   UNL     1      27.193  18.582  25.515  1.00  0.00     0.016 C 
BRANCH   3   5
ATOM      5  C   UNL     1      28.670  20.216  24.267  1.00  0.00     0.015 C 
BRANCH   5   6
ATOM      6  C   UNL     1      29.900  20.059  23.355  1.00  0.00     0.028 C 
BRANCH   6   7
ATOM      7  C   UNL     1      30.993  21.051  23.668  1.00  0.00    -0.028 C 
ATOM      8  C   UNL     1      32.272  20.745  24.005  1.00  0.00    -0.070 CG0
ATOM      9  C   UNL     1      33.237  21.895  24.167  1.00  0.00     0.039 C 
ATOM     10  G   UNL     1      32.771  19.331  24.291  1.00  0.00     0.000 G0
ENDBRANCH   6   7
ENDBRANCH   5   6
ENDBRANCH   3   5
ENDBRANCH   1   3
BRANCH   1  11
ATOM     11  C   UNL     1      30.514  19.232  27.214  1.00  0.00     0.087 C 
BRANCH  11  12
ATOM     12  C   UNL     1      31.282  18.285  26.247  1.00  0.00     0.066 C 
BRANCH  12  13
ATOM     13  C   UNL     1      32.589  18.871  25.722  1.00  0.00     0.140 C 
ATOM     14  O   UNL     1      33.488  19.098  26.519  1.00  0.00    -0.299 OA
BRANCH  13  15
ATOM     15  C   UNL     1      32.764  19.325  24.291  1.00  0.00     0.106 CG0
ATOM     16  G   UNL     1      32.276  20.744  24.016  1.00  0.00     0.000 G0
ENDBRANCH  13  15
ENDBRANCH  12  13
BRANCH  12  17
ATOM     17  C   UNL     1      31.500  16.847  26.822  1.00  0.00    -0.006 C 
ATOM     18  C   UNL     1      30.652  15.806  26.071  1.00  0.00     0.008 C 
ATOM     19  C   UNL     1      31.245  16.725  28.335  1.00  0.00     0.008 C 
ENDBRANCH  12  17
ENDBRANCH  11  12
ENDBRANCH   1  11
TORSDOF 1
ENDMDL
MODEL 7
REMARK VINA RESULT:     0.035      7.895      9.894
REMARK INTER + INTRA:          -0.524
REMARK INTER:                   0.000
REMARK INTRA:                  -0.524
REMARK UNBOUND:                -0.577
REMARK SMILES CC1=CCC[C@H](C)C(=O)C[C@H](C(C)C)C(=O)C1
REMARK SMILES IDX 8 1 9 2 6 3 7 4 5 5 4 6 3 7 2 8 1 9 10 11 11 12 15 13 16 14
REMARK SMILES IDX 17 15 12 17 13 18 14 19
REMARK H PARENT
REMARK Flexibility Score: 70.00
ROOT
ATOM      1  C   UNL     1      30.242  20.357  27.785  1.00  0.00     0.136 C 
ATOM      2  O   UNL     1      29.561  20.662  28.753  1.00  0.00    -0.299 OA
ENDROOT
BRANCH   1   3
ATOM      3  C   UNL     1      29.624  20.446  26.400  1.00  0.00     0.053 C 
ATOM      4  C   UNL     1      28.283  19.704  26.367  1.00  0.00     0.016 C 
BRANCH   3   5
ATOM      5  C   UNL     1      29.457  21.902  25.919  1.00  0.00     0.015 C 
BRANCH   5   6
ATOM      6  C   UNL     1      30.593  22.331  24.973  1.00  0.00     0.028 C 
BRANCH   6   7
ATOM      7  C   UNL     1      31.612  23.217  25.644  1.00  0.00    -0.028 C 
ATOM      8  C   UNL     1      32.944  22.967  25.740  1.00  0.00    -0.070 CG0
ATOM      9  C   UNL     1      33.805  24.043  26.354  1.00  0.00     0.039 C 
ATOM     10  G   UNL     1      33.603  21.653  25.330  1.00  0.00     0.000 G0
ENDBRANCH   6   7
ENDBRANCH   5   6
ENDBRANCH   3   5
ENDBRANCH   1   3
BRANCH   1  11
ATOM     11  C   UNL     1      31.688  19.971  28.003  1.00  0.00     0.087 C 
BRANCH  11  12
ATOM     12  C   UNL     1      32.437  19.662  26.675  1.00  0.00     0.066 C 
BRANCH  12  13
ATOM     13  C   UNL     1      33.619  20.588  26.405  1.00  0.00     0.140 C 
ATOM     14  O   UNL     1      34.571  20.556  27.171  1.00  0.00    -0.299 OA
BRANCH  13  15
ATOM     15  C   UNL     1      33.597  21.646  25.327  1.00  0.00     0.106 CG0
ATOM     16  G   UNL     1      32.949  22.962  25.749  1.00  0.00     0.000 G0
ENDBRANCH  13  15
ENDBRANCH  12  13
BRANCH  12  17
ATOM     17  C   UNL     1      32.851  18.161  26.525  1.00  0.00    -0.006 C 
ATOM     18  C   UNL     1      32.033  17.457  25.429  1.00  0.00     0.008 C 
ATOM     19  C   UNL     1      32.771  17.349  27.830  1.00  0.00     0.008 C 
ENDBRANCH  12  17
ENDBRANCH  11  12
ENDBRANCH   1  11
TORSDOF 1
ENDMDL
MODEL 8
REMARK VINA RESULT:     0.039      9.103     11.648
REMARK INTER + INTRA:          -0.518
REMARK INTER:                   0.000
REMARK INTRA:                  -0.518
REMARK UNBOUND:                -0.577
REMARK SMILES CC1=CCC[C@H](C)C(=O)C[C@H](C(C)C)C(=O)C1
REMARK SMILES IDX 8 1 9 2 6 3 7 4 5 5 4 6 3 7 2 8 1 9 10 11 11 12 15 13 16 14
REMARK SMILES IDX 17 15 12 17 13 18 14 19
REMARK H PARENT
REMARK Flexibility Score: 70.00
ROOT
ATOM      1  C   UNL     1      34.308  21.704  19.909  1.00  0.00     0.136 C 
ATOM      2  O   UNL     1      33.998  21.627  18.729  1.00  0.00    -0.299 OA
ENDROOT
BRANCH   1   3
ATOM      3  C   UNL     1      35.589  22.430  20.282  1.00  0.00     0.053 C 
ATOM      4  C   UNL     1      36.757  21.917  19.433  1.00  0.00     0.016 C 
BRANCH   3   5
ATOM      5  C   UNL     1      35.457  23.962  20.165  1.00  0.00     0.015 C 
BRANCH   5   6
ATOM      6  C   UNL     1      35.297  24.634  21.540  1.00  0.00     0.028 C 
BRANCH   6   7
ATOM      7  C   UNL     1      33.861  24.951  21.875  1.00  0.00    -0.028 C 
ATOM      8  C   UNL     1      33.153  24.431  22.911  1.00  0.00    -0.070 CG0
ATOM      9  C   UNL     1      31.761  24.970  23.135  1.00  0.00     0.039 C 
ATOM     10  G   UNL     1      33.649  23.302  23.811  1.00  0.00     0.000 G0
ENDBRANCH   6   7
ENDBRANCH   5   6
ENDBRANCH   3   5
ENDBRANCH   1   3
BRANCH   1  11
ATOM     11  C   UNL     1      33.367  21.134  20.948  1.00  0.00     0.087 C 
BRANCH  11  12
ATOM     12  C   UNL     1      33.993  21.095  22.371  1.00  0.00     0.066 C 
BRANCH  12  13
ATOM     13  C   UNL     1      33.228  21.918  23.403  1.00  0.00     0.140 C 
ATOM     14  O   UNL     1      32.159  21.489  23.814  1.00  0.00    -0.299 OA
BRANCH  13  15
ATOM     15  C   UNL     1      33.655  23.306  23.821  1.00  0.00     0.106 CG0
ATOM     16  G   UNL     1      33.152  24.421  22.908  1.00  0.00     0.000 G0
ENDBRANCH  13  15
ENDBRANCH  12  13
BRANCH  12  17
ATOM     17  C   UNL     1      34.266  19.647  22.896  1.00  0.00    -0.006 C 
ATOM     18  C   UNL     1      35.183  19.660  24.131  1.00  0.00     0.008 C 
ATOM     19  C   UNL     1      34.841  18.689  21.837  1.00  0.00     0.008 C 
ENDBRANCH  12  17
ENDBRANCH  11  12
ENDBRANCH   1  11
TORSDOF 1
ENDMDL
MODEL 9
REMARK VINA RESULT:     0.046     11.639     13.320
REMARK INTER + INTRA:          -0.507
REMARK INTER:                   0.000
REMARK INTRA:                  -0.507
REMARK UNBOUND:                -0.577
REMARK SMILES CC1=CCC[C@H](C)C(=O)C[C@H](C(C)C)C(=O)C1
REMARK SMILES IDX 8 1 9 2 6 3 7 4 5 5 4 6 3 7 2 8 1 9 10 11 11 12 15 13 16 14
REMARK SMILES IDX 17 15 12 17 13 18 14 19
REMARK H PARENT
REMARK Flexibility Score: 70.00
ROOT
ATOM      1  C   UNL     1      28.955  16.680  27.300  1.00  0.00     0.136 C 
ATOM      2  O   UNL     1      29.488  17.550  27.973  1.00  0.00    -0.299 OA
ENDROOT
BRANCH   1   3
ATOM      3  C   UNL     1      27.461  16.450  27.455  1.00  0.00     0.053 C 
ATOM      4  C   UNL     1      27.150  15.898  28.851  1.00  0.00     0.016 C 
BRANCH   3   5
ATOM      5  C   UNL     1      26.633  17.720  27.171  1.00  0.00     0.015 C 
BRANCH   5   6
ATOM      6  C   UNL     1      26.124  17.763  25.719  1.00  0.00     0.028 C 
BRANCH   6   7
ATOM      7  C   UNL     1      26.996  18.596  24.814  1.00  0.00    -0.028 C 
ATOM      8  C   UNL     1      27.650  18.151  23.710  1.00  0.00    -0.070 CG0
ATOM      9  C   UNL     1      28.380  19.179  22.880  1.00  0.00     0.039 C 
ATOM     10  G   UNL     1      27.744  16.685  23.299  1.00  0.00     0.000 G0
ENDBRANCH   6   7
ENDBRANCH   5   6
ENDBRANCH   3   5
ENDBRANCH   1   3
BRANCH   1  11
ATOM     11  C   UNL     1      29.792  15.919  26.295  1.00  0.00     0.087 C 
BRANCH  11  12
ATOM     12  C   UNL     1      28.935  15.229  25.197  1.00  0.00     0.066 C 
BRANCH  12  13
ATOM     13  C   UNL     1      28.955  15.954  23.854  1.00  0.00     0.140 C 
ATOM     14  O   UNL     1      30.021  16.057  23.263  1.00  0.00    -0.299 OA
BRANCH  13  15
ATOM     15  C   UNL     1      27.751  16.681  23.300  1.00  0.00     0.106 CG0
ATOM     16  G   UNL     1      27.659  18.148  23.708  1.00  0.00     0.000 G0
ENDBRANCH  13  15
ENDBRANCH  12  13
BRANCH  12  17
ATOM     17  C   UNL     1      29.251  13.707  25.019  1.00  0.00    -0.006 C 
ATOM     18  C   UNL     1      28.000  12.917  24.600  1.00  0.00     0.008 C 
ATOM     19  C   UNL     1      29.889  13.046  26.254  1.00  0.00     0.008 C 
ENDBRANCH  12  17
ENDBRANCH  11  12
ENDBRANCH   1  11
TORSDOF 1
ENDMDL
