MODEL 1
REMARK VINA RESULT:    -2.321      0.000      0.000
REMARK INTER + INTRA:          -5.130
REMARK INTER:                  -3.950
REMARK INTRA:                  -1.180
REMARK UNBOUND:                -1.180
REMARK SMILES CCCCCCCCCCCCCC(=O)[O-]
REMARK SMILES IDX 8 1 9 2 10 3 11 4 12 5 13 6 14 7 15 8 16 9 7 10 6 11 5 12
REMARK SMILES IDX 4 13 3 14 2 15 1 16
REMARK H PARENT
REMARK Flexibility Score: inf
ROOT
ATOM      1  C   UNL     1      -7.861  21.817  20.138  1.00  0.00     0.000 C 
ENDROOT
BRANCH   1   2
ATOM      2  C   UNL     1      -6.336  21.595  20.119  1.00  0.00     0.000 C 
BRANCH   2   3
ATOM      3  C   UNL     1      -5.886  20.186  19.694  1.00  0.00     0.000 C 
BRANCH   3   4
ATOM      4  C   UNL     1      -5.231  20.158  18.303  1.00  0.00     0.000 C 
BRANCH   4   5
ATOM      5  C   UNL     1      -3.722  19.876  18.364  1.00  0.00     0.006 C 
BRANCH   5   6
ATOM      6  C   UNL     1      -3.042  20.014  16.995  1.00  0.00     0.053 C 
BRANCH   6   7
ATOM      7  C   UNL     1      -1.672  20.595  17.150  1.00  0.00     0.041 C 
ATOM      8  O   UNL     1      -0.997  20.905  16.134  1.00  0.00    -0.550 OA
ATOM      9  O   UNL     1      -1.160  20.839  18.418  1.00  0.00    -0.550 OA
ENDBRANCH   6   7
ENDBRANCH   5   6
ENDBRANCH   4   5
ENDBRANCH   3   4
ENDBRANCH   2   3
ENDBRANCH   1   2
BRANCH   1  10
ATOM     10  C   UNL     1      -8.323  22.894  19.142  1.00  0.00     0.000 C 
BRANCH  10  11
ATOM     11  C   UNL     1      -9.102  22.312  17.948  1.00  0.00    -0.000 C 
BRANCH  11  12
ATOM     12  C   UNL     1      -9.050  20.780  17.807  1.00  0.00    -0.000 C 
BRANCH  12  13
ATOM     13  C   UNL     1      -8.181  20.313  16.627  1.00  0.00    -0.000 C 
BRANCH  13  14
ATOM     14  C   UNL     1      -7.356  21.456  16.014  1.00  0.00    -0.000 C 
BRANCH  14  15
ATOM     15  C   UNL     1      -7.016  21.215  14.535  1.00  0.00    -0.003 C 
ATOM     16  C   UNL     1      -5.630  20.597  14.385  1.00  0.00     0.004 C 
ENDBRANCH  14  15
ENDBRANCH  13  14
ENDBRANCH  12  13
ENDBRANCH  11  12
ENDBRANCH  10  11
ENDBRANCH   1  10
TORSDOF 12
ENDMDL
MODEL 2
REMARK VINA RESULT:    -0.376     13.674     17.388
REMARK INTER + INTRA:          -1.820
REMARK INTER:                  -1.831
REMARK INTRA:                   0.012
REMARK UNBOUND:                -1.180
REMARK SMILES CCCCCCCCCCCCCC(=O)[O-]
REMARK SMILES IDX 8 1 9 2 10 3 11 4 12 5 13 6 14 7 15 8 16 9 7 10 6 11 5 12
REMARK SMILES IDX 4 13 3 14 2 15 1 16
REMARK H PARENT
REMARK Flexibility Score: inf
ROOT
ATOM      1  C   UNL     1       9.709  24.799  11.188  1.00  0.00     0.000 C 
ENDROOT
BRANCH   1   2
ATOM      2  C   UNL     1       9.641  24.885   9.651  1.00  0.00     0.000 C 
BRANCH   2   3
ATOM      3  C   UNL     1      10.749  24.119   8.904  1.00  0.00     0.000 C 
BRANCH   3   4
ATOM      4  C   UNL     1      11.123  22.791   9.583  1.00  0.00     0.000 C 
BRANCH   4   5
ATOM      5  C   UNL     1      10.627  21.566   8.801  1.00  0.00     0.006 C 
BRANCH   5   6
ATOM      6  C   UNL     1      10.023  20.490   9.713  1.00  0.00     0.053 C 
BRANCH   6   7
ATOM      7  C   UNL     1       8.669  20.089   9.220  1.00  0.00     0.041 C 
ATOM      8  O   UNL     1       7.735  19.875  10.037  1.00  0.00    -0.550 OA
ATOM      9  O   UNL     1       8.425  19.998   7.855  1.00  0.00    -0.550 OA
ENDBRANCH   6   7
ENDBRANCH   5   6
ENDBRANCH   4   5
ENDBRANCH   3   4
ENDBRANCH   2   3
ENDBRANCH   1   2
BRANCH   1  10
ATOM     10  C   UNL     1      11.125  24.501  11.710  1.00  0.00     0.000 C 
BRANCH  10  11
ATOM     11  C   UNL     1      11.122  23.700  13.026  1.00  0.00    -0.000 C 
BRANCH  11  12
ATOM     12  C   UNL     1      10.750  22.212  12.894  1.00  0.00    -0.000 C 
BRANCH  12  13
ATOM     13  C   UNL     1       9.820  21.724  14.016  1.00  0.00    -0.000 C 
BRANCH  13  14
ATOM     14  C   UNL     1       9.305  20.295  13.776  1.00  0.00    -0.000 C 
BRANCH  14  15
ATOM     15  C   UNL     1       8.134  19.924  14.699  1.00  0.00    -0.003 C 
ATOM     16  C   UNL     1       6.795  20.140  14.001  1.00  0.00     0.004 C 
ENDBRANCH  14  15
ENDBRANCH  13  14
ENDBRANCH  12  13
ENDBRANCH  11  12
ENDBRANCH  10  11
ENDBRANCH   1  10
TORSDOF 12
ENDMDL
MODEL 3
REMARK VINA RESULT:     0.499      8.165     12.691
REMARK INTER + INTRA:          -0.331
REMARK INTER:                   0.015
REMARK INTRA:                  -0.346
REMARK UNBOUND:                -1.180
REMARK SMILES CCCCCCCCCCCCCC(=O)[O-]
REMARK SMILES IDX 8 1 9 2 10 3 11 4 12 5 13 6 14 7 15 8 16 9 7 10 6 11 5 12
REMARK SMILES IDX 4 13 3 14 2 15 1 16
REMARK H PARENT
REMARK Flexibility Score: inf
ROOT
ATOM      1  C   UNL     1       5.029  20.059  14.943  1.00  0.00     0.000 C 
ENDROOT
BRANCH   1   2
ATOM      2  C   UNL     1       3.992  20.380  16.036  1.00  0.00     0.000 C 
BRANCH   2   3
ATOM      3  C   UNL     1       2.565  19.876  15.752  1.00  0.00     0.000 C 
BRANCH   3   4
ATOM      4  C   UNL     1       1.484  20.924  16.068  1.00  0.00     0.000 C 
BRANCH   4   5
ATOM      5  C   UNL     1       0.069  20.326  16.088  1.00  0.00     0.006 C 
BRANCH   5   6
ATOM      6  C   UNL     1      -0.917  21.178  16.899  1.00  0.00     0.053 C 
BRANCH   6   7
ATOM      7  C   UNL     1      -1.573  20.350  17.958  1.00  0.00     0.041 C 
ATOM      8  O   UNL     1      -0.893  19.883  18.909  1.00  0.00    -0.550 OA
ATOM      9  O   UNL     1      -2.945  20.133  17.921  1.00  0.00    -0.550 OA
ENDBRANCH   6   7
ENDBRANCH   5   6
ENDBRANCH   4   5
ENDBRANCH   3   4
ENDBRANCH   2   3
ENDBRANCH   1   2
BRANCH   1  10
ATOM     10  C   UNL     1       6.478  20.281  15.407  1.00  0.00     0.000 C 
BRANCH  10  11
ATOM     11  C   UNL     1       7.504  20.119  14.270  1.00  0.00    -0.000 C 
BRANCH  11  12
ATOM     12  C   UNL     1       8.973  20.002  14.716  1.00  0.00    -0.000 C 
BRANCH  12  13
ATOM     13  C   UNL     1       9.936  20.814  13.832  1.00  0.00    -0.000 C 
BRANCH  13  14
ATOM     14  C   UNL     1       9.488  20.864  12.363  1.00  0.00    -0.000 C 
BRANCH  14  15
ATOM     15  C   UNL     1      10.305  19.925  11.462  1.00  0.00    -0.003 C 
ATOM     16  C   UNL     1      10.050  20.222   9.987  1.00  0.00     0.004 C 
ENDBRANCH  14  15
ENDBRANCH  13  14
ENDBRANCH  12  13
ENDBRANCH  11  12
ENDBRANCH  10  11
ENDBRANCH   1  10
TORSDOF 12
ENDMDL
