MODEL 1
REMARK VINA RESULT:    -7.078      0.000      0.000
REMARK INTER + INTRA:          -7.284
REMARK INTER:                  -7.284
REMARK INTRA:                   0.000
REMARK UNBOUND:                 0.000
REMARK SMILES CC1(C)CC[C@]2(C)CC[C@]3(C)C(=CC[C@@H]4[C@]5(C)CC[C@@H](O)C(C)(C)[C@H]5CC[C@@]43C)[C@H]2C1
REMARK SMILES IDX 1 1 2 2 4 3 5 4 6 5 8 6 9 7 10 8 12 9 13 10 14 11 15 12
REMARK SMILES IDX 28 13 27 14 26 15 25 16 16 17 18 18 19 19 20 20 22 21 23 22
REMARK SMILES IDX 24 23 17 24 29 25 30 26 31 27 11 28 7 29 3 30 21 31
REMARK H PARENT 21 32
REMARK Flexibility Score: inf
ROOT
ATOM      1  C   UNL     1     130.264 137.963 138.219  1.00  0.00     0.011 C 
ATOM      2  C   UNL     1     130.463 139.364 137.588  1.00  0.00    -0.035 C 
ATOM      3  C   UNL     1     130.483 139.263 136.043  1.00  0.00     0.007 C 
ATOM      4  C   UNL     1     131.776 138.639 135.498  1.00  0.00     0.008 C 
ATOM      5  C   UNL     1     133.062 139.349 136.003  1.00  0.00    -0.026 C 
ATOM      6  C   UNL     1     134.272 138.502 135.552  1.00  0.00     0.008 C 
ATOM      7  C   UNL     1     135.617 139.079 136.011  1.00  0.00     0.012 C 
ATOM      8  C   UNL     1     135.738 139.424 137.549  1.00  0.00    -0.006 C 
ATOM      9  C   UNL     1     134.402 139.971 138.084  1.00  0.00    -0.064 C 
ATOM     10  C   UNL     1     134.413 140.745 139.186  1.00  0.00    -0.027 C 
ATOM     11  C   UNL     1     135.622 140.978 140.039  1.00  0.00     0.032 C 
ATOM     12  C   UNL     1     137.038 140.790 139.386  1.00  0.00     0.006 C 
ATOM     13  C   UNL     1     136.933 140.485 137.827  1.00  0.00    -0.020 C 
ATOM     14  C   UNL     1     136.675 141.843 137.080  1.00  0.00     0.008 C 
ATOM     15  C   UNL     1     137.614 142.998 137.473  1.00  0.00     0.005 C 
ATOM     16  C   UNL     1     137.623 143.262 138.999  1.00  0.00     0.003 C 
ATOM     17  C   UNL     1     138.030 141.974 139.812  1.00  0.00    -0.025 C 
ATOM     18  C   UNL     1     137.943 142.238 141.376  1.00  0.00     0.010 C 
ATOM     19  C   UNL     1     137.686 143.702 141.753  1.00  0.00     0.033 C 
ATOM     20  C   UNL     1     138.620 144.649 140.984  1.00  0.00     0.120 C 
ATOM     21  C   UNL     1     138.338 144.614 139.434  1.00  0.00    -0.006 C 
ATOM     22  C   UNL     1     139.649 144.874 138.645  1.00  0.00     0.014 C 
ATOM     23  C   UNL     1     137.387 145.802 139.110  1.00  0.00     0.014 C 
ATOM     24  C   UNL     1     139.518 141.574 139.546  1.00  0.00     0.012 C 
ATOM     25  C   UNL     1     138.271 139.873 137.291  1.00  0.00     0.012 C 
ATOM     26  C   UNL     1     133.074 139.389 137.554  1.00  0.00     0.022 C 
ATOM     27  C   UNL     1     131.769 140.026 138.117  1.00  0.00     0.015 C 
ATOM     28  C   UNL     1     135.999 138.082 138.296  1.00  0.00     0.017 C 
ATOM     29  C   UNL     1     133.147 140.771 135.379  1.00  0.00     0.012 C 
ATOM     30  C   UNL     1     129.265 140.241 138.010  1.00  0.00     0.011 C 
ENDROOT
BRANCH  20  31
ATOM     31  O   UNL     1     139.956 144.334 141.282  1.00  0.00    -0.393 OA
ATOM     32  H   UNL     1     140.325 143.846 140.499  1.00  0.00     0.210 HD
ENDBRANCH  20  31
TORSDOF 1
ENDMDL
MODEL 2
REMARK VINA RESULT:    -7.042      4.341      7.553
REMARK INTER + INTRA:          -7.248
REMARK INTER:                  -7.248
REMARK INTRA:                   0.000
REMARK UNBOUND:                 0.000
REMARK SMILES CC1(C)CC[C@]2(C)CC[C@]3(C)C(=CC[C@@H]4[C@]5(C)CC[C@@H](O)C(C)(C)[C@H]5CC[C@@]43C)[C@H]2C1
REMARK SMILES IDX 1 1 2 2 4 3 5 4 6 5 8 6 9 7 10 8 12 9 13 10 14 11 15 12
REMARK SMILES IDX 28 13 27 14 26 15 25 16 16 17 18 18 19 19 20 20 22 21 23 22
REMARK SMILES IDX 24 23 17 24 29 25 30 26 31 27 11 28 7 29 3 30 21 31
REMARK H PARENT 21 32
REMARK Flexibility Score: inf
ROOT
ATOM      1  C   UNL     1     135.859 141.497 137.814  1.00  0.00     0.011 C 
ATOM      2  C   UNL     1     135.986 140.279 138.761  1.00  0.00    -0.035 C 
ATOM      3  C   UNL     1     135.040 140.437 139.977  1.00  0.00     0.007 C 
ATOM      4  C   UNL     1     135.524 141.494 140.981  1.00  0.00     0.008 C 
ATOM      5  C   UNL     1     136.981 141.259 141.467  1.00  0.00    -0.026 C 
ATOM      6  C   UNL     1     137.402 142.491 142.297  1.00  0.00     0.008 C 
ATOM      7  C   UNL     1     138.842 142.402 142.819  1.00  0.00     0.012 C 
ATOM      8  C   UNL     1     139.952 142.065 141.747  1.00  0.00    -0.006 C 
ATOM      9  C   UNL     1     139.410 141.066 140.707  1.00  0.00    -0.064 C 
ATOM     10  C   UNL     1     140.284 140.304 140.022  1.00  0.00    -0.027 C 
ATOM     11  C   UNL     1     141.771 140.476 140.074  1.00  0.00     0.032 C 
ATOM     12  C   UNL     1     142.395 141.170 141.337  1.00  0.00     0.006 C 
ATOM     13  C   UNL     1     141.293 141.477 142.446  1.00  0.00    -0.020 C 
ATOM     14  C   UNL     1     140.995 140.144 143.221  1.00  0.00     0.008 C 
ATOM     15  C   UNL     1     142.236 139.375 143.708  1.00  0.00     0.005 C 
ATOM     16  C   UNL     1     143.235 139.074 142.563  1.00  0.00     0.003 C 
ATOM     17  C   UNL     1     143.704 140.392 141.836  1.00  0.00    -0.025 C 
ATOM     18  C   UNL     1     144.652 140.056 140.606  1.00  0.00     0.010 C 
ATOM     19  C   UNL     1     145.063 138.581 140.513  1.00  0.00     0.033 C 
ATOM     20  C   UNL     1     145.544 138.049 141.872  1.00  0.00     0.120 C 
ATOM     21  C   UNL     1     144.384 138.042 142.939  1.00  0.00    -0.006 C 
ATOM     22  C   UNL     1     144.961 138.285 144.359  1.00  0.00     0.014 C 
ATOM     23  C   UNL     1     143.777 136.609 142.951  1.00  0.00     0.014 C 
ATOM     24  C   UNL     1     144.561 141.296 142.780  1.00  0.00     0.012 C 
ATOM     25  C   UNL     1     141.820 142.537 143.470  1.00  0.00     0.012 C 
ATOM     26  C   UNL     1     137.938 141.168 140.250  1.00  0.00     0.022 C 
ATOM     27  C   UNL     1     137.460 140.095 139.228  1.00  0.00     0.015 C 
ATOM     28  C   UNL     1     140.257 143.384 140.977  1.00  0.00     0.017 C 
ATOM     29  C   UNL     1     137.032 139.980 142.350  1.00  0.00     0.012 C 
ATOM     30  C   UNL     1     135.564 139.023 137.969  1.00  0.00     0.011 C 
ENDROOT
BRANCH  20  31
ATOM     31  O   UNL     1     146.650 138.800 142.304  1.00  0.00    -0.393 OA
ATOM     32  H   UNL     1     147.095 139.161 141.494  1.00  0.00     0.210 HD
ENDBRANCH  20  31
TORSDOF 1
ENDMDL
MODEL 3
REMARK VINA RESULT:    -6.726      6.492      9.813
REMARK INTER + INTRA:          -6.922
REMARK INTER:                  -6.922
REMARK INTRA:                   0.000
REMARK UNBOUND:                 0.000
REMARK SMILES CC1(C)CC[C@]2(C)CC[C@]3(C)C(=CC[C@@H]4[C@]5(C)CC[C@@H](O)C(C)(C)[C@H]5CC[C@@]43C)[C@H]2C1
REMARK SMILES IDX 1 1 2 2 4 3 5 4 6 5 8 6 9 7 10 8 12 9 13 10 14 11 15 12
REMARK SMILES IDX 28 13 27 14 26 15 25 16 16 17 18 18 19 19 20 20 22 21 23 22
REMARK SMILES IDX 24 23 17 24 29 25 30 26 31 27 11 28 7 29 3 30 21 31
REMARK H PARENT 21 32
REMARK Flexibility Score: inf
ROOT
ATOM      1  C   UNL     1     137.529 142.527 140.589  1.00  0.00     0.011 C 
ATOM      2  C   UNL     1     138.240 142.819 141.934  1.00  0.00    -0.035 C 
ATOM      3  C   UNL     1     139.352 143.879 141.740  1.00  0.00     0.007 C 
ATOM      4  C   UNL     1     140.583 143.331 141.005  1.00  0.00     0.008 C 
ATOM      5  C   UNL     1     141.174 142.054 141.663  1.00  0.00    -0.026 C 
ATOM      6  C   UNL     1     142.262 141.500 140.717  1.00  0.00     0.008 C 
ATOM      7  C   UNL     1     142.914 140.213 141.235  1.00  0.00     0.012 C 
ATOM      8  C   UNL     1     141.927 139.055 141.664  1.00  0.00    -0.006 C 
ATOM      9  C   UNL     1     140.665 139.642 142.324  1.00  0.00    -0.064 C 
ATOM     10  C   UNL     1     139.950 138.865 143.160  1.00  0.00    -0.027 C 
ATOM     11  C   UNL     1     140.198 137.402 143.368  1.00  0.00     0.032 C 
ATOM     12  C   UNL     1     141.629 136.839 143.055  1.00  0.00     0.006 C 
ATOM     13  C   UNL     1     142.647 138.000 142.664  1.00  0.00    -0.020 C 
ATOM     14  C   UNL     1     143.121 138.701 143.987  1.00  0.00     0.008 C 
ATOM     15  C   UNL     1     143.589 137.750 145.103  1.00  0.00     0.005 C 
ATOM     16  C   UNL     1     142.526 136.681 145.457  1.00  0.00     0.003 C 
ATOM     17  C   UNL     1     142.115 135.827 144.198  1.00  0.00    -0.025 C 
ATOM     18  C   UNL     1     140.957 134.801 144.560  1.00  0.00     0.010 C 
ATOM     19  C   UNL     1     140.635 134.719 146.057  1.00  0.00     0.033 C 
ATOM     20  C   UNL     1     141.914 134.580 146.896  1.00  0.00     0.120 C 
ATOM     21  C   UNL     1     142.827 135.860 146.786  1.00  0.00    -0.006 C 
ATOM     22  C   UNL     1     144.322 135.467 146.916  1.00  0.00     0.014 C 
ATOM     23  C   UNL     1     142.502 136.766 148.010  1.00  0.00     0.014 C 
ATOM     24  C   UNL     1     143.301 134.944 143.691  1.00  0.00     0.012 C 
ATOM     25  C   UNL     1     143.905 137.413 141.938  1.00  0.00     0.012 C 
ATOM     26  C   UNL     1     140.075 140.967 141.794  1.00  0.00     0.022 C 
ATOM     27  C   UNL     1     138.823 141.511 142.544  1.00  0.00     0.015 C 
ATOM     28  C   UNL     1     141.457 138.352 140.356  1.00  0.00     0.017 C 
ATOM     29  C   UNL     1     141.802 142.423 143.037  1.00  0.00     0.012 C 
ATOM     30  C   UNL     1     137.184 143.384 142.908  1.00  0.00     0.011 C 
ENDROOT
BRANCH  20  31
ATOM     31  O   UNL     1     142.600 133.413 146.517  1.00  0.00    -0.393 OA
ATOM     32  H   UNL     1     142.365 133.229 145.570  1.00  0.00     0.210 HD
ENDBRANCH  20  31
TORSDOF 1
ENDMDL
MODEL 4
REMARK VINA RESULT:    -6.695      6.996      9.748
REMARK INTER + INTRA:          -6.891
REMARK INTER:                  -6.891
REMARK INTRA:                   0.000
REMARK UNBOUND:                 0.000
REMARK SMILES CC1(C)CC[C@]2(C)CC[C@]3(C)C(=CC[C@@H]4[C@]5(C)CC[C@@H](O)C(C)(C)[C@H]5CC[C@@]43C)[C@H]2C1
REMARK SMILES IDX 1 1 2 2 4 3 5 4 6 5 8 6 9 7 10 8 12 9 13 10 14 11 15 12
REMARK SMILES IDX 28 13 27 14 26 15 25 16 16 17 18 18 19 19 20 20 22 21 23 22
REMARK SMILES IDX 24 23 17 24 29 25 30 26 31 27 11 28 7 29 3 30 21 31
REMARK H PARENT 21 32
REMARK Flexibility Score: inf
ROOT
ATOM      1  C   UNL     1     136.620 141.860 141.024  1.00  0.00     0.011 C 
ATOM      2  C   UNL     1     137.668 142.069 142.145  1.00  0.00    -0.035 C 
ATOM      3  C   UNL     1     139.012 142.554 141.547  1.00  0.00     0.007 C 
ATOM      4  C   UNL     1     139.770 141.448 140.798  1.00  0.00     0.008 C 
ATOM      5  C   UNL     1     139.998 140.171 141.654  1.00  0.00    -0.026 C 
ATOM      6  C   UNL     1     140.577 139.082 140.725  1.00  0.00     0.008 C 
ATOM      7  C   UNL     1     140.826 137.749 141.441  1.00  0.00     0.012 C 
ATOM      8  C   UNL     1     139.613 137.166 142.270  1.00  0.00    -0.006 C 
ATOM      9  C   UNL     1     138.824 138.306 142.942  1.00  0.00    -0.064 C 
ATOM     10  C   UNL     1     138.085 138.028 144.033  1.00  0.00    -0.027 C 
ATOM     11  C   UNL     1     137.835 136.645 144.550  1.00  0.00     0.032 C 
ATOM     12  C   UNL     1     138.864 135.517 144.181  1.00  0.00     0.006 C 
ATOM     13  C   UNL     1     140.114 136.097 143.383  1.00  0.00    -0.020 C 
ATOM     14  C   UNL     1     141.088 136.765 144.418  1.00  0.00     0.008 C 
ATOM     15  C   UNL     1     141.423 135.908 145.652  1.00  0.00     0.005 C 
ATOM     16  C   UNL     1     140.156 135.424 146.400  1.00  0.00     0.003 C 
ATOM     17  C   UNL     1     139.198 134.603 145.454  1.00  0.00    -0.025 C 
ATOM     18  C   UNL     1     137.863 134.196 146.212  1.00  0.00     0.010 C 
ATOM     19  C   UNL     1     137.875 134.501 147.716  1.00  0.00     0.033 C 
ATOM     20  C   UNL     1     139.173 134.010 148.374  1.00  0.00     0.120 C 
ATOM     21  C   UNL     1     140.433 134.787 147.831  1.00  0.00    -0.006 C 
ATOM     22  C   UNL     1     141.679 133.861 147.839  1.00  0.00     0.014 C 
ATOM     23  C   UNL     1     140.734 135.938 148.834  1.00  0.00     0.014 C 
ATOM     24  C   UNL     1     139.847 133.251 145.012  1.00  0.00     0.012 C 
ATOM     25  C   UNL     1     140.884 134.947 142.650  1.00  0.00     0.012 C 
ATOM     26  C   UNL     1     138.643 139.647 142.197  1.00  0.00     0.022 C 
ATOM     27  C   UNL     1     137.868 140.759 142.964  1.00  0.00     0.015 C 
ATOM     28  C   UNL     1     138.645 136.498 141.250  1.00  0.00     0.017 C 
ATOM     29  C   UNL     1     141.006 140.487 142.796  1.00  0.00     0.012 C 
ATOM     30  C   UNL     1     137.129 143.160 143.094  1.00  0.00     0.011 C 
ENDROOT
BRANCH  20  31
ATOM     31  O   UNL     1     139.295 132.622 148.194  1.00  0.00    -0.393 OA
ATOM     32  H   UNL     1     140.188 132.358 148.538  1.00  0.00     0.210 HD
ENDBRANCH  20  31
TORSDOF 1
ENDMDL
MODEL 5
REMARK VINA RESULT:    -6.488      4.649      9.533
REMARK INTER + INTRA:          -6.677
REMARK INTER:                  -6.677
REMARK INTRA:                   0.000
REMARK UNBOUND:                 0.000
REMARK SMILES CC1(C)CC[C@]2(C)CC[C@]3(C)C(=CC[C@@H]4[C@]5(C)CC[C@@H](O)C(C)(C)[C@H]5CC[C@@]43C)[C@H]2C1
REMARK SMILES IDX 1 1 2 2 4 3 5 4 6 5 8 6 9 7 10 8 12 9 13 10 14 11 15 12
REMARK SMILES IDX 28 13 27 14 26 15 25 16 16 17 18 18 19 19 20 20 22 21 23 22
REMARK SMILES IDX 24 23 17 24 29 25 30 26 31 27 11 28 7 29 3 30 21 31
REMARK H PARENT 21 32
REMARK Flexibility Score: inf
ROOT
ATOM      1  C   UNL     1     144.874 138.411 145.786  1.00  0.00     0.011 C 
ATOM      2  C   UNL     1     144.477 137.681 144.479  1.00  0.00    -0.035 C 
ATOM      3  C   UNL     1     145.612 137.794 143.430  1.00  0.00     0.007 C 
ATOM      4  C   UNL     1     145.729 139.198 142.821  1.00  0.00     0.008 C 
ATOM      5  C   UNL     1     144.394 139.721 142.220  1.00  0.00    -0.026 C 
ATOM      6  C   UNL     1     144.602 141.202 141.836  1.00  0.00     0.008 C 
ATOM      7  C   UNL     1     143.344 141.855 141.252  1.00  0.00     0.012 C 
ATOM      8  C   UNL     1     142.019 141.695 142.097  1.00  0.00    -0.006 C 
ATOM      9  C   UNL     1     141.970 140.307 142.762  1.00  0.00    -0.064 C 
ATOM     10  C   UNL     1     140.774 139.797 143.112  1.00  0.00    -0.027 C 
ATOM     11  C   UNL     1     139.485 140.558 143.055  1.00  0.00     0.032 C 
ATOM     12  C   UNL     1     139.387 141.779 142.073  1.00  0.00     0.006 C 
ATOM     13  C   UNL     1     140.699 141.928 141.183  1.00  0.00    -0.020 C 
ATOM     14  C   UNL     1     140.620 140.876 140.018  1.00  0.00     0.008 C 
ATOM     15  C   UNL     1     139.289 140.850 139.246  1.00  0.00     0.005 C 
ATOM     16  C   UNL     1     138.067 140.655 140.178  1.00  0.00     0.003 C 
ATOM     17  C   UNL     1     137.992 141.775 141.284  1.00  0.00    -0.025 C 
ATOM     18  C   UNL     1     136.789 141.506 142.285  1.00  0.00     0.010 C 
ATOM     19  C   UNL     1     135.859 140.363 141.858  1.00  0.00     0.033 C 
ATOM     20  C   UNL     1     135.461 140.491 140.380  1.00  0.00     0.120 C 
ATOM     21  C   UNL     1     136.704 140.330 139.425  1.00  0.00    -0.006 C 
ATOM     22  C   UNL     1     136.512 141.188 138.146  1.00  0.00     0.014 C 
ATOM     23  C   UNL     1     136.739 138.846 138.958  1.00  0.00     0.014 C 
ATOM     24  C   UNL     1     137.701 143.180 140.662  1.00  0.00     0.012 C 
ATOM     25  C   UNL     1     140.782 143.359 140.553  1.00  0.00     0.012 C 
ATOM     26  C   UNL     1     143.274 139.671 143.292  1.00  0.00     0.022 C 
ATOM     27  C   UNL     1     143.143 138.249 143.913  1.00  0.00     0.015 C 
ATOM     28  C   UNL     1     142.088 142.738 143.252  1.00  0.00     0.017 C 
ATOM     29  C   UNL     1     144.035 138.889 140.956  1.00  0.00     0.012 C 
ATOM     30  C   UNL     1     144.268 136.190 144.820  1.00  0.00     0.011 C 
ENDROOT
BRANCH  20  31
ATOM     31  O   UNL     1     134.797 141.713 140.177  1.00  0.00    -0.393 OA
ATOM     32  H   UNL     1     134.121 141.566 139.465  1.00  0.00     0.210 HD
ENDBRANCH  20  31
TORSDOF 1
ENDMDL
MODEL 6
REMARK VINA RESULT:    -6.485      5.536     10.148
REMARK INTER + INTRA:          -6.674
REMARK INTER:                  -6.674
REMARK INTRA:                   0.000
REMARK UNBOUND:                 0.000
REMARK SMILES CC1(C)CC[C@]2(C)CC[C@]3(C)C(=CC[C@@H]4[C@]5(C)CC[C@@H](O)C(C)(C)[C@H]5CC[C@@]43C)[C@H]2C1
REMARK SMILES IDX 1 1 2 2 4 3 5 4 6 5 8 6 9 7 10 8 12 9 13 10 14 11 15 12
REMARK SMILES IDX 28 13 27 14 26 15 25 16 16 17 18 18 19 19 20 20 22 21 23 22
REMARK SMILES IDX 24 23 17 24 29 25 30 26 31 27 11 28 7 29 3 30 21 31
REMARK H PARENT 21 32
REMARK Flexibility Score: inf
ROOT
ATOM      1  C   UNL     1     147.346 138.495 143.955  1.00  0.00     0.011 C 
ATOM      2  C   UNL     1     146.258 138.971 144.948  1.00  0.00    -0.035 C 
ATOM      3  C   UNL     1     145.808 137.802 145.859  1.00  0.00     0.007 C 
ATOM      4  C   UNL     1     144.939 136.769 145.127  1.00  0.00     0.008 C 
ATOM      5  C   UNL     1     143.708 137.395 144.416  1.00  0.00    -0.026 C 
ATOM      6  C   UNL     1     143.051 136.291 143.559  1.00  0.00     0.008 C 
ATOM      7  C   UNL     1     141.829 136.784 142.775  1.00  0.00     0.012 C 
ATOM      8  C   UNL     1     142.036 138.091 141.910  1.00  0.00    -0.006 C 
ATOM      9  C   UNL     1     142.977 139.071 142.635  1.00  0.00    -0.064 C 
ATOM     10  C   UNL     1     142.910 140.381 142.328  1.00  0.00    -0.027 C 
ATOM     11  C   UNL     1     142.099 140.940 141.200  1.00  0.00     0.032 C 
ATOM     12  C   UNL     1     140.870 140.109 140.686  1.00  0.00     0.006 C 
ATOM     13  C   UNL     1     140.622 138.811 141.575  1.00  0.00    -0.020 C 
ATOM     14  C   UNL     1     139.881 139.253 142.888  1.00  0.00     0.008 C 
ATOM     15  C   UNL     1     138.657 140.163 142.677  1.00  0.00     0.005 C 
ATOM     16  C   UNL     1     138.992 141.425 141.845  1.00  0.00     0.003 C 
ATOM     17  C   UNL     1     139.598 141.052 140.438  1.00  0.00    -0.025 C 
ATOM     18  C   UNL     1     140.022 142.358 139.638  1.00  0.00     0.010 C 
ATOM     19  C   UNL     1     139.579 143.671 140.296  1.00  0.00     0.033 C 
ATOM     20  C   UNL     1     138.102 143.614 140.715  1.00  0.00     0.120 C 
ATOM     21  C   UNL     1     137.855 142.537 141.839  1.00  0.00    -0.006 C 
ATOM     22  C   UNL     1     136.433 141.932 141.700  1.00  0.00     0.014 C 
ATOM     23  C   UNL     1     137.885 143.281 143.206  1.00  0.00     0.014 C 
ATOM     24  C   UNL     1     138.545 140.338 139.529  1.00  0.00     0.012 C 
ATOM     25  C   UNL     1     139.714 137.786 140.816  1.00  0.00     0.012 C 
ATOM     26  C   UNL     1     144.166 138.521 143.452  1.00  0.00     0.022 C 
ATOM     27  C   UNL     1     145.043 139.577 144.187  1.00  0.00     0.015 C 
ATOM     28  C   UNL     1     142.766 137.660 140.604  1.00  0.00     0.017 C 
ATOM     29  C   UNL     1     142.701 137.910 145.483  1.00  0.00     0.012 C 
ATOM     30  C   UNL     1     146.880 140.073 145.832  1.00  0.00     0.011 C 
ENDROOT
BRANCH  20  31
ATOM     31  O   UNL     1     137.302 143.383 139.583  1.00  0.00    -0.393 OA
ATOM     32  H   UNL     1     137.296 142.403 139.422  1.00  0.00     0.210 HD
ENDBRANCH  20  31
TORSDOF 1
ENDMDL
MODEL 7
REMARK VINA RESULT:    -6.484      5.215      9.420
REMARK INTER + INTRA:          -6.674
REMARK INTER:                  -6.674
REMARK INTRA:                   0.000
REMARK UNBOUND:                 0.000
REMARK SMILES CC1(C)CC[C@]2(C)CC[C@]3(C)C(=CC[C@@H]4[C@]5(C)CC[C@@H](O)C(C)(C)[C@H]5CC[C@@]43C)[C@H]2C1
REMARK SMILES IDX 1 1 2 2 4 3 5 4 6 5 8 6 9 7 10 8 12 9 13 10 14 11 15 12
REMARK SMILES IDX 28 13 27 14 26 15 25 16 16 17 18 18 19 19 20 20 22 21 23 22
REMARK SMILES IDX 24 23 17 24 29 25 30 26 31 27 11 28 7 29 3 30 21 31
REMARK H PARENT 21 32
REMARK Flexibility Score: inf
ROOT
ATOM      1  C   UNL     1     145.645 139.211 134.228  1.00  0.00     0.011 C 
ATOM      2  C   UNL     1     144.868 140.550 134.269  1.00  0.00    -0.035 C 
ATOM      3  C   UNL     1     145.852 141.746 134.319  1.00  0.00     0.007 C 
ATOM      4  C   UNL     1     146.541 141.899 135.683  1.00  0.00     0.008 C 
ATOM      5  C   UNL     1     145.542 141.981 136.870  1.00  0.00    -0.026 C 
ATOM      6  C   UNL     1     146.363 141.924 138.177  1.00  0.00     0.008 C 
ATOM      7  C   UNL     1     145.492 141.968 139.439  1.00  0.00     0.012 C 
ATOM      8  C   UNL     1     144.302 140.930 139.500  1.00  0.00    -0.006 C 
ATOM      9  C   UNL     1     143.686 140.736 138.102  1.00  0.00    -0.064 C 
ATOM     10  C   UNL     1     142.417 140.294 138.009  1.00  0.00    -0.027 C 
ATOM     11  C   UNL     1     141.606 139.812 139.172  1.00  0.00     0.032 C 
ATOM     12  C   UNL     1     141.994 140.315 140.607  1.00  0.00     0.006 C 
ATOM     13  C   UNL     1     143.164 141.395 140.558  1.00  0.00    -0.020 C 
ATOM     14  C   UNL     1     142.536 142.776 140.151  1.00  0.00     0.008 C 
ATOM     15  C   UNL     1     141.281 143.186 140.942  1.00  0.00     0.005 C 
ATOM     16  C   UNL     1     140.174 142.104 140.902  1.00  0.00     0.003 C 
ATOM     17  C   UNL     1     140.691 140.719 141.448  1.00  0.00    -0.025 C 
ATOM     18  C   UNL     1     139.572 139.600 141.312  1.00  0.00     0.010 C 
ATOM     19  C   UNL     1     138.200 140.133 140.879  1.00  0.00     0.033 C 
ATOM     20  C   UNL     1     137.794 141.363 141.704  1.00  0.00     0.120 C 
ATOM     21  C   UNL     1     138.759 142.582 141.448  1.00  0.00    -0.006 C 
ATOM     22  C   UNL     1     138.878 143.451 142.728  1.00  0.00     0.014 C 
ATOM     23  C   UNL     1     138.091 143.481 140.367  1.00  0.00     0.014 C 
ATOM     24  C   UNL     1     141.016 140.790 142.976  1.00  0.00     0.012 C 
ATOM     25  C   UNL     1     143.833 141.551 141.965  1.00  0.00     0.012 C 
ATOM     26  C   UNL     1     144.601 140.748 136.858  1.00  0.00     0.022 C 
ATOM     27  C   UNL     1     143.892 140.586 135.481  1.00  0.00     0.015 C 
ATOM     28  C   UNL     1     144.916 139.558 139.908  1.00  0.00     0.017 C 
ATOM     29  C   UNL     1     144.756 143.320 136.794  1.00  0.00     0.012 C 
ATOM     30  C   UNL     1     144.038 140.649 132.971  1.00  0.00     0.011 C 
ENDROOT
BRANCH  20  31
ATOM     31  O   UNL     1     137.736 141.017 143.065  1.00  0.00    -0.393 OA
ATOM     32  H   UNL     1     137.332 140.112 143.122  1.00  0.00     0.210 HD
ENDBRANCH  20  31
TORSDOF 1
ENDMDL
MODEL 8
REMARK VINA RESULT:    -6.483      7.042     12.051
REMARK INTER + INTRA:          -6.673
REMARK INTER:                  -6.673
REMARK INTRA:                   0.000
REMARK UNBOUND:                 0.000
REMARK SMILES CC1(C)CC[C@]2(C)CC[C@]3(C)C(=CC[C@@H]4[C@]5(C)CC[C@@H](O)C(C)(C)[C@H]5CC[C@@]43C)[C@H]2C1
REMARK SMILES IDX 1 1 2 2 4 3 5 4 6 5 8 6 9 7 10 8 12 9 13 10 14 11 15 12
REMARK SMILES IDX 28 13 27 14 26 15 25 16 16 17 18 18 19 19 20 20 22 21 23 22
REMARK SMILES IDX 24 23 17 24 29 25 30 26 31 27 11 28 7 29 3 30 21 31
REMARK H PARENT 21 32
REMARK Flexibility Score: inf
ROOT
ATOM      1  C   UNL     1     147.284 140.413 146.618  1.00  0.00     0.011 C 
ATOM      2  C   UNL     1     147.456 139.171 145.710  1.00  0.00    -0.035 C 
ATOM      3  C   UNL     1     148.417 139.487 144.536  1.00  0.00     0.007 C 
ATOM      4  C   UNL     1     147.786 140.398 143.473  1.00  0.00     0.008 C 
ATOM      5  C   UNL     1     146.435 139.861 142.926  1.00  0.00    -0.026 C 
ATOM      6  C   UNL     1     145.821 140.961 142.033  1.00  0.00     0.008 C 
ATOM      7  C   UNL     1     144.460 140.570 141.445  1.00  0.00     0.012 C 
ATOM      8  C   UNL     1     143.382 140.041 142.472  1.00  0.00    -0.006 C 
ATOM      9  C   UNL     1     144.057 139.199 143.572  1.00  0.00    -0.064 C 
ATOM     10  C   UNL     1     143.317 138.293 144.240  1.00  0.00    -0.027 C 
ATOM     11  C   UNL     1     141.831 138.159 144.109  1.00  0.00     0.032 C 
ATOM     12  C   UNL     1     141.151 138.681 142.794  1.00  0.00     0.006 C 
ATOM     13  C   UNL     1     142.227 139.177 141.730  1.00  0.00    -0.020 C 
ATOM     14  C   UNL     1     142.830 137.913 141.018  1.00  0.00     0.008 C 
ATOM     15  C   UNL     1     141.797 136.897 140.499  1.00  0.00     0.005 C 
ATOM     16  C   UNL     1     140.818 136.428 141.604  1.00  0.00     0.003 C 
ATOM     17  C   UNL     1     140.054 137.641 142.260  1.00  0.00    -0.025 C 
ATOM     18  C   UNL     1     139.126 137.151 143.452  1.00  0.00     0.010 C 
ATOM     19  C   UNL     1     139.016 135.626 143.577  1.00  0.00     0.033 C 
ATOM     20  C   UNL     1     138.727 134.974 142.217  1.00  0.00     0.120 C 
ATOM     21  C   UNL     1     139.922 135.175 141.208  1.00  0.00    -0.006 C 
ATOM     22  C   UNL     1     139.387 135.262 139.754  1.00  0.00     0.014 C 
ATOM     23  C   UNL     1     140.805 133.895 141.277  1.00  0.00     0.014 C 
ATOM     24  C   UNL     1     139.086 138.329 141.243  1.00  0.00     0.012 C 
ATOM     25  C   UNL     1     141.555 140.083 140.644  1.00  0.00     0.012 C 
ATOM     26  C   UNL     1     145.450 139.608 144.097  1.00  0.00     0.022 C 
ATOM     27  C   UNL     1     146.077 138.680 145.179  1.00  0.00     0.015 C 
ATOM     28  C   UNL     1     142.777 141.290 143.179  1.00  0.00     0.017 C 
ATOM     29  C   UNL     1     146.691 138.577 142.087  1.00  0.00     0.012 C 
ATOM     30  C   UNL     1     148.078 138.047 146.566  1.00  0.00     0.011 C 
ENDROOT
BRANCH  20  31
ATOM     31  O   UNL     1     137.518 135.474 141.704  1.00  0.00    -0.393 OA
ATOM     32  H   UNL     1     136.785 135.091 142.254  1.00  0.00     0.210 HD
ENDBRANCH  20  31
TORSDOF 1
ENDMDL
MODEL 9
REMARK VINA RESULT:    -6.436      4.993      7.812
REMARK INTER + INTRA:          -6.624
REMARK INTER:                  -6.624
REMARK INTRA:                   0.000
REMARK UNBOUND:                 0.000
REMARK SMILES CC1(C)CC[C@]2(C)CC[C@]3(C)C(=CC[C@@H]4[C@]5(C)CC[C@@H](O)C(C)(C)[C@H]5CC[C@@]43C)[C@H]2C1
REMARK SMILES IDX 1 1 2 2 4 3 5 4 6 5 8 6 9 7 10 8 12 9 13 10 14 11 15 12
REMARK SMILES IDX 28 13 27 14 26 15 25 16 16 17 18 18 19 19 20 20 22 21 23 22
REMARK SMILES IDX 24 23 17 24 29 25 30 26 31 27 11 28 7 29 3 30 21 31
REMARK H PARENT 21 32
REMARK Flexibility Score: inf
ROOT
ATOM      1  C   UNL     1     141.991 137.127 133.830  1.00  0.00     0.011 C 
ATOM      2  C   UNL     1     142.582 138.517 134.170  1.00  0.00    -0.035 C 
ATOM      3  C   UNL     1     144.106 138.411 134.424  1.00  0.00     0.007 C 
ATOM      4  C   UNL     1     144.446 137.742 135.764  1.00  0.00     0.008 C 
ATOM      5  C   UNL     1     143.749 138.411 136.980  1.00  0.00    -0.026 C 
ATOM      6  C   UNL     1     144.009 137.523 138.216  1.00  0.00     0.008 C 
ATOM      7  C   UNL     1     143.348 138.057 139.492  1.00  0.00     0.012 C 
ATOM      8  C   UNL     1     141.810 138.404 139.388  1.00  0.00    -0.006 C 
ATOM      9  C   UNL     1     141.486 138.997 138.004  1.00  0.00    -0.064 C 
ATOM     10  C   UNL     1     140.394 139.774 137.871  1.00  0.00    -0.027 C 
ATOM     11  C   UNL     1     139.365 139.970 138.942  1.00  0.00     0.032 C 
ATOM     12  C   UNL     1     139.792 139.734 140.434  1.00  0.00     0.006 C 
ATOM     13  C   UNL     1     141.350 139.426 140.560  1.00  0.00    -0.020 C 
ATOM     14  C   UNL     1     142.127 140.789 140.465  1.00  0.00     0.008 C 
ATOM     15  C   UNL     1     141.592 141.913 141.370  1.00  0.00     0.005 C 
ATOM     16  C   UNL     1     140.083 142.183 141.153  1.00  0.00     0.003 C 
ATOM     17  C   UNL     1     139.218 140.886 141.388  1.00  0.00    -0.025 C 
ATOM     18  C   UNL     1     137.686 141.158 141.070  1.00  0.00     0.010 C 
ATOM     19  C   UNL     1     137.351 142.632 140.807  1.00  0.00     0.033 C 
ATOM     20  C   UNL     1     137.966 143.544 141.879  1.00  0.00     0.120 C 
ATOM     21  C   UNL     1     139.541 143.512 141.838  1.00  0.00    -0.006 C 
ATOM     22  C   UNL     1     140.119 143.726 143.262  1.00  0.00     0.014 C 
ATOM     23  C   UNL     1     140.006 144.730 140.988  1.00  0.00     0.014 C 
ATOM     24  C   UNL     1     139.253 140.436 142.885  1.00  0.00     0.012 C 
ATOM     25  C   UNL     1     141.674 138.768 141.943  1.00  0.00     0.012 C 
ATOM     26  C   UNL     1     142.215 138.456 136.754  1.00  0.00     0.022 C 
ATOM     27  C   UNL     1     141.858 139.138 135.401  1.00  0.00     0.015 C 
ATOM     28  C   UNL     1     141.033 137.057 139.486  1.00  0.00     0.017 C 
ATOM     29  C   UNL     1     144.351 139.827 137.206  1.00  0.00     0.012 C 
ATOM     30  C   UNL     1     142.349 139.436 132.951  1.00  0.00     0.011 C 
ENDROOT
BRANCH  20  31
ATOM     31  O   UNL     1     137.467 143.186 143.143  1.00  0.00    -0.393 OA
ATOM     32  H   UNL     1     137.803 143.857 143.792  1.00  0.00     0.210 HD
ENDBRANCH  20  31
TORSDOF 1
ENDMDL
