MODEL 1
REMARK VINA RESULT:    -2.690      0.000      0.000
REMARK INTER + INTRA:          -3.991
REMARK INTER:                  -3.634
REMARK INTRA:                  -0.357
REMARK UNBOUND:                -0.357
REMARK SMILES CCCCCCCC(=O)[O-]
REMARK SMILES IDX 5 1 6 2 7 3 8 4 9 5 10 6 4 7 3 8 2 9 1 10
REMARK H PARENT
REMARK Flexibility Score: inf
ROOT
ATOM      1  C   UNL     1     146.754 163.786 150.870  1.00  0.00     0.000 C 
ENDROOT
BRANCH   1   2
ATOM      2  C   UNL     1     146.141 162.593 151.626  1.00  0.00     0.006 C 
BRANCH   2   3
ATOM      3  C   UNL     1     147.105 161.414 151.832  1.00  0.00     0.053 C 
BRANCH   3   4
ATOM      4  C   UNL     1     147.752 161.449 153.184  1.00  0.00     0.041 C 
ATOM      5  O   UNL     1     147.270 162.166 154.098  1.00  0.00    -0.550 OA
ATOM      6  O   UNL     1     148.868 160.663 153.442  1.00  0.00    -0.550 OA
ENDBRANCH   3   4
ENDBRANCH   2   3
ENDBRANCH   1   2
BRANCH   1   7
ATOM      7  C   UNL     1     146.135 165.133 151.282  1.00  0.00     0.000 C 
BRANCH   7   8
ATOM      8  C   UNL     1     145.895 165.232 152.797  1.00  0.00    -0.000 C 
BRANCH   8   9
ATOM      9  C   UNL     1     146.977 166.053 153.512  1.00  0.00    -0.003 C 
ATOM     10  C   UNL     1     146.775 166.030 155.024  1.00  0.00     0.004 C 
ENDBRANCH   8   9
ENDBRANCH   7   8
ENDBRANCH   1   7
TORSDOF 6
ENDMDL
MODEL 2
REMARK VINA RESULT:    -2.634      2.369      3.973
REMARK INTER + INTRA:          -3.915
REMARK INTER:                  -3.430
REMARK INTRA:                  -0.485
REMARK UNBOUND:                -0.357
REMARK SMILES CCCCCCCC(=O)[O-]
REMARK SMILES IDX 5 1 6 2 7 3 8 4 9 5 10 6 4 7 3 8 2 9 1 10
REMARK H PARENT
REMARK Flexibility Score: inf
ROOT
ATOM      1  C   UNL     1     146.643 163.643 150.789  1.00  0.00     0.000 C 
ENDROOT
BRANCH   1   2
ATOM      2  C   UNL     1     146.088 165.024 151.182  1.00  0.00     0.006 C 
BRANCH   2   3
ATOM      3  C   UNL     1     145.875 165.212 152.693  1.00  0.00     0.053 C 
BRANCH   3   4
ATOM      4  C   UNL     1     146.965 166.031 153.314  1.00  0.00     0.041 C 
ATOM      5  O   UNL     1     146.956 166.263 154.551  1.00  0.00    -0.550 OA
ATOM      6  O   UNL     1     148.009 166.509 152.532  1.00  0.00    -0.550 OA
ENDBRANCH   3   4
ENDBRANCH   2   3
ENDBRANCH   1   2
BRANCH   1   7
ATOM      7  C   UNL     1     146.100 162.509 151.677  1.00  0.00     0.000 C 
BRANCH   7   8
ATOM      8  C   UNL     1     147.124 161.382 151.884  1.00  0.00    -0.000 C 
BRANCH   8   9
ATOM      9  C   UNL     1     148.086 161.666 153.047  1.00  0.00    -0.003 C 
ATOM     10  C   UNL     1     147.334 162.187 154.268  1.00  0.00     0.004 C 
ENDBRANCH   8   9
ENDBRANCH   7   8
ENDBRANCH   1   7
TORSDOF 6
ENDMDL
MODEL 3
REMARK VINA RESULT:    -2.617      2.225      3.653
REMARK INTER + INTRA:          -3.892
REMARK INTER:                  -3.470
REMARK INTRA:                  -0.423
REMARK UNBOUND:                -0.357
REMARK SMILES CCCCCCCC(=O)[O-]
REMARK SMILES IDX 5 1 6 2 7 3 8 4 9 5 10 6 4 7 3 8 2 9 1 10
REMARK H PARENT
REMARK Flexibility Score: inf
ROOT
ATOM      1  C   UNL     1     147.409 165.450 153.996  1.00  0.00     0.000 C 
ENDROOT
BRANCH   1   2
ATOM      2  C   UNL     1     146.931 165.990 152.637  1.00  0.00     0.006 C 
BRANCH   2   3
ATOM      3  C   UNL     1     145.876 165.113 151.944  1.00  0.00     0.053 C 
BRANCH   3   4
ATOM      4  C   UNL     1     146.482 163.893 151.320  1.00  0.00     0.041 C 
ATOM      5  O   UNL     1     146.020 162.752 151.581  1.00  0.00    -0.550 OA
ATOM      6  O   UNL     1     147.536 164.020 150.424  1.00  0.00    -0.550 OA
ENDBRANCH   3   4
ENDBRANCH   2   3
ENDBRANCH   1   2
BRANCH   1   7
ATOM      7  C   UNL     1     146.724 166.144 155.186  1.00  0.00     0.000 C 
BRANCH   7   8
ATOM      8  C   UNL     1     145.914 165.167 156.052  1.00  0.00    -0.000 C 
BRANCH   8   9
ATOM      9  C   UNL     1     145.878 163.749 155.464  1.00  0.00    -0.003 C 
ATOM     10  C   UNL     1     146.417 162.727 156.461  1.00  0.00     0.004 C 
ENDBRANCH   8   9
ENDBRANCH   7   8
ENDBRANCH   1   7
TORSDOF 6
ENDMDL
MODEL 4
REMARK VINA RESULT:    -2.607      8.305     10.629
REMARK INTER + INTRA:          -3.878
REMARK INTER:                  -3.415
REMARK INTRA:                  -0.464
REMARK UNBOUND:                -0.357
REMARK SMILES CCCCCCCC(=O)[O-]
REMARK SMILES IDX 5 1 6 2 7 3 8 4 9 5 10 6 4 7 3 8 2 9 1 10
REMARK H PARENT
REMARK Flexibility Score: inf
ROOT
ATOM      1  C   UNL     1     149.422 155.910 160.032  1.00  0.00     0.000 C 
ENDROOT
BRANCH   1   2
ATOM      2  C   UNL     1     148.921 156.415 158.667  1.00  0.00     0.006 C 
BRANCH   2   3
ATOM      3  C   UNL     1     148.726 157.937 158.589  1.00  0.00     0.053 C 
BRANCH   3   4
ATOM      4  C   UNL     1     147.299 158.307 158.318  1.00  0.00     0.041 C 
ATOM      5  O   UNL     1     146.990 158.895 157.249  1.00  0.00    -0.550 OA
ATOM      6  O   UNL     1     146.307 157.971 159.230  1.00  0.00    -0.550 OA
ENDBRANCH   3   4
ENDBRANCH   2   3
ENDBRANCH   1   2
BRANCH   1   7
ATOM      7  C   UNL     1     148.563 154.765 160.595  1.00  0.00     0.000 C 
BRANCH   7   8
ATOM      8  C   UNL     1     147.518 154.262 159.587  1.00  0.00    -0.000 C 
BRANCH   8   9
ATOM      9  C   UNL     1     146.126 154.097 160.213  1.00  0.00    -0.003 C 
ATOM     10  C   UNL     1     145.880 155.148 161.292  1.00  0.00     0.004 C 
ENDBRANCH   8   9
ENDBRANCH   7   8
ENDBRANCH   1   7
TORSDOF 6
ENDMDL
MODEL 5
REMARK VINA RESULT:    -2.591      9.306     10.859
REMARK INTER + INTRA:          -3.857
REMARK INTER:                  -3.204
REMARK INTRA:                  -0.653
REMARK UNBOUND:                -0.357
REMARK SMILES CCCCCCCC(=O)[O-]
REMARK SMILES IDX 5 1 6 2 7 3 8 4 9 5 10 6 4 7 3 8 2 9 1 10
REMARK H PARENT
REMARK Flexibility Score: inf
ROOT
ATOM      1  C   UNL     1     146.220 154.632 160.125  1.00  0.00     0.000 C 
ENDROOT
BRANCH   1   2
ATOM      2  C   UNL     1     145.932 155.965 160.840  1.00  0.00     0.006 C 
BRANCH   2   3
ATOM      3  C   UNL     1     145.881 157.184 159.904  1.00  0.00     0.053 C 
BRANCH   3   4
ATOM      4  C   UNL     1     146.627 158.355 160.468  1.00  0.00     0.041 C 
ATOM      5  O   UNL     1     147.347 158.214 161.490  1.00  0.00    -0.550 OA
ATOM      6  O   UNL     1     146.552 159.593 159.844  1.00  0.00    -0.550 OA
ENDBRANCH   3   4
ENDBRANCH   2   3
ENDBRANCH   1   2
BRANCH   1   7
ATOM      7  C   UNL     1     147.638 154.569 159.532  1.00  0.00     0.000 C 
BRANCH   7   8
ATOM      8  C   UNL     1     148.718 154.989 160.540  1.00  0.00    -0.000 C 
BRANCH   8   9
ATOM      9  C   UNL     1     149.695 156.023 159.961  1.00  0.00    -0.003 C 
ATOM     10  C   UNL     1     149.255 156.477 158.572  1.00  0.00     0.004 C 
ENDBRANCH   8   9
ENDBRANCH   7   8
ENDBRANCH   1   7
TORSDOF 6
ENDMDL
MODEL 6
REMARK VINA RESULT:    -2.586      1.676      3.108
REMARK INTER + INTRA:          -3.850
REMARK INTER:                  -3.415
REMARK INTRA:                  -0.434
REMARK UNBOUND:                -0.357
REMARK SMILES CCCCCCCC(=O)[O-]
REMARK SMILES IDX 5 1 6 2 7 3 8 4 9 5 10 6 4 7 3 8 2 9 1 10
REMARK H PARENT
REMARK Flexibility Score: inf
ROOT
ATOM      1  C   UNL     1     147.275 163.694 155.633  1.00  0.00     0.000 C 
ENDROOT
BRANCH   1   2
ATOM      2  C   UNL     1     146.603 162.495 154.939  1.00  0.00     0.006 C 
BRANCH   2   3
ATOM      3  C   UNL     1     147.505 161.760 153.935  1.00  0.00     0.053 C 
BRANCH   3   4
ATOM      4  C   UNL     1     146.929 161.772 152.551  1.00  0.00     0.041 C 
ATOM      5  O   UNL     1     147.377 160.990 151.673  1.00  0.00    -0.550 OA
ATOM      6  O   UNL     1     145.875 162.622 152.243  1.00  0.00    -0.550 OA
ENDBRANCH   3   4
ENDBRANCH   2   3
ENDBRANCH   1   2
BRANCH   1   7
ATOM      7  C   UNL     1     146.285 164.826 155.955  1.00  0.00     0.000 C 
BRANCH   7   8
ATOM      8  C   UNL     1     146.568 166.104 155.151  1.00  0.00    -0.000 C 
BRANCH   8   9
ATOM      9  C   UNL     1     147.621 165.889 154.054  1.00  0.00    -0.003 C 
ATOM     10  C   UNL     1     147.003 166.026 152.665  1.00  0.00     0.004 C 
ENDBRANCH   8   9
ENDBRANCH   7   8
ENDBRANCH   1   7
TORSDOF 6
ENDMDL
MODEL 7
REMARK VINA RESULT:    -2.565      2.577      4.632
REMARK INTER + INTRA:          -3.822
REMARK INTER:                  -3.257
REMARK INTRA:                  -0.564
REMARK UNBOUND:                -0.357
REMARK SMILES CCCCCCCC(=O)[O-]
REMARK SMILES IDX 5 1 6 2 7 3 8 4 9 5 10 6 4 7 3 8 2 9 1 10
REMARK H PARENT
REMARK Flexibility Score: inf
ROOT
ATOM      1  C   UNL     1     148.260 163.246 154.802  1.00  0.00     0.000 C 
ENDROOT
BRANCH   1   2
ATOM      2  C   UNL     1     146.774 163.347 155.191  1.00  0.00     0.006 C 
BRANCH   2   3
ATOM      3  C   UNL     1     146.014 164.485 154.491  1.00  0.00     0.053 C 
BRANCH   3   4
ATOM      4  C   UNL     1     146.742 165.791 154.591  1.00  0.00     0.041 C 
ATOM      5  O   UNL     1     147.151 166.369 153.551  1.00  0.00    -0.550 OA
ATOM      6  O   UNL     1     146.939 166.385 155.831  1.00  0.00    -0.550 OA
ENDBRANCH   3   4
ENDBRANCH   2   3
ENDBRANCH   1   2
BRANCH   1   7
ATOM      7  C   UNL     1     148.464 162.796 153.345  1.00  0.00     0.000 C 
BRANCH   7   8
ATOM      8  C   UNL     1     147.887 161.398 153.074  1.00  0.00    -0.000 C 
BRANCH   8   9
ATOM      9  C   UNL     1     146.890 161.388 151.906  1.00  0.00    -0.003 C 
ATOM     10  C   UNL     1     146.799 162.762 151.249  1.00  0.00     0.004 C 
ENDBRANCH   8   9
ENDBRANCH   7   8
ENDBRANCH   1   7
TORSDOF 6
ENDMDL
MODEL 8
REMARK VINA RESULT:    -2.552      1.690      3.718
REMARK INTER + INTRA:          -3.804
REMARK INTER:                  -3.257
REMARK INTRA:                  -0.547
REMARK UNBOUND:                -0.357
REMARK SMILES CCCCCCCC(=O)[O-]
REMARK SMILES IDX 5 1 6 2 7 3 8 4 9 5 10 6 4 7 3 8 2 9 1 10
REMARK H PARENT
REMARK Flexibility Score: inf
ROOT
ATOM      1  C   UNL     1     147.184 164.893 151.520  1.00  0.00     0.000 C 
ENDROOT
BRANCH   1   2
ATOM      2  C   UNL     1     146.232 165.356 152.637  1.00  0.00     0.006 C 
BRANCH   2   3
ATOM      3  C   UNL     1     146.941 165.806 153.925  1.00  0.00     0.053 C 
BRANCH   3   4
ATOM      4  C   UNL     1     147.074 164.686 154.912  1.00  0.00     0.041 C 
ATOM      5  O   UNL     1     148.131 164.555 155.582  1.00  0.00    -0.550 OA
ATOM      6  O   UNL     1     146.017 163.808 155.116  1.00  0.00    -0.550 OA
ENDBRANCH   3   4
ENDBRANCH   2   3
ENDBRANCH   1   2
BRANCH   1   7
ATOM      7  C   UNL     1     146.670 163.644 150.781  1.00  0.00     0.000 C 
BRANCH   7   8
ATOM      8  C   UNL     1     146.083 162.594 151.736  1.00  0.00    -0.000 C 
BRANCH   8   9
ATOM      9  C   UNL     1     146.995 161.371 151.901  1.00  0.00    -0.003 C 
ATOM     10  C   UNL     1     147.888 161.512 153.130  1.00  0.00     0.004 C 
ENDBRANCH   8   9
ENDBRANCH   7   8
ENDBRANCH   1   7
TORSDOF 6
ENDMDL
MODEL 9
REMARK VINA RESULT:    -2.523      1.917      2.818
REMARK INTER + INTRA:          -3.765
REMARK INTER:                  -3.229
REMARK INTRA:                  -0.536
REMARK UNBOUND:                -0.357
REMARK SMILES CCCCCCCC(=O)[O-]
REMARK SMILES IDX 5 1 6 2 7 3 8 4 9 5 10 6 4 7 3 8 2 9 1 10
REMARK H PARENT
REMARK Flexibility Score: inf
ROOT
ATOM      1  C   UNL     1     146.077 162.499 152.963  1.00  0.00     0.000 C 
ENDROOT
BRANCH   1   2
ATOM      2  C   UNL     1     147.335 161.987 153.686  1.00  0.00     0.006 C 
BRANCH   2   3
ATOM      3  C   UNL     1     147.320 162.202 155.208  1.00  0.00     0.053 C 
BRANCH   3   4
ATOM      4  C   UNL     1     147.418 163.652 155.571  1.00  0.00     0.041 C 
ATOM      5  O   UNL     1     146.404 164.271 155.985  1.00  0.00    -0.550 OA
ATOM      6  O   UNL     1     148.639 164.311 155.485  1.00  0.00    -0.550 OA
ENDBRANCH   3   4
ENDBRANCH   2   3
ENDBRANCH   1   2
BRANCH   1   7
ATOM      7  C   UNL     1     146.325 162.793 151.474  1.00  0.00     0.000 C 
BRANCH   7   8
ATOM      8  C   UNL     1     146.248 164.293 151.148  1.00  0.00    -0.000 C 
BRANCH   8   9
ATOM      9  C   UNL     1     145.878 165.143 152.372  1.00  0.00    -0.003 C 
ATOM     10  C   UNL     1     147.014 166.091 152.746  1.00  0.00     0.004 C 
ENDBRANCH   8   9
ENDBRANCH   7   8
ENDBRANCH   1   7
TORSDOF 6
ENDMDL
