MODEL 1
REMARK VINA RESULT:    -4.933      0.000      0.000
REMARK INTER + INTRA:         -11.267
REMARK INTER:                  -9.259
REMARK INTRA:                  -2.008
REMARK UNBOUND:                -2.008
REMARK SMILES O=C([O-])CCCCCCCCCCCCCCC(=O)[O-]
REMARK SMILES IDX 10 1 9 2 8 3 7 4 6 5 5 6 4 7 2 8 1 9 3 10 11 11 12 12 13 13
REMARK SMILES IDX 14 14 15 15 16 16 17 17 18 18 19 19 20 20
REMARK H PARENT
REMARK Flexibility Score: inf
ROOT
ATOM      1  C   UNL     1      64.415  30.084  12.556  1.00  0.00     0.000 C 
ENDROOT
BRANCH   1   2
ATOM      2  C   UNL     1      64.531  30.577  11.106  1.00  0.00     0.000 C 
BRANCH   2   3
ATOM      3  C   UNL     1      64.416  29.436  10.082  1.00  0.00     0.000 C 
BRANCH   3   4
ATOM      4  C   UNL     1      63.325  29.694   9.028  1.00  0.00     0.000 C 
BRANCH   4   5
ATOM      5  C   UNL     1      61.986  30.119   9.652  1.00  0.00     0.000 C 
BRANCH   5   6
ATOM      6  C   UNL     1      61.340  28.998  10.485  1.00  0.00     0.006 C 
BRANCH   6   7
ATOM      7  C   UNL     1      60.314  29.541  11.488  1.00  0.00     0.053 C 
BRANCH   7   8
ATOM      8  C   UNL     1      60.245  28.700  12.726  1.00  0.00     0.041 C 
ATOM      9  O   UNL     1      59.140  28.247  13.124  1.00  0.00    -0.550 OA
ATOM     10  O   UNL     1      61.407  28.391  13.422  1.00  0.00    -0.550 OA
ENDBRANCH   7   8
ENDBRANCH   6   7
ENDBRANCH   5   6
ENDBRANCH   4   5
ENDBRANCH   3   4
ENDBRANCH   2   3
ENDBRANCH   1   2
BRANCH   1  11
ATOM     11  C   UNL     1      63.537  31.032  13.387  1.00  0.00     0.000 C 
BRANCH  11  12
ATOM     12  C   UNL     1      63.183  32.326  12.635  1.00  0.00     0.000 C 
BRANCH  12  13
ATOM     13  C   UNL     1      61.785  32.856  12.992  1.00  0.00     0.000 C 
BRANCH  13  14
ATOM     14  C   UNL     1      61.172  32.046  14.144  1.00  0.00     0.000 C 
BRANCH  14  15
ATOM     15  C   UNL     1      60.931  32.897  15.403  1.00  0.00     0.000 C 
BRANCH  15  16
ATOM     16  C   UNL     1      62.167  32.976  16.310  1.00  0.00     0.006 C 
BRANCH  16  17
ATOM     17  C   UNL     1      62.744  34.395  16.327  1.00  0.00     0.053 C 
BRANCH  17  18
ATOM     18  C   UNL     1      62.939  34.866  17.733  1.00  0.00     0.041 C 
ATOM     19  O   UNL     1      62.075  34.610  18.613  1.00  0.00    -0.550 OA
ATOM     20  O   UNL     1      64.099  35.545  18.085  1.00  0.00    -0.550 OA
ENDBRANCH  17  18
ENDBRANCH  16  17
ENDBRANCH  15  16
ENDBRANCH  14  15
ENDBRANCH  13  14
ENDBRANCH  12  13
ENDBRANCH  11  12
ENDBRANCH   1  11
TORSDOF 15
ENDMDL
MODEL 2
REMARK VINA RESULT:    -4.891      1.879      6.648
REMARK INTER + INTRA:         -11.188
REMARK INTER:                  -9.016
REMARK INTRA:                  -2.172
REMARK UNBOUND:                -2.008
REMARK SMILES O=C([O-])CCCCCCCCCCCCCCC(=O)[O-]
REMARK SMILES IDX 10 1 9 2 8 3 7 4 6 5 5 6 4 7 2 8 1 9 3 10 11 11 12 12 13 13
REMARK SMILES IDX 14 14 15 15 16 16 17 17 18 18 19 19 20 20
REMARK H PARENT
REMARK Flexibility Score: inf
ROOT
ATOM      1  C   UNL     1      63.844  29.752  12.731  1.00  0.00     0.000 C 
ENDROOT
BRANCH   1   2
ATOM      2  C   UNL     1      62.725  29.527  13.758  1.00  0.00     0.000 C 
BRANCH   2   3
ATOM      3  C   UNL     1      61.323  29.623  13.137  1.00  0.00     0.000 C 
BRANCH   3   4
ATOM      4  C   UNL     1      60.933  31.068  12.776  1.00  0.00     0.000 C 
BRANCH   4   5
ATOM      5  C   UNL     1      60.813  31.975  14.010  1.00  0.00     0.000 C 
BRANCH   5   6
ATOM      6  C   UNL     1      61.400  33.377  13.773  1.00  0.00     0.006 C 
BRANCH   6   7
ATOM      7  C   UNL     1      62.556  33.690  14.732  1.00  0.00     0.053 C 
BRANCH   7   8
ATOM      8  C   UNL     1      62.062  34.179  16.059  1.00  0.00     0.041 C 
ATOM      9  O   UNL     1      61.309  35.186  16.123  1.00  0.00    -0.550 OA
ATOM     10  O   UNL     1      62.411  33.505  17.223  1.00  0.00    -0.550 OA
ENDBRANCH   7   8
ENDBRANCH   6   7
ENDBRANCH   5   6
ENDBRANCH   4   5
ENDBRANCH   3   4
ENDBRANCH   2   3
ENDBRANCH   1   2
BRANCH   1  11
ATOM     11  C   UNL     1      64.570  31.080  12.994  1.00  0.00     0.000 C 
BRANCH  11  12
ATOM     12  C   UNL     1      64.350  32.110  11.874  1.00  0.00     0.000 C 
BRANCH  12  13
ATOM     13  C   UNL     1      65.545  32.205  10.913  1.00  0.00     0.000 C 
BRANCH  13  14
ATOM     14  C   UNL     1      65.150  31.742   9.503  1.00  0.00     0.000 C 
BRANCH  14  15
ATOM     15  C   UNL     1      65.491  30.265   9.247  1.00  0.00     0.000 C 
BRANCH  15  16
ATOM     16  C   UNL     1      64.253  29.356   9.288  1.00  0.00     0.006 C 
BRANCH  16  17
ATOM     17  C   UNL     1      62.995  30.127   8.879  1.00  0.00     0.053 C 
BRANCH  17  18
ATOM     18  C   UNL     1      61.773  29.476   9.447  1.00  0.00     0.041 C 
ATOM     19  O   UNL     1      60.662  30.069   9.405  1.00  0.00    -0.550 OA
ATOM     20  O   UNL     1      61.849  28.194   9.977  1.00  0.00    -0.550 OA
ENDBRANCH  17  18
ENDBRANCH  16  17
ENDBRANCH  15  16
ENDBRANCH  14  15
ENDBRANCH  13  14
ENDBRANCH  12  13
ENDBRANCH  11  12
ENDBRANCH   1  11
TORSDOF 15
ENDMDL
MODEL 3
REMARK VINA RESULT:    -4.890      3.066      6.246
REMARK INTER + INTRA:         -11.187
REMARK INTER:                  -8.749
REMARK INTRA:                  -2.438
REMARK UNBOUND:                -2.008
REMARK SMILES O=C([O-])CCCCCCCCCCCCCCC(=O)[O-]
REMARK SMILES IDX 10 1 9 2 8 3 7 4 6 5 5 6 4 7 2 8 1 9 3 10 11 11 12 12 13 13
REMARK SMILES IDX 14 14 15 15 16 16 17 17 18 18 19 19 20 20
REMARK H PARENT
REMARK Flexibility Score: inf
ROOT
ATOM      1  C   UNL     1      61.224  28.765  12.710  1.00  0.00     0.000 C 
ENDROOT
BRANCH   1   2
ATOM      2  C   UNL     1      62.415  29.038  13.641  1.00  0.00     0.000 C 
BRANCH   2   3
ATOM      3  C   UNL     1      63.700  29.385  12.874  1.00  0.00     0.000 C 
BRANCH   3   4
ATOM      4  C   UNL     1      64.378  30.663  13.402  1.00  0.00     0.000 C 
BRANCH   4   5
ATOM      5  C   UNL     1      64.143  31.878  12.492  1.00  0.00     0.000 C 
BRANCH   5   6
ATOM      6  C   UNL     1      63.028  32.801  13.012  1.00  0.00     0.006 C 
BRANCH   6   7
ATOM      7  C   UNL     1      62.775  32.613  14.514  1.00  0.00     0.053 C 
BRANCH   7   8
ATOM      8  C   UNL     1      61.446  33.165  14.929  1.00  0.00     0.041 C 
ATOM      9  O   UNL     1      61.348  34.359  15.315  1.00  0.00    -0.550 OA
ATOM     10  O   UNL     1      60.310  32.369  14.859  1.00  0.00    -0.550 OA
ENDBRANCH   7   8
ENDBRANCH   6   7
ENDBRANCH   5   6
ENDBRANCH   4   5
ENDBRANCH   3   4
ENDBRANCH   2   3
ENDBRANCH   1   2
BRANCH   1  11
ATOM     11  C   UNL     1      60.663  30.077  12.142  1.00  0.00     0.000 C 
BRANCH  11  12
ATOM     12  C   UNL     1      60.834  30.187  10.618  1.00  0.00     0.000 C 
BRANCH  12  13
ATOM     13  C   UNL     1      61.157  28.837   9.959  1.00  0.00     0.000 C 
BRANCH  13  14
ATOM     14  C   UNL     1      62.585  28.831   9.394  1.00  0.00     0.000 C 
BRANCH  14  15
ATOM     15  C   UNL     1      63.166  30.246   9.239  1.00  0.00     0.000 C 
BRANCH  15  16
ATOM     16  C   UNL     1      64.698  30.249   9.133  1.00  0.00     0.006 C 
BRANCH  16  17
ATOM     17  C   UNL     1      65.226  31.664   8.878  1.00  0.00     0.053 C 
BRANCH  17  18
ATOM     18  C   UNL     1      66.600  31.823   9.449  1.00  0.00     0.041 C 
ATOM     19  O   UNL     1      67.474  30.937   9.252  1.00  0.00    -0.550 OA
ATOM     20  O   UNL     1      66.931  32.971  10.157  1.00  0.00    -0.550 OA
ENDBRANCH  17  18
ENDBRANCH  16  17
ENDBRANCH  15  16
ENDBRANCH  14  15
ENDBRANCH  13  14
ENDBRANCH  12  13
ENDBRANCH  11  12
ENDBRANCH   1  11
TORSDOF 15
ENDMDL
MODEL 4
REMARK VINA RESULT:    -4.886      2.698      6.618
REMARK INTER + INTRA:         -11.179
REMARK INTER:                  -9.136
REMARK INTRA:                  -2.042
REMARK UNBOUND:                -2.008
REMARK SMILES O=C([O-])CCCCCCCCCCCCCCC(=O)[O-]
REMARK SMILES IDX 10 1 9 2 8 3 7 4 6 5 5 6 4 7 2 8 1 9 3 10 11 11 12 12 13 13
REMARK SMILES IDX 14 14 15 15 16 16 17 17 18 18 19 19 20 20
REMARK H PARENT
REMARK Flexibility Score: inf
ROOT
ATOM      1  C   UNL     1      62.094  29.323  13.821  1.00  0.00     0.000 C 
ENDROOT
BRANCH   1   2
ATOM      2  C   UNL     1      63.456  29.533  13.142  1.00  0.00     0.000 C 
BRANCH   2   3
ATOM      3  C   UNL     1      64.066  30.909  13.452  1.00  0.00     0.000 C 
BRANCH   3   4
ATOM      4  C   UNL     1      63.429  32.039  12.624  1.00  0.00     0.000 C 
BRANCH   4   5
ATOM      5  C   UNL     1      62.403  32.855  13.426  1.00  0.00     0.000 C 
BRANCH   5   6
ATOM      6  C   UNL     1      62.802  33.020  14.902  1.00  0.00     0.006 C 
BRANCH   6   7
ATOM      7  C   UNL     1      62.129  34.236  15.551  1.00  0.00     0.053 C 
BRANCH   7   8
ATOM      8  C   UNL     1      62.682  34.518  16.915  1.00  0.00     0.041 C 
ATOM      9  O   UNL     1      63.901  34.317  17.158  1.00  0.00    -0.550 OA
ATOM     10  O   UNL     1      61.857  35.029  17.908  1.00  0.00    -0.550 OA
ENDBRANCH   7   8
ENDBRANCH   6   7
ENDBRANCH   5   6
ENDBRANCH   4   5
ENDBRANCH   3   4
ENDBRANCH   2   3
ENDBRANCH   1   2
BRANCH   1  11
ATOM     11  C   UNL     1      61.040  28.861  12.803  1.00  0.00     0.000 C 
BRANCH  11  12
ATOM     12  C   UNL     1      60.649  29.967  11.809  1.00  0.00     0.000 C 
BRANCH  12  13
ATOM     13  C   UNL     1      60.689  29.492  10.348  1.00  0.00     0.000 C 
BRANCH  13  14
ATOM     14  C   UNL     1      61.933  30.037   9.631  1.00  0.00     0.000 C 
BRANCH  14  15
ATOM     15  C   UNL     1      63.022  28.968   9.441  1.00  0.00     0.000 C 
BRANCH  15  16
ATOM     16  C   UNL     1      64.441  29.529   9.621  1.00  0.00     0.006 C 
BRANCH  16  17
ATOM     17  C   UNL     1      64.483  31.025   9.295  1.00  0.00     0.053 C 
BRANCH  17  18
ATOM     18  C   UNL     1      65.830  31.594   9.613  1.00  0.00     0.041 C 
ATOM     19  O   UNL     1      65.926  32.718  10.174  1.00  0.00    -0.550 OA
ATOM     20  O   UNL     1      66.978  30.863   9.337  1.00  0.00    -0.550 OA
ENDBRANCH  17  18
ENDBRANCH  16  17
ENDBRANCH  15  16
ENDBRANCH  14  15
ENDBRANCH  13  14
ENDBRANCH  12  13
ENDBRANCH  11  12
ENDBRANCH   1  11
TORSDOF 15
ENDMDL
MODEL 5
REMARK VINA RESULT:    -4.876      2.440      3.757
REMARK INTER + INTRA:         -11.160
REMARK INTER:                  -9.599
REMARK INTRA:                  -1.561
REMARK UNBOUND:                -2.008
REMARK SMILES O=C([O-])CCCCCCCCCCCCCCC(=O)[O-]
REMARK SMILES IDX 10 1 9 2 8 3 7 4 6 5 5 6 4 7 2 8 1 9 3 10 11 11 12 12 13 13
REMARK SMILES IDX 14 14 15 15 16 16 17 17 18 18 19 19 20 20
REMARK H PARENT
REMARK Flexibility Score: inf
ROOT
ATOM      1  C   UNL     1      61.487  29.273  13.920  1.00  0.00     0.000 C 
ENDROOT
BRANCH   1   2
ATOM      2  C   UNL     1      60.847  28.551  12.725  1.00  0.00     0.000 C 
BRANCH   2   3
ATOM      3  C   UNL     1      60.702  29.460  11.493  1.00  0.00     0.000 C 
BRANCH   3   4
ATOM      4  C   UNL     1      61.453  28.915  10.265  1.00  0.00     0.000 C 
BRANCH   4   5
ATOM      5  C   UNL     1      62.552  29.869   9.772  1.00  0.00     0.000 C 
BRANCH   5   6
ATOM      6  C   UNL     1      63.951  29.468  10.270  1.00  0.00     0.006 C 
BRANCH   6   7
ATOM      7  C   UNL     1      65.036  29.720   9.215  1.00  0.00     0.053 C 
BRANCH   7   8
ATOM      8  C   UNL     1      65.895  30.895   9.568  1.00  0.00     0.041 C 
ATOM      9  O   UNL     1      67.097  30.935   9.197  1.00  0.00    -0.550 OA
ATOM     10  O   UNL     1      65.359  31.959  10.282  1.00  0.00    -0.550 OA
ENDBRANCH   7   8
ENDBRANCH   6   7
ENDBRANCH   5   6
ENDBRANCH   4   5
ENDBRANCH   3   4
ENDBRANCH   2   3
ENDBRANCH   1   2
BRANCH   1  11
ATOM     11  C   UNL     1      62.968  29.577  13.647  1.00  0.00     0.000 C 
BRANCH  11  12
ATOM     12  C   UNL     1      63.369  31.000  14.068  1.00  0.00     0.000 C 
BRANCH  12  13
ATOM     13  C   UNL     1      63.065  32.047  12.984  1.00  0.00     0.000 C 
BRANCH  13  14
ATOM     14  C   UNL     1      61.643  32.605  13.147  1.00  0.00     0.000 C 
BRANCH  14  15
ATOM     15  C   UNL     1      61.602  33.875  14.012  1.00  0.00     0.000 C 
BRANCH  15  16
ATOM     16  C   UNL     1      61.436  33.568  15.508  1.00  0.00     0.006 C 
BRANCH  16  17
ATOM     17  C   UNL     1      61.743  34.804  16.359  1.00  0.00     0.053 C 
BRANCH  17  18
ATOM     18  C   UNL     1      63.023  34.620  17.110  1.00  0.00     0.041 C 
ATOM     19  O   UNL     1      63.185  35.171  18.231  1.00  0.00    -0.550 OA
ATOM     20  O   UNL     1      64.020  33.800  16.597  1.00  0.00    -0.550 OA
ENDBRANCH  17  18
ENDBRANCH  16  17
ENDBRANCH  15  16
ENDBRANCH  14  15
ENDBRANCH  13  14
ENDBRANCH  12  13
ENDBRANCH  11  12
ENDBRANCH   1  11
TORSDOF 15
ENDMDL
MODEL 6
REMARK VINA RESULT:    -4.836      1.810      7.129
REMARK INTER + INTRA:         -11.086
REMARK INTER:                  -9.616
REMARK INTRA:                  -1.469
REMARK UNBOUND:                -2.008
REMARK SMILES O=C([O-])CCCCCCCCCCCCCCC(=O)[O-]
REMARK SMILES IDX 10 1 9 2 8 3 7 4 6 5 5 6 4 7 2 8 1 9 3 10 11 11 12 12 13 13
REMARK SMILES IDX 14 14 15 15 16 16 17 17 18 18 19 19 20 20
REMARK H PARENT
REMARK Flexibility Score: inf
ROOT
ATOM      1  C   UNL     1      63.774  31.529  14.013  1.00  0.00     0.000 C 
ENDROOT
BRANCH   1   2
ATOM      2  C   UNL     1      63.423  32.643  13.015  1.00  0.00     0.000 C 
BRANCH   2   3
ATOM      3  C   UNL     1      61.920  32.959  12.984  1.00  0.00     0.000 C 
BRANCH   3   4
ATOM      4  C   UNL     1      61.348  33.251  14.384  1.00  0.00     0.000 C 
BRANCH   4   5
ATOM      5  C   UNL     1      61.728  34.648  14.899  1.00  0.00     0.000 C 
BRANCH   5   6
ATOM      6  C   UNL     1      61.357  34.854  16.378  1.00  0.00     0.006 C 
BRANCH   6   7
ATOM      7  C   UNL     1      62.217  33.996  17.315  1.00  0.00     0.053 C 
BRANCH   7   8
ATOM      8  C   UNL     1      62.891  34.824  18.367  1.00  0.00     0.041 C 
ATOM      9  O   UNL     1      62.496  34.775  19.561  1.00  0.00    -0.550 OA
ATOM     10  O   UNL     1      63.975  35.625  18.032  1.00  0.00    -0.550 OA
ENDBRANCH   7   8
ENDBRANCH   6   7
ENDBRANCH   5   6
ENDBRANCH   4   5
ENDBRANCH   3   4
ENDBRANCH   2   3
ENDBRANCH   1   2
BRANCH   1  11
ATOM     11  C   UNL     1      64.279  30.277  13.281  1.00  0.00     0.000 C 
BRANCH  11  12
ATOM     12  C   UNL     1      63.360  29.061  13.479  1.00  0.00     0.000 C 
BRANCH  12  13
ATOM     13  C   UNL     1      61.918  29.459  13.832  1.00  0.00     0.000 C 
BRANCH  13  14
ATOM     14  C   UNL     1      60.912  28.483  13.205  1.00  0.00     0.000 C 
BRANCH  14  15
ATOM     15  C   UNL     1      60.179  29.085  11.994  1.00  0.00     0.000 C 
BRANCH  15  16
ATOM     16  C   UNL     1      60.917  30.291  11.395  1.00  0.00     0.006 C 
BRANCH  16  17
ATOM     17  C   UNL     1      61.139  30.105   9.891  1.00  0.00     0.053 C 
BRANCH  17  18
ATOM     18  C   UNL     1      62.112  28.997   9.637  1.00  0.00     0.041 C 
ATOM     19  O   UNL     1      61.744  27.960   9.022  1.00  0.00    -0.550 OA
ATOM     20  O   UNL     1      63.436  29.128  10.034  1.00  0.00    -0.550 OA
ENDBRANCH  17  18
ENDBRANCH  16  17
ENDBRANCH  15  16
ENDBRANCH  14  15
ENDBRANCH  13  14
ENDBRANCH  12  13
ENDBRANCH  11  12
ENDBRANCH   1  11
TORSDOF 15
ENDMDL
MODEL 7
REMARK VINA RESULT:    -4.818      2.985      4.628
REMARK INTER + INTRA:         -11.052
REMARK INTER:                  -8.820
REMARK INTRA:                  -2.232
REMARK UNBOUND:                -2.008
REMARK SMILES O=C([O-])CCCCCCCCCCCCCCC(=O)[O-]
REMARK SMILES IDX 10 1 9 2 8 3 7 4 6 5 5 6 4 7 2 8 1 9 3 10 11 11 12 12 13 13
REMARK SMILES IDX 14 14 15 15 16 16 17 17 18 18 19 19 20 20
REMARK H PARENT
REMARK Flexibility Score: inf
ROOT
ATOM      1  C   UNL     1      61.247  28.722  11.624  1.00  0.00     0.000 C 
ENDROOT
BRANCH   1   2
ATOM      2  C   UNL     1      60.765  29.841  10.689  1.00  0.00     0.000 C 
BRANCH   2   3
ATOM      3  C   UNL     1      61.797  30.194   9.606  1.00  0.00     0.000 C 
BRANCH   3   4
ATOM      4  C   UNL     1      62.777  29.041   9.324  1.00  0.00     0.000 C 
BRANCH   4   5
ATOM      5  C   UNL     1      64.224  29.385   9.710  1.00  0.00     0.000 C 
BRANCH   5   6
ATOM      6  C   UNL     1      64.647  30.785   9.232  1.00  0.00     0.006 C 
BRANCH   6   7
ATOM      7  C   UNL     1      66.170  30.918   9.105  1.00  0.00     0.053 C 
BRANCH   7   8
ATOM      8  C   UNL     1      66.665  32.214   9.670  1.00  0.00     0.041 C 
ATOM      9  O   UNL     1      67.774  32.683   9.303  1.00  0.00    -0.550 OA
ATOM     10  O   UNL     1      65.887  32.919  10.579  1.00  0.00    -0.550 OA
ENDBRANCH   7   8
ENDBRANCH   6   7
ENDBRANCH   5   6
ENDBRANCH   4   5
ENDBRANCH   3   4
ENDBRANCH   2   3
ENDBRANCH   1   2
BRANCH   1  11
ATOM     11  C   UNL     1      60.809  28.991  13.071  1.00  0.00     0.000 C 
BRANCH  11  12
ATOM     12  C   UNL     1      61.912  29.657  13.911  1.00  0.00     0.000 C 
BRANCH  12  13
ATOM     13  C   UNL     1      63.324  29.329  13.402  1.00  0.00     0.000 C 
BRANCH  13  14
ATOM     14  C   UNL     1      64.111  30.615  13.109  1.00  0.00     0.000 C 
BRANCH  14  15
ATOM     15  C   UNL     1      63.209  31.766  12.632  1.00  0.00     0.000 C 
BRANCH  15  16
ATOM     16  C   UNL     1      63.421  33.058  13.435  1.00  0.00     0.006 C 
BRANCH  16  17
ATOM     17  C   UNL     1      63.779  32.744  14.891  1.00  0.00     0.053 C 
BRANCH  17  18
ATOM     18  C   UNL     1      62.733  33.279  15.816  1.00  0.00     0.041 C 
ATOM     19  O   UNL     1      63.061  33.746  16.940  1.00  0.00    -0.550 OA
ATOM     20  O   UNL     1      61.402  33.309  15.421  1.00  0.00    -0.550 OA
ENDBRANCH  17  18
ENDBRANCH  16  17
ENDBRANCH  15  16
ENDBRANCH  14  15
ENDBRANCH  13  14
ENDBRANCH  12  13
ENDBRANCH  11  12
ENDBRANCH   1  11
TORSDOF 15
ENDMDL
MODEL 8
REMARK VINA RESULT:    -4.789      1.580      6.464
REMARK INTER + INTRA:         -10.997
REMARK INTER:                  -9.090
REMARK INTRA:                  -1.907
REMARK UNBOUND:                -2.008
REMARK SMILES O=C([O-])CCCCCCCCCCCCCCC(=O)[O-]
REMARK SMILES IDX 10 1 9 2 8 3 7 4 6 5 5 6 4 7 2 8 1 9 3 10 11 11 12 12 13 13
REMARK SMILES IDX 14 14 15 15 16 16 17 17 18 18 19 19 20 20
REMARK H PARENT
REMARK Flexibility Score: inf
ROOT
ATOM      1  C   UNL     1      60.791  30.177  11.965  1.00  0.00     0.000 C 
ENDROOT
BRANCH   1   2
ATOM      2  C   UNL     1      61.154  31.664  12.089  1.00  0.00     0.000 C 
BRANCH   2   3
ATOM      3  C   UNL     1      60.809  32.245  13.470  1.00  0.00     0.000 C 
BRANCH   3   4
ATOM      4  C   UNL     1      61.795  33.342  13.913  1.00  0.00     0.000 C 
BRANCH   4   5
ATOM      5  C   UNL     1      61.507  33.858  15.332  1.00  0.00     0.000 C 
BRANCH   5   6
ATOM      6  C   UNL     1      62.480  33.289  16.378  1.00  0.00     0.006 C 
BRANCH   6   7
ATOM      7  C   UNL     1      63.749  34.141  16.512  1.00  0.00     0.053 C 
BRANCH   7   8
ATOM      8  C   UNL     1      63.709  35.012  17.730  1.00  0.00     0.041 C 
ATOM      9  O   UNL     1      64.658  35.802  17.976  1.00  0.00    -0.550 OA
ATOM     10  O   UNL     1      62.609  34.973  18.577  1.00  0.00    -0.550 OA
ENDBRANCH   7   8
ENDBRANCH   6   7
ENDBRANCH   5   6
ENDBRANCH   4   5
ENDBRANCH   3   4
ENDBRANCH   2   3
ENDBRANCH   1   2
BRANCH   1  11
ATOM     11  C   UNL     1      60.747  29.745  10.492  1.00  0.00     0.000 C 
BRANCH  11  12
ATOM     12  C   UNL     1      61.774  28.649  10.163  1.00  0.00     0.000 C 
BRANCH  12  13
ATOM     13  C   UNL     1      62.906  29.151   9.253  1.00  0.00     0.000 C 
BRANCH  13  14
ATOM     14  C   UNL     1      64.182  29.421  10.065  1.00  0.00     0.000 C 
BRANCH  14  15
ATOM     15  C   UNL     1      64.476  30.922  10.225  1.00  0.00     0.000 C 
BRANCH  15  16
ATOM     16  C   UNL     1      64.691  31.331  11.690  1.00  0.00     0.006 C 
BRANCH  16  17
ATOM     17  C   UNL     1      64.422  30.153  12.632  1.00  0.00     0.053 C 
BRANCH  17  18
ATOM     18  C   UNL     1      64.249  30.634  14.038  1.00  0.00     0.041 C 
ATOM     19  O   UNL     1      65.036  31.496  14.513  1.00  0.00    -0.550 OA
ATOM     20  O   UNL     1      63.192  30.169  14.808  1.00  0.00    -0.550 OA
ENDBRANCH  17  18
ENDBRANCH  16  17
ENDBRANCH  15  16
ENDBRANCH  14  15
ENDBRANCH  13  14
ENDBRANCH  12  13
ENDBRANCH  11  12
ENDBRANCH   1  11
TORSDOF 15
ENDMDL
MODEL 9
REMARK VINA RESULT:    -4.769      1.854      2.498
REMARK INTER + INTRA:         -10.959
REMARK INTER:                  -8.997
REMARK INTRA:                  -1.962
REMARK UNBOUND:                -2.008
REMARK SMILES O=C([O-])CCCCCCCCCCCCCCC(=O)[O-]
REMARK SMILES IDX 10 1 9 2 8 3 7 4 6 5 5 6 4 7 2 8 1 9 3 10 11 11 12 12 13 13
REMARK SMILES IDX 14 14 15 15 16 16 17 17 18 18 19 19 20 20
REMARK H PARENT
REMARK Flexibility Score: inf
ROOT
ATOM      1  C   UNL     1      64.314  29.774  12.115  1.00  0.00     0.000 C 
ENDROOT
BRANCH   1   2
ATOM      2  C   UNL     1      64.380  30.391  10.710  1.00  0.00     0.000 C 
BRANCH   2   3
ATOM      3  C   UNL     1      64.263  29.339   9.596  1.00  0.00     0.000 C 
BRANCH   3   4
ATOM      4  C   UNL     1      62.802  29.049   9.205  1.00  0.00     0.000 C 
BRANCH   4   5
ATOM      5  C   UNL     1      61.834  30.143   9.682  1.00  0.00     0.000 C 
BRANCH   5   6
ATOM      6  C   UNL     1      60.645  29.576  10.478  1.00  0.00     0.006 C 
BRANCH   6   7
ATOM      7  C   UNL     1      60.630  30.074  11.929  1.00  0.00     0.053 C 
BRANCH   7   8
ATOM      8  C   UNL     1      60.442  28.949  12.901  1.00  0.00     0.041 C 
ATOM      9  O   UNL     1      61.393  28.585  13.640  1.00  0.00    -0.550 OA
ATOM     10  O   UNL     1      59.206  28.324  13.011  1.00  0.00    -0.550 OA
ENDBRANCH   7   8
ENDBRANCH   6   7
ENDBRANCH   5   6
ENDBRANCH   4   5
ENDBRANCH   3   4
ENDBRANCH   2   3
ENDBRANCH   1   2
BRANCH   1  11
ATOM     11  C   UNL     1      64.370  30.866  13.195  1.00  0.00     0.000 C 
BRANCH  11  12
ATOM     12  C   UNL     1      63.784  32.204  12.717  1.00  0.00     0.000 C 
BRANCH  12  13
ATOM     13  C   UNL     1      64.456  33.416  13.381  1.00  0.00     0.000 C 
BRANCH  13  14
ATOM     14  C   UNL     1      65.054  33.032  14.743  1.00  0.00     0.000 C 
BRANCH  14  15
ATOM     15  C   UNL     1      64.489  33.878  15.896  1.00  0.00     0.000 C 
BRANCH  15  16
ATOM     16  C   UNL     1      63.002  34.214  15.712  1.00  0.00     0.006 C 
BRANCH  16  17
ATOM     17  C   UNL     1      62.122  33.273  16.539  1.00  0.00     0.053 C 
BRANCH  17  18
ATOM     18  C   UNL     1      61.579  32.172  15.683  1.00  0.00     0.041 C 
ATOM     19  O   UNL     1      62.108  31.029  15.711  1.00  0.00    -0.550 OA
ATOM     20  O   UNL     1      60.459  32.394  14.891  1.00  0.00    -0.550 OA
ENDBRANCH  17  18
ENDBRANCH  16  17
ENDBRANCH  15  16
ENDBRANCH  14  15
ENDBRANCH  13  14
ENDBRANCH  12  13
ENDBRANCH  11  12
ENDBRANCH   1  11
TORSDOF 15
ENDMDL
