MODEL 1
REMARK VINA RESULT:    -2.683      0.000      0.000
REMARK INTER + INTRA:          -2.683
REMARK INTER:                  -2.683
REMARK INTRA:                   0.000
REMARK UNBOUND:                 0.000
REMARK SMILES CC(=O)[O-]
REMARK SMILES IDX 1 1 2 2 3 3 4 4
REMARK H PARENT
REMARK Flexibility Score: inf
ROOT
ATOM      1  C   UNL     1       7.482   7.731  17.911  1.00  0.00     0.063 C 
ATOM      2  C   UNL     1       7.471   6.262  18.169  1.00  0.00     0.038 C 
ATOM      3  O   UNL     1       6.430   5.704  18.603  1.00  0.00    -0.550 OA
ATOM      4  O   UNL     1       8.593   5.496  17.881  1.00  0.00    -0.550 OA
ENDROOT
TORSDOF 0
ENDMDL
MODEL 2
REMARK VINA RESULT:    -2.589     11.002     11.225
REMARK INTER + INTRA:          -2.589
REMARK INTER:                  -2.589
REMARK INTRA:                   0.000
REMARK UNBOUND:                 0.000
REMARK SMILES CC(=O)[O-]
REMARK SMILES IDX 1 1 2 2 3 3 4 4
REMARK H PARENT
REMARK Flexibility Score: inf
ROOT
ATOM      1  C   UNL     1      12.925   2.798  28.376  1.00  0.00     0.063 C 
ATOM      2  C   UNL     1      11.826   3.728  27.987  1.00  0.00     0.038 C 
ATOM      3  O   UNL     1      11.461   4.640  28.774  1.00  0.00    -0.550 OA
ATOM      4  O   UNL     1      11.239   3.626  26.733  1.00  0.00    -0.550 OA
ENDROOT
TORSDOF 0
ENDMDL
MODEL 3
REMARK VINA RESULT:    -2.566     11.127     11.321
REMARK INTER + INTRA:          -2.566
REMARK INTER:                  -2.566
REMARK INTRA:                   0.000
REMARK UNBOUND:                 0.000
REMARK SMILES CC(=O)[O-]
REMARK SMILES IDX 1 1 2 2 3 3 4 4
REMARK H PARENT
REMARK Flexibility Score: inf
ROOT
ATOM      1  C   UNL     1      11.333   3.571  26.793  1.00  0.00     0.063 C 
ATOM      2  C   UNL     1      11.852   3.690  28.187  1.00  0.00     0.038 C 
ATOM      3  O   UNL     1      11.647   4.740  28.849  1.00  0.00    -0.550 OA
ATOM      4  O   UNL     1      12.515   2.622  28.776  1.00  0.00    -0.550 OA
ENDROOT
TORSDOF 0
ENDMDL
MODEL 4
REMARK VINA RESULT:    -2.558      3.166      4.039
REMARK INTER + INTRA:          -2.558
REMARK INTER:                  -2.558
REMARK INTRA:                   0.000
REMARK UNBOUND:                 0.000
REMARK SMILES CC(=O)[O-]
REMARK SMILES IDX 1 1 2 2 3 3 4 4
REMARK H PARENT
REMARK Flexibility Score: inf
ROOT
ATOM      1  C   UNL     1       7.111   1.720  18.231  1.00  0.00     0.063 C 
ATOM      2  C   UNL     1       7.817   3.033  18.272  1.00  0.00     0.038 C 
ATOM      3  O   UNL     1       9.027   3.111  17.936  1.00  0.00    -0.550 OA
ATOM      4  O   UNL     1       7.127   4.184  18.630  1.00  0.00    -0.550 OA
ENDROOT
TORSDOF 0
ENDMDL
MODEL 5
REMARK VINA RESULT:    -2.509     20.770     20.907
REMARK INTER + INTRA:          -2.509
REMARK INTER:                  -2.509
REMARK INTRA:                   0.000
REMARK UNBOUND:                 0.000
REMARK SMILES CC(=O)[O-]
REMARK SMILES IDX 1 1 2 2 3 3 4 4
REMARK H PARENT
REMARK Flexibility Score: inf
ROOT
ATOM      1  C   UNL     1      15.489   2.436  36.938  1.00  0.00     0.063 C 
ATOM      2  C   UNL     1      14.872   3.706  37.420  1.00  0.00     0.038 C 
ATOM      3  O   UNL     1      13.648   3.925  37.231  1.00  0.00    -0.550 OA
ATOM      4  O   UNL     1      15.636   4.626  38.125  1.00  0.00    -0.550 OA
ENDROOT
TORSDOF 0
ENDMDL
MODEL 6
REMARK VINA RESULT:    -2.434     21.182     21.349
REMARK INTER + INTRA:          -2.434
REMARK INTER:                  -2.434
REMARK INTRA:                   0.000
REMARK UNBOUND:                 0.000
REMARK SMILES CC(=O)[O-]
REMARK SMILES IDX 1 1 2 2 3 3 4 4
REMARK H PARENT
REMARK Flexibility Score: inf
ROOT
ATOM      1  C   UNL     1      14.767   2.873  36.608  1.00  0.00     0.063 C 
ATOM      2  C   UNL     1      15.753   3.438  37.574  1.00  0.00     0.038 C 
ATOM      3  O   UNL     1      15.614   4.613  38.003  1.00  0.00    -0.550 OA
ATOM      4  O   UNL     1      16.796   2.652  38.045  1.00  0.00    -0.550 OA
ENDROOT
TORSDOF 0
ENDMDL
MODEL 7
REMARK VINA RESULT:    -2.297     20.717     20.872
REMARK INTER + INTRA:          -2.297
REMARK INTER:                  -2.297
REMARK INTRA:                   0.000
REMARK UNBOUND:                 0.000
REMARK SMILES CC(=O)[O-]
REMARK SMILES IDX 1 1 2 2 3 3 4 4
REMARK H PARENT
REMARK Flexibility Score: inf
ROOT
ATOM      1  C   UNL     1      15.730   4.307  38.125  1.00  0.00     0.063 C 
ATOM      2  C   UNL     1      14.707   3.487  37.414  1.00  0.00     0.038 C 
ATOM      3  O   UNL     1      14.982   2.318  37.041  1.00  0.00    -0.550 OA
ATOM      4  O   UNL     1      13.429   3.993  37.209  1.00  0.00    -0.550 OA
ENDROOT
TORSDOF 0
ENDMDL
