MODEL 1
REMARK VINA RESULT:    -3.429      0.000      0.000
REMARK INTER + INTRA:          -4.863
REMARK INTER:                  -4.432
REMARK INTRA:                  -0.431
REMARK UNBOUND:                -0.431
REMARK SMILES CCCCCCC(=O)[O-]
REMARK SMILES IDX 5 1 6 2 7 3 8 4 9 5 4 6 3 7 2 8 1 9
REMARK H PARENT
REMARK Flexibility Score: inf
ROOT
ATOM      1  C   UNL     1      24.102   7.039  26.474  1.00  0.00     0.006 C 
ENDROOT
BRANCH   1   2
ATOM      2  C   UNL     1      25.525   6.548  26.770  1.00  0.00     0.053 C 
BRANCH   2   3
ATOM      3  C   UNL     1      26.530   7.411  26.075  1.00  0.00     0.041 C 
ATOM      4  O   UNL     1      26.151   8.318  25.287  1.00  0.00    -0.550 OA
ATOM      5  O   UNL     1      27.887   7.183  26.259  1.00  0.00    -0.550 OA
ENDBRANCH   2   3
ENDBRANCH   1   2
BRANCH   1   6
ATOM      6  C   UNL     1      23.461   7.753  27.674  1.00  0.00     0.000 C 
BRANCH   6   7
ATOM      7  C   UNL     1      23.349   9.272  27.469  1.00  0.00    -0.000 C 
BRANCH   7   8
ATOM      8  C   UNL     1      24.594   9.990  28.001  1.00  0.00    -0.003 C 
ATOM      9  C   UNL     1      25.117   9.322  29.269  1.00  0.00     0.004 C 
ENDBRANCH   7   8
ENDBRANCH   6   7
ENDBRANCH   1   6
TORSDOF 5
ENDMDL
MODEL 2
REMARK VINA RESULT:    -3.244      1.429      2.133
REMARK INTER + INTRA:          -4.623
REMARK INTER:                  -4.250
REMARK INTRA:                  -0.373
REMARK UNBOUND:                -0.431
REMARK SMILES CCCCCCC(=O)[O-]
REMARK SMILES IDX 5 1 6 2 7 3 8 4 9 5 4 6 3 7 2 8 1 9
REMARK H PARENT
REMARK Flexibility Score: inf
ROOT
ATOM      1  C   UNL     1      26.121   7.069  27.502  1.00  0.00     0.006 C 
ENDROOT
BRANCH   1   2
ATOM      2  C   UNL     1      27.185   7.375  26.440  1.00  0.00     0.053 C 
BRANCH   2   3
ATOM      3  C   UNL     1      26.630   8.290  25.394  1.00  0.00     0.041 C 
ATOM      4  O   UNL     1      26.367   9.489  25.675  1.00  0.00    -0.550 OA
ATOM      5  O   UNL     1      26.358   7.805  24.122  1.00  0.00    -0.550 OA
ENDBRANCH   2   3
ENDBRANCH   1   2
BRANCH   1   6
ATOM      6  C   UNL     1      24.961   6.225  26.950  1.00  0.00     0.000 C 
BRANCH   6   7
ATOM      7  C   UNL     1      23.642   7.009  26.875  1.00  0.00    -0.000 C 
BRANCH   7   8
ATOM      8  C   UNL     1      23.566   8.061  27.987  1.00  0.00    -0.003 C 
ATOM      9  C   UNL     1      23.322   9.453  27.413  1.00  0.00     0.004 C 
ENDBRANCH   7   8
ENDBRANCH   6   7
ENDBRANCH   1   6
TORSDOF 5
ENDMDL
MODEL 3
REMARK VINA RESULT:    -3.091      2.399      4.189
REMARK INTER + INTRA:          -4.426
REMARK INTER:                  -4.065
REMARK INTRA:                  -0.361
REMARK UNBOUND:                -0.431
REMARK SMILES CCCCCCC(=O)[O-]
REMARK SMILES IDX 5 1 6 2 7 3 8 4 9 5 4 6 3 7 2 8 1 9
REMARK H PARENT
REMARK Flexibility Score: inf
ROOT
ATOM      1  C   UNL     1      25.602   8.134  28.823  1.00  0.00     0.006 C 
ENDROOT
BRANCH   1   2
ATOM      2  C   UNL     1      24.919   9.376  28.236  1.00  0.00     0.053 C 
BRANCH   2   3
ATOM      3  C   UNL     1      23.478   9.092  27.950  1.00  0.00     0.041 C 
ATOM      4  O   UNL     1      23.042   7.912  28.002  1.00  0.00    -0.550 OA
ATOM      5  O   UNL     1      22.628  10.125  27.577  1.00  0.00    -0.550 OA
ENDBRANCH   2   3
ENDBRANCH   1   2
BRANCH   1   6
ATOM      6  C   UNL     1      26.659   7.538  27.880  1.00  0.00     0.000 C 
BRANCH   6   7
ATOM      7  C   UNL     1      26.080   6.468  26.942  1.00  0.00    -0.000 C 
BRANCH   7   8
ATOM      8  C   UNL     1      25.658   7.084  25.603  1.00  0.00    -0.003 C 
ATOM      9  C   UNL     1      24.370   6.451  25.086  1.00  0.00     0.004 C 
ENDBRANCH   7   8
ENDBRANCH   6   7
ENDBRANCH   1   6
TORSDOF 5
ENDMDL
MODEL 4
REMARK VINA RESULT:    -3.085      2.139      2.760
REMARK INTER + INTRA:          -4.418
REMARK INTER:                  -4.030
REMARK INTRA:                  -0.388
REMARK UNBOUND:                -0.431
REMARK SMILES CCCCCCC(=O)[O-]
REMARK SMILES IDX 5 1 6 2 7 3 8 4 9 5 4 6 3 7 2 8 1 9
REMARK H PARENT
REMARK Flexibility Score: inf
ROOT
ATOM      1  C   UNL     1      26.125   6.506  27.009  1.00  0.00     0.006 C 
ENDROOT
BRANCH   1   2
ATOM      2  C   UNL     1      25.463   7.129  25.774  1.00  0.00     0.053 C 
BRANCH   2   3
ATOM      3  C   UNL     1      24.126   6.503  25.527  1.00  0.00     0.041 C 
ATOM      4  O   UNL     1      23.831   6.070  24.382  1.00  0.00    -0.550 OA
ATOM      5  O   UNL     1      23.188   6.443  26.549  1.00  0.00    -0.550 OA
ENDBRANCH   2   3
ENDBRANCH   1   2
BRANCH   1   6
ATOM      6  C   UNL     1      26.526   7.556  28.058  1.00  0.00     0.000 C 
BRANCH   6   7
ATOM      7  C   UNL     1      25.322   8.088  28.852  1.00  0.00    -0.000 C 
BRANCH   7   8
ATOM      8  C   UNL     1      25.059   9.562  28.525  1.00  0.00    -0.003 C 
ATOM      9  C   UNL     1      23.724   9.738  27.808  1.00  0.00     0.004 C 
ENDBRANCH   7   8
ENDBRANCH   6   7
ENDBRANCH   1   6
TORSDOF 5
ENDMDL
MODEL 5
REMARK VINA RESULT:    -3.003      2.295      3.901
REMARK INTER + INTRA:          -4.312
REMARK INTER:                  -3.902
REMARK INTRA:                  -0.410
REMARK UNBOUND:                -0.431
REMARK SMILES CCCCCCC(=O)[O-]
REMARK SMILES IDX 5 1 6 2 7 3 8 4 9 5 4 6 3 7 2 8 1 9
REMARK H PARENT
REMARK Flexibility Score: inf
ROOT
ATOM      1  C   UNL     1      25.805   8.493  25.938  1.00  0.00     0.006 C 
ENDROOT
BRANCH   1   2
ATOM      2  C   UNL     1      25.492   9.835  26.612  1.00  0.00     0.053 C 
BRANCH   2   3
ATOM      3  C   UNL     1      24.492   9.647  27.709  1.00  0.00     0.041 C 
ATOM      4  O   UNL     1      24.861   9.669  28.913  1.00  0.00    -0.550 OA
ATOM      5  O   UNL     1      23.161   9.398  27.401  1.00  0.00    -0.550 OA
ENDBRANCH   2   3
ENDBRANCH   1   2
BRANCH   1   6
ATOM      6  C   UNL     1      26.624   7.555  26.839  1.00  0.00     0.000 C 
BRANCH   6   7
ATOM      7  C   UNL     1      25.954   6.185  27.031  1.00  0.00    -0.000 C 
BRANCH   7   8
ATOM      8  C   UNL     1      24.616   6.121  26.285  1.00  0.00    -0.003 C 
ATOM      9  C   UNL     1      23.458   5.883  27.249  1.00  0.00     0.004 C 
ENDBRANCH   7   8
ENDBRANCH   6   7
ENDBRANCH   1   6
TORSDOF 5
ENDMDL
MODEL 6
REMARK VINA RESULT:    -2.974      2.352      3.459
REMARK INTER + INTRA:          -4.275
REMARK INTER:                  -3.895
REMARK INTRA:                  -0.379
REMARK UNBOUND:                -0.431
REMARK SMILES CCCCCCC(=O)[O-]
REMARK SMILES IDX 5 1 6 2 7 3 8 4 9 5 4 6 3 7 2 8 1 9
REMARK H PARENT
REMARK Flexibility Score: inf
ROOT
ATOM      1  C   UNL     1      23.699   8.781  27.331  1.00  0.00     0.006 C 
ENDROOT
BRANCH   1   2
ATOM      2  C   UNL     1      23.525   7.511  28.173  1.00  0.00     0.053 C 
BRANCH   2   3
ATOM      3  C   UNL     1      23.245   6.335  27.291  1.00  0.00     0.041 C 
ATOM      4  O   UNL     1      23.428   6.418  26.048  1.00  0.00    -0.550 OA
ATOM      5  O   UNL     1      22.736   5.164  27.836  1.00  0.00    -0.550 OA
ENDBRANCH   2   3
ENDBRANCH   1   2
BRANCH   1   6
ATOM      6  C   UNL     1      25.083   9.425  27.510  1.00  0.00     0.000 C 
BRANCH   6   7
ATOM      7  C   UNL     1      25.854   9.551  26.187  1.00  0.00    -0.000 C 
BRANCH   7   8
ATOM      8  C   UNL     1      26.339   8.179  25.704  1.00  0.00    -0.003 C 
ATOM      9  C   UNL     1      27.128   7.458  26.792  1.00  0.00     0.004 C 
ENDBRANCH   7   8
ENDBRANCH   6   7
ENDBRANCH   1   6
TORSDOF 5
ENDMDL
MODEL 7
REMARK VINA RESULT:    -2.838      2.074      3.906
REMARK INTER + INTRA:          -4.099
REMARK INTER:                  -3.885
REMARK INTRA:                  -0.214
REMARK UNBOUND:                -0.431
REMARK SMILES CCCCCCC(=O)[O-]
REMARK SMILES IDX 5 1 6 2 7 3 8 4 9 5 4 6 3 7 2 8 1 9
REMARK H PARENT
REMARK Flexibility Score: inf
ROOT
ATOM      1  C   UNL     1      23.253   7.731  27.747  1.00  0.00     0.006 C 
ENDROOT
BRANCH   1   2
ATOM      2  C   UNL     1      23.486   9.206  27.395  1.00  0.00     0.053 C 
BRANCH   2   3
ATOM      3  C   UNL     1      24.926   9.567  27.588  1.00  0.00     0.041 C 
ATOM      4  O   UNL     1      25.383   9.750  28.747  1.00  0.00    -0.550 OA
ATOM      5  O   UNL     1      25.749   9.750  26.486  1.00  0.00    -0.550 OA
ENDBRANCH   2   3
ENDBRANCH   1   2
BRANCH   1   6
ATOM      6  C   UNL     1      23.519   6.791  26.560  1.00  0.00     0.000 C 
BRANCH   6   7
ATOM      7  C   UNL     1      24.664   5.802  26.833  1.00  0.00    -0.000 C 
BRANCH   7   8
ATOM      8  C   UNL     1      24.250   4.371  26.471  1.00  0.00    -0.003 C 
ATOM      9  C   UNL     1      23.125   3.877  27.375  1.00  0.00     0.004 C 
ENDBRANCH   7   8
ENDBRANCH   6   7
ENDBRANCH   1   6
TORSDOF 5
ENDMDL
MODEL 8
REMARK VINA RESULT:    -2.761      1.346      3.143
REMARK INTER + INTRA:          -3.999
REMARK INTER:                  -3.611
REMARK INTRA:                  -0.388
REMARK UNBOUND:                -0.431
REMARK SMILES CCCCCCC(=O)[O-]
REMARK SMILES IDX 5 1 6 2 7 3 8 4 9 5 4 6 3 7 2 8 1 9
REMARK H PARENT
REMARK Flexibility Score: inf
ROOT
ATOM      1  C   UNL     1      23.983   8.550  27.050  1.00  0.00     0.006 C 
ENDROOT
BRANCH   1   2
ATOM      2  C   UNL     1      25.424   9.070  27.116  1.00  0.00     0.053 C 
BRANCH   2   3
ATOM      3  C   UNL     1      26.348   8.143  26.390  1.00  0.00     0.041 C 
ATOM      4  O   UNL     1      27.160   7.425  27.031  1.00  0.00    -0.550 OA
ATOM      5  O   UNL     1      26.346   8.109  25.001  1.00  0.00    -0.550 OA
ENDBRANCH   2   3
ENDBRANCH   1   2
BRANCH   1   6
ATOM      6  C   UNL     1      23.754   7.322  27.946  1.00  0.00     0.000 C 
BRANCH   6   7
ATOM      7  C   UNL     1      23.053   6.172  27.208  1.00  0.00    -0.000 C 
BRANCH   7   8
ATOM      8  C   UNL     1      24.050   5.378  26.356  1.00  0.00    -0.003 C 
ATOM      9  C   UNL     1      23.794   5.589  24.867  1.00  0.00     0.004 C 
ENDBRANCH   7   8
ENDBRANCH   6   7
ENDBRANCH   1   6
TORSDOF 5
ENDMDL
