MODEL 1
REMARK VINA RESULT:    -4.498      0.000      0.000
REMARK INTER + INTRA:          -5.239
REMARK INTER:                  -5.024
REMARK INTRA:                  -0.214
REMARK UNBOUND:                -0.214
REMARK SMILES O=C([O-])c1ccccc1C(=O)[O-]
REMARK SMILES IDX 4 1 9 2 5 3 8 4 6 5 7 6 2 7 1 8 3 9 10 10 11 11 12 12
REMARK H PARENT
REMARK Flexibility Score: inf
ROOT
ATOM      1  C   UNL     1      -4.900  -8.586 -16.103  1.00  0.00     0.006 A 
ATOM      2  C   UNL     1      -5.236  -9.809 -16.753  1.00  0.00     0.006 A 
ATOM      3  C   UNL     1      -5.405  -8.336 -14.815  1.00  0.00     0.010 A 
ATOM      4  C   UNL     1      -6.117 -10.701 -16.115  1.00  0.00     0.010 A 
ATOM      5  C   UNL     1      -6.259  -9.247 -14.192  1.00  0.00     0.001 A 
ATOM      6  C   UNL     1      -6.623 -10.421 -14.846  1.00  0.00     0.001 A 
ENDROOT
BRANCH   1   7
ATOM      7  C   UNL     1      -4.093  -7.525 -16.748  1.00  0.00     0.072 C 
ATOM      8  O   UNL     1      -4.647  -6.549 -17.317  1.00  0.00    -0.545 OA
ATOM      9  O   UNL     1      -2.704  -7.563 -16.673  1.00  0.00    -0.545 OA
ENDBRANCH   1   7
BRANCH   2  10
ATOM     10  C   UNL     1      -4.648 -10.223 -18.048  1.00  0.00     0.072 C 
ATOM     11  O   UNL     1      -5.176  -9.875 -19.136  1.00  0.00    -0.545 OA
ATOM     12  O   UNL     1      -3.463 -10.948 -18.074  1.00  0.00    -0.545 OA
ENDBRANCH   2  10
TORSDOF 2
ENDMDL
MODEL 2
REMARK VINA RESULT:    -4.497      0.053      2.878
REMARK INTER + INTRA:          -5.237
REMARK INTER:                  -5.024
REMARK INTRA:                  -0.213
REMARK UNBOUND:                -0.214
REMARK SMILES O=C([O-])c1ccccc1C(=O)[O-]
REMARK SMILES IDX 4 1 9 2 5 3 8 4 6 5 7 6 2 7 1 8 3 9 10 10 11 11 12 12
REMARK H PARENT
REMARK Flexibility Score: inf
ROOT
ATOM      1  C   UNL     1      -5.243  -9.800 -16.770  1.00  0.00     0.006 A 
ATOM      2  C   UNL     1      -4.872  -8.590 -16.119  1.00  0.00     0.006 A 
ATOM      3  C   UNL     1      -6.148 -10.669 -16.133  1.00  0.00     0.010 A 
ATOM      4  C   UNL     1      -5.368  -8.328 -14.829  1.00  0.00     0.010 A 
ATOM      5  C   UNL     1      -6.644 -10.378 -14.863  1.00  0.00     0.001 A 
ATOM      6  C   UNL     1      -6.247  -9.216 -14.207  1.00  0.00     0.001 A 
ENDROOT
BRANCH   1   7
ATOM      7  C   UNL     1      -4.669 -10.229 -18.066  1.00  0.00     0.072 C 
ATOM      8  O   UNL     1      -5.180  -9.854 -19.154  1.00  0.00    -0.545 OA
ATOM      9  O   UNL     1      -3.511 -11.000 -18.095  1.00  0.00    -0.545 OA
ENDBRANCH   1   7
BRANCH   2  10
ATOM     10  C   UNL     1      -4.036  -7.550 -16.763  1.00  0.00     0.072 C 
ATOM     11  O   UNL     1      -4.565  -6.568 -17.346  1.00  0.00    -0.545 OA
ATOM     12  O   UNL     1      -2.650  -7.614 -16.670  1.00  0.00    -0.545 OA
ENDBRANCH   2  10
TORSDOF 2
ENDMDL
MODEL 3
REMARK VINA RESULT:    -4.191      2.393      3.916
REMARK INTER + INTRA:          -4.895
REMARK INTER:                  -4.682
REMARK INTRA:                  -0.214
REMARK UNBOUND:                -0.214
REMARK SMILES O=C([O-])c1ccccc1C(=O)[O-]
REMARK SMILES IDX 4 1 9 2 5 3 8 4 6 5 7 6 2 7 1 8 3 9 10 10 11 11 12 12
REMARK H PARENT
REMARK Flexibility Score: inf
ROOT
ATOM      1  C   UNL     1      -4.677  -8.495 -15.938  1.00  0.00     0.006 A 
ATOM      2  C   UNL     1      -3.306  -8.873 -15.867  1.00  0.00     0.006 A 
ATOM      3  C   UNL     1      -5.037  -7.374 -16.708  1.00  0.00     0.010 A 
ATOM      4  C   UNL     1      -2.343  -8.078 -16.514  1.00  0.00     0.010 A 
ATOM      5  C   UNL     1      -4.067  -6.613 -17.360  1.00  0.00     0.001 A 
ATOM      6  C   UNL     1      -2.722  -6.957 -17.254  1.00  0.00     0.001 A 
ENDROOT
BRANCH   1   7
ATOM      7  C   UNL     1      -5.746  -9.186 -15.181  1.00  0.00     0.072 C 
ATOM      8  O   UNL     1      -6.191  -8.704 -14.106  1.00  0.00    -0.545 OA
ATOM      9  O   UNL     1      -6.318 -10.348 -15.687  1.00  0.00    -0.545 OA
ENDBRANCH   1   7
BRANCH   2  10
ATOM     10  C   UNL     1      -2.844 -10.111 -15.196  1.00  0.00     0.072 C 
ATOM     11  O   UNL     1      -2.380 -10.075 -14.027  1.00  0.00    -0.545 OA
ATOM     12  O   UNL     1      -2.982 -11.340 -15.831  1.00  0.00    -0.545 OA
ENDBRANCH   2  10
TORSDOF 2
ENDMDL
MODEL 4
REMARK VINA RESULT:    -4.171      2.418      3.953
REMARK INTER + INTRA:          -4.873
REMARK INTER:                  -4.700
REMARK INTRA:                  -0.173
REMARK UNBOUND:                -0.214
REMARK SMILES O=C([O-])c1ccccc1C(=O)[O-]
REMARK SMILES IDX 4 1 9 2 5 3 8 4 6 5 7 6 2 7 1 8 3 9 10 10 11 11 12 12
REMARK H PARENT
REMARK Flexibility Score: inf
ROOT
ATOM      1  C   UNL     1      -3.311  -8.817 -15.793  1.00  0.00     0.006 A 
ATOM      2  C   UNL     1      -4.690  -8.479 -15.901  1.00  0.00     0.006 A 
ATOM      3  C   UNL     1      -2.355  -7.995 -16.417  1.00  0.00     0.010 A 
ATOM      4  C   UNL     1      -5.062  -7.369 -16.682  1.00  0.00     0.010 A 
ATOM      5  C   UNL     1      -2.746  -6.887 -17.168  1.00  0.00     0.001 A 
ATOM      6  C   UNL     1      -4.097  -6.581 -17.310  1.00  0.00     0.001 A 
ENDROOT
BRANCH   1   7
ATOM      7  C   UNL     1      -2.831 -10.040 -15.109  1.00  0.00     0.072 C 
ATOM      8  O   UNL     1      -3.002 -11.176 -15.623  1.00  0.00    -0.545 OA
ATOM      9  O   UNL     1      -2.123  -9.939 -13.916  1.00  0.00    -0.545 OA
ENDBRANCH   1   7
BRANCH   2  10
ATOM     10  C   UNL     1      -5.758  -9.200 -15.171  1.00  0.00     0.072 C 
ATOM     11  O   UNL     1      -6.229  -8.741 -14.098  1.00  0.00    -0.545 OA
ATOM     12  O   UNL     1      -6.301 -10.364 -15.702  1.00  0.00    -0.545 OA
ENDBRANCH   2  10
TORSDOF 2
ENDMDL
MODEL 5
REMARK VINA RESULT:    -4.102      2.502      4.030
REMARK INTER + INTRA:          -4.796
REMARK INTER:                  -4.581
REMARK INTRA:                  -0.215
REMARK UNBOUND:                -0.214
REMARK SMILES O=C([O-])c1ccccc1C(=O)[O-]
REMARK SMILES IDX 4 1 9 2 5 3 8 4 6 5 7 6 2 7 1 8 3 9 10 10 11 11 12 12
REMARK H PARENT
REMARK Flexibility Score: inf
ROOT
ATOM      1  C   UNL     1      -3.255  -8.426 -15.315  1.00  0.00     0.006 A 
ATOM      2  C   UNL     1      -2.967  -7.811 -16.567  1.00  0.00     0.006 A 
ATOM      3  C   UNL     1      -2.265  -8.438 -14.316  1.00  0.00     0.010 A 
ATOM      4  C   UNL     1      -1.680  -7.290 -16.792  1.00  0.00     0.010 A 
ATOM      5  C   UNL     1      -1.003  -7.895 -14.554  1.00  0.00     0.001 A 
ATOM      6  C   UNL     1      -0.707  -7.333 -15.793  1.00  0.00     0.001 A 
ENDROOT
BRANCH   1   7
ATOM      7  C   UNL     1      -4.532  -9.122 -15.032  1.00  0.00     0.072 C 
ATOM      8  O   UNL     1      -4.632 -10.369 -15.172  1.00  0.00    -0.545 OA
ATOM      9  O   UNL     1      -5.621  -8.408 -14.542  1.00  0.00    -0.545 OA
ENDBRANCH   1   7
BRANCH   2  10
ATOM     10  C   UNL     1      -3.983  -7.629 -17.630  1.00  0.00     0.072 C 
ATOM     11  O   UNL     1      -4.638  -6.557 -17.718  1.00  0.00    -0.545 OA
ATOM     12  O   UNL     1      -4.176  -8.619 -18.586  1.00  0.00    -0.545 OA
ENDBRANCH   2  10
TORSDOF 2
ENDMDL
MODEL 6
REMARK VINA RESULT:    -4.082      2.537      3.985
REMARK INTER + INTRA:          -4.773
REMARK INTER:                  -4.567
REMARK INTRA:                  -0.206
REMARK UNBOUND:                -0.214
REMARK SMILES O=C([O-])c1ccccc1C(=O)[O-]
REMARK SMILES IDX 4 1 9 2 5 3 8 4 6 5 7 6 2 7 1 8 3 9 10 10 11 11 12 12
REMARK H PARENT
REMARK Flexibility Score: inf
ROOT
ATOM      1  C   UNL     1      -2.974  -7.779 -16.505  1.00  0.00     0.006 A 
ATOM      2  C   UNL     1      -3.220  -8.426 -15.261  1.00  0.00     0.006 A 
ATOM      3  C   UNL     1      -1.689  -7.269 -16.767  1.00  0.00     0.010 A 
ATOM      4  C   UNL     1      -2.192  -8.481 -14.303  1.00  0.00     0.010 A 
ATOM      5  C   UNL     1      -0.677  -7.354 -15.810  1.00  0.00     0.001 A 
ATOM      6  C   UNL     1      -0.931  -7.948 -14.577  1.00  0.00     0.001 A 
ENDROOT
BRANCH   1   7
ATOM      7  C   UNL     1      -4.028  -7.552 -17.520  1.00  0.00     0.072 C 
ATOM      8  O   UNL     1      -4.745  -6.517 -17.485  1.00  0.00    -0.545 OA
ATOM      9  O   UNL     1      -4.194  -8.453 -18.567  1.00  0.00    -0.545 OA
ENDBRANCH   1   7
BRANCH   2  10
ATOM     10  C   UNL     1      -4.495  -9.112 -14.946  1.00  0.00     0.072 C 
ATOM     11  O   UNL     1      -4.589 -10.365 -15.024  1.00  0.00    -0.545 OA
ATOM     12  O   UNL     1      -5.587  -8.380 -14.495  1.00  0.00    -0.545 OA
ENDBRANCH   2  10
TORSDOF 2
ENDMDL
MODEL 7
REMARK VINA RESULT:    -4.050      2.040      2.819
REMARK INTER + INTRA:          -4.738
REMARK INTER:                  -4.545
REMARK INTRA:                  -0.193
REMARK UNBOUND:                -0.214
REMARK SMILES O=C([O-])c1ccccc1C(=O)[O-]
REMARK SMILES IDX 4 1 9 2 5 3 8 4 6 5 7 6 2 7 1 8 3 9 10 10 11 11 12 12
REMARK H PARENT
REMARK Flexibility Score: inf
ROOT
ATOM      1  C   UNL     1      -3.730  -7.925 -16.362  1.00  0.00     0.006 A 
ATOM      2  C   UNL     1      -3.151  -8.959 -15.572  1.00  0.00     0.006 A 
ATOM      3  C   UNL     1      -5.097  -7.631 -16.208  1.00  0.00     0.010 A 
ATOM      4  C   UNL     1      -3.976  -9.701 -14.707  1.00  0.00     0.010 A 
ATOM      5  C   UNL     1      -5.891  -8.366 -15.328  1.00  0.00     0.001 A 
ATOM      6  C   UNL     1      -5.335  -9.406 -14.588  1.00  0.00     0.001 A 
ENDROOT
BRANCH   1   7
ATOM      7  C   UNL     1      -2.975  -7.181 -17.397  1.00  0.00     0.072 C 
ATOM      8  O   UNL     1      -3.147  -7.424 -18.620  1.00  0.00    -0.545 OA
ATOM      9  O   UNL     1      -2.112  -6.154 -17.027  1.00  0.00    -0.545 OA
ENDBRANCH   1   7
BRANCH   2  10
ATOM     10  C   UNL     1      -1.699  -9.251 -15.562  1.00  0.00     0.072 C 
ATOM     11  O   UNL     1      -0.927  -8.652 -14.769  1.00  0.00    -0.545 OA
ATOM     12  O   UNL     1      -1.182 -10.242 -16.388  1.00  0.00    -0.545 OA
ENDBRANCH   2  10
TORSDOF 2
ENDMDL
MODEL 8
REMARK VINA RESULT:    -4.005      1.996      3.213
REMARK INTER + INTRA:          -4.688
REMARK INTER:                  -4.483
REMARK INTRA:                  -0.205
REMARK UNBOUND:                -0.214
REMARK SMILES O=C([O-])c1ccccc1C(=O)[O-]
REMARK SMILES IDX 4 1 9 2 5 3 8 4 6 5 7 6 2 7 1 8 3 9 10 10 11 11 12 12
REMARK H PARENT
REMARK Flexibility Score: inf
ROOT
ATOM      1  C   UNL     1      -3.138  -9.068 -15.704  1.00  0.00     0.006 A 
ATOM      2  C   UNL     1      -3.732  -7.965 -16.383  1.00  0.00     0.006 A 
ATOM      3  C   UNL     1      -3.924  -9.829 -14.820  1.00  0.00     0.010 A 
ATOM      4  C   UNL     1      -5.068  -7.628 -16.100  1.00  0.00     0.010 A 
ATOM      5  C   UNL     1      -5.253  -9.489 -14.572  1.00  0.00     0.001 A 
ATOM      6  C   UNL     1      -5.821  -8.385 -15.201  1.00  0.00     0.001 A 
ENDROOT
BRANCH   1   7
ATOM      7  C   UNL     1      -1.704  -9.417 -15.831  1.00  0.00     0.072 C 
ATOM      8  O   UNL     1      -1.318 -10.257 -16.686  1.00  0.00    -0.545 OA
ATOM      9  O   UNL     1      -0.756  -8.766 -15.049  1.00  0.00    -0.545 OA
ENDBRANCH   1   7
BRANCH   2  10
ATOM     10  C   UNL     1      -3.029  -7.189 -17.431  1.00  0.00     0.072 C 
ATOM     11  O   UNL     1      -2.239  -6.259 -17.123  1.00  0.00    -0.545 OA
ATOM     12  O   UNL     1      -3.184  -7.528 -18.770  1.00  0.00    -0.545 OA
ENDBRANCH   2  10
TORSDOF 2
ENDMDL
MODEL 9
REMARK VINA RESULT:    -4.001      2.177      3.099
REMARK INTER + INTRA:          -4.683
REMARK INTER:                  -4.608
REMARK INTRA:                  -0.075
REMARK UNBOUND:                -0.214
REMARK SMILES O=C([O-])c1ccccc1C(=O)[O-]
REMARK SMILES IDX 4 1 9 2 5 3 8 4 6 5 7 6 2 7 1 8 3 9 10 10 11 11 12 12
REMARK H PARENT
REMARK Flexibility Score: inf
ROOT
ATOM      1  C   UNL     1      -4.611  -8.896 -16.151  1.00  0.00     0.006 A 
ATOM      2  C   UNL     1      -4.648  -9.640 -17.365  1.00  0.00     0.006 A 
ATOM      3  C   UNL     1      -4.518  -7.493 -16.212  1.00  0.00     0.010 A 
ATOM      4  C   UNL     1      -4.523  -8.957 -18.589  1.00  0.00     0.010 A 
ATOM      5  C   UNL     1      -4.417  -6.836 -17.438  1.00  0.00     0.001 A 
ATOM      6  C   UNL     1      -4.408  -7.566 -18.623  1.00  0.00     0.001 A 
ENDROOT
BRANCH   1   7
ATOM      7  C   UNL     1      -4.598  -9.533 -14.814  1.00  0.00     0.072 C 
ATOM      8  O   UNL     1      -5.641  -9.576 -14.110  1.00  0.00    -0.545 OA
ATOM      9  O   UNL     1      -3.443 -10.153 -14.349  1.00  0.00    -0.545 OA
ENDBRANCH   1   7
BRANCH   2  10
ATOM     10  C   UNL     1      -4.880 -11.102 -17.409  1.00  0.00     0.072 C 
ATOM     11  O   UNL     1      -5.916 -11.605 -16.901  1.00  0.00    -0.545 OA
ATOM     12  O   UNL     1      -3.985 -11.930 -18.076  1.00  0.00    -0.545 OA
ENDBRANCH   2  10
TORSDOF 2
ENDMDL
