MODEL 1
REMARK VINA RESULT:    -4.744      0.000      0.000
REMARK INTER + INTRA:          -5.327
REMARK INTER:                  -5.160
REMARK INTRA:                  -0.167
REMARK UNBOUND:                -0.167
REMARK SMILES CC1(C)CC[C@@]2(C(=O)[O-])CC[C@]3(C)C(=CC[C@H]4[C@]5(C)CC[C@H](O)C(C)(C)[C@H]5CC[C@@]43C)[C@H]2C1
REMARK SMILES IDX 6 1 5 2 10 3 32 4 4 5 11 6 14 7 33 8 2 9 12 10 15 11 1 12
REMARK SMILES IDX 3 13 13 14 30 15 16 16 17 17 29 18 31 19 18 20 28 21 27 22
REMARK SMILES IDX 20 23 19 24 24 25 21 26 22 27 25 28 26 29 7 30 8 31 9 32
REMARK SMILES IDX 23 33
REMARK H PARENT 23 34
REMARK Flexibility Score: inf
ROOT
ATOM      1  C   UNL     1       3.197  -6.524 -20.369  1.00  0.00     0.017 C 
ATOM      2  C   UNL     1       4.276  -5.998 -21.382  1.00  0.00     0.014 C 
ATOM      3  C   UNL     1       2.190  -5.380 -20.014  1.00  0.00     0.014 C 
ATOM      4  C   UNL     1       2.484  -7.853 -20.889  1.00  0.00     0.028 C 
ATOM      5  C   UNL     1       3.883  -6.152 -22.852  1.00  0.00     0.007 C 
ATOM      6  C   UNL     1       0.947  -5.312 -20.903  1.00  0.00     0.013 C 
ATOM      7  C   UNL     1       0.977  -7.807 -21.231  1.00  0.00    -0.064 C 
ATOM      8  C   UNL     1       3.327  -8.530 -22.008  1.00  0.00     0.015 C 
ATOM      9  C   UNL     1       3.625  -7.636 -23.251  1.00  0.00    -0.035 C 
ATOM     10  C   UNL     1       0.087  -6.603 -20.886  1.00  0.00    -0.006 C 
ATOM     11  C   UNL     1       0.348  -8.984 -21.498  1.00  0.00    -0.027 C 
ATOM     12  C   UNL     1       4.875  -8.202 -23.962  1.00  0.00     0.011 C 
ATOM     13  C   UNL     1       2.451  -7.691 -24.250  1.00  0.00     0.011 C 
ATOM     14  C   UNL     1      -0.319  -6.874 -19.391  1.00  0.00     0.017 C 
ATOM     15  C   UNL     1      -1.225  -6.470 -21.884  1.00  0.00    -0.020 C 
ATOM     16  C   UNL     1      -1.105  -9.029 -21.898  1.00  0.00     0.032 C 
ATOM     17  C   UNL     1      -1.375  -7.784 -22.760  1.00  0.00     0.006 C 
ATOM     18  C   UNL     1      -1.119  -5.301 -22.924  1.00  0.00     0.008 C 
ATOM     19  C   UNL     1      -2.487  -6.156 -21.015  1.00  0.00     0.012 C 
ATOM     20  C   UNL     1      -2.567  -7.843 -23.805  1.00  0.00    -0.025 C 
ATOM     21  C   UNL     1      -2.266  -5.258 -23.967  1.00  0.00     0.005 C 
ATOM     22  C   UNL     1      -2.387  -6.589 -24.752  1.00  0.00     0.003 C 
ATOM     23  C   UNL     1      -2.424  -9.120 -24.701  1.00  0.00     0.010 C 
ATOM     24  C   UNL     1      -3.942  -7.917 -23.074  1.00  0.00     0.012 C 
ATOM     25  C   UNL     1      -3.320  -6.546 -26.026  1.00  0.00    -0.006 C 
ATOM     26  C   UNL     1      -3.340  -9.125 -25.940  1.00  0.00     0.033 C 
ATOM     27  C   UNL     1      -3.150  -7.883 -26.821  1.00  0.00     0.120 C 
ATOM     28  C   UNL     1      -4.815  -6.313 -25.687  1.00  0.00     0.014 C 
ATOM     29  C   UNL     1      -2.902  -5.377 -26.961  1.00  0.00     0.014 C 
ENDROOT
BRANCH   1  30
ATOM     30  C   UNL     1       3.992  -6.833 -19.095  1.00  0.00     0.048 C 
ATOM     31  O   UNL     1       3.789  -7.902 -18.457  1.00  0.00    -0.550 OA
ATOM     32  O   UNL     1       4.838  -5.881 -18.535  1.00  0.00    -0.550 OA
ENDBRANCH   1  30
BRANCH  27  33
ATOM     33  O   UNL     1      -1.873  -7.960 -27.411  1.00  0.00    -0.393 OA
ATOM     34  H   UNL     1      -1.272  -8.403 -26.754  1.00  0.00     0.210 HD
ENDBRANCH  27  33
TORSDOF 2
ENDMDL
MODEL 2
REMARK VINA RESULT:    -4.682      1.784      4.009
REMARK INTER + INTRA:          -5.259
REMARK INTER:                  -5.093
REMARK INTRA:                  -0.167
REMARK UNBOUND:                -0.167
REMARK SMILES CC1(C)CC[C@@]2(C(=O)[O-])CC[C@]3(C)C(=CC[C@H]4[C@]5(C)CC[C@H](O)C(C)(C)[C@H]5CC[C@@]43C)[C@H]2C1
REMARK SMILES IDX 6 1 5 2 10 3 32 4 4 5 11 6 14 7 33 8 2 9 12 10 15 11 1 12
REMARK SMILES IDX 3 13 13 14 30 15 16 16 17 17 29 18 31 19 18 20 28 21 27 22
REMARK SMILES IDX 20 23 19 24 24 25 21 26 22 27 25 28 26 29 7 30 8 31 9 32
REMARK SMILES IDX 23 33
REMARK H PARENT 23 34
REMARK Flexibility Score: inf
ROOT
ATOM      1  C   UNL     1       3.176  -6.444 -19.874  1.00  0.00     0.017 C 
ATOM      2  C   UNL     1       2.554  -6.501 -18.433  1.00  0.00     0.014 C 
ATOM      3  C   UNL     1       3.228  -7.879 -20.495  1.00  0.00     0.014 C 
ATOM      4  C   UNL     1       2.433  -5.382 -20.805  1.00  0.00     0.028 C 
ATOM      5  C   UNL     1       1.032  -6.360 -18.400  1.00  0.00     0.007 C 
ATOM      6  C   UNL     1       2.003  -8.274 -21.319  1.00  0.00     0.013 C 
ATOM      7  C   UNL     1       1.646  -5.888 -22.035  1.00  0.00    -0.064 C 
ATOM      8  C   UNL     1       1.613  -4.374 -19.948  1.00  0.00     0.015 C 
ATOM      9  C   UNL     1       0.541  -5.014 -19.012  1.00  0.00    -0.035 C 
ATOM     10  C   UNL     1       1.727  -7.342 -22.528  1.00  0.00    -0.006 C 
ATOM     11  C   UNL     1       1.173  -4.962 -22.914  1.00  0.00    -0.027 C 
ATOM     12  C   UNL     1       0.236  -4.013 -17.875  1.00  0.00     0.011 C 
ATOM     13  C   UNL     1      -0.771  -5.261 -19.784  1.00  0.00     0.011 C 
ATOM     14  C   UNL     1       3.019  -7.345 -23.424  1.00  0.00     0.017 C 
ATOM     15  C   UNL     1       0.377  -7.811 -23.360  1.00  0.00    -0.020 C 
ATOM     16  C   UNL     1       0.345  -5.361 -24.110  1.00  0.00     0.032 C 
ATOM     17  C   UNL     1      -0.530  -6.550 -23.677  1.00  0.00     0.006 C 
ATOM     18  C   UNL     1      -0.555  -8.789 -22.563  1.00  0.00     0.008 C 
ATOM     19  C   UNL     1       0.823  -8.592 -24.640  1.00  0.00     0.012 C 
ATOM     20  C   UNL     1      -1.892  -6.795 -24.453  1.00  0.00    -0.025 C 
ATOM     21  C   UNL     1      -1.898  -9.117 -23.265  1.00  0.00     0.005 C 
ATOM     22  C   UNL     1      -2.711  -7.837 -23.589  1.00  0.00     0.003 C 
ATOM     23  C   UNL     1      -2.728  -5.470 -24.489  1.00  0.00     0.010 C 
ATOM     24  C   UNL     1      -1.621  -7.236 -25.923  1.00  0.00     0.012 C 
ATOM     25  C   UNL     1      -4.209  -8.075 -24.032  1.00  0.00    -0.006 C 
ATOM     26  C   UNL     1      -4.188  -5.661 -24.943  1.00  0.00     0.033 C 
ATOM     27  C   UNL     1      -4.942  -6.694 -24.094  1.00  0.00     0.120 C 
ATOM     28  C   UNL     1      -4.341  -8.811 -25.390  1.00  0.00     0.014 C 
ATOM     29  C   UNL     1      -4.945  -8.960 -22.987  1.00  0.00     0.014 C 
ENDROOT
BRANCH   1  30
ATOM     30  C   UNL     1       4.625  -6.000 -19.645  1.00  0.00     0.048 C 
ATOM     31  O   UNL     1       5.286  -6.451 -18.670  1.00  0.00    -0.550 OA
ATOM     32  O   UNL     1       5.189  -4.984 -20.410  1.00  0.00    -0.550 OA
ENDBRANCH   1  30
BRANCH  27  33
ATOM     33  O   UNL     1      -5.112  -6.154 -22.803  1.00  0.00    -0.393 OA
ATOM     34  H   UNL     1      -5.892  -5.540 -22.842  1.00  0.00     0.210 HD
ENDBRANCH  27  33
TORSDOF 2
ENDMDL
MODEL 3
REMARK VINA RESULT:    -3.509      1.788      7.659
REMARK INTER + INTRA:          -3.984
REMARK INTER:                  -3.814
REMARK INTRA:                  -0.171
REMARK UNBOUND:                -0.167
REMARK SMILES CC1(C)CC[C@@]2(C(=O)[O-])CC[C@]3(C)C(=CC[C@H]4[C@]5(C)CC[C@H](O)C(C)(C)[C@H]5CC[C@@]43C)[C@H]2C1
REMARK SMILES IDX 6 1 5 2 10 3 32 4 4 5 11 6 14 7 33 8 2 9 12 10 15 11 1 12
REMARK SMILES IDX 3 13 13 14 30 15 16 16 17 17 29 18 31 19 18 20 28 21 27 22
REMARK SMILES IDX 20 23 19 24 24 25 21 26 22 27 25 28 26 29 7 30 8 31 9 32
REMARK SMILES IDX 23 33
REMARK H PARENT 23 34
REMARK Flexibility Score: inf
ROOT
ATOM      1  C   UNL     1      -3.528  -5.987 -25.433  1.00  0.00     0.017 C 
ATOM      2  C   UNL     1      -4.066  -4.603 -24.921  1.00  0.00     0.014 C 
ATOM      3  C   UNL     1      -2.195  -5.785 -26.229  1.00  0.00     0.014 C 
ATOM      4  C   UNL     1      -3.401  -7.055 -24.254  1.00  0.00     0.028 C 
ATOM      5  C   UNL     1      -3.534  -4.193 -23.547  1.00  0.00     0.007 C 
ATOM      6  C   UNL     1      -0.919  -5.889 -25.394  1.00  0.00     0.013 C 
ATOM      7  C   UNL     1      -1.998  -7.564 -23.855  1.00  0.00    -0.064 C 
ATOM      8  C   UNL     1      -4.249  -6.621 -23.023  1.00  0.00     0.015 C 
ATOM      9  C   UNL     1      -3.897  -5.220 -22.433  1.00  0.00    -0.035 C 
ATOM     10  C   UNL     1      -0.740  -7.257 -24.683  1.00  0.00    -0.006 C 
ATOM     11  C   UNL     1      -1.922  -8.601 -22.977  1.00  0.00    -0.027 C 
ATOM     12  C   UNL     1      -5.124  -4.709 -21.643  1.00  0.00     0.011 C 
ATOM     13  C   UNL     1      -2.717  -5.330 -21.446  1.00  0.00     0.011 C 
ATOM     14  C   UNL     1      -0.764  -8.369 -25.795  1.00  0.00     0.017 C 
ATOM     15  C   UNL     1       0.645  -7.294 -23.780  1.00  0.00    -0.020 C 
ATOM     16  C   UNL     1      -0.596  -9.124 -22.486  1.00  0.00     0.032 C 
ATOM     17  C   UNL     1       0.345  -7.914 -22.352  1.00  0.00     0.006 C 
ATOM     18  C   UNL     1       1.252  -5.878 -23.486  1.00  0.00     0.008 C 
ATOM     19  C   UNL     1       1.743  -8.073 -24.577  1.00  0.00     0.012 C 
ATOM     20  C   UNL     1       1.548  -8.015 -21.322  1.00  0.00    -0.025 C 
ATOM     21  C   UNL     1       2.460  -5.882 -22.514  1.00  0.00     0.005 C 
ATOM     22  C   UNL     1       2.112  -6.546 -21.157  1.00  0.00     0.003 C 
ATOM     23  C   UNL     1       1.009  -8.460 -19.919  1.00  0.00     0.010 C 
ATOM     24  C   UNL     1       2.596  -9.067 -21.794  1.00  0.00     0.012 C 
ATOM     25  C   UNL     1       3.172  -6.338 -20.004  1.00  0.00    -0.006 C 
ATOM     26  C   UNL     1       2.027  -8.297 -18.775  1.00  0.00     0.033 C 
ATOM     27  C   UNL     1       2.566  -6.864 -18.661  1.00  0.00     0.120 C 
ATOM     28  C   UNL     1       4.530  -7.032 -20.285  1.00  0.00     0.014 C 
ATOM     29  C   UNL     1       3.486  -4.827 -19.828  1.00  0.00     0.014 C 
ENDROOT
BRANCH   1  30
ATOM     30  C   UNL     1      -4.585  -6.456 -26.439  1.00  0.00     0.048 C 
ATOM     31  O   UNL     1      -4.891  -7.676 -26.525  1.00  0.00    -0.550 OA
ATOM     32  O   UNL     1      -5.115  -5.576 -27.378  1.00  0.00    -0.550 OA
ENDBRANCH   1  30
BRANCH  27  33
ATOM     33  O   UNL     1       1.512  -6.037 -18.226  1.00  0.00    -0.393 OA
ATOM     34  H   UNL     1       1.223  -5.493 -19.006  1.00  0.00     0.210 HD
ENDBRANCH  27  33
TORSDOF 2
ENDMDL
MODEL 4
REMARK VINA RESULT:    -3.184      2.680      5.123
REMARK INTER + INTRA:          -3.630
REMARK INTER:                  -3.456
REMARK INTRA:                  -0.175
REMARK UNBOUND:                -0.167
REMARK SMILES CC1(C)CC[C@@]2(C(=O)[O-])CC[C@]3(C)C(=CC[C@H]4[C@]5(C)CC[C@H](O)C(C)(C)[C@H]5CC[C@@]43C)[C@H]2C1
REMARK SMILES IDX 6 1 5 2 10 3 32 4 4 5 11 6 14 7 33 8 2 9 12 10 15 11 1 12
REMARK SMILES IDX 3 13 13 14 30 15 16 16 17 17 29 18 31 19 18 20 28 21 27 22
REMARK SMILES IDX 20 23 19 24 24 25 21 26 22 27 25 28 26 29 7 30 8 31 9 32
REMARK SMILES IDX 23 33
REMARK H PARENT 23 34
REMARK Flexibility Score: inf
ROOT
ATOM      1  C   UNL     1       3.947  -7.804 -23.345  1.00  0.00     0.017 C 
ATOM      2  C   UNL     1       4.834  -7.950 -22.056  1.00  0.00     0.014 C 
ATOM      3  C   UNL     1       3.120  -9.112 -23.580  1.00  0.00     0.014 C 
ATOM      4  C   UNL     1       3.046  -6.488 -23.306  1.00  0.00     0.028 C 
ATOM      5  C   UNL     1       4.141  -7.513 -20.765  1.00  0.00     0.007 C 
ATOM      6  C   UNL     1       1.732  -9.125 -22.939  1.00  0.00     0.013 C 
ATOM      7  C   UNL     1       1.510  -6.636 -23.239  1.00  0.00    -0.064 C 
ATOM      8  C   UNL     1       3.592  -5.476 -22.257  1.00  0.00     0.015 C 
ATOM      9  C   UNL     1       3.698  -6.020 -20.798  1.00  0.00    -0.035 C 
ATOM     10  C   UNL     1       0.799  -7.986 -23.429  1.00  0.00    -0.006 C 
ATOM     11  C   UNL     1       0.754  -5.513 -23.388  1.00  0.00    -0.027 C 
ATOM     12  C   UNL     1       4.732  -5.160 -20.038  1.00  0.00     0.011 C 
ATOM     13  C   UNL     1       2.345  -5.881 -20.071  1.00  0.00     0.011 C 
ATOM     14  C   UNL     1       0.687  -8.114 -24.992  1.00  0.00     0.017 C 
ATOM     15  C   UNL     1      -0.674  -8.045 -22.680  1.00  0.00    -0.020 C 
ATOM     16  C   UNL     1      -0.749  -5.554 -23.278  1.00  0.00     0.032 C 
ATOM     17  C   UNL     1      -1.096  -6.594 -22.198  1.00  0.00     0.006 C 
ATOM     18  C   UNL     1      -0.694  -8.924 -21.381  1.00  0.00     0.008 C 
ATOM     19  C   UNL     1      -1.707  -8.698 -23.656  1.00  0.00     0.012 C 
ATOM     20  C   UNL     1      -2.476  -6.441 -21.431  1.00  0.00    -0.025 C 
ATOM     21  C   UNL     1      -2.022  -8.866 -20.583  1.00  0.00     0.005 C 
ATOM     22  C   UNL     1      -2.399  -7.415 -20.186  1.00  0.00     0.003 C 
ATOM     23  C   UNL     1      -2.612  -4.986 -20.867  1.00  0.00     0.010 C 
ATOM     24  C   UNL     1      -3.676  -6.702 -22.391  1.00  0.00     0.012 C 
ATOM     25  C   UNL     1      -3.565  -7.278 -19.130  1.00  0.00    -0.006 C 
ATOM     26  C   UNL     1      -3.758  -4.809 -19.853  1.00  0.00     0.033 C 
ATOM     27  C   UNL     1      -3.660  -5.785 -18.673  1.00  0.00     0.120 C 
ATOM     28  C   UNL     1      -4.939  -7.761 -19.663  1.00  0.00     0.014 C 
ATOM     29  C   UNL     1      -3.260  -8.144 -17.875  1.00  0.00     0.014 C 
ENDROOT
BRANCH   1  30
ATOM     30  C   UNL     1       4.959  -7.700 -24.492  1.00  0.00     0.048 C 
ATOM     31  O   UNL     1       4.578  -7.403 -25.657  1.00  0.00    -0.550 OA
ATOM     32  O   UNL     1       6.285  -8.078 -24.308  1.00  0.00    -0.550 OA
ENDBRANCH   1  30
BRANCH  27  33
ATOM     33  O   UNL     1      -2.537  -5.422 -17.902  1.00  0.00    -0.393 OA
ATOM     34  H   UNL     1      -2.359  -6.169 -17.271  1.00  0.00     0.210 HD
ENDBRANCH  27  33
TORSDOF 2
ENDMDL
MODEL 5
REMARK VINA RESULT:    -3.084      1.728      2.369
REMARK INTER + INTRA:          -3.522
REMARK INTER:                  -3.330
REMARK INTRA:                  -0.192
REMARK UNBOUND:                -0.167
REMARK SMILES CC1(C)CC[C@@]2(C(=O)[O-])CC[C@]3(C)C(=CC[C@H]4[C@]5(C)CC[C@H](O)C(C)(C)[C@H]5CC[C@@]43C)[C@H]2C1
REMARK SMILES IDX 6 1 5 2 10 3 32 4 4 5 11 6 14 7 33 8 2 9 12 10 15 11 1 12
REMARK SMILES IDX 3 13 13 14 30 15 16 16 17 17 29 18 31 19 18 20 28 21 27 22
REMARK SMILES IDX 20 23 19 24 24 25 21 26 22 27 25 28 26 29 7 30 8 31 9 32
REMARK SMILES IDX 23 33
REMARK H PARENT 23 34
REMARK Flexibility Score: inf
ROOT
ATOM      1  C   UNL     1       4.448  -6.581 -19.967  1.00  0.00     0.017 C 
ATOM      2  C   UNL     1       5.054  -5.748 -21.153  1.00  0.00     0.014 C 
ATOM      3  C   UNL     1       3.638  -5.644 -19.011  1.00  0.00     0.014 C 
ATOM      4  C   UNL     1       3.607  -7.835 -20.484  1.00  0.00     0.028 C 
ATOM      5  C   UNL     1       4.134  -5.627 -22.368  1.00  0.00     0.007 C 
ATOM      6  C   UNL     1       2.150  -5.514 -19.339  1.00  0.00     0.013 C 
ATOM      7  C   UNL     1       2.083  -7.868 -20.228  1.00  0.00    -0.064 C 
ATOM      8  C   UNL     1       3.969  -8.173 -21.959  1.00  0.00     0.015 C 
ATOM      9  C   UNL     1       3.761  -7.011 -22.979  1.00  0.00    -0.035 C 
ATOM     10  C   UNL     1       1.376  -6.858 -19.309  1.00  0.00    -0.006 C 
ATOM     11  C   UNL     1       1.414  -9.019 -20.512  1.00  0.00    -0.027 C 
ATOM     12  C   UNL     1       4.653  -7.286 -24.211  1.00  0.00     0.011 C 
ATOM     13  C   UNL     1       2.296  -6.970 -23.461  1.00  0.00     0.011 C 
ATOM     14  C   UNL     1       1.573  -7.479 -17.877  1.00  0.00     0.017 C 
ATOM     15  C   UNL     1      -0.218  -6.649 -19.695  1.00  0.00    -0.020 C 
ATOM     16  C   UNL     1      -0.082  -9.122 -20.350  1.00  0.00     0.032 C 
ATOM     17  C   UNL     1      -0.674  -7.756 -20.735  1.00  0.00     0.006 C 
ATOM     18  C   UNL     1      -0.530  -5.282 -20.397  1.00  0.00     0.008 C 
ATOM     19  C   UNL     1      -1.059  -6.654 -18.376  1.00  0.00     0.012 C 
ATOM     20  C   UNL     1      -2.173  -7.712 -21.252  1.00  0.00    -0.025 C 
ATOM     21  C   UNL     1      -1.987  -5.134 -20.905  1.00  0.00     0.005 C 
ATOM     22  C   UNL     1      -2.382  -6.274 -21.879  1.00  0.00     0.003 C 
ATOM     23  C   UNL     1      -2.366  -8.750 -22.410  1.00  0.00     0.010 C 
ATOM     24  C   UNL     1      -3.166  -8.075 -20.107  1.00  0.00     0.012 C 
ATOM     25  C   UNL     1      -3.730  -6.056 -22.673  1.00  0.00    -0.006 C 
ATOM     26  C   UNL     1      -3.684  -8.583 -23.190  1.00  0.00     0.033 C 
ATOM     27  C   UNL     1      -3.859  -7.170 -23.763  1.00  0.00     0.120 C 
ATOM     28  C   UNL     1      -4.986  -6.050 -21.764  1.00  0.00     0.014 C 
ATOM     29  C   UNL     1      -3.713  -4.680 -23.395  1.00  0.00     0.014 C 
ENDROOT
BRANCH   1  30
ATOM     30  C   UNL     1       5.671  -7.072 -19.185  1.00  0.00     0.048 C 
ATOM     31  O   UNL     1       6.815  -7.073 -19.717  1.00  0.00    -0.550 OA
ATOM     32  O   UNL     1       5.527  -7.664 -17.934  1.00  0.00    -0.550 OA
ENDBRANCH   1  30
BRANCH  27  33
ATOM     33  O   UNL     1      -2.901  -6.993 -24.781  1.00  0.00    -0.393 OA
ATOM     34  H   UNL     1      -3.358  -7.160 -25.648  1.00  0.00     0.210 HD
ENDBRANCH  27  33
TORSDOF 2
ENDMDL
MODEL 6
REMARK VINA RESULT:    -2.840      1.810      7.574
REMARK INTER + INTRA:          -3.257
REMARK INTER:                  -3.160
REMARK INTRA:                  -0.097
REMARK UNBOUND:                -0.167
REMARK SMILES CC1(C)CC[C@@]2(C(=O)[O-])CC[C@]3(C)C(=CC[C@H]4[C@]5(C)CC[C@H](O)C(C)(C)[C@H]5CC[C@@]43C)[C@H]2C1
REMARK SMILES IDX 6 1 5 2 10 3 32 4 4 5 11 6 14 7 33 8 2 9 12 10 15 11 1 12
REMARK SMILES IDX 3 13 13 14 30 15 16 16 17 17 29 18 31 19 18 20 28 21 27 22
REMARK SMILES IDX 20 23 19 24 24 25 21 26 22 27 25 28 26 29 7 30 8 31 9 32
REMARK SMILES IDX 23 33
REMARK H PARENT 23 34
REMARK Flexibility Score: inf
ROOT
ATOM      1  C   UNL     1      -3.693  -6.186 -23.781  1.00  0.00     0.017 C 
ATOM      2  C   UNL     1      -4.656  -6.131 -22.541  1.00  0.00     0.014 C 
ATOM      3  C   UNL     1      -2.897  -4.845 -23.904  1.00  0.00     0.014 C 
ATOM      4  C   UNL     1      -2.754  -7.476 -23.754  1.00  0.00     0.028 C 
ATOM      5  C   UNL     1      -4.023  -6.612 -21.235  1.00  0.00     0.007 C 
ATOM      6  C   UNL     1      -1.548  -4.823 -23.184  1.00  0.00     0.013 C 
ATOM      7  C   UNL     1      -1.229  -7.286 -23.591  1.00  0.00    -0.064 C 
ATOM      8  C   UNL     1      -3.325  -8.555 -22.789  1.00  0.00     0.015 C 
ATOM      9  C   UNL     1      -3.531  -8.088 -21.314  1.00  0.00    -0.035 C 
ATOM     10  C   UNL     1      -0.553  -5.908 -23.674  1.00  0.00    -0.006 C 
ATOM     11  C   UNL     1      -0.430  -8.377 -23.750  1.00  0.00    -0.027 C 
ATOM     12  C   UNL     1      -4.578  -9.016 -20.658  1.00  0.00     0.011 C 
ATOM     13  C   UNL     1      -2.217  -8.224 -20.517  1.00  0.00     0.011 C 
ATOM     14  C   UNL     1      -0.357  -5.699 -25.220  1.00  0.00     0.017 C 
ATOM     15  C   UNL     1       0.873  -5.844 -22.839  1.00  0.00    -0.020 C 
ATOM     16  C   UNL     1       1.062  -8.298 -23.551  1.00  0.00     0.032 C 
ATOM     17  C   UNL     1       1.313  -7.304 -22.404  1.00  0.00     0.006 C 
ATOM     18  C   UNL     1       0.792  -5.031 -21.500  1.00  0.00     0.008 C 
ATOM     19  C   UNL     1       1.938  -5.112 -23.720  1.00  0.00     0.012 C 
ATOM     20  C   UNL     1       2.652  -7.454 -21.567  1.00  0.00    -0.025 C 
ATOM     21  C   UNL     1       2.074  -5.090 -20.630  1.00  0.00     0.005 C 
ATOM     22  C   UNL     1       2.474  -6.547 -20.283  1.00  0.00     0.003 C 
ATOM     23  C   UNL     1       2.803  -8.932 -21.067  1.00  0.00     0.010 C 
ATOM     24  C   UNL     1       3.895  -7.110 -22.441  1.00  0.00     0.012 C 
ATOM     25  C   UNL     1       3.583  -6.702 -19.168  1.00  0.00    -0.006 C 
ATOM     26  C   UNL     1       3.895  -9.125 -19.998  1.00  0.00     0.033 C 
ATOM     27  C   UNL     1       3.699  -8.213 -18.779  1.00  0.00     0.120 C 
ATOM     28  C   UNL     1       4.968  -6.153 -19.596  1.00  0.00     0.014 C 
ATOM     29  C   UNL     1       3.179  -5.910 -17.893  1.00  0.00     0.014 C 
ENDROOT
BRANCH   1  30
ATOM     30  C   UNL     1      -4.634  -6.262 -24.988  1.00  0.00     0.048 C 
ATOM     31  O   UNL     1      -5.124  -7.367 -25.351  1.00  0.00    -0.550 OA
ATOM     32  O   UNL     1      -4.847  -5.150 -25.797  1.00  0.00    -0.550 OA
ENDBRANCH   1  30
BRANCH  27  33
ATOM     33  O   UNL     1       2.547  -8.648 -18.094  1.00  0.00    -0.393 OA
ATOM     34  H   UNL     1       2.317  -9.548 -18.447  1.00  0.00     0.210 HD
ENDBRANCH  27  33
TORSDOF 2
ENDMDL
MODEL 7
REMARK VINA RESULT:    -2.756      1.409      2.180
REMARK INTER + INTRA:          -3.166
REMARK INTER:                  -2.972
REMARK INTRA:                  -0.194
REMARK UNBOUND:                -0.167
REMARK SMILES CC1(C)CC[C@@]2(C(=O)[O-])CC[C@]3(C)C(=CC[C@H]4[C@]5(C)CC[C@H](O)C(C)(C)[C@H]5CC[C@@]43C)[C@H]2C1
REMARK SMILES IDX 6 1 5 2 10 3 32 4 4 5 11 6 14 7 33 8 2 9 12 10 15 11 1 12
REMARK SMILES IDX 3 13 13 14 30 15 16 16 17 17 29 18 31 19 18 20 28 21 27 22
REMARK SMILES IDX 20 23 19 24 24 25 21 26 22 27 25 28 26 29 7 30 8 31 9 32
REMARK SMILES IDX 23 33
REMARK H PARENT 23 34
REMARK Flexibility Score: inf
ROOT
ATOM      1  C   UNL     1       0.830  -6.939 -20.306  1.00  0.00     0.017 C 
ATOM      2  C   UNL     1       2.207  -6.453 -20.887  1.00  0.00     0.014 C 
ATOM      3  C   UNL     1      -0.169  -5.738 -20.217  1.00  0.00     0.014 C 
ATOM      4  C   UNL     1       0.247  -8.186 -21.112  1.00  0.00     0.028 C 
ATOM      5  C   UNL     1       2.300  -6.513 -22.412  1.00  0.00     0.007 C 
ATOM      6  C   UNL     1      -1.053  -5.537 -21.448  1.00  0.00     0.013 C 
ATOM      7  C   UNL     1      -1.064  -8.011 -21.912  1.00  0.00    -0.064 C 
ATOM      8  C   UNL     1       1.365  -8.877 -21.946  1.00  0.00     0.015 C 
ATOM      9  C   UNL     1       2.099  -7.954 -22.969  1.00  0.00    -0.035 C 
ATOM     10  C   UNL     1      -1.947  -6.759 -21.790  1.00  0.00    -0.006 C 
ATOM     11  C   UNL     1      -1.640  -9.125 -22.442  1.00  0.00    -0.027 C 
ATOM     12  C   UNL     1       3.476  -8.583 -23.280  1.00  0.00     0.011 C 
ATOM     13  C   UNL     1       1.308  -7.877 -24.291  1.00  0.00     0.011 C 
ATOM     14  C   UNL     1      -2.827  -7.063 -20.523  1.00  0.00     0.017 C 
ATOM     15  C   UNL     1      -2.857  -6.484 -23.143  1.00  0.00    -0.020 C 
ATOM     16  C   UNL     1      -2.887  -9.042 -23.286  1.00  0.00     0.032 C 
ATOM     17  C   UNL     1      -2.793  -7.744 -24.105  1.00  0.00     0.006 C 
ATOM     18  C   UNL     1      -2.354  -5.282 -24.017  1.00  0.00     0.008 C 
ATOM     19  C   UNL     1      -4.312  -6.113 -22.703  1.00  0.00     0.012 C 
ATOM     20  C   UNL     1      -3.587  -7.668 -25.477  1.00  0.00    -0.025 C 
ATOM     21  C   UNL     1      -3.099  -5.108 -25.365  1.00  0.00     0.005 C 
ATOM     22  C   UNL     1      -3.038  -6.391 -26.234  1.00  0.00     0.003 C 
ATOM     23  C   UNL     1      -3.236  -8.912 -26.362  1.00  0.00     0.010 C 
ATOM     24  C   UNL     1      -5.125  -7.669 -25.229  1.00  0.00     0.012 C 
ATOM     25  C   UNL     1      -3.507  -6.222 -27.733  1.00  0.00    -0.006 C 
ATOM     26  C   UNL     1      -3.703  -8.793 -27.825  1.00  0.00     0.033 C 
ATOM     27  C   UNL     1      -3.168  -7.532 -28.518  1.00  0.00     0.120 C 
ATOM     28  C   UNL     1      -5.016  -5.892 -27.873  1.00  0.00     0.014 C 
ATOM     29  C   UNL     1      -2.743  -5.049 -28.407  1.00  0.00     0.014 C 
ENDROOT
BRANCH   1  30
ATOM     30  C   UNL     1       1.154  -7.362 -18.869  1.00  0.00     0.048 C 
ATOM     31  O   UNL     1       2.343  -7.602 -18.524  1.00  0.00    -0.550 OA
ATOM     32  O   UNL     1       0.136  -7.636 -17.961  1.00  0.00    -0.550 OA
ENDBRANCH   1  30
BRANCH  27  33
ATOM     33  O   UNL     1      -1.775  -7.681 -28.673  1.00  0.00    -0.393 OA
ATOM     34  H   UNL     1      -1.573  -8.651 -28.601  1.00  0.00     0.210 HD
ENDBRANCH  27  33
TORSDOF 2
ENDMDL
