MODEL 1
REMARK VINA RESULT:    -4.218      0.000      0.000
REMARK INTER + INTRA:          -9.286
REMARK INTER:                  -7.423
REMARK INTRA:                  -1.863
REMARK UNBOUND:                -1.863
REMARK SMILES CCCCCCCCCCCCCCC(=O)[O-]
REMARK SMILES IDX 9 1 10 2 11 3 12 4 13 5 14 6 15 7 16 8 17 9 8 10 7 11 6 12
REMARK SMILES IDX 5 13 4 14 3 15 2 16 1 17
REMARK H PARENT
REMARK Flexibility Score: inf
ROOT
ATOM      1  C   UNL     1      -5.852   6.864 -36.115  1.00  0.00     0.000 C 
ENDROOT
BRANCH   1   2
ATOM      2  C   UNL     1      -5.791   7.781 -34.881  1.00  0.00     0.000 C 
BRANCH   2   3
ATOM      3  C   UNL     1      -5.646   6.993 -33.570  1.00  0.00     0.000 C 
BRANCH   3   4
ATOM      4  C   UNL     1      -6.906   7.069 -32.689  1.00  0.00     0.000 C 
BRANCH   4   5
ATOM      5  C   UNL     1      -7.689   5.744 -32.658  1.00  0.00     0.006 C 
BRANCH   5   6
ATOM      6  C   UNL     1      -8.557   5.494 -33.903  1.00  0.00     0.053 C 
BRANCH   6   7
ATOM      7  C   UNL     1      -8.235   4.186 -34.559  1.00  0.00     0.041 C 
ATOM      8  O   UNL     1      -7.036   3.845 -34.739  1.00  0.00    -0.550 OA
ATOM      9  O   UNL     1      -9.260   3.361 -35.005  1.00  0.00    -0.550 OA
ENDBRANCH   6   7
ENDBRANCH   5   6
ENDBRANCH   4   5
ENDBRANCH   3   4
ENDBRANCH   2   3
ENDBRANCH   1   2
BRANCH   1  10
ATOM     10  C   UNL     1      -4.589   6.952 -36.992  1.00  0.00     0.000 C 
BRANCH  10  11
ATOM     11  C   UNL     1      -4.220   8.367 -37.475  1.00  0.00    -0.000 C 
BRANCH  11  12
ATOM     12  C   UNL     1      -2.736   8.709 -37.256  1.00  0.00    -0.000 C 
BRANCH  12  13
ATOM     13  C   UNL     1      -1.915   7.496 -36.789  1.00  0.00    -0.000 C 
BRANCH  13  14
ATOM     14  C   UNL     1      -1.144   7.766 -35.487  1.00  0.00    -0.000 C 
BRANCH  14  15
ATOM     15  C   UNL     1      -2.110   7.908 -34.301  1.00  0.00    -0.000 C 
BRANCH  15  16
ATOM     16  C   UNL     1      -2.003   9.279 -33.615  1.00  0.00    -0.003 C 
ATOM     17  C   UNL     1      -3.151  10.218 -33.988  1.00  0.00     0.004 C 
ENDBRANCH  15  16
ENDBRANCH  14  15
ENDBRANCH  13  14
ENDBRANCH  12  13
ENDBRANCH  11  12
ENDBRANCH  10  11
ENDBRANCH   1  10
TORSDOF 13
ENDMDL
MODEL 2
REMARK VINA RESULT:    -4.129      2.048      4.038
REMARK INTER + INTRA:          -9.129
REMARK INTER:                  -7.523
REMARK INTRA:                  -1.606
REMARK UNBOUND:                -1.863
REMARK SMILES CCCCCCCCCCCCCCC(=O)[O-]
REMARK SMILES IDX 9 1 10 2 11 3 12 4 13 5 14 6 15 7 16 8 17 9 8 10 7 11 6 12
REMARK SMILES IDX 5 13 4 14 3 15 2 16 1 17
REMARK H PARENT
REMARK Flexibility Score: inf
ROOT
ATOM      1  C   UNL     1      -1.716   8.010 -34.578  1.00  0.00     0.000 C 
ENDROOT
BRANCH   1   2
ATOM      2  C   UNL     1      -3.051   8.754 -34.753  1.00  0.00     0.000 C 
BRANCH   2   3
ATOM      3  C   UNL     1      -4.263   7.878 -34.397  1.00  0.00     0.000 C 
BRANCH   3   4
ATOM      4  C   UNL     1      -5.303   7.816 -35.530  1.00  0.00     0.000 C 
BRANCH   4   5
ATOM      5  C   UNL     1      -6.153   6.533 -35.485  1.00  0.00     0.006 C 
BRANCH   5   6
ATOM      6  C   UNL     1      -6.661   6.161 -34.082  1.00  0.00     0.053 C 
BRANCH   6   7
ATOM      7  C   UNL     1      -7.827   5.223 -34.137  1.00  0.00     0.041 C 
ATOM      8  O   UNL     1      -7.773   4.110 -33.550  1.00  0.00    -0.550 OA
ATOM      9  O   UNL     1      -8.959   5.562 -34.867  1.00  0.00    -0.550 OA
ENDBRANCH   6   7
ENDBRANCH   5   6
ENDBRANCH   4   5
ENDBRANCH   3   4
ENDBRANCH   2   3
ENDBRANCH   1   2
BRANCH   1  10
ATOM     10  C   UNL     1      -1.163   7.451 -35.902  1.00  0.00     0.000 C 
BRANCH  10  11
ATOM     11  C   UNL     1      -1.632   8.183 -37.173  1.00  0.00    -0.000 C 
BRANCH  11  12
ATOM     12  C   UNL     1      -2.556   7.325 -38.055  1.00  0.00    -0.000 C 
BRANCH  12  13
ATOM     13  C   UNL     1      -2.683   5.880 -37.544  1.00  0.00    -0.000 C 
BRANCH  13  14
ATOM     14  C   UNL     1      -3.916   5.157 -38.106  1.00  0.00    -0.000 C 
BRANCH  14  15
ATOM     15  C   UNL     1      -3.623   3.665 -38.323  1.00  0.00    -0.000 C 
BRANCH  15  16
ATOM     16  C   UNL     1      -4.334   2.768 -37.297  1.00  0.00    -0.003 C 
ATOM     17  C   UNL     1      -5.750   3.245 -36.975  1.00  0.00     0.004 C 
ENDBRANCH  15  16
ENDBRANCH  14  15
ENDBRANCH  13  14
ENDBRANCH  12  13
ENDBRANCH  11  12
ENDBRANCH  10  11
ENDBRANCH   1  10
TORSDOF 13
ENDMDL
MODEL 3
REMARK VINA RESULT:    -4.112      2.565      6.402
REMARK INTER + INTRA:          -9.100
REMARK INTER:                  -7.709
REMARK INTRA:                  -1.392
REMARK UNBOUND:                -1.863
REMARK SMILES CCCCCCCCCCCCCCC(=O)[O-]
REMARK SMILES IDX 9 1 10 2 11 3 12 4 13 5 14 6 15 7 16 8 17 9 8 10 7 11 6 12
REMARK SMILES IDX 5 13 4 14 3 15 2 16 1 17
REMARK H PARENT
REMARK Flexibility Score: inf
ROOT
ATOM      1  C   UNL     1      -4.636   7.585 -34.316  1.00  0.00     0.000 C 
ENDROOT
BRANCH   1   2
ATOM      2  C   UNL     1      -4.271   9.078 -34.372  1.00  0.00     0.000 C 
BRANCH   2   3
ATOM      3  C   UNL     1      -2.768   9.308 -34.596  1.00  0.00     0.000 C 
BRANCH   3   4
ATOM      4  C   UNL     1      -1.917   8.082 -34.222  1.00  0.00     0.000 C 
BRANCH   4   5
ATOM      5  C   UNL     1      -1.028   7.599 -35.382  1.00  0.00     0.006 C 
BRANCH   5   6
ATOM      6  C   UNL     1      -1.501   8.057 -36.772  1.00  0.00     0.053 C 
BRANCH   6   7
ATOM      7  C   UNL     1      -2.539   7.141 -37.343  1.00  0.00     0.041 C 
ATOM      8  O   UNL     1      -2.331   5.900 -37.393  1.00  0.00    -0.550 OA
ATOM      9  O   UNL     1      -3.721   7.661 -37.854  1.00  0.00    -0.550 OA
ENDBRANCH   6   7
ENDBRANCH   5   6
ENDBRANCH   4   5
ENDBRANCH   3   4
ENDBRANCH   2   3
ENDBRANCH   1   2
BRANCH   1  10
ATOM     10  C   UNL     1      -6.148   7.342 -34.147  1.00  0.00     0.000 C 
BRANCH  10  11
ATOM     11  C   UNL     1      -6.617   7.095 -32.702  1.00  0.00    -0.000 C 
BRANCH  11  12
ATOM     12  C   UNL     1      -7.518   5.854 -32.567  1.00  0.00    -0.000 C 
BRANCH  12  13
ATOM     13  C   UNL     1      -8.722   5.894 -33.521  1.00  0.00    -0.000 C 
BRANCH  13  14
ATOM     14  C   UNL     1      -8.739   4.715 -34.507  1.00  0.00    -0.000 C 
BRANCH  14  15
ATOM     15  C   UNL     1      -7.671   3.676 -34.134  1.00  0.00    -0.000 C 
BRANCH  15  16
ATOM     16  C   UNL     1      -6.884   3.174 -35.354  1.00  0.00    -0.003 C 
ATOM     17  C   UNL     1      -6.400   4.310 -36.254  1.00  0.00     0.004 C 
ENDBRANCH  15  16
ENDBRANCH  14  15
ENDBRANCH  13  14
ENDBRANCH  12  13
ENDBRANCH  11  12
ENDBRANCH  10  11
ENDBRANCH   1  10
TORSDOF 13
ENDMDL
MODEL 4
REMARK VINA RESULT:    -4.104      2.273      3.199
REMARK INTER + INTRA:          -9.085
REMARK INTER:                  -8.158
REMARK INTRA:                  -0.927
REMARK UNBOUND:                -1.863
REMARK SMILES CCCCCCCCCCCCCCC(=O)[O-]
REMARK SMILES IDX 9 1 10 2 11 3 12 4 13 5 14 6 15 7 16 8 17 9 8 10 7 11 6 12
REMARK SMILES IDX 5 13 4 14 3 15 2 16 1 17
REMARK H PARENT
REMARK Flexibility Score: inf
ROOT
ATOM      1  C   UNL     1      -4.720   2.879 -37.249  1.00  0.00     0.000 C 
ENDROOT
BRANCH   1   2
ATOM      2  C   UNL     1      -5.974   3.710 -36.927  1.00  0.00     0.000 C 
BRANCH   2   3
ATOM      3  C   UNL     1      -6.529   3.418 -35.524  1.00  0.00     0.000 C 
BRANCH   3   4
ATOM      4  C   UNL     1      -8.032   3.727 -35.403  1.00  0.00     0.000 C 
BRANCH   4   5
ATOM      5  C   UNL     1      -8.307   5.087 -34.739  1.00  0.00     0.006 C 
BRANCH   5   6
ATOM      6  C   UNL     1      -7.840   5.181 -33.277  1.00  0.00     0.053 C 
BRANCH   6   7
ATOM      7  C   UNL     1      -6.925   6.346 -33.053  1.00  0.00     0.041 C 
ATOM      8  O   UNL     1      -6.141   6.721 -33.965  1.00  0.00    -0.550 OA
ATOM      9  O   UNL     1      -6.911   6.993 -31.824  1.00  0.00    -0.550 OA
ENDBRANCH   6   7
ENDBRANCH   5   6
ENDBRANCH   4   5
ENDBRANCH   3   4
ENDBRANCH   2   3
ENDBRANCH   1   2
BRANCH   1  10
ATOM     10  C   UNL     1      -3.686   3.652 -38.089  1.00  0.00     0.000 C 
BRANCH  10  11
ATOM     11  C   UNL     1      -3.834   5.185 -38.066  1.00  0.00    -0.000 C 
BRANCH  11  12
ATOM     12  C   UNL     1      -2.669   5.890 -37.349  1.00  0.00    -0.000 C 
BRANCH  12  13
ATOM     13  C   UNL     1      -2.500   7.351 -37.796  1.00  0.00    -0.000 C 
BRANCH  13  14
ATOM     14  C   UNL     1      -1.570   8.152 -36.872  1.00  0.00    -0.000 C 
BRANCH  14  15
ATOM     15  C   UNL     1      -1.031   7.266 -35.739  1.00  0.00    -0.000 C 
BRANCH  15  16
ATOM     16  C   UNL     1      -1.457   7.761 -34.348  1.00  0.00    -0.003 C 
ATOM     17  C   UNL     1      -2.369   8.986 -34.410  1.00  0.00     0.004 C 
ENDBRANCH  15  16
ENDBRANCH  14  15
ENDBRANCH  13  14
ENDBRANCH  12  13
ENDBRANCH  11  12
ENDBRANCH  10  11
ENDBRANCH   1  10
TORSDOF 13
ENDMDL
MODEL 5
REMARK VINA RESULT:    -4.015     14.987     16.540
REMARK INTER + INTRA:          -8.930
REMARK INTER:                  -7.140
REMARK INTRA:                  -1.789
REMARK UNBOUND:                -1.863
REMARK SMILES CCCCCCCCCCCCCCC(=O)[O-]
REMARK SMILES IDX 9 1 10 2 11 3 12 4 13 5 14 6 15 7 16 8 17 9 8 10 7 11 6 12
REMARK SMILES IDX 5 13 4 14 3 15 2 16 1 17
REMARK H PARENT
REMARK Flexibility Score: inf
ROOT
ATOM      1  C   UNL     1     -10.189   1.896 -21.582  1.00  0.00     0.000 C 
ENDROOT
BRANCH   1   2
ATOM      2  C   UNL     1     -11.001   1.958 -20.277  1.00  0.00     0.000 C 
BRANCH   2   3
ATOM      3  C   UNL     1     -12.507   1.766 -20.511  1.00  0.00     0.000 C 
BRANCH   3   4
ATOM      4  C   UNL     1     -12.932   2.103 -21.951  1.00  0.00     0.000 C 
BRANCH   4   5
ATOM      5  C   UNL     1     -14.045   3.165 -22.009  1.00  0.00     0.006 C 
BRANCH   5   6
ATOM      6  C   UNL     1     -14.616   3.404 -23.417  1.00  0.00     0.053 C 
BRANCH   6   7
ATOM      7  C   UNL     1     -14.706   4.862 -23.746  1.00  0.00     0.041 C 
ATOM      8  O   UNL     1     -15.806   5.368 -24.091  1.00  0.00    -0.550 OA
ATOM      9  O   UNL     1     -13.566   5.655 -23.709  1.00  0.00    -0.550 OA
ENDBRANCH   6   7
ENDBRANCH   5   6
ENDBRANCH   4   5
ENDBRANCH   3   4
ENDBRANCH   2   3
ENDBRANCH   1   2
BRANCH   1  10
ATOM     10  C   UNL     1      -8.742   1.415 -21.367  1.00  0.00     0.000 C 
BRANCH  10  11
ATOM     11  C   UNL     1      -8.519   0.533 -20.125  1.00  0.00    -0.000 C 
BRANCH  11  12
ATOM     12  C   UNL     1      -8.737  -0.964 -20.405  1.00  0.00    -0.000 C 
BRANCH  12  13
ATOM     13  C   UNL     1     -10.025  -1.503 -19.761  1.00  0.00    -0.000 C 
BRANCH  13  14
ATOM     14  C   UNL     1     -10.851  -2.372 -20.721  1.00  0.00    -0.000 C 
BRANCH  14  15
ATOM     15  C   UNL     1     -11.691  -1.497 -21.664  1.00  0.00    -0.000 C 
BRANCH  15  16
ATOM     16  C   UNL     1     -11.502  -1.873 -23.142  1.00  0.00    -0.003 C 
ATOM     17  C   UNL     1     -10.387  -1.075 -23.818  1.00  0.00     0.004 C 
ENDBRANCH  15  16
ENDBRANCH  14  15
ENDBRANCH  13  14
ENDBRANCH  12  13
ENDBRANCH  11  12
ENDBRANCH  10  11
ENDBRANCH   1  10
TORSDOF 13
ENDMDL
MODEL 6
REMARK VINA RESULT:    -3.963      1.948      3.293
REMARK INTER + INTRA:          -8.837
REMARK INTER:                  -7.292
REMARK INTRA:                  -1.545
REMARK UNBOUND:                -1.863
REMARK SMILES CCCCCCCCCCCCCCC(=O)[O-]
REMARK SMILES IDX 9 1 10 2 11 3 12 4 13 5 14 6 15 7 16 8 17 9 8 10 7 11 6 12
REMARK SMILES IDX 5 13 4 14 3 15 2 16 1 17
REMARK H PARENT
REMARK Flexibility Score: inf
ROOT
ATOM      1  C   UNL     1      -3.924   5.525 -38.368  1.00  0.00     0.000 C 
ENDROOT
BRANCH   1   2
ATOM      2  C   UNL     1      -4.155   4.033 -38.073  1.00  0.00     0.000 C 
BRANCH   2   3
ATOM      3  C   UNL     1      -5.646   3.684 -37.941  1.00  0.00     0.000 C 
BRANCH   3   4
ATOM      4  C   UNL     1      -6.037   3.282 -36.507  1.00  0.00     0.000 C 
BRANCH   4   5
ATOM      5  C   UNL     1      -7.206   4.116 -35.954  1.00  0.00     0.006 C 
BRANCH   5   6
ATOM      6  C   UNL     1      -7.511   3.867 -34.468  1.00  0.00     0.053 C 
BRANCH   6   7
ATOM      7  C   UNL     1      -8.173   5.047 -33.825  1.00  0.00     0.041 C 
ATOM      8  O   UNL     1      -9.220   5.538 -34.325  1.00  0.00    -0.550 OA
ATOM      9  O   UNL     1      -7.613   5.628 -32.694  1.00  0.00    -0.550 OA
ENDBRANCH   6   7
ENDBRANCH   5   6
ENDBRANCH   4   5
ENDBRANCH   3   4
ENDBRANCH   2   3
ENDBRANCH   1   2
BRANCH   1  10
ATOM     10  C   UNL     1      -2.752   6.121 -37.565  1.00  0.00     0.000 C 
BRANCH  10  11
ATOM     11  C   UNL     1      -2.397   7.580 -37.905  1.00  0.00    -0.000 C 
BRANCH  11  12
ATOM     12  C   UNL     1      -1.469   8.230 -36.864  1.00  0.00    -0.000 C 
BRANCH  12  13
ATOM     13  C   UNL     1      -1.704   7.688 -35.445  1.00  0.00    -0.000 C 
BRANCH  13  14
ATOM     14  C   UNL     1      -2.317   8.736 -34.502  1.00  0.00    -0.000 C 
BRANCH  14  15
ATOM     15  C   UNL     1      -3.804   8.953 -34.819  1.00  0.00    -0.000 C 
BRANCH  15  16
ATOM     16  C   UNL     1      -4.665   7.727 -34.481  1.00  0.00    -0.003 C 
ATOM     17  C   UNL     1      -5.671   7.388 -35.580  1.00  0.00     0.004 C 
ENDBRANCH  15  16
ENDBRANCH  14  15
ENDBRANCH  13  14
ENDBRANCH  12  13
ENDBRANCH  11  12
ENDBRANCH  10  11
ENDBRANCH   1  10
TORSDOF 13
ENDMDL
MODEL 7
REMARK VINA RESULT:    -3.962     14.872     16.263
REMARK INTER + INTRA:          -8.836
REMARK INTER:                  -7.426
REMARK INTRA:                  -1.410
REMARK UNBOUND:                -1.863
REMARK SMILES CCCCCCCCCCCCCCC(=O)[O-]
REMARK SMILES IDX 9 1 10 2 11 3 12 4 13 5 14 6 15 7 16 8 17 9 8 10 7 11 6 12
REMARK SMILES IDX 5 13 4 14 3 15 2 16 1 17
REMARK H PARENT
REMARK Flexibility Score: inf
ROOT
ATOM      1  C   UNL     1     -12.487   1.442 -21.558  1.00  0.00     0.000 C 
ENDROOT
BRANCH   1   2
ATOM      2  C   UNL     1     -13.189   2.720 -22.047  1.00  0.00     0.000 C 
BRANCH   2   3
ATOM      3  C   UNL     1     -14.576   2.437 -22.646  1.00  0.00     0.000 C 
BRANCH   3   4
ATOM      4  C   UNL     1     -15.694   3.249 -21.968  1.00  0.00     0.000 C 
BRANCH   4   5
ATOM      5  C   UNL     1     -15.294   4.714 -21.715  1.00  0.00     0.006 C 
BRANCH   5   6
ATOM      6  C   UNL     1     -15.924   5.717 -22.695  1.00  0.00     0.053 C 
BRANCH   6   7
ATOM      7  C   UNL     1     -15.187   5.769 -23.998  1.00  0.00     0.041 C 
ATOM      8  O   UNL     1     -13.928   5.749 -24.016  1.00  0.00    -0.550 OA
ATOM      9  O   UNL     1     -15.891   5.875 -25.191  1.00  0.00    -0.550 OA
ENDBRANCH   6   7
ENDBRANCH   5   6
ENDBRANCH   4   5
ENDBRANCH   3   4
ENDBRANCH   2   3
ENDBRANCH   1   2
BRANCH   1  10
ATOM     10  C   UNL     1     -11.347   1.728 -20.562  1.00  0.00     0.000 C 
BRANCH  10  11
ATOM     11  C   UNL     1     -10.007   2.144 -21.197  1.00  0.00    -0.000 C 
BRANCH  11  12
ATOM     12  C   UNL     1      -8.825   1.279 -20.727  1.00  0.00    -0.000 C 
BRANCH  12  13
ATOM     13  C   UNL     1      -9.281  -0.007 -20.019  1.00  0.00    -0.000 C 
BRANCH  13  14
ATOM     14  C   UNL     1      -9.100  -1.261 -20.889  1.00  0.00    -0.000 C 
BRANCH  14  15
ATOM     15  C   UNL     1     -10.450  -1.743 -21.440  1.00  0.00    -0.000 C 
BRANCH  15  16
ATOM     16  C   UNL     1     -10.438  -1.913 -22.967  1.00  0.00    -0.003 C 
ATOM     17  C   UNL     1     -10.235  -0.592 -23.708  1.00  0.00     0.004 C 
ENDBRANCH  15  16
ENDBRANCH  14  15
ENDBRANCH  13  14
ENDBRANCH  12  13
ENDBRANCH  11  12
ENDBRANCH  10  11
ENDBRANCH   1  10
TORSDOF 13
ENDMDL
MODEL 8
REMARK VINA RESULT:    -3.863     14.767     16.305
REMARK INTER + INTRA:          -8.661
REMARK INTER:                  -7.042
REMARK INTRA:                  -1.619
REMARK UNBOUND:                -1.863
REMARK SMILES CCCCCCCCCCCCCCC(=O)[O-]
REMARK SMILES IDX 9 1 10 2 11 3 12 4 13 5 14 6 15 7 16 8 17 9 8 10 7 11 6 12
REMARK SMILES IDX 5 13 4 14 3 15 2 16 1 17
REMARK H PARENT
REMARK Flexibility Score: inf
ROOT
ATOM      1  C   UNL     1      -9.804   2.111 -20.580  1.00  0.00     0.000 C 
ENDROOT
BRANCH   1   2
ATOM      2  C   UNL     1      -8.732   1.015 -20.709  1.00  0.00     0.000 C 
BRANCH   2   3
ATOM      3  C   UNL     1      -9.171  -0.314 -20.074  1.00  0.00     0.000 C 
BRANCH   3   4
ATOM      4  C   UNL     1      -9.197  -1.475 -21.084  1.00  0.00     0.000 C 
BRANCH   4   5
ATOM      5  C   UNL     1     -10.625  -1.949 -21.409  1.00  0.00     0.006 C 
BRANCH   5   6
ATOM      6  C   UNL     1     -11.319  -1.143 -22.519  1.00  0.00     0.053 C 
BRANCH   6   7
ATOM      7  C   UNL     1     -10.416  -0.906 -23.691  1.00  0.00     0.041 C 
ATOM      8  O   UNL     1     -10.022   0.259 -23.962  1.00  0.00    -0.550 OA
ATOM      9  O   UNL     1     -10.039  -1.967 -24.504  1.00  0.00    -0.550 OA
ENDBRANCH   6   7
ENDBRANCH   5   6
ENDBRANCH   4   5
ENDBRANCH   3   4
ENDBRANCH   2   3
ENDBRANCH   1   2
BRANCH   1  10
ATOM     10  C   UNL     1     -11.015   1.670 -19.736  1.00  0.00     0.000 C 
BRANCH  10  11
ATOM     11  C   UNL     1     -12.369   1.692 -20.467  1.00  0.00    -0.000 C 
BRANCH  11  12
ATOM     12  C   UNL     1     -12.271   2.253 -21.897  1.00  0.00    -0.000 C 
BRANCH  12  13
ATOM     13  C   UNL     1     -13.638   2.681 -22.457  1.00  0.00    -0.000 C 
BRANCH  13  14
ATOM     14  C   UNL     1     -14.423   3.578 -21.488  1.00  0.00    -0.000 C 
BRANCH  14  15
ATOM     15  C   UNL     1     -14.353   5.049 -21.927  1.00  0.00    -0.000 C 
BRANCH  15  16
ATOM     16  C   UNL     1     -13.904   5.208 -23.388  1.00  0.00    -0.003 C 
ATOM     17  C   UNL     1     -15.058   5.555 -24.327  1.00  0.00     0.004 C 
ENDBRANCH  15  16
ENDBRANCH  14  15
ENDBRANCH  13  14
ENDBRANCH  12  13
ENDBRANCH  11  12
ENDBRANCH  10  11
ENDBRANCH   1  10
TORSDOF 13
ENDMDL
MODEL 9
REMARK VINA RESULT:    -3.831      1.310      3.604
REMARK INTER + INTRA:          -8.606
REMARK INTER:                  -6.809
REMARK INTRA:                  -1.797
REMARK UNBOUND:                -1.863
REMARK SMILES CCCCCCCCCCCCCCC(=O)[O-]
REMARK SMILES IDX 9 1 10 2 11 3 12 4 13 5 14 6 15 7 16 8 17 9 8 10 7 11 6 12
REMARK SMILES IDX 5 13 4 14 3 15 2 16 1 17
REMARK H PARENT
REMARK Flexibility Score: inf
ROOT
ATOM      1  C   UNL     1      -2.652   6.598 -37.183  1.00  0.00     0.000 C 
ENDROOT
BRANCH   1   2
ATOM      2  C   UNL     1      -3.662   6.912 -38.299  1.00  0.00     0.000 C 
BRANCH   2   3
ATOM      3  C   UNL     1      -5.112   6.623 -37.879  1.00  0.00     0.000 C 
BRANCH   3   4
ATOM      4  C   UNL     1      -5.284   5.223 -37.264  1.00  0.00     0.000 C 
BRANCH   4   5
ATOM      5  C   UNL     1      -6.736   4.933 -36.843  1.00  0.00     0.006 C 
BRANCH   5   6
ATOM      6  C   UNL     1      -6.874   3.866 -35.745  1.00  0.00     0.053 C 
BRANCH   6   7
ATOM      7  C   UNL     1      -8.274   3.777 -35.220  1.00  0.00     0.041 C 
ATOM      8  O   UNL     1      -8.923   2.703 -35.325  1.00  0.00    -0.550 OA
ATOM      9  O   UNL     1      -8.874   4.891 -34.647  1.00  0.00    -0.550 OA
ENDBRANCH   6   7
ENDBRANCH   5   6
ENDBRANCH   4   5
ENDBRANCH   3   4
ENDBRANCH   2   3
ENDBRANCH   1   2
BRANCH   1  10
ATOM     10  C   UNL     1      -1.738   7.792 -36.847  1.00  0.00     0.000 C 
BRANCH  10  11
ATOM     11  C   UNL     1      -1.140   7.784 -35.428  1.00  0.00    -0.000 C 
BRANCH  11  12
ATOM     12  C   UNL     1      -2.190   8.044 -34.333  1.00  0.00    -0.000 C 
BRANCH  12  13
ATOM     13  C   UNL     1      -3.102   9.237 -34.662  1.00  0.00    -0.000 C 
BRANCH  13  14
ATOM     14  C   UNL     1      -4.589   8.853 -34.709  1.00  0.00    -0.000 C 
BRANCH  14  15
ATOM     15  C   UNL     1      -4.797   7.412 -34.221  1.00  0.00    -0.000 C 
BRANCH  15  16
ATOM     16  C   UNL     1      -6.276   7.081 -33.969  1.00  0.00    -0.003 C 
ATOM     17  C   UNL     1      -6.624   7.020 -32.482  1.00  0.00     0.004 C 
ENDBRANCH  15  16
ENDBRANCH  14  15
ENDBRANCH  13  14
ENDBRANCH  12  13
ENDBRANCH  11  12
ENDBRANCH  10  11
ENDBRANCH   1  10
TORSDOF 13
ENDMDL
