MODEL 1
REMARK VINA RESULT:    -6.338      0.000      0.000
REMARK INTER + INTRA:          -7.013
REMARK INTER:                  -6.708
REMARK INTRA:                  -0.305
REMARK UNBOUND:                -0.305
REMARK SMILES CC1=CC[C@@H]2[C@H]3[C@@H](C(C)C)CC[C@]2(C)[C@@H]13
REMARK SMILES IDX 1 1 2 2 3 3 4 4 5 5 6 6 15 7 13 8 12 9 11 10 7 11 14 12 8 13
REMARK SMILES IDX 9 14 10 15
REMARK H PARENT
REMARK Flexibility Score: inf
ROOT
ATOM      1  C   UNL     1       5.069  15.250   3.704  1.00  0.00     0.039 C 
ATOM      2  C   UNL     1       4.045  14.160   3.594  1.00  0.00    -0.073 C 
ATOM      3  C   UNL     1       4.390  12.848   3.513  1.00  0.00    -0.027 C 
ATOM      4  C   UNL     1       3.280  11.797   3.405  1.00  0.00     0.031 C 
ATOM      5  C   UNL     1       1.878  12.488   3.362  1.00  0.00     0.003 C 
ATOM      6  C   UNL     1       1.968  13.663   2.354  1.00  0.00     0.004 C 
ATOM      7  C   UNL     1       2.553  14.493   3.520  1.00  0.00     0.024 C 
ATOM      8  C   UNL     1       1.744  13.572   4.463  1.00  0.00    -0.022 C 
ATOM      9  C   UNL     1       0.275  14.091   4.544  1.00  0.00     0.008 C 
ATOM     10  C   UNL     1      -0.436  14.086   3.165  1.00  0.00     0.005 C 
ATOM     11  C   UNL     1       0.564  14.224   1.974  1.00  0.00    -0.005 C 
ATOM     12  C   UNL     1       2.309  13.286   5.873  1.00  0.00     0.012 C 
ENDROOT
BRANCH  11  13
ATOM     13  C   UNL     1       0.041  13.644   0.625  1.00  0.00    -0.014 C 
ATOM     14  C   UNL     1       1.182  13.053  -0.216  1.00  0.00     0.007 C 
ATOM     15  C   UNL     1      -0.781  14.638  -0.213  1.00  0.00     0.007 C 
ENDBRANCH  11  13
TORSDOF 1
ENDMDL
MODEL 2
REMARK VINA RESULT:    -6.227      1.298      4.487
REMARK INTER + INTRA:          -6.896
REMARK INTER:                  -6.538
REMARK INTRA:                  -0.357
REMARK UNBOUND:                -0.305
REMARK SMILES CC1=CC[C@@H]2[C@H]3[C@@H](C(C)C)CC[C@]2(C)[C@@H]13
REMARK SMILES IDX 1 1 2 2 3 3 4 4 5 5 6 6 15 7 13 8 12 9 11 10 7 11 14 12 8 13
REMARK SMILES IDX 9 14 10 15
REMARK H PARENT
REMARK Flexibility Score: inf
ROOT
ATOM      1  C   UNL     1       0.979  13.179  -1.599  1.00  0.00     0.039 C 
ATOM      2  C   UNL     1       1.318  14.008  -0.396  1.00  0.00    -0.073 C 
ATOM      3  C   UNL     1       2.112  15.109  -0.477  1.00  0.00    -0.027 C 
ATOM      4  C   UNL     1       2.408  15.901   0.801  1.00  0.00     0.031 C 
ATOM      5  C   UNL     1       1.732  15.219   2.035  1.00  0.00     0.003 C 
ATOM      6  C   UNL     1       2.029  13.699   1.948  1.00  0.00     0.004 C 
ATOM      7  C   UNL     1       0.817  13.612   0.994  1.00  0.00     0.024 C 
ATOM      8  C   UNL     1       0.256  14.845   1.740  1.00  0.00    -0.022 C 
ATOM      9  C   UNL     1      -0.459  14.370   3.042  1.00  0.00     0.008 C 
ATOM     10  C   UNL     1       0.500  13.634   4.015  1.00  0.00     0.005 C 
ATOM     11  C   UNL     1       1.696  12.955   3.277  1.00  0.00    -0.005 C 
ATOM     12  C   UNL     1      -0.629  15.840   0.955  1.00  0.00     0.012 C 
ENDROOT
BRANCH  11  13
ATOM     13  C   UNL     1       2.958  12.736   4.165  1.00  0.00    -0.014 C 
ATOM     14  C   UNL     1       2.773  13.334   5.568  1.00  0.00     0.007 C 
ATOM     15  C   UNL     1       4.268  13.244   3.537  1.00  0.00     0.007 C 
ENDBRANCH  11  13
TORSDOF 1
ENDMDL
MODEL 3
REMARK VINA RESULT:    -6.020      1.629      3.711
REMARK INTER + INTRA:          -6.677
REMARK INTER:                  -6.438
REMARK INTRA:                  -0.239
REMARK UNBOUND:                -0.305
REMARK SMILES CC1=CC[C@@H]2[C@H]3[C@@H](C(C)C)CC[C@]2(C)[C@@H]13
REMARK SMILES IDX 1 1 2 2 3 3 4 4 5 5 6 6 15 7 13 8 12 9 11 10 7 11 14 12 8 13
REMARK SMILES IDX 9 14 10 15
REMARK H PARENT
REMARK Flexibility Score: inf
ROOT
ATOM      1  C   UNL     1       2.638  16.395   1.609  1.00  0.00     0.039 C 
ATOM      2  C   UNL     1       2.427  15.002   2.122  1.00  0.00    -0.073 C 
ATOM      3  C   UNL     1       2.326  13.932   1.289  1.00  0.00    -0.027 C 
ATOM      4  C   UNL     1       2.112  12.542   1.897  1.00  0.00     0.031 C 
ATOM      5  C   UNL     1       2.000  12.638   3.453  1.00  0.00     0.003 C 
ATOM      6  C   UNL     1       1.039  13.810   3.780  1.00  0.00     0.004 C 
ATOM      7  C   UNL     1       2.266  14.736   3.620  1.00  0.00     0.024 C 
ATOM      8  C   UNL     1       3.124  13.524   4.050  1.00  0.00    -0.022 C 
ATOM      9  C   UNL     1       3.127  13.429   5.607  1.00  0.00     0.008 C 
ATOM     10  C   UNL     1       1.704  13.225   6.195  1.00  0.00     0.005 C 
ATOM     11  C   UNL     1       0.587  13.804   5.272  1.00  0.00    -0.005 C 
ATOM     12  C   UNL     1       4.558  13.400   3.487  1.00  0.00     0.012 C 
ENDROOT
BRANCH  11  13
ATOM     13  C   UNL     1      -0.812  13.143   5.463  1.00  0.00    -0.014 C 
ATOM     14  C   UNL     1      -1.862  14.166   5.922  1.00  0.00     0.007 C 
ATOM     15  C   UNL     1      -0.810  11.922   6.400  1.00  0.00     0.007 C 
ENDBRANCH  11  13
TORSDOF 1
ENDMDL
MODEL 4
REMARK VINA RESULT:    -5.990      1.373      4.987
REMARK INTER + INTRA:          -6.645
REMARK INTER:                  -6.387
REMARK INTRA:                  -0.259
REMARK UNBOUND:                -0.305
REMARK SMILES CC1=CC[C@@H]2[C@H]3[C@@H](C(C)C)CC[C@]2(C)[C@@H]13
REMARK SMILES IDX 1 1 2 2 3 3 4 4 5 5 6 6 15 7 13 8 12 9 11 10 7 11 14 12 8 13
REMARK SMILES IDX 9 14 10 15
REMARK H PARENT
REMARK Flexibility Score: inf
ROOT
ATOM      1  C   UNL     1      -2.102  15.607   0.708  1.00  0.00     0.039 C 
ATOM      2  C   UNL     1      -0.845  14.799   0.579  1.00  0.00    -0.073 C 
ATOM      3  C   UNL     1      -0.750  13.737  -0.263  1.00  0.00    -0.027 C 
ATOM      4  C   UNL     1       0.573  12.967  -0.335  1.00  0.00     0.031 C 
ATOM      5  C   UNL     1       1.607  13.564   0.674  1.00  0.00     0.003 C 
ATOM      6  C   UNL     1       0.874  13.772   2.025  1.00  0.00     0.004 C 
ATOM      7  C   UNL     1       0.380  15.115   1.441  1.00  0.00     0.024 C 
ATOM      8  C   UNL     1       1.664  15.111   0.580  1.00  0.00    -0.022 C 
ATOM      9  C   UNL     1       2.848  15.667   1.430  1.00  0.00     0.008 C 
ATOM     10  C   UNL     1       3.131  14.810   2.692  1.00  0.00     0.005 C 
ATOM     11  C   UNL     1       1.864  14.051   3.197  1.00  0.00    -0.005 C 
ATOM     12  C   UNL     1       1.619  15.782  -0.812  1.00  0.00     0.012 C 
ENDROOT
BRANCH  11  13
ATOM     13  C   UNL     1       2.171  12.769   4.028  1.00  0.00    -0.014 C 
ATOM     14  C   UNL     1       1.945  13.001   5.530  1.00  0.00     0.007 C 
ATOM     15  C   UNL     1       3.571  12.178   3.784  1.00  0.00     0.007 C 
ENDBRANCH  11  13
TORSDOF 1
ENDMDL
MODEL 5
REMARK VINA RESULT:    -5.512      1.530      4.382
REMARK INTER + INTRA:          -6.140
REMARK INTER:                  -5.888
REMARK INTRA:                  -0.252
REMARK UNBOUND:                -0.305
REMARK SMILES CC1=CC[C@@H]2[C@H]3[C@@H](C(C)C)CC[C@]2(C)[C@@H]13
REMARK SMILES IDX 1 1 2 2 3 3 4 4 5 5 6 6 15 7 13 8 12 9 11 10 7 11 14 12 8 13
REMARK SMILES IDX 9 14 10 15
REMARK H PARENT
REMARK Flexibility Score: inf
ROOT
ATOM      1  C   UNL     1       3.042  16.782   0.753  1.00  0.00     0.039 C 
ATOM      2  C   UNL     1       2.057  15.777   1.270  1.00  0.00    -0.073 C 
ATOM      3  C   UNL     1       0.724  15.878   1.026  1.00  0.00    -0.027 C 
ATOM      4  C   UNL     1      -0.214  14.806   1.591  1.00  0.00     0.031 C 
ATOM      5  C   UNL     1       0.593  13.761   2.428  1.00  0.00     0.003 C 
ATOM      6  C   UNL     1       1.556  14.550   3.354  1.00  0.00     0.004 C 
ATOM      7  C   UNL     1       2.518  14.609   2.145  1.00  0.00     0.024 C 
ATOM      8  C   UNL     1       1.864  13.289   1.674  1.00  0.00    -0.022 C 
ATOM      9  C   UNL     1       2.532  12.095   2.424  1.00  0.00     0.008 C 
ATOM     10  C   UNL     1       2.352  12.181   3.963  1.00  0.00     0.005 C 
ATOM     11  C   UNL     1       2.177  13.649   4.464  1.00  0.00    -0.005 C 
ATOM     12  C   UNL     1       1.777  13.010   0.156  1.00  0.00     0.012 C 
ENDROOT
BRANCH  11  13
ATOM     13  C   UNL     1       1.422  13.779   5.821  1.00  0.00    -0.014 C 
ATOM     14  C   UNL     1       2.342  13.471   7.012  1.00  0.00     0.007 C 
ATOM     15  C   UNL     1       0.134  12.942   5.911  1.00  0.00     0.007 C 
ENDBRANCH  11  13
TORSDOF 1
ENDMDL
MODEL 6
REMARK VINA RESULT:    -5.375      1.791      3.272
REMARK INTER + INTRA:          -5.994
REMARK INTER:                  -5.756
REMARK INTRA:                  -0.238
REMARK UNBOUND:                -0.305
REMARK SMILES CC1=CC[C@@H]2[C@H]3[C@@H](C(C)C)CC[C@]2(C)[C@@H]13
REMARK SMILES IDX 1 1 2 2 3 3 4 4 5 5 6 6 15 7 13 8 12 9 11 10 7 11 14 12 8 13
REMARK SMILES IDX 9 14 10 15
REMARK H PARENT
REMARK Flexibility Score: inf
ROOT
ATOM      1  C   UNL     1       0.699  13.509   6.138  1.00  0.00     0.039 C 
ATOM      2  C   UNL     1       1.823  13.646   5.155  1.00  0.00    -0.073 C 
ATOM      3  C   UNL     1       3.118  13.771   5.548  1.00  0.00    -0.027 C 
ATOM      4  C   UNL     1       4.206  13.906   4.477  1.00  0.00     0.031 C 
ATOM      5  C   UNL     1       3.567  13.918   3.050  1.00  0.00     0.003 C 
ATOM      6  C   UNL     1       2.357  14.889   3.088  1.00  0.00     0.004 C 
ATOM      7  C   UNL     1       1.544  13.701   3.651  1.00  0.00     0.024 C 
ATOM      8  C   UNL     1       2.523  12.783   2.884  1.00  0.00    -0.022 C 
ATOM      9  C   UNL     1       2.062  12.676   1.397  1.00  0.00     0.008 C 
ATOM     10  C   UNL     1       2.051  14.051   0.677  1.00  0.00     0.005 C 
ATOM     11  C   UNL     1       1.838  15.242   1.662  1.00  0.00    -0.005 C 
ATOM     12  C   UNL     1       2.833  11.386   3.469  1.00  0.00     0.012 C 
ENDROOT
BRANCH  11  13
ATOM     13  C   UNL     1       2.394  16.606   1.151  1.00  0.00    -0.014 C 
ATOM     14  C   UNL     1       2.683  16.569  -0.357  1.00  0.00     0.007 C 
ATOM     15  C   UNL     1       3.626  17.113   1.920  1.00  0.00     0.007 C 
ENDBRANCH  11  13
TORSDOF 1
ENDMDL
MODEL 7
REMARK VINA RESULT:    -4.983      1.946      4.171
REMARK INTER + INTRA:          -5.579
REMARK INTER:                  -5.355
REMARK INTRA:                  -0.224
REMARK UNBOUND:                -0.305
REMARK SMILES CC1=CC[C@@H]2[C@H]3[C@@H](C(C)C)CC[C@]2(C)[C@@H]13
REMARK SMILES IDX 1 1 2 2 3 3 4 4 5 5 6 6 15 7 13 8 12 9 11 10 7 11 14 12 8 13
REMARK SMILES IDX 9 14 10 15
REMARK H PARENT
REMARK Flexibility Score: inf
ROOT
ATOM      1  C   UNL     1       2.950  13.256   3.068  1.00  0.00     0.039 C 
ATOM      2  C   UNL     1       2.126  14.162   2.203  1.00  0.00    -0.073 C 
ATOM      3  C   UNL     1       2.578  15.375   1.789  1.00  0.00    -0.027 C 
ATOM      4  C   UNL     1       1.670  16.239   0.906  1.00  0.00     0.031 C 
ATOM      5  C   UNL     1       0.296  15.529   0.677  1.00  0.00     0.003 C 
ATOM      6  C   UNL     1      -0.192  15.003   2.052  1.00  0.00     0.004 C 
ATOM      7  C   UNL     1       0.705  13.771   1.792  1.00  0.00     0.024 C 
ATOM      8  C   UNL     1       0.484  14.040   0.285  1.00  0.00    -0.022 C 
ATOM      9  C   UNL     1      -0.877  13.414  -0.150  1.00  0.00     0.008 C 
ATOM     10  C   UNL     1      -2.084  14.020   0.615  1.00  0.00     0.005 C 
ATOM     11  C   UNL     1      -1.688  14.569   2.021  1.00  0.00    -0.005 C 
ATOM     12  C   UNL     1       1.609  13.659  -0.704  1.00  0.00     0.012 C 
ENDROOT
BRANCH  11  13
ATOM     13  C   UNL     1      -2.637  15.678   2.568  1.00  0.00    -0.014 C 
ATOM     14  C   UNL     1      -3.028  15.416   4.031  1.00  0.00     0.007 C 
ATOM     15  C   UNL     1      -3.894  15.913   1.713  1.00  0.00     0.007 C 
ENDBRANCH  11  13
TORSDOF 1
ENDMDL
MODEL 8
REMARK VINA RESULT:    -4.865      1.527      3.449
REMARK INTER + INTRA:          -5.455
REMARK INTER:                  -5.139
REMARK INTRA:                  -0.316
REMARK UNBOUND:                -0.305
REMARK SMILES CC1=CC[C@@H]2[C@H]3[C@@H](C(C)C)CC[C@]2(C)[C@@H]13
REMARK SMILES IDX 1 1 2 2 3 3 4 4 5 5 6 6 15 7 13 8 12 9 11 10 7 11 14 12 8 13
REMARK SMILES IDX 9 14 10 15
REMARK H PARENT
REMARK Flexibility Score: inf
ROOT
ATOM      1  C   UNL     1       3.256  11.880   3.066  1.00  0.00     0.039 C 
ATOM      2  C   UNL     1       2.255  12.930   2.686  1.00  0.00    -0.073 C 
ATOM      3  C   UNL     1       1.366  13.440   3.578  1.00  0.00    -0.027 C 
ATOM      4  C   UNL     1       0.377  14.511   3.106  1.00  0.00     0.031 C 
ATOM      5  C   UNL     1       0.567  14.794   1.581  1.00  0.00     0.003 C 
ATOM      6  C   UNL     1       0.665  13.423   0.861  1.00  0.00     0.004 C 
ATOM      7  C   UNL     1       2.163  13.436   1.245  1.00  0.00     0.024 C 
ATOM      8  C   UNL     1       2.064  14.979   1.218  1.00  0.00    -0.022 C 
ATOM      9  C   UNL     1       2.213  15.473  -0.254  1.00  0.00     0.008 C 
ATOM     10  C   UNL     1       1.102  14.919  -1.185  1.00  0.00     0.005 C 
ATOM     11  C   UNL     1       0.527  13.557  -0.686  1.00  0.00    -0.005 C 
ATOM     12  C   UNL     1       2.972  15.791   2.169  1.00  0.00     0.012 C 
ENDROOT
BRANCH  11  13
ATOM     13  C   UNL     1      -0.920  13.251  -1.178  1.00  0.00    -0.014 C 
ATOM     14  C   UNL     1      -1.438  14.345  -2.125  1.00  0.00     0.007 C 
ATOM     15  C   UNL     1      -1.933  13.000  -0.047  1.00  0.00     0.007 C 
ENDBRANCH  11  13
TORSDOF 1
ENDMDL
MODEL 9
REMARK VINA RESULT:    -4.675     12.286     15.085
REMARK INTER + INTRA:          -5.254
REMARK INTER:                  -4.987
REMARK INTRA:                  -0.267
REMARK UNBOUND:                -0.305
REMARK SMILES CC1=CC[C@@H]2[C@H]3[C@@H](C(C)C)CC[C@]2(C)[C@@H]13
REMARK SMILES IDX 1 1 2 2 3 3 4 4 5 5 6 6 15 7 13 8 12 9 11 10 7 11 14 12 8 13
REMARK SMILES IDX 9 14 10 15
REMARK H PARENT
REMARK Flexibility Score: inf
ROOT
ATOM      1  C   UNL     1      -5.754   7.470  16.990  1.00  0.00     0.039 C 
ATOM      2  C   UNL     1      -5.242   8.777  16.462  1.00  0.00    -0.073 C 
ATOM      3  C   UNL     1      -5.973   9.554  15.621  1.00  0.00    -0.027 C 
ATOM      4  C   UNL     1      -5.375  10.876  15.129  1.00  0.00     0.031 C 
ATOM      5  C   UNL     1      -3.929  11.064  15.694  1.00  0.00     0.003 C 
ATOM      6  C   UNL     1      -3.175   9.722  15.498  1.00  0.00     0.004 C 
ATOM      7  C   UNL     1      -3.837   9.267  16.818  1.00  0.00     0.024 C 
ATOM      8  C   UNL     1      -3.868  10.761  17.214  1.00  0.00    -0.022 C 
ATOM      9  C   UNL     1      -2.478  11.163  17.796  1.00  0.00     0.008 C 
ATOM     10  C   UNL     1      -1.326  10.976  16.773  1.00  0.00     0.005 C 
ATOM     11  C   UNL     1      -1.638   9.872  15.715  1.00  0.00    -0.005 C 
ATOM     12  C   UNL     1      -5.014  11.257  18.125  1.00  0.00     0.012 C 
ENDROOT
BRANCH  11  13
ATOM     13  C   UNL     1      -0.864  10.033  14.371  1.00  0.00    -0.014 C 
ATOM     14  C   UNL     1       0.381   9.134  14.326  1.00  0.00     0.007 C 
ATOM     15  C   UNL     1      -0.488  11.485  14.029  1.00  0.00     0.007 C 
ENDBRANCH  11  13
TORSDOF 1
ENDMDL
