MODEL 1
REMARK VINA RESULT:    -5.607      0.000      0.000
REMARK INTER + INTRA:          -9.116
REMARK INTER:                  -8.557
REMARK INTRA:                  -0.559
REMARK UNBOUND:                -0.559
REMARK SMILES O=C([O-])CCCCCCCCC(=O)[O-]
REMARK SMILES IDX 7 1 6 2 5 3 4 4 2 5 1 6 3 7 8 8 9 9 10 10 11 11 12 12 13 13
REMARK SMILES IDX 14 14
REMARK H PARENT
REMARK Flexibility Score: inf
ROOT
ATOM      1  C   UNL     1      23.981  58.888  34.572  1.00  0.00     0.000 C 
ENDROOT
BRANCH   1   2
ATOM      2  C   UNL     1      22.548  58.918  35.132  1.00  0.00     0.000 C 
BRANCH   2   3
ATOM      3  C   UNL     1      22.433  58.225  36.499  1.00  0.00     0.006 C 
BRANCH   3   4
ATOM      4  C   UNL     1      21.641  59.056  37.515  1.00  0.00     0.053 C 
BRANCH   4   5
ATOM      5  C   UNL     1      22.544  60.025  38.213  1.00  0.00     0.041 C 
ATOM      6  O   UNL     1      23.026  61.004  37.587  1.00  0.00    -0.550 OA
ATOM      7  O   UNL     1      22.814  59.872  39.567  1.00  0.00    -0.550 OA
ENDBRANCH   4   5
ENDBRANCH   3   4
ENDBRANCH   2   3
ENDBRANCH   1   2
BRANCH   1   8
ATOM      8  C   UNL     1      24.029  59.163  33.061  1.00  0.00     0.000 C 
BRANCH   8   9
ATOM      9  C   UNL     1      24.748  58.047  32.282  1.00  0.00     0.000 C 
BRANCH   9  10
ATOM     10  C   UNL     1      23.985  56.710  32.318  1.00  0.00     0.006 C 
BRANCH  10  11
ATOM     11  C   UNL     1      22.570  56.777  31.722  1.00  0.00     0.053 C 
BRANCH  11  12
ATOM     12  C   UNL     1      21.527  56.333  32.702  1.00  0.00     0.041 C 
ATOM     13  O   UNL     1      20.543  57.074  32.961  1.00  0.00    -0.550 OA
ATOM     14  O   UNL     1      21.626  55.084  33.303  1.00  0.00    -0.550 OA
ENDBRANCH  11  12
ENDBRANCH  10  11
ENDBRANCH   9  10
ENDBRANCH   8   9
ENDBRANCH   1   8
TORSDOF 9
ENDMDL
MODEL 2
REMARK VINA RESULT:    -5.446      2.289      5.404
REMARK INTER + INTRA:          -8.869
REMARK INTER:                  -8.363
REMARK INTRA:                  -0.506
REMARK UNBOUND:                -0.559
REMARK SMILES O=C([O-])CCCCCCCCC(=O)[O-]
REMARK SMILES IDX 7 1 6 2 5 3 4 4 2 5 1 6 3 7 8 8 9 9 10 10 11 11 12 12 13 13
REMARK SMILES IDX 14 14
REMARK H PARENT
REMARK Flexibility Score: inf
ROOT
ATOM      1  C   UNL     1      20.992  57.267  32.751  1.00  0.00     0.000 C 
ENDROOT
BRANCH   1   2
ATOM      2  C   UNL     1      22.307  56.484  32.593  1.00  0.00     0.000 C 
BRANCH   2   3
ATOM      3  C   UNL     1      23.437  57.341  32.000  1.00  0.00     0.006 C 
BRANCH   3   4
ATOM      4  C   UNL     1      24.494  57.725  33.043  1.00  0.00     0.053 C 
BRANCH   4   5
ATOM      5  C   UNL     1      24.887  59.161  32.882  1.00  0.00     0.041 C 
ATOM      6  O   UNL     1      25.328  59.576  31.778  1.00  0.00    -0.550 OA
ATOM      7  O   UNL     1      24.721  60.049  33.936  1.00  0.00    -0.550 OA
ENDBRANCH   4   5
ENDBRANCH   3   4
ENDBRANCH   2   3
ENDBRANCH   1   2
BRANCH   1   8
ATOM      8  C   UNL     1      21.202  58.646  33.396  1.00  0.00     0.000 C 
BRANCH   8   9
ATOM      9  C   UNL     1      21.010  58.618  34.923  1.00  0.00     0.000 C 
BRANCH   9  10
ATOM     10  C   UNL     1      22.343  58.633  35.690  1.00  0.00     0.006 C 
BRANCH  10  11
ATOM     11  C   UNL     1      22.194  58.508  37.216  1.00  0.00     0.053 C 
BRANCH  11  12
ATOM     12  C   UNL     1      22.265  59.840  37.897  1.00  0.00     0.041 C 
ATOM     13  O   UNL     1      21.647  60.034  38.976  1.00  0.00    -0.550 OA
ATOM     14  O   UNL     1      23.042  60.857  37.356  1.00  0.00    -0.550 OA
ENDBRANCH  11  12
ENDBRANCH  10  11
ENDBRANCH   9  10
ENDBRANCH   8   9
ENDBRANCH   1   8
TORSDOF 9
ENDMDL
MODEL 3
REMARK VINA RESULT:    -5.190      0.656      5.923
REMARK INTER + INTRA:          -8.479
REMARK INTER:                  -7.892
REMARK INTRA:                  -0.588
REMARK UNBOUND:                -0.559
REMARK SMILES O=C([O-])CCCCCCCCC(=O)[O-]
REMARK SMILES IDX 7 1 6 2 5 3 4 4 2 5 1 6 3 7 8 8 9 9 10 10 11 11 12 12 13 13
REMARK SMILES IDX 14 14
REMARK H PARENT
REMARK Flexibility Score: inf
ROOT
ATOM      1  C   UNL     1      23.865  58.866  33.743  1.00  0.00     0.000 C 
ENDROOT
BRANCH   1   2
ATOM      2  C   UNL     1      24.323  58.301  32.388  1.00  0.00     0.000 C 
BRANCH   2   3
ATOM      3  C   UNL     1      23.952  56.819  32.210  1.00  0.00     0.006 C 
BRANCH   3   4
ATOM      4  C   UNL     1      22.548  56.630  31.624  1.00  0.00     0.053 C 
BRANCH   4   5
ATOM      5  C   UNL     1      21.583  56.235  32.698  1.00  0.00     0.041 C 
ATOM      6  O   UNL     1      20.618  56.988  32.990  1.00  0.00    -0.550 OA
ATOM      7  O   UNL     1      21.724  55.013  33.342  1.00  0.00    -0.550 OA
ENDBRANCH   4   5
ENDBRANCH   3   4
ENDBRANCH   2   3
ENDBRANCH   1   2
BRANCH   1   8
ATOM      8  C   UNL     1      23.993  57.843  34.882  1.00  0.00     0.000 C 
BRANCH   8   9
ATOM      9  C   UNL     1      22.758  57.827  35.802  1.00  0.00     0.000 C 
BRANCH   9  10
ATOM     10  C   UNL     1      22.469  59.200  36.432  1.00  0.00     0.006 C 
BRANCH  10  11
ATOM     11  C   UNL     1      21.732  59.132  37.781  1.00  0.00     0.053 C 
BRANCH  11  12
ATOM     12  C   UNL     1      22.295  60.099  38.776  1.00  0.00     0.041 C 
ATOM     13  O   UNL     1      22.913  61.125  38.385  1.00  0.00    -0.550 OA
ATOM     14  O   UNL     1      22.107  59.886  40.136  1.00  0.00    -0.550 OA
ENDBRANCH  11  12
ENDBRANCH  10  11
ENDBRANCH   9  10
ENDBRANCH   8   9
ENDBRANCH   1   8
TORSDOF 9
ENDMDL
MODEL 4
REMARK VINA RESULT:    -5.007      1.396      2.012
REMARK INTER + INTRA:          -8.200
REMARK INTER:                  -7.617
REMARK INTRA:                  -0.583
REMARK UNBOUND:                -0.559
REMARK SMILES O=C([O-])CCCCCCCCC(=O)[O-]
REMARK SMILES IDX 7 1 6 2 5 3 4 4 2 5 1 6 3 7 8 8 9 9 10 10 11 11 12 12 13 13
REMARK SMILES IDX 14 14
REMARK H PARENT
REMARK Flexibility Score: inf
ROOT
ATOM      1  C   UNL     1      23.261  57.663  35.371  1.00  0.00     0.000 C 
ENDROOT
BRANCH   1   2
ATOM      2  C   UNL     1      22.097  58.346  36.109  1.00  0.00     0.000 C 
BRANCH   2   3
ATOM      3  C   UNL     1      22.540  59.603  36.875  1.00  0.00     0.006 C 
BRANCH   3   4
ATOM      4  C   UNL     1      22.115  59.574  38.349  1.00  0.00     0.053 C 
BRANCH   4   5
ATOM      5  C   UNL     1      20.630  59.420  38.460  1.00  0.00     0.041 C 
ATOM      6  O   UNL     1      20.140  58.561  39.239  1.00  0.00    -0.550 OA
ATOM      7  O   UNL     1      19.789  60.257  37.739  1.00  0.00    -0.550 OA
ENDBRANCH   4   5
ENDBRANCH   3   4
ENDBRANCH   2   3
ENDBRANCH   1   2
BRANCH   1   8
ATOM      8  C   UNL     1      24.112  58.656  34.565  1.00  0.00     0.000 C 
BRANCH   8   9
ATOM      9  C   UNL     1      23.736  58.678  33.072  1.00  0.00     0.000 C 
BRANCH   9  10
ATOM     10  C   UNL     1      23.862  57.297  32.407  1.00  0.00     0.006 C 
BRANCH  10  11
ATOM     11  C   UNL     1      22.573  56.804  31.729  1.00  0.00     0.053 C 
BRANCH  11  12
ATOM     12  C   UNL     1      21.536  56.392  32.728  1.00  0.00     0.041 C 
ATOM     13  O   UNL     1      21.611  55.270  33.295  1.00  0.00    -0.550 OA
ATOM     14  O   UNL     1      20.505  57.263  33.060  1.00  0.00    -0.550 OA
ENDBRANCH  11  12
ENDBRANCH  10  11
ENDBRANCH   9  10
ENDBRANCH   8   9
ENDBRANCH   1   8
TORSDOF 9
ENDMDL
MODEL 5
REMARK VINA RESULT:    -4.915      2.882      6.839
REMARK INTER + INTRA:          -8.059
REMARK INTER:                  -7.659
REMARK INTRA:                  -0.400
REMARK UNBOUND:                -0.559
REMARK SMILES O=C([O-])CCCCCCCCC(=O)[O-]
REMARK SMILES IDX 7 1 6 2 5 3 4 4 2 5 1 6 3 7 8 8 9 9 10 10 11 11 12 12 13 13
REMARK SMILES IDX 14 14
REMARK H PARENT
REMARK Flexibility Score: inf
ROOT
ATOM      1  C   UNL     1      21.777  58.943  37.103  1.00  0.00     0.000 C 
ENDROOT
BRANCH   1   2
ATOM      2  C   UNL     1      22.025  58.238  35.759  1.00  0.00     0.000 C 
BRANCH   2   3
ATOM      3  C   UNL     1      23.376  58.617  35.132  1.00  0.00     0.006 C 
BRANCH   3   4
ATOM      4  C   UNL     1      23.291  58.791  33.610  1.00  0.00     0.053 C 
BRANCH   4   5
ATOM      5  C   UNL     1      24.542  59.426  33.088  1.00  0.00     0.041 C 
ATOM      6  O   UNL     1      25.099  60.352  33.733  1.00  0.00    -0.550 OA
ATOM      7  O   UNL     1      25.119  58.962  31.913  1.00  0.00    -0.550 OA
ENDBRANCH   4   5
ENDBRANCH   3   4
ENDBRANCH   2   3
ENDBRANCH   1   2
BRANCH   1   8
ATOM      8  C   UNL     1      22.859  59.984  37.430  1.00  0.00     0.000 C 
BRANCH   8   9
ATOM      9  C   UNL     1      22.839  60.410  38.909  1.00  0.00     0.000 C 
BRANCH   9  10
ATOM     10  C   UNL     1      22.498  59.247  39.858  1.00  0.00     0.006 C 
BRANCH  10  11
ATOM     11  C   UNL     1      22.086  59.688  41.272  1.00  0.00     0.053 C 
BRANCH  11  12
ATOM     12  C   UNL     1      20.702  59.234  41.620  1.00  0.00     0.041 C 
ATOM     13  O   UNL     1      20.113  58.386  40.899  1.00  0.00    -0.550 OA
ATOM     14  O   UNL     1      20.076  59.722  42.760  1.00  0.00    -0.550 OA
ENDBRANCH  11  12
ENDBRANCH  10  11
ENDBRANCH   9  10
ENDBRANCH   8   9
ENDBRANCH   1   8
TORSDOF 9
ENDMDL
MODEL 6
REMARK VINA RESULT:    -4.885     12.295     13.264
REMARK INTER + INTRA:          -8.015
REMARK INTER:                  -7.350
REMARK INTRA:                  -0.665
REMARK UNBOUND:                -0.559
REMARK SMILES O=C([O-])CCCCCCCCC(=O)[O-]
REMARK SMILES IDX 7 1 6 2 5 3 4 4 2 5 1 6 3 7 8 8 9 9 10 10 11 11 12 12 13 13
REMARK SMILES IDX 14 14
REMARK H PARENT
REMARK Flexibility Score: inf
ROOT
ATOM      1  C   UNL     1      36.151  56.945  27.478  1.00  0.00     0.000 C 
ENDROOT
BRANCH   1   2
ATOM      2  C   UNL     1      36.329  57.598  28.859  1.00  0.00     0.000 C 
BRANCH   2   3
ATOM      3  C   UNL     1      35.264  57.142  29.870  1.00  0.00     0.006 C 
BRANCH   3   4
ATOM      4  C   UNL     1      35.060  58.152  31.006  1.00  0.00     0.053 C 
BRANCH   4   5
ATOM      5  C   UNL     1      35.300  57.499  32.332  1.00  0.00     0.041 C 
ATOM      6  O   UNL     1      35.814  56.352  32.389  1.00  0.00    -0.550 OA
ATOM      7  O   UNL     1      34.999  58.179  33.505  1.00  0.00    -0.550 OA
ENDBRANCH   4   5
ENDBRANCH   3   4
ENDBRANCH   2   3
ENDBRANCH   1   2
BRANCH   1   8
ATOM      8  C   UNL     1      34.860  57.395  26.776  1.00  0.00     0.000 C 
BRANCH   8   9
ATOM      9  C   UNL     1      34.016  56.208  26.277  1.00  0.00     0.000 C 
BRANCH   9  10
ATOM     10  C   UNL     1      32.636  56.135  26.955  1.00  0.00     0.006 C 
BRANCH  10  11
ATOM     11  C   UNL     1      32.569  55.165  28.146  1.00  0.00     0.053 C 
BRANCH  11  12
ATOM     12  C   UNL     1      32.411  53.743  27.702  1.00  0.00     0.041 C 
ATOM     13  O   UNL     1      31.538  53.438  26.848  1.00  0.00    -0.550 OA
ATOM     14  O   UNL     1      33.254  52.760  28.207  1.00  0.00    -0.550 OA
ENDBRANCH  11  12
ENDBRANCH  10  11
ENDBRANCH   9  10
ENDBRANCH   8   9
ENDBRANCH   1   8
TORSDOF 9
ENDMDL
MODEL 7
REMARK VINA RESULT:    -4.879     10.627     13.210
REMARK INTER + INTRA:          -8.004
REMARK INTER:                  -7.402
REMARK INTRA:                  -0.603
REMARK UNBOUND:                -0.559
REMARK SMILES O=C([O-])CCCCCCCCC(=O)[O-]
REMARK SMILES IDX 7 1 6 2 5 3 4 4 2 5 1 6 3 7 8 8 9 9 10 10 11 11 12 12 13 13
REMARK SMILES IDX 14 14
REMARK H PARENT
REMARK Flexibility Score: inf
ROOT
ATOM      1  C   UNL     1      35.526  57.791  28.110  1.00  0.00     0.000 C 
ENDROOT
BRANCH   1   2
ATOM      2  C   UNL     1      35.214  56.613  27.171  1.00  0.00     0.000 C 
BRANCH   2   3
ATOM      3  C   UNL     1      33.705  56.398  26.973  1.00  0.00     0.006 C 
BRANCH   3   4
ATOM      4  C   UNL     1      33.182  55.169  27.728  1.00  0.00     0.053 C 
BRANCH   4   5
ATOM      5  C   UNL     1      31.752  54.907  27.370  1.00  0.00     0.041 C 
ATOM      6  O   UNL     1      31.392  53.757  27.007  1.00  0.00    -0.550 OA
ATOM      7  O   UNL     1      30.810  55.921  27.482  1.00  0.00    -0.550 OA
ENDBRANCH   4   5
ENDBRANCH   3   4
ENDBRANCH   2   3
ENDBRANCH   1   2
BRANCH   1   8
ATOM      8  C   UNL     1      35.915  57.330  29.523  1.00  0.00     0.000 C 
BRANCH   8   9
ATOM      9  C   UNL     1      35.351  58.252  30.620  1.00  0.00     0.000 C 
BRANCH   9  10
ATOM     10  C   UNL     1      34.584  57.480  31.708  1.00  0.00     0.006 C 
BRANCH  10  11
ATOM     11  C   UNL     1      33.751  56.302  31.176  1.00  0.00     0.053 C 
BRANCH  11  12
ATOM     12  C   UNL     1      32.557  56.025  32.038  1.00  0.00     0.041 C 
ATOM     13  O   UNL     1      32.286  54.846  32.386  1.00  0.00    -0.550 OA
ATOM     14  O   UNL     1      31.765  57.075  32.486  1.00  0.00    -0.550 OA
ENDBRANCH  11  12
ENDBRANCH  10  11
ENDBRANCH   9  10
ENDBRANCH   8   9
ENDBRANCH   1   8
TORSDOF 9
ENDMDL
MODEL 8
REMARK VINA RESULT:    -4.866     10.782     12.594
REMARK INTER + INTRA:          -7.985
REMARK INTER:                  -7.325
REMARK INTRA:                  -0.660
REMARK UNBOUND:                -0.559
REMARK SMILES O=C([O-])CCCCCCCCC(=O)[O-]
REMARK SMILES IDX 7 1 6 2 5 3 4 4 2 5 1 6 3 7 8 8 9 9 10 10 11 11 12 12 13 13
REMARK SMILES IDX 14 14
REMARK H PARENT
REMARK Flexibility Score: inf
ROOT
ATOM      1  C   UNL     1      36.609  57.291  28.764  1.00  0.00     0.000 C 
ENDROOT
BRANCH   1   2
ATOM      2  C   UNL     1      35.540  57.831  29.729  1.00  0.00     0.000 C 
BRANCH   2   3
ATOM      3  C   UNL     1      34.911  56.726  30.594  1.00  0.00     0.006 C 
BRANCH   3   4
ATOM      4  C   UNL     1      34.123  57.288  31.784  1.00  0.00     0.053 C 
BRANCH   4   5
ATOM      5  C   UNL     1      32.839  56.537  31.959  1.00  0.00     0.041 C 
ATOM      6  O   UNL     1      31.915  57.020  32.664  1.00  0.00    -0.550 OA
ATOM      7  O   UNL     1      32.647  55.328  31.304  1.00  0.00    -0.550 OA
ENDBRANCH   4   5
ENDBRANCH   3   4
ENDBRANCH   2   3
ENDBRANCH   1   2
BRANCH   1   8
ATOM      8  C   UNL     1      35.998  56.572  27.551  1.00  0.00     0.000 C 
BRANCH   8   9
ATOM      9  C   UNL     1      34.843  57.367  26.915  1.00  0.00     0.000 C 
BRANCH   9  10
ATOM     10  C   UNL     1      33.651  56.475  26.525  1.00  0.00     0.006 C 
BRANCH  10  11
ATOM     11  C   UNL     1      33.196  55.511  27.634  1.00  0.00     0.053 C 
BRANCH  11  12
ATOM     12  C   UNL     1      31.783  55.054  27.434  1.00  0.00     0.041 C 
ATOM     13  O   UNL     1      30.840  55.888  27.443  1.00  0.00    -0.550 OA
ATOM     14  O   UNL     1      31.513  53.711  27.204  1.00  0.00    -0.550 OA
ENDBRANCH  11  12
ENDBRANCH  10  11
ENDBRANCH   9  10
ENDBRANCH   8   9
ENDBRANCH   1   8
TORSDOF 9
ENDMDL
MODEL 9
REMARK VINA RESULT:    -4.833     11.891     13.881
REMARK INTER + INTRA:          -7.935
REMARK INTER:                  -7.222
REMARK INTRA:                  -0.713
REMARK UNBOUND:                -0.559
REMARK SMILES O=C([O-])CCCCCCCCC(=O)[O-]
REMARK SMILES IDX 7 1 6 2 5 3 4 4 2 5 1 6 3 7 8 8 9 9 10 10 11 11 12 12 13 13
REMARK SMILES IDX 14 14
REMARK H PARENT
REMARK Flexibility Score: inf
ROOT
ATOM      1  C   UNL     1      33.291  56.748  31.852  1.00  0.00     0.000 C 
ENDROOT
BRANCH   1   2
ATOM      2  C   UNL     1      32.920  55.261  31.979  1.00  0.00     0.000 C 
BRANCH   2   3
ATOM      3  C   UNL     1      33.284  54.451  30.723  1.00  0.00     0.006 C 
BRANCH   3   4
ATOM      4  C   UNL     1      32.631  55.010  29.453  1.00  0.00     0.053 C 
BRANCH   4   5
ATOM      5  C   UNL     1      32.672  53.993  28.355  1.00  0.00     0.041 C 
ATOM      6  O   UNL     1      33.674  53.244  28.223  1.00  0.00    -0.550 OA
ATOM      7  O   UNL     1      31.581  53.841  27.509  1.00  0.00    -0.550 OA
ENDBRANCH   4   5
ENDBRANCH   3   4
ENDBRANCH   2   3
ENDBRANCH   1   2
BRANCH   1   8
ATOM      8  C   UNL     1      34.810  56.979  31.851  1.00  0.00     0.000 C 
BRANCH   8   9
ATOM      9  C   UNL     1      35.244  58.042  30.826  1.00  0.00     0.000 C 
BRANCH   9  10
ATOM     10  C   UNL     1      35.986  57.438  29.620  1.00  0.00     0.006 C 
BRANCH  10  11
ATOM     11  C   UNL     1      35.139  57.349  28.340  1.00  0.00     0.053 C 
BRANCH  11  12
ATOM     12  C   UNL     1      35.919  56.789  27.190  1.00  0.00     0.041 C 
ATOM     13  O   UNL     1      37.122  56.449  27.345  1.00  0.00    -0.550 OA
ATOM     14  O   UNL     1      35.306  56.609  25.956  1.00  0.00    -0.550 OA
ENDBRANCH  11  12
ENDBRANCH  10  11
ENDBRANCH   9  10
ENDBRANCH   8   9
ENDBRANCH   1   8
TORSDOF 9
ENDMDL
