MODEL 1
REMARK VINA RESULT:    -6.585      0.000      0.000
REMARK INTER + INTRA:          -7.163
REMARK INTER:                  -7.163
REMARK INTRA:                   0.000
REMARK UNBOUND:                 0.000
REMARK SMILES Cc1cc(O)c2c(c1)C(=O)c1cc(O)cc(O)c1C2=O
REMARK SMILES IDX 1 1 2 2 8 3 7 4 6 5 4 6 3 7 19 8 20 9 18 10 11 11 9 12 10 13
REMARK SMILES IDX 12 14 13 15 15 16 16 17 5 18 17 20 14 22
REMARK H PARENT 5 19 17 21 14 23
REMARK Flexibility Score: inf
ROOT
ATOM      1  C   UNL     1     -33.415   5.304  79.316  1.00  0.00     0.044 C 
ATOM      2  C   UNL     1     -34.523   4.839  80.214  1.00  0.00    -0.047 A 
ATOM      3  C   UNL     1     -35.858   4.985  79.819  1.00  0.00     0.016 A 
ATOM      4  C   UNL     1     -36.904   4.594  80.672  1.00  0.00     0.038 A 
ATOM      5  C   UNL     1     -36.610   4.071  81.951  1.00  0.00     0.076 A 
ATOM      6  C   UNL     1     -35.255   3.883  82.327  1.00  0.00     0.127 A 
ATOM      7  C   UNL     1     -34.232   4.299  81.470  1.00  0.00     0.050 A 
ATOM      8  C   UNL     1     -37.741   3.808  82.879  1.00  0.00     0.201 C 
ATOM      9  O   UNL     1     -37.569   3.906  84.123  1.00  0.00    -0.288 OA
ATOM     10  C   UNL     1     -39.111   3.617  82.335  1.00  0.00     0.076 A 
ATOM     11  C   UNL     1     -39.401   4.140  81.055  1.00  0.00     0.041 A 
ATOM     12  C   UNL     1     -38.314   4.723  80.232  1.00  0.00     0.194 C 
ATOM     13  O   UNL     1     -38.586   5.306  79.147  1.00  0.00    -0.289 OA
ATOM     14  C   UNL     1     -40.717   4.101  80.565  1.00  0.00     0.059 A 
ATOM     15  C   UNL     1     -41.741   3.534  81.328  1.00  0.00     0.120 A 
ATOM     16  C   UNL     1     -41.452   2.980  82.574  1.00  0.00     0.093 A 
ATOM     17  C   UNL     1     -40.147   2.988  83.076  1.00  0.00     0.131 A 
ENDROOT
BRANCH   6  18
ATOM     18  O   UNL     1     -34.882   3.261  83.522  1.00  0.00    -0.507 OA
ATOM     19  H   UNL     1     -35.012   3.677  84.433  1.00  0.00     0.293 HD
ENDBRANCH   6  18
BRANCH  17  20
ATOM     20  O   UNL     1     -39.918   2.335  84.289  1.00  0.00    -0.507 OA
ATOM     21  H   UNL     1     -38.998   2.185  84.678  1.00  0.00     0.293 HD
ENDBRANCH  17  20
BRANCH  15  22
ATOM     22  O   UNL     1     -43.050   3.505  80.850  1.00  0.00    -0.508 OA
ATOM     23  H   UNL     1     -43.276   3.788  79.904  1.00  0.00     0.293 HD
ENDBRANCH  15  22
TORSDOF 3
ENDMDL
MODEL 2
REMARK VINA RESULT:    -6.574      2.222      5.099
REMARK INTER + INTRA:          -7.151
REMARK INTER:                  -7.151
REMARK INTRA:                   0.000
REMARK UNBOUND:                 0.000
REMARK SMILES Cc1cc(O)c2c(c1)C(=O)c1cc(O)cc(O)c1C2=O
REMARK SMILES IDX 1 1 2 2 8 3 7 4 6 5 4 6 3 7 19 8 20 9 18 10 11 11 9 12 10 13
REMARK SMILES IDX 12 14 13 15 15 16 16 17 5 18 17 20 14 22
REMARK H PARENT 5 19 17 21 14 23
REMARK Flexibility Score: inf
ROOT
ATOM      1  C   UNL     1     -38.650   7.554  76.107  1.00  0.00     0.044 C 
ATOM      2  C   UNL     1     -38.588   6.755  77.375  1.00  0.00    -0.047 A 
ATOM      3  C   UNL     1     -37.352   6.352  77.894  1.00  0.00     0.016 A 
ATOM      4  C   UNL     1     -37.286   5.566  79.057  1.00  0.00     0.038 A 
ATOM      5  C   UNL     1     -38.476   5.153  79.696  1.00  0.00     0.076 A 
ATOM      6  C   UNL     1     -39.724   5.603  79.191  1.00  0.00     0.127 A 
ATOM      7  C   UNL     1     -39.765   6.368  78.022  1.00  0.00     0.050 A 
ATOM      8  C   UNL     1     -38.370   4.203  80.833  1.00  0.00     0.201 C 
ATOM      9  O   UNL     1     -39.302   3.387  81.059  1.00  0.00    -0.288 OA
ATOM     10  C   UNL     1     -37.091   4.088  81.581  1.00  0.00     0.076 A 
ATOM     11  C   UNL     1     -35.902   4.502  80.939  1.00  0.00     0.041 A 
ATOM     12  C   UNL     1     -35.971   5.171  79.617  1.00  0.00     0.194 C 
ATOM     13  O   UNL     1     -34.911   5.425  78.982  1.00  0.00    -0.289 OA
ATOM     14  C   UNL     1     -34.660   4.283  81.557  1.00  0.00     0.059 A 
ATOM     15  C   UNL     1     -34.591   3.672  82.812  1.00  0.00     0.120 A 
ATOM     16  C   UNL     1     -35.763   3.299  83.467  1.00  0.00     0.093 A 
ATOM     17  C   UNL     1     -37.014   3.525  82.883  1.00  0.00     0.131 A 
ENDROOT
BRANCH   6  18
ATOM     18  O   UNL     1     -40.937   5.342  79.834  1.00  0.00    -0.507 OA
ATOM     19  H   UNL     1     -41.095   5.508  80.818  1.00  0.00     0.293 HD
ENDBRANCH   6  18
BRANCH  17  20
ATOM     20  O   UNL     1     -38.145   3.208  83.637  1.00  0.00    -0.507 OA
ATOM     21  H   UNL     1     -38.996   2.836  83.238  1.00  0.00     0.293 HD
ENDBRANCH  17  20
BRANCH  15  22
ATOM     22  O   UNL     1     -33.360   3.442  83.423  1.00  0.00    -0.508 OA
ATOM     23  H   UNL     1     -32.940   4.124  84.044  1.00  0.00     0.293 HD
ENDBRANCH  15  22
TORSDOF 3
ENDMDL
MODEL 3
REMARK VINA RESULT:    -6.351      1.820      2.892
REMARK INTER + INTRA:          -6.908
REMARK INTER:                  -6.908
REMARK INTRA:                   0.000
REMARK UNBOUND:                 0.000
REMARK SMILES Cc1cc(O)c2c(c1)C(=O)c1cc(O)cc(O)c1C2=O
REMARK SMILES IDX 1 1 2 2 8 3 7 4 6 5 4 6 3 7 19 8 20 9 18 10 11 11 9 12 10 13
REMARK SMILES IDX 12 14 13 15 15 16 16 17 5 18 17 20 14 22
REMARK H PARENT 5 19 17 21 14 23
REMARK Flexibility Score: inf
ROOT
ATOM      1  C   UNL     1     -34.149   4.070  82.812  1.00  0.00     0.044 C 
ATOM      2  C   UNL     1     -35.636   4.032  82.617  1.00  0.00    -0.047 A 
ATOM      3  C   UNL     1     -36.175   3.889  81.333  1.00  0.00     0.016 A 
ATOM      4  C   UNL     1     -37.565   3.898  81.135  1.00  0.00     0.038 A 
ATOM      5  C   UNL     1     -38.432   4.078  82.237  1.00  0.00     0.076 A 
ATOM      6  C   UNL     1     -37.881   4.175  83.541  1.00  0.00     0.127 A 
ATOM      7  C   UNL     1     -36.494   4.185  83.710  1.00  0.00     0.050 A 
ATOM      8  C   UNL     1     -39.886   4.229  81.969  1.00  0.00     0.201 C 
ATOM      9  O   UNL     1     -40.597   4.925  82.741  1.00  0.00    -0.288 OA
ATOM     10  C   UNL     1     -40.458   3.717  80.697  1.00  0.00     0.076 A 
ATOM     11  C   UNL     1     -39.589   3.538  79.598  1.00  0.00     0.041 A 
ATOM     12  C   UNL     1     -38.128   3.714  79.776  1.00  0.00     0.194 C 
ATOM     13  O   UNL     1     -37.361   3.683  78.774  1.00  0.00    -0.289 OA
ATOM     14  C   UNL     1     -40.112   3.189  78.342  1.00  0.00     0.059 A 
ATOM     15  C   UNL     1     -41.487   3.002  78.174  1.00  0.00     0.120 A 
ATOM     16  C   UNL     1     -42.344   3.137  79.264  1.00  0.00     0.093 A 
ATOM     17  C   UNL     1     -41.846   3.464  80.530  1.00  0.00     0.131 A 
ENDROOT
BRANCH   6  18
ATOM     18  O   UNL     1     -38.671   4.231  84.692  1.00  0.00    -0.507 OA
ATOM     19  H   UNL     1     -38.862   3.431  85.278  1.00  0.00     0.293 HD
ENDBRANCH   6  18
BRANCH  17  20
ATOM     20  O   UNL     1     -42.752   3.494  81.592  1.00  0.00    -0.507 OA
ATOM     21  H   UNL     1     -43.457   4.210  81.705  1.00  0.00     0.293 HD
ENDBRANCH  17  20
BRANCH  15  22
ATOM     22  O   UNL     1     -42.011   2.668  76.926  1.00  0.00    -0.508 OA
ATOM     23  H   UNL     1     -42.869   3.083  76.583  1.00  0.00     0.293 HD
ENDBRANCH  15  22
TORSDOF 3
ENDMDL
MODEL 4
REMARK VINA RESULT:    -6.327      1.967      5.619
REMARK INTER + INTRA:          -6.882
REMARK INTER:                  -6.882
REMARK INTRA:                   0.000
REMARK UNBOUND:                 0.000
REMARK SMILES Cc1cc(O)c2c(c1)C(=O)c1cc(O)cc(O)c1C2=O
REMARK SMILES IDX 1 1 2 2 8 3 7 4 6 5 4 6 3 7 19 8 20 9 18 10 11 11 9 12 10 13
REMARK SMILES IDX 12 14 13 15 15 16 16 17 5 18 17 20 14 22
REMARK H PARENT 5 19 17 21 14 23
REMARK Flexibility Score: inf
ROOT
ATOM      1  C   UNL     1     -42.594   2.245  76.888  1.00  0.00     0.044 C 
ATOM      2  C   UNL     1     -41.900   2.694  78.140  1.00  0.00    -0.047 A 
ATOM      3  C   UNL     1     -40.502   2.765  78.183  1.00  0.00     0.016 A 
ATOM      4  C   UNL     1     -39.841   3.142  79.364  1.00  0.00     0.038 A 
ATOM      5  C   UNL     1     -40.589   3.428  80.528  1.00  0.00     0.076 A 
ATOM      6  C   UNL     1     -42.006   3.399  80.465  1.00  0.00     0.127 A 
ATOM      7  C   UNL     1     -42.641   3.002  79.285  1.00  0.00     0.050 A 
ATOM      8  C   UNL     1     -39.850   3.678  81.793  1.00  0.00     0.201 C 
ATOM      9  O   UNL     1     -40.375   3.374  82.898  1.00  0.00    -0.288 OA
ATOM     10  C   UNL     1     -38.428   4.106  81.744  1.00  0.00     0.076 A 
ATOM     11  C   UNL     1     -37.684   3.819  80.578  1.00  0.00     0.041 A 
ATOM     12  C   UNL     1     -38.362   3.245  79.392  1.00  0.00     0.194 C 
ATOM     13  O   UNL     1     -37.684   2.867  78.397  1.00  0.00    -0.289 OA
ATOM     14  C   UNL     1     -36.304   4.083  80.546  1.00  0.00     0.059 A 
ATOM     15  C   UNL     1     -35.664   4.643  81.654  1.00  0.00     0.120 A 
ATOM     16  C   UNL     1     -36.401   4.966  82.792  1.00  0.00     0.093 A 
ATOM     17  C   UNL     1     -37.779   4.732  82.842  1.00  0.00     0.131 A 
ENDROOT
BRANCH   6  18
ATOM     18  O   UNL     1     -42.818   3.787  81.534  1.00  0.00    -0.507 OA
ATOM     19  H   UNL     1     -42.832   3.312  82.426  1.00  0.00     0.293 HD
ENDBRANCH   6  18
BRANCH  17  20
ATOM     20  O   UNL     1     -38.466   5.164  83.979  1.00  0.00    -0.507 OA
ATOM     21  H   UNL     1     -38.618   4.585  84.793  1.00  0.00     0.293 HD
ENDBRANCH  17  20
BRANCH  15  22
ATOM     22  O   UNL     1     -34.293   4.895  81.631  1.00  0.00    -0.508 OA
ATOM     23  H   UNL     1     -33.700   4.531  80.895  1.00  0.00     0.293 HD
ENDBRANCH  15  22
TORSDOF 3
ENDMDL
MODEL 5
REMARK VINA RESULT:    -6.304     12.630     14.503
REMARK INTER + INTRA:          -6.857
REMARK INTER:                  -6.857
REMARK INTRA:                   0.000
REMARK UNBOUND:                 0.000
REMARK SMILES Cc1cc(O)c2c(c1)C(=O)c1cc(O)cc(O)c1C2=O
REMARK SMILES IDX 1 1 2 2 8 3 7 4 6 5 4 6 3 7 19 8 20 9 18 10 11 11 9 12 10 13
REMARK SMILES IDX 12 14 13 15 15 16 16 17 5 18 17 20 14 22
REMARK H PARENT 5 19 17 21 14 23
REMARK Flexibility Score: inf
ROOT
ATOM      1  C   UNL     1     -48.546  -0.287  74.292  1.00  0.00     0.044 C 
ATOM      2  C   UNL     1     -48.185   0.816  73.342  1.00  0.00    -0.047 A 
ATOM      3  C   UNL     1     -48.002   2.121  73.814  1.00  0.00     0.016 A 
ATOM      4  C   UNL     1     -47.708   3.169  72.926  1.00  0.00     0.038 A 
ATOM      5  C   UNL     1     -47.620   2.913  71.539  1.00  0.00     0.076 A 
ATOM      6  C   UNL     1     -47.760   1.581  71.072  1.00  0.00     0.127 A 
ATOM      7  C   UNL     1     -48.073   0.558  71.972  1.00  0.00     0.050 A 
ATOM      8  C   UNL     1     -47.454   4.069  70.621  1.00  0.00     0.201 C 
ATOM      9  O   UNL     1     -47.924   4.015  69.453  1.00  0.00    -0.288 OA
ATOM     10  C   UNL     1     -46.905   5.349  71.138  1.00  0.00     0.076 A 
ATOM     11  C   UNL     1     -46.995   5.602  72.525  1.00  0.00     0.041 A 
ATOM     12  C   UNL     1     -47.485   4.542  73.439  1.00  0.00     0.194 C 
ATOM     13  O   UNL     1     -47.689   4.803  74.657  1.00  0.00    -0.289 OA
ATOM     14  C   UNL     1     -46.614   6.855  73.034  1.00  0.00     0.059 A 
ATOM     15  C   UNL     1     -46.131   7.850  72.180  1.00  0.00     0.120 A 
ATOM     16  C   UNL     1     -46.003   7.591  70.817  1.00  0.00     0.093 A 
ATOM     17  C   UNL     1     -46.356   6.345  70.287  1.00  0.00     0.131 A 
ENDROOT
BRANCH   6  18
ATOM     18  O   UNL     1     -47.566   1.224  69.735  1.00  0.00    -0.507 OA
ATOM     19  H   UNL     1     -47.977   0.405  69.310  1.00  0.00     0.293 HD
ENDBRANCH   6  18
BRANCH  17  20
ATOM     20  O   UNL     1     -46.115   6.129  68.929  1.00  0.00    -0.507 OA
ATOM     21  H   UNL     1     -46.440   6.748  68.199  1.00  0.00     0.293 HD
ENDBRANCH  17  20
BRANCH  15  22
ATOM     22  O   UNL     1     -45.764   9.098  72.679  1.00  0.00    -0.508 OA
ATOM     23  H   UNL     1     -46.439   9.846  72.787  1.00  0.00     0.293 HD
ENDBRANCH  15  22
TORSDOF 3
ENDMDL
MODEL 6
REMARK VINA RESULT:    -6.281      2.888      3.735
REMARK INTER + INTRA:          -6.831
REMARK INTER:                  -6.831
REMARK INTRA:                   0.000
REMARK UNBOUND:                 0.000
REMARK SMILES Cc1cc(O)c2c(c1)C(=O)c1cc(O)cc(O)c1C2=O
REMARK SMILES IDX 1 1 2 2 8 3 7 4 6 5 4 6 3 7 19 8 20 9 18 10 11 11 9 12 10 13
REMARK SMILES IDX 12 14 13 15 15 16 16 17 5 18 17 20 14 22
REMARK H PARENT 5 19 17 21 14 23
REMARK Flexibility Score: inf
ROOT
ATOM      1  C   UNL     1     -34.124   9.408  77.128  1.00  0.00     0.044 C 
ATOM      2  C   UNL     1     -34.817   8.189  77.660  1.00  0.00    -0.047 A 
ATOM      3  C   UNL     1     -36.215   8.109  77.642  1.00  0.00     0.016 A 
ATOM      4  C   UNL     1     -36.875   6.991  78.179  1.00  0.00     0.038 A 
ATOM      5  C   UNL     1     -36.126   5.946  78.766  1.00  0.00     0.076 A 
ATOM      6  C   UNL     1     -34.709   6.011  78.739  1.00  0.00     0.127 A 
ATOM      7  C   UNL     1     -34.075   7.143  78.218  1.00  0.00     0.050 A 
ATOM      8  C   UNL     1     -36.864   4.854  79.453  1.00  0.00     0.201 C 
ATOM      9  O   UNL     1     -36.336   4.257  80.428  1.00  0.00    -0.288 OA
ATOM     10  C   UNL     1     -38.287   4.597  79.111  1.00  0.00     0.076 A 
ATOM     11  C   UNL     1     -39.032   5.644  78.523  1.00  0.00     0.041 A 
ATOM     12  C   UNL     1     -38.354   6.901  78.127  1.00  0.00     0.194 C 
ATOM     13  O   UNL     1     -39.033   7.885  77.723  1.00  0.00    -0.289 OA
ATOM     14  C   UNL     1     -40.412   5.487  78.313  1.00  0.00     0.059 A 
ATOM     15  C   UNL     1     -41.053   4.296  78.666  1.00  0.00     0.120 A 
ATOM     16  C   UNL     1     -40.314   3.246  79.208  1.00  0.00     0.093 A 
ATOM     17  C   UNL     1     -38.935   3.369  79.409  1.00  0.00     0.131 A 
ENDROOT
BRANCH   6  18
ATOM     18  O   UNL     1     -33.896   4.966  79.187  1.00  0.00    -0.507 OA
ATOM     19  H   UNL     1     -32.887   4.990  79.151  1.00  0.00     0.293 HD
ENDBRANCH   6  18
BRANCH  17  20
ATOM     20  O   UNL     1     -38.248   2.245  79.870  1.00  0.00    -0.507 OA
ATOM     21  H   UNL     1     -38.183   1.992  80.847  1.00  0.00     0.293 HD
ENDBRANCH  17  20
BRANCH  15  22
ATOM     22  O   UNL     1     -42.424   4.142  78.470  1.00  0.00    -0.508 OA
ATOM     23  H   UNL     1     -42.938   3.380  78.896  1.00  0.00     0.293 HD
ENDBRANCH  15  22
TORSDOF 3
ENDMDL
MODEL 7
REMARK VINA RESULT:    -6.181      1.480      3.259
REMARK INTER + INTRA:          -6.724
REMARK INTER:                  -6.724
REMARK INTRA:                   0.000
REMARK UNBOUND:                 0.000
REMARK SMILES Cc1cc(O)c2c(c1)C(=O)c1cc(O)cc(O)c1C2=O
REMARK SMILES IDX 1 1 2 2 8 3 7 4 6 5 4 6 3 7 19 8 20 9 18 10 11 11 9 12 10 13
REMARK SMILES IDX 12 14 13 15 15 16 16 17 5 18 17 20 14 22
REMARK H PARENT 5 19 17 21 14 23
REMARK Flexibility Score: inf
ROOT
ATOM      1  C   UNL     1     -33.420   4.508  83.997  1.00  0.00     0.044 C 
ATOM      2  C   UNL     1     -34.500   4.397  82.961  1.00  0.00    -0.047 A 
ATOM      3  C   UNL     1     -35.820   4.133  83.346  1.00  0.00     0.016 A 
ATOM      4  C   UNL     1     -36.830   3.983  82.382  1.00  0.00     0.038 A 
ATOM      5  C   UNL     1     -36.511   4.074  81.008  1.00  0.00     0.076 A 
ATOM      6  C   UNL     1     -35.181   4.388  80.626  1.00  0.00     0.127 A 
ATOM      7  C   UNL     1     -34.189   4.513  81.603  1.00  0.00     0.050 A 
ATOM      8  C   UNL     1     -37.575   3.765  80.018  1.00  0.00     0.201 C 
ATOM      9  O   UNL     1     -37.268   3.276  78.898  1.00  0.00    -0.288 OA
ATOM     10  C   UNL     1     -39.004   3.854  80.418  1.00  0.00     0.076 A 
ATOM     11  C   UNL     1     -39.319   3.763  81.793  1.00  0.00     0.041 A 
ATOM     12  C   UNL     1     -38.231   3.735  82.799  1.00  0.00     0.194 C 
ATOM     13  O   UNL     1     -38.500   3.524  84.014  1.00  0.00    -0.289 OA
ATOM     14  C   UNL     1     -40.662   3.704  82.200  1.00  0.00     0.059 A 
ATOM     15  C   UNL     1     -41.691   3.751  81.256  1.00  0.00     0.120 A 
ATOM     16  C   UNL     1     -41.386   3.882  79.902  1.00  0.00     0.093 A 
ATOM     17  C   UNL     1     -40.057   3.963  79.472  1.00  0.00     0.131 A 
ENDROOT
BRANCH   6  18
ATOM     18  O   UNL     1     -34.810   4.617  79.299  1.00  0.00    -0.507 OA
ATOM     19  H   UNL     1     -35.459   4.591  78.525  1.00  0.00     0.293 HD
ENDBRANCH   6  18
BRANCH  17  20
ATOM     20  O   UNL     1     -39.832   4.184  78.112  1.00  0.00    -0.507 OA
ATOM     21  H   UNL     1     -40.244   3.623  77.379  1.00  0.00     0.293 HD
ENDBRANCH  17  20
BRANCH  15  22
ATOM     22  O   UNL     1     -43.025   3.681  81.655  1.00  0.00    -0.508 OA
ATOM     23  H   UNL     1     -43.491   4.469  82.087  1.00  0.00     0.293 HD
ENDBRANCH  15  22
TORSDOF 3
ENDMDL
MODEL 8
REMARK VINA RESULT:    -6.081      2.344      5.016
REMARK INTER + INTRA:          -6.614
REMARK INTER:                  -6.614
REMARK INTRA:                   0.000
REMARK UNBOUND:                 0.000
REMARK SMILES Cc1cc(O)c2c(c1)C(=O)c1cc(O)cc(O)c1C2=O
REMARK SMILES IDX 1 1 2 2 8 3 7 4 6 5 4 6 3 7 19 8 20 9 18 10 11 11 9 12 10 13
REMARK SMILES IDX 12 14 13 15 15 16 16 17 5 18 17 20 14 22
REMARK H PARENT 5 19 17 21 14 23
REMARK Flexibility Score: inf
ROOT
ATOM      1  C   UNL     1     -39.202   1.908  84.156  1.00  0.00     0.044 C 
ATOM      2  C   UNL     1     -38.504   2.702  83.091  1.00  0.00    -0.047 A 
ATOM      3  C   UNL     1     -39.203   3.122  81.954  1.00  0.00     0.016 A 
ATOM      4  C   UNL     1     -38.549   3.827  80.930  1.00  0.00     0.038 A 
ATOM      5  C   UNL     1     -37.165   4.095  81.034  1.00  0.00     0.076 A 
ATOM      6  C   UNL     1     -36.472   3.707  82.210  1.00  0.00     0.127 A 
ATOM      7  C   UNL     1     -37.140   2.989  83.205  1.00  0.00     0.050 A 
ATOM      8  C   UNL     1     -36.479   4.711  79.868  1.00  0.00     0.201 C 
ATOM      9  O   UNL     1     -35.264   4.460  79.650  1.00  0.00    -0.288 OA
ATOM     10  C   UNL     1     -37.271   5.465  78.862  1.00  0.00     0.076 A 
ATOM     11  C   UNL     1     -38.654   5.195  78.761  1.00  0.00     0.041 A 
ATOM     12  C   UNL     1     -39.304   4.296  79.744  1.00  0.00     0.194 C 
ATOM     13  O   UNL     1     -40.507   3.950  79.584  1.00  0.00    -0.289 OA
ATOM     14  C   UNL     1     -39.409   5.784  77.733  1.00  0.00     0.059 A 
ATOM     15  C   UNL     1     -38.805   6.649  76.816  1.00  0.00     0.120 A 
ATOM     16  C   UNL     1     -37.449   6.950  76.936  1.00  0.00     0.093 A 
ATOM     17  C   UNL     1     -36.680   6.393  77.963  1.00  0.00     0.131 A 
ENDROOT
BRANCH   6  18
ATOM     18  O   UNL     1     -35.135   4.041  82.444  1.00  0.00    -0.507 OA
ATOM     19  H   UNL     1     -34.820   4.538  83.265  1.00  0.00     0.293 HD
ENDBRANCH   6  18
BRANCH  17  20
ATOM     20  O   UNL     1     -35.352   6.811  78.074  1.00  0.00    -0.507 OA
ATOM     21  H   UNL     1     -34.886   6.961  78.958  1.00  0.00     0.293 HD
ENDBRANCH  17  20
BRANCH  15  22
ATOM     22  O   UNL     1     -39.547   7.226  75.788  1.00  0.00    -0.508 OA
ATOM     23  H   UNL     1     -39.130   7.446  74.892  1.00  0.00     0.293 HD
ENDBRANCH  15  22
TORSDOF 3
ENDMDL
MODEL 9
REMARK VINA RESULT:    -6.021      3.589      5.630
REMARK INTER + INTRA:          -6.549
REMARK INTER:                  -6.549
REMARK INTRA:                   0.000
REMARK UNBOUND:                 0.000
REMARK SMILES Cc1cc(O)c2c(c1)C(=O)c1cc(O)cc(O)c1C2=O
REMARK SMILES IDX 1 1 2 2 8 3 7 4 6 5 4 6 3 7 19 8 20 9 18 10 11 11 9 12 10 13
REMARK SMILES IDX 12 14 13 15 15 16 16 17 5 18 17 20 14 22
REMARK H PARENT 5 19 17 21 14 23
REMARK Flexibility Score: inf
ROOT
ATOM      1  C   UNL     1     -33.750  10.125  76.949  1.00  0.00     0.044 C 
ATOM      2  C   UNL     1     -35.041   9.404  77.207  1.00  0.00    -0.047 A 
ATOM      3  C   UNL     1     -35.030   8.090  77.688  1.00  0.00     0.016 A 
ATOM      4  C   UNL     1     -36.232   7.392  77.891  1.00  0.00     0.038 A 
ATOM      5  C   UNL     1     -37.465   8.010  77.583  1.00  0.00     0.076 A 
ATOM      6  C   UNL     1     -37.472   9.357  77.139  1.00  0.00     0.127 A 
ATOM      7  C   UNL     1     -36.262  10.025  76.926  1.00  0.00     0.050 A 
ATOM      8  C   UNL     1     -38.702   7.190  77.670  1.00  0.00     0.201 C 
ATOM      9  O   UNL     1     -39.677   7.443  76.913  1.00  0.00    -0.288 OA
ATOM     10  C   UNL     1     -38.717   5.965  78.509  1.00  0.00     0.076 A 
ATOM     11  C   UNL     1     -37.482   5.350  78.816  1.00  0.00     0.041 A 
ATOM     12  C   UNL     1     -36.212   6.011  78.431  1.00  0.00     0.194 C 
ATOM     13  O   UNL     1     -35.114   5.409  78.585  1.00  0.00    -0.289 OA
ATOM     14  C   UNL     1     -37.462   4.117  79.488  1.00  0.00     0.059 A 
ATOM     15  C   UNL     1     -38.655   3.500  79.872  1.00  0.00     0.120 A 
ATOM     16  C   UNL     1     -39.874   4.122  79.608  1.00  0.00     0.093 A 
ATOM     17  C   UNL     1     -39.921   5.359  78.958  1.00  0.00     0.131 A 
ENDROOT
BRANCH   6  18
ATOM     18  O   UNL     1     -38.650  10.079  76.931  1.00  0.00    -0.507 OA
ATOM     19  H   UNL     1     -39.448   9.713  76.431  1.00  0.00     0.293 HD
ENDBRANCH   6  18
BRANCH  17  20
ATOM     20  O   UNL     1     -41.171   5.963  78.809  1.00  0.00    -0.507 OA
ATOM     21  H   UNL     1     -41.389   6.620  78.072  1.00  0.00     0.293 HD
ENDBRANCH  17  20
BRANCH  15  22
ATOM     22  O   UNL     1     -38.641   2.271  80.529  1.00  0.00    -0.508 OA
ATOM     23  H   UNL     1     -38.010   2.089  81.301  1.00  0.00     0.293 HD
ENDBRANCH  15  22
TORSDOF 3
ENDMDL
