MODEL 1
REMARK VINA RESULT:    -4.661      0.000      0.000
REMARK INTER + INTRA:          -4.797
REMARK INTER:                  -4.797
REMARK INTRA:                   0.000
REMARK UNBOUND:                 0.000
REMARK SMILES Oc1ccc2[nH]ccc2c1
REMARK SMILES IDX 3 1 4 2 5 3 9 4 8 5 7 6 6 7 10 8 2 9 1 11
REMARK H PARENT 6 10 1 12
REMARK Flexibility Score: inf
ROOT
ATOM      1  C   UNL     1     155.947 160.335 151.382  1.00  0.00     0.048 A 
ATOM      2  C   UNL     1     157.249 160.869 151.397  1.00  0.00     0.030 A 
ATOM      3  C   UNL     1     157.577 161.753 152.423  1.00  0.00     0.046 A 
ATOM      4  C   UNL     1     156.673 162.101 153.391  1.00  0.00     0.003 A 
ATOM      5  C   UNL     1     157.302 162.981 154.246  1.00  0.00     0.028 A 
ATOM      6  C   UNL     1     158.589 163.125 153.737  1.00  0.00     0.083 A 
ATOM      7  N   UNL     1     158.753 162.373 152.623  1.00  0.00    -0.361 N 
ATOM      8  C   UNL     1     155.377 161.591 153.406  1.00  0.00     0.056 A 
ATOM      9  C   UNL     1     155.012 160.691 152.381  1.00  0.00     0.116 A 
ATOM     10  H   UNL     1     159.616 162.294 152.041  1.00  0.00     0.166 HD
ENDROOT
BRANCH   9  11
ATOM     11  O   UNL     1     153.730 160.148 152.343  1.00  0.00    -0.508 OA
ATOM     12  H   UNL     1     153.568 159.196 152.039  1.00  0.00     0.293 HD
ENDBRANCH   9  11
TORSDOF 1
ENDMDL
MODEL 2
REMARK VINA RESULT:    -4.604     13.400     14.145
REMARK INTER + INTRA:          -4.739
REMARK INTER:                  -4.739
REMARK INTRA:                   0.000
REMARK UNBOUND:                 0.000
REMARK SMILES Oc1ccc2[nH]ccc2c1
REMARK SMILES IDX 3 1 4 2 5 3 9 4 8 5 7 6 6 7 10 8 2 9 1 11
REMARK H PARENT 6 10 1 12
REMARK Flexibility Score: inf
ROOT
ATOM      1  C   UNL     1     160.336 149.295 151.389  1.00  0.00     0.048 A 
ATOM      2  C   UNL     1     160.874 147.995 151.391  1.00  0.00     0.030 A 
ATOM      3  C   UNL     1     161.755 147.657 152.416  1.00  0.00     0.046 A 
ATOM      4  C   UNL     1     162.097 148.551 153.396  1.00  0.00     0.003 A 
ATOM      5  C   UNL     1     162.976 147.915 154.246  1.00  0.00     0.028 A 
ATOM      6  C   UNL     1     163.125 146.634 153.723  1.00  0.00     0.083 A 
ATOM      7  N   UNL     1     162.377 146.481 152.605  1.00  0.00    -0.361 N 
ATOM      8  C   UNL     1     161.584 149.846 153.423  1.00  0.00     0.056 A 
ATOM      9  C   UNL     1     160.687 150.220 152.399  1.00  0.00     0.116 A 
ATOM     10  H   UNL     1     162.303 145.624 152.014  1.00  0.00     0.166 HD
ENDROOT
BRANCH   9  11
ATOM     11  O   UNL     1     160.141 151.501 152.373  1.00  0.00    -0.508 OA
ATOM     12  H   UNL     1     159.154 151.652 152.199  1.00  0.00     0.293 HD
ENDBRANCH   9  11
TORSDOF 1
ENDMDL
MODEL 3
REMARK VINA RESULT:    -4.560      0.817      2.137
REMARK INTER + INTRA:          -4.694
REMARK INTER:                  -4.694
REMARK INTRA:                   0.000
REMARK UNBOUND:                 0.000
REMARK SMILES Oc1ccc2[nH]ccc2c1
REMARK SMILES IDX 3 1 4 2 5 3 9 4 8 5 7 6 6 7 10 8 2 9 1 11
REMARK H PARENT 6 10 1 12
REMARK Flexibility Score: inf
ROOT
ATOM      1  C   UNL     1     155.065 161.703 153.491  1.00  0.00     0.048 A 
ATOM      2  C   UNL     1     156.289 162.384 153.632  1.00  0.00     0.030 A 
ATOM      3  C   UNL     1     157.293 162.117 152.703  1.00  0.00     0.046 A 
ATOM      4  C   UNL     1     157.109 161.224 151.681  1.00  0.00     0.003 A 
ATOM      5  C   UNL     1     158.277 161.189 150.950  1.00  0.00     0.028 A 
ATOM      6  C   UNL     1     159.130 162.087 151.584  1.00  0.00     0.083 A 
ATOM      7  N   UNL     1     158.525 162.652 152.654  1.00  0.00    -0.361 N 
ATOM      8  C   UNL     1     155.912 160.533 151.513  1.00  0.00     0.056 A 
ATOM      9  C   UNL     1     154.873 160.780 152.436  1.00  0.00     0.116 A 
ATOM     10  H   UNL     1     158.934 163.357 153.306  1.00  0.00     0.166 HD
ENDROOT
BRANCH   9  11
ATOM     11  O   UNL     1     153.653 160.119 152.319  1.00  0.00    -0.508 OA
ATOM     12  H   UNL     1     152.838 160.579 151.932  1.00  0.00     0.293 HD
ENDBRANCH   9  11
TORSDOF 1
ENDMDL
MODEL 4
REMARK VINA RESULT:    -4.538     13.291     14.232
REMARK INTER + INTRA:          -4.670
REMARK INTER:                  -4.670
REMARK INTRA:                   0.000
REMARK UNBOUND:                 0.000
REMARK SMILES Oc1ccc2[nH]ccc2c1
REMARK SMILES IDX 3 1 4 2 5 3 9 4 8 5 7 6 6 7 10 8 2 9 1 11
REMARK H PARENT 6 10 1 12
REMARK Flexibility Score: inf
ROOT
ATOM      1  C   UNL     1     161.695 150.204 153.469  1.00  0.00     0.048 A 
ATOM      2  C   UNL     1     162.399 148.995 153.623  1.00  0.00     0.030 A 
ATOM      3  C   UNL     1     162.153 147.978 152.703  1.00  0.00     0.046 A 
ATOM      4  C   UNL     1     161.258 148.135 151.678  1.00  0.00     0.003 A 
ATOM      5  C   UNL     1     161.246 146.960 150.957  1.00  0.00     0.028 A 
ATOM      6  C   UNL     1     162.159 146.130 151.600  1.00  0.00     0.083 A 
ATOM      7  N   UNL     1     162.710 146.756 152.667  1.00  0.00    -0.361 N 
ATOM      8  C   UNL     1     160.545 149.318 151.497  1.00  0.00     0.056 A 
ATOM      9  C   UNL     1     160.771 150.369 152.412  1.00  0.00     0.116 A 
ATOM     10  H   UNL     1     163.422 146.366 153.323  1.00  0.00     0.166 HD
ENDROOT
BRANCH   9  11
ATOM     11  O   UNL     1     160.088 151.576 152.283  1.00  0.00    -0.508 OA
ATOM     12  H   UNL     1     159.956 152.015 151.379  1.00  0.00     0.293 HD
ENDBRANCH   9  11
TORSDOF 1
ENDMDL
MODEL 5
REMARK VINA RESULT:    -4.429     13.308     14.007
REMARK INTER + INTRA:          -4.559
REMARK INTER:                  -4.559
REMARK INTRA:                   0.000
REMARK UNBOUND:                 0.000
REMARK SMILES Oc1ccc2[nH]ccc2c1
REMARK SMILES IDX 3 1 4 2 5 3 9 4 8 5 7 6 6 7 10 8 2 9 1 11
REMARK H PARENT 6 10 1 12
REMARK Flexibility Score: inf
ROOT
ATOM      1  C   UNL     1     143.631 154.864 153.548  1.00  0.00     0.048 A 
ATOM      2  C   UNL     1     143.019 156.122 153.700  1.00  0.00     0.030 A 
ATOM      3  C   UNL     1     143.341 157.118 152.780  1.00  0.00     0.046 A 
ATOM      4  C   UNL     1     144.224 156.895 151.757  1.00  0.00     0.003 A 
ATOM      5  C   UNL     1     144.324 158.066 151.036  1.00  0.00     0.028 A 
ATOM      6  C   UNL     1     143.473 158.961 151.677  1.00  0.00     0.083 A 
ATOM      7  N   UNL     1     142.875 158.378 152.742  1.00  0.00    -0.361 N 
ATOM      8  C   UNL     1     144.849 155.662 151.578  1.00  0.00     0.056 A 
ATOM      9  C   UNL     1     144.543 154.631 152.493  1.00  0.00     0.116 A 
ATOM     10  H   UNL     1     142.192 158.819 153.397  1.00  0.00     0.166 HD
ENDROOT
BRANCH   9  11
ATOM     11  O   UNL     1     145.136 153.377 152.365  1.00  0.00    -0.508 OA
ATOM     12  H   UNL     1     145.657 152.959 153.127  1.00  0.00     0.293 HD
ENDBRANCH   9  11
TORSDOF 1
ENDMDL
MODEL 6
REMARK VINA RESULT:    -4.394     13.160     13.748
REMARK INTER + INTRA:          -4.522
REMARK INTER:                  -4.522
REMARK INTRA:                   0.000
REMARK UNBOUND:                 0.000
REMARK SMILES Oc1ccc2[nH]ccc2c1
REMARK SMILES IDX 3 1 4 2 5 3 9 4 8 5 7 6 6 7 10 8 2 9 1 11
REMARK H PARENT 6 10 1 12
REMARK Flexibility Score: inf
ROOT
ATOM      1  C   UNL     1     145.113 155.626 151.283  1.00  0.00     0.048 A 
ATOM      2  C   UNL     1     144.741 156.983 151.252  1.00  0.00     0.030 A 
ATOM      3  C   UNL     1     143.996 157.478 152.320  1.00  0.00     0.046 A 
ATOM      4  C   UNL     1     143.628 156.682 153.372  1.00  0.00     0.003 A 
ATOM      5  C   UNL     1     142.908 157.464 154.249  1.00  0.00     0.028 A 
ATOM      6  C   UNL     1     142.875 158.727 153.666  1.00  0.00     0.083 A 
ATOM      7  N   UNL     1     143.541 158.731 152.488  1.00  0.00    -0.361 N 
ATOM      8  C   UNL     1     143.979 155.335 153.434  1.00  0.00     0.056 A 
ATOM      9  C   UNL     1     144.736 154.802 152.368  1.00  0.00     0.116 A 
ATOM     10  H   UNL     1     143.671 159.543 151.844  1.00  0.00     0.166 HD
ENDROOT
BRANCH   9  11
ATOM     11  O   UNL     1     145.116 153.462 152.375  1.00  0.00    -0.508 OA
ATOM     12  H   UNL     1     144.711 152.801 153.027  1.00  0.00     0.293 HD
ENDBRANCH   9  11
TORSDOF 1
ENDMDL
MODEL 7
REMARK VINA RESULT:    -4.334     20.198     21.013
REMARK INTER + INTRA:          -4.460
REMARK INTER:                  -4.460
REMARK INTRA:                   0.000
REMARK UNBOUND:                 0.000
REMARK SMILES Oc1ccc2[nH]ccc2c1
REMARK SMILES IDX 3 1 4 2 5 3 9 4 8 5 7 6 6 7 10 8 2 9 1 11
REMARK H PARENT 6 10 1 12
REMARK Flexibility Score: inf
ROOT
ATOM      1  C   UNL     1     144.542 143.298 152.172  1.00  0.00     0.048 A 
ATOM      2  C   UNL     1     145.296 143.339 153.359  1.00  0.00     0.030 A 
ATOM      3  C   UNL     1     146.685 143.348 153.248  1.00  0.00     0.046 A 
ATOM      4  C   UNL     1     147.310 143.316 152.029  1.00  0.00     0.003 A 
ATOM      5  C   UNL     1     148.668 143.333 152.262  1.00  0.00     0.028 A 
ATOM      6  C   UNL     1     148.799 143.376 153.646  1.00  0.00     0.083 A 
ATOM      7  N   UNL     1     147.585 143.384 154.245  1.00  0.00    -0.361 N 
ATOM      8  C   UNL     1     146.593 143.274 150.835  1.00  0.00     0.056 A 
ATOM      9  C   UNL     1     145.184 143.265 150.913  1.00  0.00     0.116 A 
ATOM     10  H   UNL     1     147.392 143.414 155.270  1.00  0.00     0.166 HD
ENDROOT
BRANCH   9  11
ATOM     11  O   UNL     1     144.414 143.224 149.753  1.00  0.00    -0.508 OA
ATOM     12  H   UNL     1     143.550 143.748 149.673  1.00  0.00     0.293 HD
ENDBRANCH   9  11
TORSDOF 1
ENDMDL
MODEL 8
REMARK VINA RESULT:    -4.283      3.030      4.063
REMARK INTER + INTRA:          -4.409
REMARK INTER:                  -4.409
REMARK INTRA:                   0.000
REMARK UNBOUND:                 0.000
REMARK SMILES Oc1ccc2[nH]ccc2c1
REMARK SMILES IDX 3 1 4 2 5 3 9 4 8 5 7 6 6 7 10 8 2 9 1 11
REMARK H PARENT 6 10 1 12
REMARK Flexibility Score: inf
ROOT
ATOM      1  C   UNL     1     160.667 161.811 152.158  1.00  0.00     0.048 A 
ATOM      2  C   UNL     1     159.907 161.727 153.339  1.00  0.00     0.030 A 
ATOM      3  C   UNL     1     158.519 161.746 153.223  1.00  0.00     0.046 A 
ATOM      4  C   UNL     1     157.899 161.844 152.005  1.00  0.00     0.003 A 
ATOM      5  C   UNL     1     156.540 161.837 152.233  1.00  0.00     0.028 A 
ATOM      6  C   UNL     1     156.403 161.733 153.614  1.00  0.00     0.083 A 
ATOM      7  N   UNL     1     157.615 161.678 154.215  1.00  0.00    -0.361 N 
ATOM      8  C   UNL     1     158.621 161.929 150.817  1.00  0.00     0.056 A 
ATOM      9  C   UNL     1     160.030 161.912 150.899  1.00  0.00     0.116 A 
ATOM     10  H   UNL     1     157.803 161.599 155.238  1.00  0.00     0.166 HD
ENDROOT
BRANCH   9  11
ATOM     11  O   UNL     1     160.805 161.994 149.745  1.00  0.00    -0.508 OA
ATOM     12  H   UNL     1     161.262 162.857 149.475  1.00  0.00     0.293 HD
ENDBRANCH   9  11
TORSDOF 1
ENDMDL
MODEL 9
REMARK VINA RESULT:    -4.279     13.341     13.870
REMARK INTER + INTRA:          -4.404
REMARK INTER:                  -4.404
REMARK INTRA:                   0.000
REMARK UNBOUND:                 0.000
REMARK SMILES Oc1ccc2[nH]ccc2c1
REMARK SMILES IDX 3 1 4 2 5 3 9 4 8 5 7 6 6 7 10 8 2 9 1 11
REMARK H PARENT 6 10 1 12
REMARK Flexibility Score: inf
ROOT
ATOM      1  C   UNL     1     143.632 160.555 151.793  1.00  0.00     0.048 A 
ATOM      2  C   UNL     1     143.636 159.910 153.044  1.00  0.00     0.030 A 
ATOM      3  C   UNL     1     143.543 158.520 153.060  1.00  0.00     0.046 A 
ATOM      4  C   UNL     1     143.449 157.791 151.903  1.00  0.00     0.003 A 
ATOM      5  C   UNL     1     143.373 156.462 152.259  1.00  0.00     0.028 A 
ATOM      6  C   UNL     1     143.426 156.454 153.649  1.00  0.00     0.083 A 
ATOM      7  N   UNL     1     143.529 157.713 154.134  1.00  0.00    -0.361 N 
ATOM      8  C   UNL     1     143.442 158.397 150.649  1.00  0.00     0.056 A 
ATOM      9  C   UNL     1     143.536 159.805 150.598  1.00  0.00     0.116 A 
ATOM     10  H   UNL     1     143.586 157.996 155.138  1.00  0.00     0.166 HD
ENDROOT
BRANCH   9  11
ATOM     11  O   UNL     1     143.533 160.468 149.373  1.00  0.00    -0.508 OA
ATOM     12  H   UNL     1     143.986 161.367 149.257  1.00  0.00     0.293 HD
ENDBRANCH   9  11
TORSDOF 1
ENDMDL
