MODEL 1
REMARK VINA RESULT:    -3.491      0.000      0.000
REMARK INTER + INTRA:          -3.593
REMARK INTER:                  -3.593
REMARK INTRA:                   0.000
REMARK UNBOUND:                 0.000
REMARK SMILES CC1(C)[C@@H]2CC[C@@]1(C)[C@@H](O)C2
REMARK SMILES IDX 1 1 2 2 4 3 5 4 6 5 7 6 9 7 11 8 8 9 3 10 10 11
REMARK H PARENT 10 12
REMARK Flexibility Score: inf
ROOT
ATOM      1  C   UNL     1     167.943 166.159 167.628  1.00  0.00     0.012 C 
ATOM      2  C   UNL     1     166.663 165.849 168.464  1.00  0.00    -0.025 C 
ATOM      3  C   UNL     1     165.637 166.996 168.479  1.00  0.00    -0.002 C 
ATOM      4  C   UNL     1     164.433 166.388 169.240  1.00  0.00     0.005 C 
ATOM      5  C   UNL     1     164.458 164.910 168.804  1.00  0.00     0.010 C 
ATOM      6  C   UNL     1     165.655 164.871 167.813  1.00  0.00    -0.001 C 
ATOM      7  C   UNL     1     165.225 165.632 166.520  1.00  0.00     0.121 C 
ATOM      8  C   UNL     1     165.198 167.111 166.997  1.00  0.00     0.036 C 
ATOM      9  C   UNL     1     166.176 163.454 167.544  1.00  0.00     0.015 C 
ATOM     10  C   UNL     1     167.173 165.447 169.883  1.00  0.00     0.012 C 
ENDROOT
BRANCH   7  11
ATOM     11  O   UNL     1     164.003 165.168 165.985  1.00  0.00    -0.393 OA
ATOM     12  H   UNL     1     163.357 165.917 165.938  1.00  0.00     0.210 HD
ENDBRANCH   7  11
TORSDOF 1
ENDMDL
MODEL 2
REMARK VINA RESULT:    -3.487      1.200      2.167
REMARK INTER + INTRA:          -3.589
REMARK INTER:                  -3.589
REMARK INTRA:                   0.000
REMARK UNBOUND:                 0.000
REMARK SMILES CC1(C)[C@@H]2CC[C@@]1(C)[C@@H](O)C2
REMARK SMILES IDX 1 1 2 2 4 3 5 4 6 5 7 6 9 7 11 8 8 9 3 10 10 11
REMARK H PARENT 10 12
REMARK Flexibility Score: inf
ROOT
ATOM      1  C   UNL     1     165.036 167.941 167.692  1.00  0.00     0.012 C 
ATOM      2  C   UNL     1     165.351 166.652 168.514  1.00  0.00    -0.025 C 
ATOM      3  C   UNL     1     164.199 165.631 168.535  1.00  0.00    -0.002 C 
ATOM      4  C   UNL     1     164.812 164.419 169.279  1.00  0.00     0.005 C 
ATOM      5  C   UNL     1     166.285 164.441 168.824  1.00  0.00     0.010 C 
ATOM      6  C   UNL     1     166.316 165.645 167.842  1.00  0.00    -0.001 C 
ATOM      7  C   UNL     1     165.537 165.230 166.556  1.00  0.00     0.121 C 
ATOM      8  C   UNL     1     164.063 165.205 167.051  1.00  0.00     0.036 C 
ATOM      9  C   UNL     1     167.732 166.163 167.560  1.00  0.00     0.015 C 
ATOM     10  C   UNL     1     165.774 167.150 169.932  1.00  0.00     0.012 C 
ENDROOT
BRANCH   7  11
ATOM     11  O   UNL     1     165.988 164.011 166.005  1.00  0.00    -0.393 OA
ATOM     12  H   UNL     1     165.541 163.254 166.463  1.00  0.00     0.210 HD
ENDBRANCH   7  11
TORSDOF 1
ENDMDL
MODEL 3
REMARK VINA RESULT:    -3.478      1.201      2.185
REMARK INTER + INTRA:          -3.580
REMARK INTER:                  -3.580
REMARK INTRA:                   0.000
REMARK UNBOUND:                 0.000
REMARK SMILES CC1(C)[C@@H]2CC[C@@]1(C)[C@@H](O)C2
REMARK SMILES IDX 1 1 2 2 4 3 5 4 6 5 7 6 9 7 11 8 8 9 3 10 10 11
REMARK H PARENT 10 12
REMARK Flexibility Score: inf
ROOT
ATOM      1  C   UNL     1     166.186 163.166 167.559  1.00  0.00     0.012 C 
ATOM      2  C   UNL     1     165.913 164.464 168.381  1.00  0.00    -0.025 C 
ATOM      3  C   UNL     1     167.070 165.478 168.344  1.00  0.00    -0.002 C 
ATOM      4  C   UNL     1     166.496 166.701 169.101  1.00  0.00     0.005 C 
ATOM      5  C   UNL     1     165.005 166.683 168.708  1.00  0.00     0.010 C 
ATOM      6  C   UNL     1     164.927 165.470 167.740  1.00  0.00    -0.001 C 
ATOM      7  C   UNL     1     165.654 165.869 166.419  1.00  0.00     0.121 C 
ATOM      8  C   UNL     1     167.147 165.890 166.852  1.00  0.00     0.036 C 
ATOM      9  C   UNL     1     163.497 164.958 167.521  1.00  0.00     0.015 C 
ATOM     10  C   UNL     1     165.546 163.982 169.820  1.00  0.00     0.012 C 
ENDROOT
BRANCH   7  11
ATOM     11  O   UNL     1     165.187 167.086 165.875  1.00  0.00    -0.393 OA
ATOM     12  H   UNL     1     165.835 167.420 165.205  1.00  0.00     0.210 HD
ENDBRANCH   7  11
TORSDOF 1
ENDMDL
MODEL 4
REMARK VINA RESULT:    -3.473      1.378      3.082
REMARK INTER + INTRA:          -3.574
REMARK INTER:                  -3.574
REMARK INTRA:                   0.000
REMARK UNBOUND:                 0.000
REMARK SMILES CC1(C)[C@@H]2CC[C@@]1(C)[C@@H](O)C2
REMARK SMILES IDX 1 1 2 2 4 3 5 4 6 5 7 6 9 7 11 8 8 9 3 10 10 11
REMARK H PARENT 10 12
REMARK Flexibility Score: inf
ROOT
ATOM      1  C   UNL     1     163.268 165.024 167.661  1.00  0.00     0.012 C 
ATOM      2  C   UNL     1     164.531 165.328 168.526  1.00  0.00    -0.025 C 
ATOM      3  C   UNL     1     165.547 164.174 168.569  1.00  0.00    -0.002 C 
ATOM      4  C   UNL     1     166.738 164.777 169.356  1.00  0.00     0.005 C 
ATOM      5  C   UNL     1     166.734 166.253 168.914  1.00  0.00     0.010 C 
ATOM      6  C   UNL     1     165.561 166.296 167.895  1.00  0.00    -0.001 C 
ATOM      7  C   UNL     1     166.015 165.527 166.616  1.00  0.00     0.121 C 
ATOM      8  C   UNL     1     166.020 164.049 167.098  1.00  0.00     0.036 C 
ATOM      9  C   UNL     1     165.056 167.716 167.608  1.00  0.00     0.015 C 
ATOM     10  C   UNL     1     163.990 165.741 169.931  1.00  0.00     0.012 C 
ENDROOT
BRANCH   7  11
ATOM     11  O   UNL     1     167.252 165.979 166.107  1.00  0.00    -0.393 OA
ATOM     12  H   UNL     1     167.913 166.033 166.843  1.00  0.00     0.210 HD
ENDBRANCH   7  11
TORSDOF 1
ENDMDL
MODEL 5
REMARK VINA RESULT:    -3.424      1.368      3.016
REMARK INTER + INTRA:          -3.524
REMARK INTER:                  -3.524
REMARK INTRA:                   0.000
REMARK UNBOUND:                 0.000
REMARK SMILES CC1(C)[C@@H]2CC[C@@]1(C)[C@@H](O)C2
REMARK SMILES IDX 1 1 2 2 4 3 5 4 6 5 7 6 9 7 11 8 8 9 3 10 10 11
REMARK H PARENT 10 12
REMARK Flexibility Score: inf
ROOT
ATOM      1  C   UNL     1     163.933 165.595 169.074  1.00  0.00     0.012 C 
ATOM      2  C   UNL     1     165.156 166.039 168.212  1.00  0.00    -0.025 C 
ATOM      3  C   UNL     1     166.516 165.627 168.804  1.00  0.00    -0.002 C 
ATOM      4  C   UNL     1     167.525 166.053 167.710  1.00  0.00     0.005 C 
ATOM      5  C   UNL     1     166.747 165.801 166.403  1.00  0.00     0.010 C 
ATOM      6  C   UNL     1     165.400 165.222 166.920  1.00  0.00    -0.001 C 
ATOM      7  C   UNL     1     165.680 163.788 167.468  1.00  0.00     0.121 C 
ATOM      8  C   UNL     1     166.473 164.078 168.773  1.00  0.00     0.036 C 
ATOM      9  C   UNL     1     164.277 165.271 165.876  1.00  0.00     0.015 C 
ATOM     10  C   UNL     1     164.998 167.580 168.017  1.00  0.00     0.012 C 
ENDROOT
BRANCH   7  11
ATOM     11  O   UNL     1     166.357 162.964 166.543  1.00  0.00    -0.393 OA
ATOM     12  H   UNL     1     167.262 163.332 166.372  1.00  0.00     0.210 HD
ENDBRANCH   7  11
TORSDOF 1
ENDMDL
MODEL 6
REMARK VINA RESULT:    -3.401      5.673      6.987
REMARK INTER + INTRA:          -3.501
REMARK INTER:                  -3.501
REMARK INTRA:                   0.000
REMARK UNBOUND:                 0.000
REMARK SMILES CC1(C)[C@@H]2CC[C@@]1(C)[C@@H](O)C2
REMARK SMILES IDX 1 1 2 2 4 3 5 4 6 5 7 6 9 7 11 8 8 9 3 10 10 11
REMARK H PARENT 10 12
REMARK Flexibility Score: inf
ROOT
ATOM      1  C   UNL     1     172.015 169.672 169.347  1.00  0.00     0.012 C 
ATOM      2  C   UNL     1     171.521 168.384 170.077  1.00  0.00    -0.025 C 
ATOM      3  C   UNL     1     170.449 167.600 169.299  1.00  0.00    -0.002 C 
ATOM      4  C   UNL     1     170.244 166.327 170.157  1.00  0.00     0.005 C 
ATOM      5  C   UNL     1     171.657 166.052 170.710  1.00  0.00     0.010 C 
ATOM      6  C   UNL     1     172.499 167.185 170.060  1.00  0.00    -0.001 C 
ATOM      7  C   UNL     1     172.628 166.868 168.538  1.00  0.00     0.121 C 
ATOM      8  C   UNL     1     171.190 167.143 168.017  1.00  0.00     0.036 C 
ATOM      9  C   UNL     1     173.848 167.413 170.755  1.00  0.00     0.015 C 
ATOM     10  C   UNL     1     171.052 168.854 171.490  1.00  0.00     0.012 C 
ENDROOT
BRANCH   7  11
ATOM     11  O   UNL     1     173.102 165.563 168.283  1.00  0.00    -0.393 OA
ATOM     12  H   UNL     1     172.375 164.908 168.443  1.00  0.00     0.210 HD
ENDBRANCH   7  11
TORSDOF 1
ENDMDL
MODEL 7
REMARK VINA RESULT:    -3.397      5.833      7.404
REMARK INTER + INTRA:          -3.496
REMARK INTER:                  -3.496
REMARK INTRA:                   0.000
REMARK UNBOUND:                 0.000
REMARK SMILES CC1(C)[C@@H]2CC[C@@]1(C)[C@@H](O)C2
REMARK SMILES IDX 1 1 2 2 4 3 5 4 6 5 7 6 9 7 11 8 8 9 3 10 10 11
REMARK H PARENT 10 12
REMARK Flexibility Score: inf
ROOT
ATOM      1  C   UNL     1     161.521 171.996 169.275  1.00  0.00     0.012 C 
ATOM      2  C   UNL     1     162.800 171.527 170.035  1.00  0.00    -0.025 C 
ATOM      3  C   UNL     1     163.611 170.455 169.285  1.00  0.00    -0.002 C 
ATOM      4  C   UNL     1     164.870 170.276 170.169  1.00  0.00     0.005 C 
ATOM      5  C   UNL     1     165.118 171.698 170.710  1.00  0.00     0.010 C 
ATOM      6  C   UNL     1     163.988 172.520 170.030  1.00  0.00    -0.001 C 
ATOM      7  C   UNL     1     164.332 172.635 168.513  1.00  0.00     0.121 C 
ATOM      8  C   UNL     1     164.084 171.188 168.003  1.00  0.00     0.036 C 
ATOM      9  C   UNL     1     163.730 173.874 170.704  1.00  0.00     0.015 C 
ATOM     10  C   UNL     1     162.310 171.069 171.445  1.00  0.00     0.012 C 
ENDROOT
BRANCH   7  11
ATOM     11  O   UNL     1     165.636 173.122 168.276  1.00  0.00    -0.393 OA
ATOM     12  H   UNL     1     166.290 172.385 168.382  1.00  0.00     0.210 HD
ENDBRANCH   7  11
TORSDOF 1
ENDMDL
MODEL 8
REMARK VINA RESULT:    -3.397      5.650      7.168
REMARK INTER + INTRA:          -3.496
REMARK INTER:                  -3.496
REMARK INTRA:                   0.000
REMARK UNBOUND:                 0.000
REMARK SMILES CC1(C)[C@@H]2CC[C@@]1(C)[C@@H](O)C2
REMARK SMILES IDX 1 1 2 2 4 3 5 4 6 5 7 6 9 7 11 8 8 9 3 10 10 11
REMARK H PARENT 10 12
REMARK Flexibility Score: inf
ROOT
ATOM      1  C   UNL     1     159.249 161.534 169.319  1.00  0.00     0.012 C 
ATOM      2  C   UNL     1     159.729 162.829 170.046  1.00  0.00    -0.025 C 
ATOM      3  C   UNL     1     160.791 163.623 169.265  1.00  0.00    -0.002 C 
ATOM      4  C   UNL     1     160.982 164.900 170.122  1.00  0.00     0.005 C 
ATOM      5  C   UNL     1     159.568 165.160 170.676  1.00  0.00     0.010 C 
ATOM      6  C   UNL     1     158.737 164.017 170.030  1.00  0.00    -0.001 C 
ATOM      7  C   UNL     1     158.602 164.330 168.507  1.00  0.00     0.121 C 
ATOM      8  C   UNL     1     160.043 164.070 167.984  1.00  0.00     0.036 C 
ATOM      9  C   UNL     1     157.392 163.774 170.726  1.00  0.00     0.015 C 
ATOM     10  C   UNL     1     160.205 162.367 171.460  1.00  0.00     0.012 C 
ENDROOT
BRANCH   7  11
ATOM     11  O   UNL     1     158.113 165.629 168.250  1.00  0.00    -0.393 OA
ATOM     12  H   UNL     1     158.647 166.048 167.529  1.00  0.00     0.210 HD
ENDBRANCH   7  11
TORSDOF 1
ENDMDL
MODEL 9
REMARK VINA RESULT:    -3.380      5.690      6.807
REMARK INTER + INTRA:          -3.479
REMARK INTER:                  -3.479
REMARK INTRA:                   0.000
REMARK UNBOUND:                 0.000
REMARK SMILES CC1(C)[C@@H]2CC[C@@]1(C)[C@@H](O)C2
REMARK SMILES IDX 1 1 2 2 4 3 5 4 6 5 7 6 9 7 11 8 8 9 3 10 10 11
REMARK H PARENT 10 12
REMARK Flexibility Score: inf
ROOT
ATOM      1  C   UNL     1     169.684 159.222 169.353  1.00  0.00     0.012 C 
ATOM      2  C   UNL     1     168.400 159.686 170.108  1.00  0.00    -0.025 C 
ATOM      3  C   UNL     1     167.593 160.762 169.359  1.00  0.00    -0.002 C 
ATOM      4  C   UNL     1     166.329 160.935 170.237  1.00  0.00     0.005 C 
ATOM      5  C   UNL     1     166.078 159.509 170.768  1.00  0.00     0.010 C 
ATOM      6  C   UNL     1     167.213 158.693 170.089  1.00  0.00    -0.001 C 
ATOM      7  C   UNL     1     166.877 158.587 168.569  1.00  0.00     0.121 C 
ATOM      8  C   UNL     1     167.128 160.038 168.070  1.00  0.00     0.036 C 
ATOM      9  C   UNL     1     167.467 157.334 170.755  1.00  0.00     0.015 C 
ATOM     10  C   UNL     1     168.882 160.135 171.523  1.00  0.00     0.012 C 
ENDROOT
BRANCH   7  11
ATOM     11  O   UNL     1     165.575 158.102 168.321  1.00  0.00    -0.393 OA
ATOM     12  H   UNL     1     165.036 158.807 167.881  1.00  0.00     0.210 HD
ENDBRANCH   7  11
TORSDOF 1
ENDMDL
