MODEL 1
REMARK VINA RESULT:    -3.860      0.000      0.000
REMARK INTER + INTRA:          -4.851
REMARK INTER:                  -4.763
REMARK INTRA:                  -0.088
REMARK UNBOUND:                -0.088
REMARK SMILES CCCCCC(=O)[O-]
REMARK SMILES IDX 4 1 5 2 6 3 7 4 8 5 3 6 2 7 1 8
REMARK H PARENT
REMARK Flexibility Score: inf
ROOT
ATOM      1  C   UNL     1       3.151 -37.149  17.085  1.00  0.00     0.006 C 
ENDROOT
BRANCH   1   2
ATOM      2  C   UNL     1       3.149 -38.069  18.312  1.00  0.00     0.053 C 
BRANCH   2   3
ATOM      3  C   UNL     1       4.156 -37.639  19.335  1.00  0.00     0.041 C 
ATOM      4  O   UNL     1       5.047 -38.440  19.722  1.00  0.00    -0.550 OA
ATOM      5  O   UNL     1       4.091 -36.365  19.883  1.00  0.00    -0.550 OA
ENDBRANCH   2   3
ENDBRANCH   1   2
BRANCH   1   6
ATOM      6  C   UNL     1       1.991 -37.459  16.124  1.00  0.00     0.000 C 
BRANCH   6   7
ATOM      7  C   UNL     1       2.361 -37.213  14.653  1.00  0.00    -0.003 C 
ATOM      8  C   UNL     1       3.609 -37.981  14.220  1.00  0.00     0.004 C 
ENDBRANCH   6   7
ENDBRANCH   1   6
TORSDOF 4
ENDMDL
MODEL 2
REMARK VINA RESULT:    -3.680      1.549      2.155
REMARK INTER + INTRA:          -4.629
REMARK INTER:                  -4.567
REMARK INTRA:                  -0.062
REMARK UNBOUND:                -0.088
REMARK SMILES CCCCCC(=O)[O-]
REMARK SMILES IDX 4 1 5 2 6 3 7 4 8 5 3 6 2 7 1 8
REMARK H PARENT
REMARK Flexibility Score: inf
ROOT
ATOM      1  C   UNL     1       3.902 -37.939  18.836  1.00  0.00     0.006 C 
ENDROOT
BRANCH   1   2
ATOM      2  C   UNL     1       4.009 -36.793  19.850  1.00  0.00     0.053 C 
BRANCH   2   3
ATOM      3  C   UNL     1       5.097 -37.032  20.852  1.00  0.00     0.041 C 
ATOM      4  O   UNL     1       5.069 -38.056  21.584  1.00  0.00    -0.550 OA
ATOM      5  O   UNL     1       6.124 -36.109  20.998  1.00  0.00    -0.550 OA
ENDBRANCH   2   3
ENDBRANCH   1   2
BRANCH   1   6
ATOM      6  C   UNL     1       2.566 -37.918  18.073  1.00  0.00     0.000 C 
BRANCH   6   7
ATOM      7  C   UNL     1       2.758 -37.912  16.549  1.00  0.00    -0.003 C 
ATOM      8  C   UNL     1       1.742 -37.027  15.828  1.00  0.00     0.004 C 
ENDBRANCH   6   7
ENDBRANCH   1   6
TORSDOF 4
ENDMDL
MODEL 3
REMARK VINA RESULT:    -3.629      3.336      6.011
REMARK INTER + INTRA:          -4.566
REMARK INTER:                  -4.423
REMARK INTRA:                  -0.143
REMARK UNBOUND:                -0.088
REMARK SMILES CCCCCC(=O)[O-]
REMARK SMILES IDX 4 1 5 2 6 3 7 4 8 5 3 6 2 7 1 8
REMARK H PARENT
REMARK Flexibility Score: inf
ROOT
ATOM      1  C   UNL     1       5.586 -36.365  21.263  1.00  0.00     0.006 C 
ENDROOT
BRANCH   1   2
ATOM      2  C   UNL     1       4.404 -36.416  20.286  1.00  0.00     0.053 C 
BRANCH   2   3
ATOM      3  C   UNL     1       4.383 -37.691  19.500  1.00  0.00     0.041 C 
ATOM      4  O   UNL     1       5.145 -38.643  19.818  1.00  0.00    -0.550 OA
ATOM      5  O   UNL     1       3.546 -37.818  18.400  1.00  0.00    -0.550 OA
ENDBRANCH   2   3
ENDBRANCH   1   2
BRANCH   1   6
ATOM      6  C   UNL     1       5.126 -36.378  22.731  1.00  0.00     0.000 C 
BRANCH   6   7
ATOM      7  C   UNL     1       5.049 -37.798  23.312  1.00  0.00    -0.003 C 
ATOM      8  C   UNL     1       5.050 -37.814  24.840  1.00  0.00     0.004 C 
ENDBRANCH   6   7
ENDBRANCH   1   6
TORSDOF 4
ENDMDL
MODEL 4
REMARK VINA RESULT:    -3.621      2.833      5.356
REMARK INTER + INTRA:          -4.556
REMARK INTER:                  -4.458
REMARK INTRA:                  -0.098
REMARK UNBOUND:                -0.088
REMARK SMILES CCCCCC(=O)[O-]
REMARK SMILES IDX 4 1 5 2 6 3 7 4 8 5 3 6 2 7 1 8
REMARK H PARENT
REMARK Flexibility Score: inf
ROOT
ATOM      1  C   UNL     1       4.340 -36.463  20.127  1.00  0.00     0.006 C 
ENDROOT
BRANCH   1   2
ATOM      2  C   UNL     1       4.164 -37.863  19.525  1.00  0.00     0.053 C 
BRANCH   2   3
ATOM      3  C   UNL     1       3.005 -37.922  18.577  1.00  0.00     0.041 C 
ATOM      4  O   UNL     1       3.102 -37.418  17.428  1.00  0.00    -0.550 OA
ATOM      5  O   UNL     1       1.809 -38.505  18.975  1.00  0.00    -0.550 OA
ENDBRANCH   2   3
ENDBRANCH   1   2
BRANCH   1   6
ATOM      6  C   UNL     1       5.510 -36.402  21.124  1.00  0.00     0.000 C 
BRANCH   6   7
ATOM      7  C   UNL     1       5.038 -36.357  22.586  1.00  0.00    -0.003 C 
ATOM      8  C   UNL     1       5.054 -37.729  23.256  1.00  0.00     0.004 C 
ENDBRANCH   6   7
ENDBRANCH   1   6
TORSDOF 4
ENDMDL
MODEL 5
REMARK VINA RESULT:    -3.589      2.588      4.662
REMARK INTER + INTRA:          -4.517
REMARK INTER:                  -4.414
REMARK INTRA:                  -0.103
REMARK UNBOUND:                -0.088
REMARK SMILES CCCCCC(=O)[O-]
REMARK SMILES IDX 4 1 5 2 6 3 7 4 8 5 3 6 2 7 1 8
REMARK H PARENT
REMARK Flexibility Score: inf
ROOT
ATOM      1  C   UNL     1       3.571 -38.036  18.738  1.00  0.00     0.006 C 
ENDROOT
BRANCH   1   2
ATOM      2  C   UNL     1       2.207 -38.013  18.036  1.00  0.00     0.053 C 
BRANCH   2   3
ATOM      3  C   UNL     1       2.328 -37.641  16.590  1.00  0.00     0.041 C 
ATOM      4  O   UNL     1       1.620 -36.715  16.113  1.00  0.00    -0.550 OA
ATOM      5  O   UNL     1       3.200 -38.336  15.762  1.00  0.00    -0.550 OA
ENDBRANCH   2   3
ENDBRANCH   1   2
BRANCH   1   6
ATOM      6  C   UNL     1       4.028 -36.631  19.164  1.00  0.00     0.000 C 
BRANCH   6   7
ATOM      7  C   UNL     1       5.290 -36.662  20.040  1.00  0.00    -0.003 C 
ATOM      8  C   UNL     1       4.973 -36.711  21.534  1.00  0.00     0.004 C 
ENDBRANCH   6   7
ENDBRANCH   1   6
TORSDOF 4
ENDMDL
MODEL 6
REMARK VINA RESULT:    -3.534      3.037      4.536
REMARK INTER + INTRA:          -4.448
REMARK INTER:                  -4.324
REMARK INTRA:                  -0.124
REMARK UNBOUND:                -0.088
REMARK SMILES CCCCCC(=O)[O-]
REMARK SMILES IDX 4 1 5 2 6 3 7 4 8 5 3 6 2 7 1 8
REMARK H PARENT
REMARK Flexibility Score: inf
ROOT
ATOM      1  C   UNL     1       5.486 -36.382  21.063  1.00  0.00     0.006 C 
ENDROOT
BRANCH   1   2
ATOM      2  C   UNL     1       5.021 -36.057  22.488  1.00  0.00     0.053 C 
BRANCH   2   3
ATOM      3  C   UNL     1       5.053 -37.264  23.375  1.00  0.00     0.041 C 
ATOM      4  O   UNL     1       5.135 -38.416  22.874  1.00  0.00    -0.550 OA
ATOM      5  O   UNL     1       4.960 -37.118  24.753  1.00  0.00    -0.550 OA
ENDBRANCH   2   3
ENDBRANCH   1   2
BRANCH   1   6
ATOM      6  C   UNL     1       4.311 -36.468  20.073  1.00  0.00     0.000 C 
BRANCH   6   7
ATOM      7  C   UNL     1       4.161 -37.867  19.456  1.00  0.00    -0.003 C 
ATOM      8  C   UNL     1       3.170 -37.899  18.294  1.00  0.00     0.004 C 
ENDBRANCH   6   7
ENDBRANCH   1   6
TORSDOF 4
ENDMDL
MODEL 7
REMARK VINA RESULT:    -3.503      3.927      5.784
REMARK INTER + INTRA:          -4.410
REMARK INTER:                  -4.271
REMARK INTRA:                  -0.138
REMARK UNBOUND:                -0.088
REMARK SMILES CCCCCC(=O)[O-]
REMARK SMILES IDX 4 1 5 2 6 3 7 4 8 5 3 6 2 7 1 8
REMARK H PARENT
REMARK Flexibility Score: inf
ROOT
ATOM      1  C   UNL     1       5.022 -36.273  22.629  1.00  0.00     0.006 C 
ENDROOT
BRANCH   1   2
ATOM      2  C   UNL     1       5.868 -37.047  23.647  1.00  0.00     0.053 C 
BRANCH   2   3
ATOM      3  C   UNL     1       5.052 -38.048  24.407  1.00  0.00     0.041 C 
ATOM      4  O   UNL     1       4.641 -37.780  25.566  1.00  0.00    -0.550 OA
ATOM      5  O   UNL     1       4.772 -39.287  23.847  1.00  0.00    -0.550 OA
ENDBRANCH   2   3
ENDBRANCH   1   2
BRANCH   1   6
ATOM      6  C   UNL     1       5.502 -36.497  21.184  1.00  0.00     0.000 C 
BRANCH   6   7
ATOM      7  C   UNL     1       5.013 -37.833  20.602  1.00  0.00    -0.003 C 
ATOM      8  C   UNL     1       3.999 -37.651  19.474  1.00  0.00     0.004 C 
ENDBRANCH   6   7
ENDBRANCH   1   6
TORSDOF 4
ENDMDL
MODEL 8
REMARK VINA RESULT:    -3.321      2.338      3.241
REMARK INTER + INTRA:          -4.186
REMARK INTER:                  -4.074
REMARK INTRA:                  -0.112
REMARK UNBOUND:                -0.088
REMARK SMILES CCCCCC(=O)[O-]
REMARK SMILES IDX 4 1 5 2 6 3 7 4 8 5 3 6 2 7 1 8
REMARK H PARENT
REMARK Flexibility Score: inf
ROOT
ATOM      1  C   UNL     1       3.862 -37.191  18.650  1.00  0.00     0.006 C 
ENDROOT
BRANCH   1   2
ATOM      2  C   UNL     1       4.273 -37.869  19.963  1.00  0.00     0.053 C 
BRANCH   2   3
ATOM      3  C   UNL     1       5.131 -36.976  20.808  1.00  0.00     0.041 C 
ATOM      4  O   UNL     1       5.821 -36.070  20.272  1.00  0.00    -0.550 OA
ATOM      5  O   UNL     1       5.193 -37.166  22.182  1.00  0.00    -0.550 OA
ENDBRANCH   2   3
ENDBRANCH   1   2
BRANCH   1   6
ATOM      6  C   UNL     1       2.617 -37.843  18.025  1.00  0.00     0.000 C 
BRANCH   6   7
ATOM      7  C   UNL     1       1.788 -38.633  19.050  1.00  0.00    -0.003 C 
ATOM      8  C   UNL     1       0.304 -38.271  19.017  1.00  0.00     0.004 C 
ENDBRANCH   6   7
ENDBRANCH   1   6
TORSDOF 4
ENDMDL
MODEL 9
REMARK VINA RESULT:    -3.305      2.886      4.673
REMARK INTER + INTRA:          -4.166
REMARK INTER:                  -4.066
REMARK INTRA:                  -0.100
REMARK UNBOUND:                -0.088
REMARK SMILES CCCCCC(=O)[O-]
REMARK SMILES IDX 4 1 5 2 6 3 7 4 8 5 3 6 2 7 1 8
REMARK H PARENT
REMARK Flexibility Score: inf
ROOT
ATOM      1  C   UNL     1       3.431 -37.091  17.444  1.00  0.00     0.006 C 
ENDROOT
BRANCH   1   2
ATOM      2  C   UNL     1       2.257 -37.002  16.460  1.00  0.00     0.053 C 
BRANCH   2   3
ATOM      3  C   UNL     1       2.598 -37.600  15.129  1.00  0.00     0.041 C 
ATOM      4  O   UNL     1       2.011 -37.202  14.088  1.00  0.00    -0.550 OA
ATOM      5  O   UNL     1       3.540 -38.617  15.042  1.00  0.00    -0.550 OA
ENDBRANCH   2   3
ENDBRANCH   1   2
BRANCH   1   6
ATOM      6  C   UNL     1       3.096 -37.958  18.670  1.00  0.00     0.000 C 
BRANCH   6   7
ATOM      7  C   UNL     1       4.166 -37.862  19.769  1.00  0.00    -0.003 C 
ATOM      8  C   UNL     1       4.345 -36.441  20.299  1.00  0.00     0.004 C 
ENDBRANCH   6   7
ENDBRANCH   1   6
TORSDOF 4
ENDMDL
