MODEL 1
REMARK VINA RESULT:    -3.622      0.000      0.000
REMARK INTER + INTRA:          -4.275
REMARK INTER:                  -4.258
REMARK INTRA:                  -0.017
REMARK UNBOUND:                -0.017
REMARK SMILES CCCCC(=O)[O-]
REMARK SMILES IDX 4 1 5 2 6 3 7 4 3 5 2 6 1 7
REMARK H PARENT
REMARK Flexibility Score: inf
ROOT
ATOM      1  C   UNL     1      24.009 -14.704  14.299  1.00  0.00     0.053 C 
ENDROOT
BRANCH   1   2
ATOM      2  C   UNL     1      24.653 -15.374  15.471  1.00  0.00     0.041 C 
ATOM      3  O   UNL     1      24.026 -16.249  16.124  1.00  0.00    -0.550 OA
ATOM      4  O   UNL     1      25.964 -15.067  15.813  1.00  0.00    -0.550 OA
ENDBRANCH   1   2
BRANCH   1   5
ATOM      5  C   UNL     1      23.272 -15.733  13.433  1.00  0.00     0.006 C 
BRANCH   5   6
ATOM      6  C   UNL     1      23.197 -15.316  11.956  1.00  0.00    -0.003 C 
ATOM      7  C   UNL     1      23.540 -16.459  11.000  1.00  0.00     0.004 C 
ENDBRANCH   5   6
ENDBRANCH   1   5
TORSDOF 3
ENDMDL
MODEL 2
REMARK VINA RESULT:    -3.492      3.032      4.251
REMARK INTER + INTRA:          -4.122
REMARK INTER:                  -4.102
REMARK INTRA:                  -0.021
REMARK UNBOUND:                -0.017
REMARK SMILES CCCCC(=O)[O-]
REMARK SMILES IDX 4 1 5 2 6 3 7 4 3 5 2 6 1 7
REMARK H PARENT
REMARK Flexibility Score: inf
ROOT
ATOM      1  C   UNL     1      23.672 -14.981  12.521  1.00  0.00     0.053 C 
ENDROOT
BRANCH   1   2
ATOM      2  C   UNL     1      23.208 -15.787  11.350  1.00  0.00     0.041 C 
ATOM      3  O   UNL     1      23.499 -17.009  11.266  1.00  0.00    -0.550 OA
ATOM      4  O   UNL     1      22.412 -15.200  10.374  1.00  0.00    -0.550 OA
ENDBRANCH   1   2
BRANCH   1   5
ATOM      5  C   UNL     1      23.309 -15.687  13.834  1.00  0.00     0.006 C 
BRANCH   5   6
ATOM      6  C   UNL     1      24.107 -15.151  15.032  1.00  0.00    -0.003 C 
ATOM      7  C   UNL     1      24.353 -16.216  16.101  1.00  0.00     0.004 C 
ENDBRANCH   5   6
ENDBRANCH   1   5
TORSDOF 3
ENDMDL
MODEL 3
REMARK VINA RESULT:    -3.154     15.078     15.892
REMARK INTER + INTRA:          -3.725
REMARK INTER:                  -3.648
REMARK INTRA:                  -0.076
REMARK UNBOUND:                -0.017
REMARK SMILES CCCCC(=O)[O-]
REMARK SMILES IDX 4 1 5 2 6 3 7 4 3 5 2 6 1 7
REMARK H PARENT
REMARK Flexibility Score: inf
ROOT
ATOM      1  C   UNL     1      24.566 -13.427  -1.097  1.00  0.00     0.053 C 
ENDROOT
BRANCH   1   2
ATOM      2  C   UNL     1      26.040 -13.670  -1.015  1.00  0.00     0.041 C 
ATOM      3  O   UNL     1      26.666 -13.414   0.048  1.00  0.00    -0.550 OA
ATOM      4  O   UNL     1      26.714 -14.224  -2.095  1.00  0.00    -0.550 OA
ENDBRANCH   1   2
BRANCH   1   5
ATOM      5  C   UNL     1      24.007 -13.976  -2.416  1.00  0.00     0.006 C 
BRANCH   5   6
ATOM      6  C   UNL     1      23.152 -15.237  -2.216  1.00  0.00    -0.003 C 
ATOM      7  C   UNL     1      23.522 -16.361  -3.184  1.00  0.00     0.004 C 
ENDBRANCH   5   6
ENDBRANCH   1   5
TORSDOF 3
ENDMDL
MODEL 4
REMARK VINA RESULT:    -3.050     16.080     16.917
REMARK INTER + INTRA:          -3.602
REMARK INTER:                  -3.498
REMARK INTRA:                  -0.103
REMARK UNBOUND:                -0.017
REMARK SMILES CCCCC(=O)[O-]
REMARK SMILES IDX 4 1 5 2 6 3 7 4 3 5 2 6 1 7
REMARK H PARENT
REMARK Flexibility Score: inf
ROOT
ATOM      1  C   UNL     1      23.307 -15.078  -2.398  1.00  0.00     0.053 C 
ENDROOT
BRANCH   1   2
ATOM      2  C   UNL     1      23.984 -15.979  -3.381  1.00  0.00     0.041 C 
ATOM      3  O   UNL     1      23.307 -16.773  -4.085  1.00  0.00    -0.550 OA
ATOM      4  O   UNL     1      25.360 -15.907  -3.554  1.00  0.00    -0.550 OA
ENDBRANCH   1   2
BRANCH   1   5
ATOM      5  C   UNL     1      24.030 -13.728  -2.323  1.00  0.00     0.006 C 
BRANCH   5   6
ATOM      6  C   UNL     1      24.632 -13.457  -0.935  1.00  0.00    -0.003 C 
ATOM      7  C   UNL     1      26.159 -13.521  -0.930  1.00  0.00     0.004 C 
ENDBRANCH   5   6
ENDBRANCH   1   5
TORSDOF 3
ENDMDL
MODEL 5
REMARK VINA RESULT:    -2.992     13.835     14.587
REMARK INTER + INTRA:          -3.534
REMARK INTER:                  -3.461
REMARK INTRA:                  -0.073
REMARK UNBOUND:                -0.017
REMARK SMILES CCCCC(=O)[O-]
REMARK SMILES IDX 4 1 5 2 6 3 7 4 3 5 2 6 1 7
REMARK H PARENT
REMARK Flexibility Score: inf
ROOT
ATOM      1  C   UNL     1      28.163 -13.471  -0.548  1.00  0.00     0.053 C 
ENDROOT
BRANCH   1   2
ATOM      2  C   UNL     1      28.277 -14.228   0.736  1.00  0.00     0.041 C 
ATOM      3  O   UNL     1      28.156 -15.481   0.747  1.00  0.00    -0.550 OA
ATOM      4  O   UNL     1      28.565 -13.554   1.916  1.00  0.00    -0.550 OA
ENDBRANCH   1   2
BRANCH   1   5
ATOM      5  C   UNL     1      26.877 -13.861  -1.287  1.00  0.00     0.006 C 
BRANCH   5   6
ATOM      6  C   UNL     1      25.618 -13.264  -0.638  1.00  0.00    -0.003 C 
ATOM      7  C   UNL     1      24.330 -13.692  -1.341  1.00  0.00     0.004 C 
ENDBRANCH   5   6
ENDBRANCH   1   5
TORSDOF 3
ENDMDL
MODEL 6
REMARK VINA RESULT:    -2.918     15.332     16.393
REMARK INTER + INTRA:          -3.447
REMARK INTER:                  -3.418
REMARK INTRA:                  -0.029
REMARK UNBOUND:                -0.017
REMARK SMILES CCCCC(=O)[O-]
REMARK SMILES IDX 4 1 5 2 6 3 7 4 3 5 2 6 1 7
REMARK H PARENT
REMARK Flexibility Score: inf
ROOT
ATOM      1  C   UNL     1      25.017 -14.143  -2.271  1.00  0.00     0.053 C 
ENDROOT
BRANCH   1   2
ATOM      2  C   UNL     1      23.604 -14.438  -2.661  1.00  0.00     0.041 C 
ATOM      3  O   UNL     1      23.042 -13.768  -3.567  1.00  0.00    -0.550 OA
ATOM      4  O   UNL     1      22.921 -15.488  -2.058  1.00  0.00    -0.550 OA
ENDBRANCH   1   2
BRANCH   1   5
ATOM      5  C   UNL     1      25.058 -13.422  -0.918  1.00  0.00     0.006 C 
BRANCH   5   6
ATOM      6  C   UNL     1      26.448 -13.473  -0.264  1.00  0.00    -0.003 C 
ATOM      7  C   UNL     1      27.553 -13.842  -1.253  1.00  0.00     0.004 C 
ENDBRANCH   5   6
ENDBRANCH   1   5
TORSDOF 3
ENDMDL
MODEL 7
REMARK VINA RESULT:    -2.875      1.805      2.207
REMARK INTER + INTRA:          -3.397
REMARK INTER:                  -3.341
REMARK INTRA:                  -0.056
REMARK UNBOUND:                -0.017
REMARK SMILES CCCCC(=O)[O-]
REMARK SMILES IDX 4 1 5 2 6 3 7 4 3 5 2 6 1 7
REMARK H PARENT
REMARK Flexibility Score: inf
ROOT
ATOM      1  C   UNL     1      24.609 -14.192  12.991  1.00  0.00     0.053 C 
ENDROOT
BRANCH   1   2
ATOM      2  C   UNL     1      26.006 -14.196  13.523  1.00  0.00     0.041 C 
ATOM      3  O   UNL     1      26.228 -14.517  14.720  1.00  0.00    -0.550 OA
ATOM      4  O   UNL     1      27.070 -13.892  12.683  1.00  0.00    -0.550 OA
ENDBRANCH   1   2
BRANCH   1   5
ATOM      5  C   UNL     1      23.739 -15.190  13.765  1.00  0.00     0.006 C 
BRANCH   5   6
ATOM      6  C   UNL     1      22.901 -16.086  12.838  1.00  0.00    -0.003 C 
ATOM      7  C   UNL     1      23.304 -15.956  11.369  1.00  0.00     0.004 C 
ENDBRANCH   5   6
ENDBRANCH   1   5
TORSDOF 3
ENDMDL
MODEL 8
REMARK VINA RESULT:    -2.801     14.231     15.260
REMARK INTER + INTRA:          -3.309
REMARK INTER:                  -3.250
REMARK INTRA:                  -0.060
REMARK UNBOUND:                -0.017
REMARK SMILES CCCCC(=O)[O-]
REMARK SMILES IDX 4 1 5 2 6 3 7 4 3 5 2 6 1 7
REMARK H PARENT
REMARK Flexibility Score: inf
ROOT
ATOM      1  C   UNL     1      26.791 -13.899  -1.258  1.00  0.00     0.053 C 
ENDROOT
BRANCH   1   2
ATOM      2  C   UNL     1      25.390 -13.414  -1.064  1.00  0.00     0.041 C 
ATOM      3  O   UNL     1      25.076 -12.783  -0.020  1.00  0.00    -0.550 OA
ATOM      4  O   UNL     1      24.441 -13.615  -2.058  1.00  0.00    -0.550 OA
ENDBRANCH   1   2
BRANCH   1   5
ATOM      5  C   UNL     1      27.661 -13.516  -0.054  1.00  0.00     0.006 C 
BRANCH   5   6
ATOM      6  C   UNL     1      28.072 -14.734   0.788  1.00  0.00    -0.003 C 
ATOM      7  C   UNL     1      28.756 -15.822  -0.041  1.00  0.00     0.004 C 
ENDBRANCH   5   6
ENDBRANCH   1   5
TORSDOF 3
ENDMDL
MODEL 9
REMARK VINA RESULT:    -2.550     14.532     15.349
REMARK INTER + INTRA:          -3.015
REMARK INTER:                  -2.913
REMARK INTRA:                  -0.102
REMARK UNBOUND:                -0.017
REMARK SMILES CCCCC(=O)[O-]
REMARK SMILES IDX 4 1 5 2 6 3 7 4 3 5 2 6 1 7
REMARK H PARENT
REMARK Flexibility Score: inf
ROOT
ATOM      1  C   UNL     1      27.025 -13.687   0.056  1.00  0.00     0.053 C 
ENDROOT
BRANCH   1   2
ATOM      2  C   UNL     1      27.117 -13.932  -1.416  1.00  0.00     0.041 C 
ATOM      3  O   UNL     1      28.236 -13.914  -1.993  1.00  0.00    -0.550 OA
ATOM      4  O   UNL     1      25.971 -14.229  -2.144  1.00  0.00    -0.550 OA
ENDBRANCH   1   2
BRANCH   1   5
ATOM      5  C   UNL     1      28.061 -14.534   0.805  1.00  0.00     0.006 C 
BRANCH   5   6
ATOM      6  C   UNL     1      28.862 -13.717   1.830  1.00  0.00    -0.003 C 
ATOM      7  C   UNL     1      29.514 -12.477   1.218  1.00  0.00     0.004 C 
ENDBRANCH   5   6
ENDBRANCH   1   5
TORSDOF 3
ENDMDL
