MODEL 1
REMARK VINA RESULT:    -3.718      0.000      0.000
REMARK INTER + INTRA:         -14.113
REMARK INTER:                  -9.368
REMARK INTRA:                  -4.745
REMARK UNBOUND:                -4.745
REMARK SMILES CCCCCCCCCCCCCCCCCCCCCCCCCCCC(=O)[O-]
REMARK SMILES IDX 15 1 16 2 17 3 18 4 19 5 20 6 21 7 22 8 23 9 24 10 25 11
REMARK SMILES IDX 26 12 27 13 28 14 29 15 30 16 14 17 13 18 12 19 11 20 10 21
REMARK SMILES IDX 9 22 8 23 7 24 6 25 5 26 4 27 3 28 2 29 1 30
REMARK H PARENT
REMARK Flexibility Score: inf
ROOT
ATOM      1  C   UNL     1      -5.911  -2.129   8.710  1.00  0.00     0.000 C 
ENDROOT
BRANCH   1   2
ATOM      2  C   UNL     1      -6.074  -2.016   7.178  1.00  0.00     0.000 C 
BRANCH   2   3
ATOM      3  C   UNL     1      -6.099  -3.363   6.426  1.00  0.00     0.000 C 
BRANCH   3   4
ATOM      4  C   UNL     1      -5.189  -3.457   5.184  1.00  0.00     0.000 C 
BRANCH   4   5
ATOM      5  C   UNL     1      -4.150  -4.587   5.276  1.00  0.00     0.000 C 
BRANCH   5   6
ATOM      6  C   UNL     1      -3.523  -4.711   6.677  1.00  0.00     0.000 C 
BRANCH   6   7
ATOM      7  C   UNL     1      -2.214  -3.923   6.889  1.00  0.00     0.000 C 
BRANCH   7   8
ATOM      8  C   UNL     1      -2.360  -2.604   7.668  1.00  0.00     0.000 C 
BRANCH   8   9
ATOM      9  C   UNL     1      -2.439  -1.374   6.748  1.00  0.00     0.000 C 
BRANCH   9  10
ATOM     10  C   UNL     1      -1.901  -1.654   5.334  1.00  0.00     0.000 C 
BRANCH  10  11
ATOM     11  C   UNL     1      -0.368  -1.777   5.235  1.00  0.00     0.000 C 
BRANCH  11  12
ATOM     12  C   UNL     1       0.155  -1.857   3.785  1.00  0.00     0.006 C 
BRANCH  12  13
ATOM     13  C   UNL     1      -0.202  -0.607   2.969  1.00  0.00     0.053 C 
BRANCH  13  14
ATOM     14  C   UNL     1      -0.752  -0.995   1.634  1.00  0.00     0.041 C 
ATOM     15  O   UNL     1      -1.806  -1.679   1.557  1.00  0.00    -0.550 OA
ATOM     16  O   UNL     1      -0.125  -0.561   0.471  1.00  0.00    -0.550 OA
ENDBRANCH  13  14
ENDBRANCH  12  13
ENDBRANCH  11  12
ENDBRANCH  10  11
ENDBRANCH   9  10
ENDBRANCH   8   9
ENDBRANCH   7   8
ENDBRANCH   6   7
ENDBRANCH   5   6
ENDBRANCH   4   5
ENDBRANCH   3   4
ENDBRANCH   2   3
ENDBRANCH   1   2
BRANCH   1  17
ATOM     17  C   UNL     1      -5.632  -3.561   9.205  1.00  0.00     0.000 C 
BRANCH  17  18
ATOM     18  C   UNL     1      -6.595  -4.038  10.313  1.00  0.00     0.000 C 
BRANCH  18  19
ATOM     19  C   UNL     1      -8.034  -3.505  10.161  1.00  0.00     0.000 C 
BRANCH  19  20
ATOM     20  C   UNL     1      -8.843  -3.406  11.474  1.00  0.00     0.000 C 
BRANCH  20  21
ATOM     21  C   UNL     1      -8.062  -2.891  12.696  1.00  0.00     0.000 C 
BRANCH  21  22
ATOM     22  C   UNL     1      -8.531  -1.506  13.167  1.00  0.00    -0.000 C 
BRANCH  22  23
ATOM     23  C   UNL     1      -7.354  -0.525  13.244  1.00  0.00    -0.000 C 
BRANCH  23  24
ATOM     24  C   UNL     1      -6.296  -0.848  12.179  1.00  0.00    -0.000 C 
BRANCH  24  25
ATOM     25  C   UNL     1      -4.879  -0.967  12.765  1.00  0.00    -0.000 C 
BRANCH  25  26
ATOM     26  C   UNL     1      -4.097  -2.158  12.185  1.00  0.00    -0.000 C 
BRANCH  26  27
ATOM     27  C   UNL     1      -3.033  -1.730  11.160  1.00  0.00    -0.000 C 
BRANCH  27  28
ATOM     28  C   UNL     1      -2.649  -0.237  11.194  1.00  0.00    -0.000 C 
BRANCH  28  29
ATOM     29  C   UNL     1      -2.804   0.506   9.856  1.00  0.00    -0.003 C 
ATOM     30  C   UNL     1      -4.213   1.057   9.641  1.00  0.00     0.004 C 
ENDBRANCH  28  29
ENDBRANCH  27  28
ENDBRANCH  26  27
ENDBRANCH  25  26
ENDBRANCH  24  25
ENDBRANCH  23  24
ENDBRANCH  22  23
ENDBRANCH  21  22
ENDBRANCH  20  21
ENDBRANCH  19  20
ENDBRANCH  18  19
ENDBRANCH  17  18
ENDBRANCH   1  17
TORSDOF 26
ENDMDL
MODEL 2
REMARK VINA RESULT:    -3.696      2.860      6.200
REMARK INTER + INTRA:         -14.060
REMARK INTER:                 -10.146
REMARK INTRA:                  -3.913
REMARK UNBOUND:                -4.745
REMARK SMILES CCCCCCCCCCCCCCCCCCCCCCCCCCCC(=O)[O-]
REMARK SMILES IDX 15 1 16 2 17 3 18 4 19 5 20 6 21 7 22 8 23 9 24 10 25 11
REMARK SMILES IDX 26 12 27 13 28 14 29 15 30 16 14 17 13 18 12 19 11 20 10 21
REMARK SMILES IDX 9 22 8 23 7 24 6 25 5 26 4 27 3 28 2 29 1 30
REMARK H PARENT
REMARK Flexibility Score: inf
ROOT
ATOM      1  C   UNL     1      -4.004  -1.170  11.796  1.00  0.00     0.000 C 
ENDROOT
BRANCH   1   2
ATOM      2  C   UNL     1      -4.209  -2.690  11.610  1.00  0.00     0.000 C 
BRANCH   2   3
ATOM      3  C   UNL     1      -5.599  -3.097  11.077  1.00  0.00     0.000 C 
BRANCH   3   4
ATOM      4  C   UNL     1      -5.605  -3.887   9.751  1.00  0.00     0.000 C 
BRANCH   4   5
ATOM      5  C   UNL     1      -5.055  -3.083   8.562  1.00  0.00     0.000 C 
BRANCH   5   6
ATOM      6  C   UNL     1      -4.890  -3.933   7.289  1.00  0.00     0.000 C 
BRANCH   6   7
ATOM      7  C   UNL     1      -3.486  -4.536   7.073  1.00  0.00     0.000 C 
BRANCH   7   8
ATOM      8  C   UNL     1      -2.319  -3.538   7.174  1.00  0.00     0.000 C 
BRANCH   8   9
ATOM      9  C   UNL     1      -2.009  -2.847   5.835  1.00  0.00     0.000 C 
BRANCH   9  10
ATOM     10  C   UNL     1      -0.702  -2.037   5.873  1.00  0.00     0.000 C 
BRANCH  10  11
ATOM     11  C   UNL     1      -0.062  -1.771   4.497  1.00  0.00     0.000 C 
BRANCH  11  12
ATOM     12  C   UNL     1      -1.053  -1.896   3.319  1.00  0.00     0.006 C 
BRANCH  12  13
ATOM     13  C   UNL     1      -0.524  -1.228   2.043  1.00  0.00     0.053 C 
BRANCH  13  14
ATOM     14  C   UNL     1      -1.542  -1.309   0.951  1.00  0.00     0.041 C 
ATOM     15  O   UNL     1      -2.760  -1.115   1.204  1.00  0.00    -0.550 OA
ATOM     16  O   UNL     1      -1.141  -1.553  -0.358  1.00  0.00    -0.550 OA
ENDBRANCH  13  14
ENDBRANCH  12  13
ENDBRANCH  11  12
ENDBRANCH  10  11
ENDBRANCH   9  10
ENDBRANCH   8   9
ENDBRANCH   7   8
ENDBRANCH   6   7
ENDBRANCH   5   6
ENDBRANCH   4   5
ENDBRANCH   3   4
ENDBRANCH   2   3
ENDBRANCH   1   2
BRANCH   1  17
ATOM     17  C   UNL     1      -2.658  -0.650  11.258  1.00  0.00     0.000 C 
BRANCH  17  18
ATOM     18  C   UNL     1      -2.428  -0.946   9.761  1.00  0.00     0.000 C 
BRANCH  18  19
ATOM     19  C   UNL     1      -3.069   0.087   8.813  1.00  0.00     0.000 C 
BRANCH  19  20
ATOM     20  C   UNL     1      -2.141   0.635   7.707  1.00  0.00     0.000 C 
BRANCH  20  21
ATOM     21  C   UNL     1      -2.852   1.267   6.498  1.00  0.00     0.000 C 
BRANCH  21  22
ATOM     22  C   UNL     1      -3.690   0.258   5.699  1.00  0.00    -0.000 C 
BRANCH  22  23
ATOM     23  C   UNL     1      -3.699   0.612   4.206  1.00  0.00    -0.000 C 
BRANCH  23  24
ATOM     24  C   UNL     1      -2.438   1.397   3.817  1.00  0.00    -0.000 C 
BRANCH  24  25
ATOM     25  C   UNL     1      -2.624   2.224   2.536  1.00  0.00    -0.000 C 
BRANCH  25  26
ATOM     26  C   UNL     1      -2.567   3.740   2.796  1.00  0.00    -0.000 C 
BRANCH  26  27
ATOM     27  C   UNL     1      -1.879   4.091   4.126  1.00  0.00    -0.000 C 
BRANCH  27  28
ATOM     28  C   UNL     1      -1.072   5.405   4.122  1.00  0.00    -0.000 C 
BRANCH  28  29
ATOM     29  C   UNL     1       0.351   5.297   4.699  1.00  0.00    -0.003 C 
ATOM     30  C   UNL     1       0.370   5.221   6.225  1.00  0.00     0.004 C 
ENDBRANCH  28  29
ENDBRANCH  27  28
ENDBRANCH  26  27
ENDBRANCH  25  26
ENDBRANCH  24  25
ENDBRANCH  23  24
ENDBRANCH  22  23
ENDBRANCH  21  22
ENDBRANCH  20  21
ENDBRANCH  19  20
ENDBRANCH  18  19
ENDBRANCH  17  18
ENDBRANCH   1  17
TORSDOF 26
ENDMDL
MODEL 3
REMARK VINA RESULT:    -3.668      3.571      7.582
REMARK INTER + INTRA:         -13.990
REMARK INTER:                  -9.151
REMARK INTRA:                  -4.839
REMARK UNBOUND:                -4.745
REMARK SMILES CCCCCCCCCCCCCCCCCCCCCCCCCCCC(=O)[O-]
REMARK SMILES IDX 15 1 16 2 17 3 18 4 19 5 20 6 21 7 22 8 23 9 24 10 25 11
REMARK SMILES IDX 26 12 27 13 28 14 29 15 30 16 14 17 13 18 12 19 11 20 10 21
REMARK SMILES IDX 9 22 8 23 7 24 6 25 5 26 4 27 3 28 2 29 1 30
REMARK H PARENT
REMARK Flexibility Score: inf
ROOT
ATOM      1  C   UNL     1      -5.349  -0.856  13.097  1.00  0.00     0.000 C 
ENDROOT
BRANCH   1   2
ATOM      2  C   UNL     1      -6.803  -0.661  12.610  1.00  0.00     0.000 C 
BRANCH   2   3
ATOM      3  C   UNL     1      -7.699  -1.911  12.724  1.00  0.00     0.000 C 
BRANCH   3   4
ATOM      4  C   UNL     1      -8.363  -2.384  11.414  1.00  0.00     0.000 C 
BRANCH   4   5
ATOM      5  C   UNL     1      -7.846  -3.748  10.928  1.00  0.00     0.000 C 
BRANCH   5   6
ATOM      6  C   UNL     1      -6.309  -3.811  10.846  1.00  0.00     0.000 C 
BRANCH   6   7
ATOM      7  C   UNL     1      -5.728  -3.942   9.423  1.00  0.00     0.000 C 
BRANCH   7   8
ATOM      8  C   UNL     1      -6.296  -2.956   8.387  1.00  0.00     0.000 C 
BRANCH   8   9
ATOM      9  C   UNL     1      -5.498  -1.644   8.312  1.00  0.00     0.000 C 
BRANCH   9  10
ATOM     10  C   UNL     1      -6.216  -0.471   9.001  1.00  0.00     0.000 C 
BRANCH  10  11
ATOM     11  C   UNL     1      -5.732   0.928   8.574  1.00  0.00     0.000 C 
BRANCH  11  12
ATOM     12  C   UNL     1      -5.719   1.957   9.724  1.00  0.00     0.006 C 
BRANCH  12  13
ATOM     13  C   UNL     1      -4.330   2.576   9.934  1.00  0.00     0.053 C 
BRANCH  13  14
ATOM     14  C   UNL     1      -4.309   3.402  11.180  1.00  0.00     0.041 C 
ATOM     15  O   UNL     1      -3.975   2.884  12.278  1.00  0.00    -0.550 OA
ATOM     16  O   UNL     1      -4.614   4.757  11.121  1.00  0.00    -0.550 OA
ENDBRANCH  13  14
ENDBRANCH  12  13
ENDBRANCH  11  12
ENDBRANCH  10  11
ENDBRANCH   9  10
ENDBRANCH   8   9
ENDBRANCH   7   8
ENDBRANCH   6   7
ENDBRANCH   5   6
ENDBRANCH   4   5
ENDBRANCH   3   4
ENDBRANCH   2   3
ENDBRANCH   1   2
BRANCH   1  17
ATOM     17  C   UNL     1      -4.286  -0.583  12.017  1.00  0.00     0.000 C 
BRANCH  17  18
ATOM     18  C   UNL     1      -3.514  -1.842  11.568  1.00  0.00     0.000 C 
BRANCH  18  19
ATOM     19  C   UNL     1      -2.606  -1.616  10.343  1.00  0.00     0.000 C 
BRANCH  19  20
ATOM     20  C   UNL     1      -1.979  -0.209  10.236  1.00  0.00     0.000 C 
BRANCH  20  21
ATOM     21  C   UNL     1      -1.619   0.250   8.812  1.00  0.00     0.000 C 
BRANCH  21  22
ATOM     22  C   UNL     1      -2.355  -0.545   7.722  1.00  0.00    -0.000 C 
BRANCH  22  23
ATOM     23  C   UNL     1      -1.360  -1.198   6.754  1.00  0.00    -0.000 C 
BRANCH  23  24
ATOM     24  C   UNL     1      -2.035  -2.312   5.939  1.00  0.00    -0.000 C 
BRANCH  24  25
ATOM     25  C   UNL     1      -2.440  -3.518   6.802  1.00  0.00    -0.000 C 
BRANCH  25  26
ATOM     26  C   UNL     1      -3.288  -4.542   6.027  1.00  0.00    -0.000 C 
BRANCH  26  27
ATOM     27  C   UNL     1      -3.992  -5.552   6.950  1.00  0.00    -0.000 C 
BRANCH  27  28
ATOM     28  C   UNL     1      -3.935  -7.021   6.482  1.00  0.00    -0.000 C 
BRANCH  28  29
ATOM     29  C   UNL     1      -3.493  -7.223   5.022  1.00  0.00    -0.003 C 
ATOM     30  C   UNL     1      -4.447  -8.116   4.230  1.00  0.00     0.004 C 
ENDBRANCH  28  29
ENDBRANCH  27  28
ENDBRANCH  26  27
ENDBRANCH  25  26
ENDBRANCH  24  25
ENDBRANCH  23  24
ENDBRANCH  22  23
ENDBRANCH  21  22
ENDBRANCH  20  21
ENDBRANCH  19  20
ENDBRANCH  18  19
ENDBRANCH  17  18
ENDBRANCH   1  17
TORSDOF 26
ENDMDL
MODEL 4
REMARK VINA RESULT:    -3.639      2.751      7.438
REMARK INTER + INTRA:         -13.916
REMARK INTER:                  -8.820
REMARK INTRA:                  -5.097
REMARK UNBOUND:                -4.745
REMARK SMILES CCCCCCCCCCCCCCCCCCCCCCCCCCCC(=O)[O-]
REMARK SMILES IDX 15 1 16 2 17 3 18 4 19 5 20 6 21 7 22 8 23 9 24 10 25 11
REMARK SMILES IDX 26 12 27 13 28 14 29 15 30 16 14 17 13 18 12 19 11 20 10 21
REMARK SMILES IDX 9 22 8 23 7 24 6 25 5 26 4 27 3 28 2 29 1 30
REMARK H PARENT
REMARK Flexibility Score: inf
ROOT
ATOM      1  C   UNL     1      -2.789  -1.034   7.571  1.00  0.00     0.000 C 
ENDROOT
BRANCH   1   2
ATOM      2  C   UNL     1      -4.223  -0.559   7.898  1.00  0.00     0.000 C 
BRANCH   2   3
ATOM      3  C   UNL     1      -5.301  -1.006   6.888  1.00  0.00     0.000 C 
BRANCH   3   4
ATOM      4  C   UNL     1      -6.235  -2.139   7.361  1.00  0.00     0.000 C 
BRANCH   4   5
ATOM      5  C   UNL     1      -6.396  -2.197   8.889  1.00  0.00     0.000 C 
BRANCH   5   6
ATOM      6  C   UNL     1      -5.900  -3.523   9.494  1.00  0.00     0.000 C 
BRANCH   6   7
ATOM      7  C   UNL     1      -5.470  -3.456  10.973  1.00  0.00     0.000 C 
BRANCH   7   8
ATOM      8  C   UNL     1      -5.206  -2.041  11.519  1.00  0.00     0.000 C 
BRANCH   8   9
ATOM      9  C   UNL     1      -3.708  -1.732  11.675  1.00  0.00     0.000 C 
BRANCH   9  10
ATOM     10  C   UNL     1      -3.362  -0.274  11.330  1.00  0.00     0.000 C 
BRANCH  10  11
ATOM     11  C   UNL     1      -1.877  -0.017  11.010  1.00  0.00     0.000 C 
BRANCH  11  12
ATOM     12  C   UNL     1      -1.575   1.439  10.594  1.00  0.00     0.006 C 
BRANCH  12  13
ATOM     13  C   UNL     1      -0.742   1.514   9.307  1.00  0.00     0.053 C 
BRANCH  13  14
ATOM     14  C   UNL     1      -0.460   2.938   8.950  1.00  0.00     0.041 C 
ATOM     15  O   UNL     1       0.449   3.573   9.547  1.00  0.00    -0.550 OA
ATOM     16  O   UNL     1      -1.171   3.552   7.925  1.00  0.00    -0.550 OA
ENDBRANCH  13  14
ENDBRANCH  12  13
ENDBRANCH  11  12
ENDBRANCH  10  11
ENDBRANCH   9  10
ENDBRANCH   8   9
ENDBRANCH   7   8
ENDBRANCH   6   7
ENDBRANCH   5   6
ENDBRANCH   4   5
ENDBRANCH   3   4
ENDBRANCH   2   3
ENDBRANCH   1   2
BRANCH   1  17
ATOM     17  C   UNL     1      -2.412  -2.379   8.220  1.00  0.00     0.000 C 
BRANCH  17  18
ATOM     18  C   UNL     1      -2.130  -3.505   7.203  1.00  0.00     0.000 C 
BRANCH  18  19
ATOM     19  C   UNL     1      -3.310  -4.477   7.003  1.00  0.00     0.000 C 
BRANCH  19  20
ATOM     20  C   UNL     1      -3.579  -4.898   5.541  1.00  0.00     0.000 C 
BRANCH  20  21
ATOM     21  C   UNL     1      -4.263  -3.837   4.661  1.00  0.00     0.000 C 
BRANCH  21  22
ATOM     22  C   UNL     1      -3.271  -3.041   3.799  1.00  0.00    -0.000 C 
BRANCH  22  23
ATOM     23  C   UNL     1      -3.569  -1.538   3.866  1.00  0.00    -0.000 C 
BRANCH  23  24
ATOM     24  C   UNL     1      -2.278  -0.728   4.053  1.00  0.00    -0.000 C 
BRANCH  24  25
ATOM     25  C   UNL     1      -1.071  -1.607   4.420  1.00  0.00    -0.000 C 
BRANCH  25  26
ATOM     26  C   UNL     1       0.050  -1.542   3.369  1.00  0.00    -0.000 C 
BRANCH  26  27
ATOM     27  C   UNL     1      -0.155  -0.409   2.348  1.00  0.00    -0.000 C 
BRANCH  27  28
ATOM     28  C   UNL     1      -0.177  -0.850   0.870  1.00  0.00    -0.000 C 
BRANCH  28  29
ATOM     29  C   UNL     1      -1.137  -0.055  -0.032  1.00  0.00    -0.003 C 
ATOM     30  C   UNL     1      -2.143   0.780   0.759  1.00  0.00     0.004 C 
ENDBRANCH  28  29
ENDBRANCH  27  28
ENDBRANCH  26  27
ENDBRANCH  25  26
ENDBRANCH  24  25
ENDBRANCH  23  24
ENDBRANCH  22  23
ENDBRANCH  21  22
ENDBRANCH  20  21
ENDBRANCH  19  20
ENDBRANCH  18  19
ENDBRANCH  17  18
ENDBRANCH   1  17
TORSDOF 26
ENDMDL
MODEL 5
REMARK VINA RESULT:    -3.638      2.348      3.766
REMARK INTER + INTRA:         -13.914
REMARK INTER:                  -8.880
REMARK INTRA:                  -5.034
REMARK UNBOUND:                -4.745
REMARK SMILES CCCCCCCCCCCCCCCCCCCCCCCCCCCC(=O)[O-]
REMARK SMILES IDX 15 1 16 2 17 3 18 4 19 5 20 6 21 7 22 8 23 9 24 10 25 11
REMARK SMILES IDX 26 12 27 13 28 14 29 15 30 16 14 17 13 18 12 19 11 20 10 21
REMARK SMILES IDX 9 22 8 23 7 24 6 25 5 26 4 27 3 28 2 29 1 30
REMARK H PARENT
REMARK Flexibility Score: inf
ROOT
ATOM      1  C   UNL     1      -6.875  -3.869  10.813  1.00  0.00     0.000 C 
ENDROOT
BRANCH   1   2
ATOM      2  C   UNL     1      -5.755  -3.982   9.755  1.00  0.00     0.000 C 
BRANCH   2   3
ATOM      3  C   UNL     1      -5.755  -2.868   8.687  1.00  0.00     0.000 C 
BRANCH   3   4
ATOM      4  C   UNL     1      -5.085  -3.225   7.344  1.00  0.00     0.000 C 
BRANCH   4   5
ATOM      5  C   UNL     1      -3.608  -3.626   7.489  1.00  0.00     0.000 C 
BRANCH   5   6
ATOM      6  C   UNL     1      -2.741  -3.158   6.306  1.00  0.00     0.000 C 
BRANCH   6   7
ATOM      7  C   UNL     1      -1.248  -2.940   6.625  1.00  0.00     0.000 C 
BRANCH   7   8
ATOM      8  C   UNL     1      -0.505  -1.980   5.678  1.00  0.00     0.000 C 
BRANCH   8   9
ATOM      9  C   UNL     1      -1.328  -1.620   4.430  1.00  0.00     0.000 C 
BRANCH   9  10
ATOM     10  C   UNL     1      -0.471  -1.004   3.311  1.00  0.00     0.000 C 
BRANCH  10  11
ATOM     11  C   UNL     1      -1.169   0.097   2.490  1.00  0.00     0.000 C 
BRANCH  11  12
ATOM     12  C   UNL     1      -2.377   0.735   3.209  1.00  0.00     0.006 C 
BRANCH  12  13
ATOM     13  C   UNL     1      -2.819   2.047   2.548  1.00  0.00     0.053 C 
BRANCH  13  14
ATOM     14  C   UNL     1      -2.805   3.164   3.543  1.00  0.00     0.041 C 
ATOM     15  O   UNL     1      -3.884   3.596   4.026  1.00  0.00    -0.550 OA
ATOM     16  O   UNL     1      -1.595   3.698   3.972  1.00  0.00    -0.550 OA
ENDBRANCH  13  14
ENDBRANCH  12  13
ENDBRANCH  11  12
ENDBRANCH  10  11
ENDBRANCH   9  10
ENDBRANCH   8   9
ENDBRANCH   7   8
ENDBRANCH   6   7
ENDBRANCH   5   6
ENDBRANCH   4   5
ENDBRANCH   3   4
ENDBRANCH   2   3
ENDBRANCH   1   2
BRANCH   1  17
ATOM     17  C   UNL     1      -8.068  -3.002  10.370  1.00  0.00     0.000 C 
BRANCH  17  18
ATOM     18  C   UNL     1      -8.429  -1.880  11.368  1.00  0.00     0.000 C 
BRANCH  18  19
ATOM     19  C   UNL     1      -7.579  -1.890  12.654  1.00  0.00     0.000 C 
BRANCH  19  20
ATOM     20  C   UNL     1      -6.638  -0.678  12.833  1.00  0.00     0.000 C 
BRANCH  20  21
ATOM     21  C   UNL     1      -5.134  -1.004  12.848  1.00  0.00     0.000 C 
BRANCH  21  22
ATOM     22  C   UNL     1      -4.469  -0.831  11.474  1.00  0.00    -0.000 C 
BRANCH  22  23
ATOM     23  C   UNL     1      -3.321  -1.832  11.290  1.00  0.00    -0.000 C 
BRANCH  23  24
ATOM     24  C   UNL     1      -2.365  -1.376  10.177  1.00  0.00    -0.000 C 
BRANCH  24  25
ATOM     25  C   UNL     1      -2.940  -0.227   9.333  1.00  0.00    -0.000 C 
BRANCH  25  26
ATOM     26  C   UNL     1      -1.982   0.223   8.217  1.00  0.00    -0.000 C 
BRANCH  26  27
ATOM     27  C   UNL     1      -2.703   0.962   7.075  1.00  0.00    -0.000 C 
BRANCH  27  28
ATOM     28  C   UNL     1      -3.915   0.220   6.474  1.00  0.00    -0.000 C 
BRANCH  28  29
ATOM     29  C   UNL     1      -5.231   1.018   6.474  1.00  0.00    -0.003 C 
ATOM     30  C   UNL     1      -6.121   0.696   7.674  1.00  0.00     0.004 C 
ENDBRANCH  28  29
ENDBRANCH  27  28
ENDBRANCH  26  27
ENDBRANCH  25  26
ENDBRANCH  24  25
ENDBRANCH  23  24
ENDBRANCH  22  23
ENDBRANCH  21  22
ENDBRANCH  20  21
ENDBRANCH  19  20
ENDBRANCH  18  19
ENDBRANCH  17  18
ENDBRANCH   1  17
TORSDOF 26
ENDMDL
MODEL 6
REMARK VINA RESULT:    -3.597      4.483      6.817
REMARK INTER + INTRA:         -13.810
REMARK INTER:                  -9.322
REMARK INTRA:                  -4.488
REMARK UNBOUND:                -4.745
REMARK SMILES CCCCCCCCCCCCCCCCCCCCCCCCCCCC(=O)[O-]
REMARK SMILES IDX 15 1 16 2 17 3 18 4 19 5 20 6 21 7 22 8 23 9 24 10 25 11
REMARK SMILES IDX 26 12 27 13 28 14 29 15 30 16 14 17 13 18 12 19 11 20 10 21
REMARK SMILES IDX 9 22 8 23 7 24 6 25 5 26 4 27 3 28 2 29 1 30
REMARK H PARENT
REMARK Flexibility Score: inf
ROOT
ATOM      1  C   UNL     1      -5.580  -1.870  11.365  1.00  0.00     0.000 C 
ENDROOT
BRANCH   1   2
ATOM      2  C   UNL     1      -4.235  -1.408  11.969  1.00  0.00     0.000 C 
BRANCH   2   3
ATOM      3  C   UNL     1      -2.984  -1.837  11.174  1.00  0.00     0.000 C 
BRANCH   3   4
ATOM      4  C   UNL     1      -2.540  -0.877  10.051  1.00  0.00     0.000 C 
BRANCH   4   5
ATOM      5  C   UNL     1      -1.633   0.260  10.547  1.00  0.00     0.000 C 
BRANCH   5   6
ATOM      6  C   UNL     1      -0.931   1.011   9.399  1.00  0.00     0.000 C 
BRANCH   6   7
ATOM      7  C   UNL     1      -0.797   2.535   9.590  1.00  0.00     0.000 C 
BRANCH   7   8
ATOM      8  C   UNL     1      -0.671   3.352   8.292  1.00  0.00     0.000 C 
BRANCH   8   9
ATOM      9  C   UNL     1      -1.899   4.238   8.024  1.00  0.00     0.000 C 
BRANCH   9  10
ATOM     10  C   UNL     1      -1.691   5.201   6.842  1.00  0.00     0.000 C 
BRANCH  10  11
ATOM     11  C   UNL     1      -0.375   5.001   6.066  1.00  0.00     0.000 C 
BRANCH  11  12
ATOM     12  C   UNL     1      -0.119   6.079   4.992  1.00  0.00     0.006 C 
BRANCH  12  13
ATOM     13  C   UNL     1      -0.852   7.392   5.301  1.00  0.00     0.053 C 
BRANCH  13  14
ATOM     14  C   UNL     1      -0.008   8.269   6.169  1.00  0.00     0.041 C 
ATOM     15  O   UNL     1       1.067   8.753   5.726  1.00  0.00    -0.550 OA
ATOM     16  O   UNL     1      -0.431   8.591   7.454  1.00  0.00    -0.550 OA
ENDBRANCH  13  14
ENDBRANCH  12  13
ENDBRANCH  11  12
ENDBRANCH  10  11
ENDBRANCH   9  10
ENDBRANCH   8   9
ENDBRANCH   7   8
ENDBRANCH   6   7
ENDBRANCH   5   6
ENDBRANCH   4   5
ENDBRANCH   3   4
ENDBRANCH   2   3
ENDBRANCH   1   2
BRANCH   1  17
ATOM     17  C   UNL     1      -5.709  -3.397  11.219  1.00  0.00     0.000 C 
BRANCH  17  18
ATOM     18  C   UNL     1      -5.834  -3.877   9.757  1.00  0.00     0.000 C 
BRANCH  18  19
ATOM     19  C   UNL     1      -5.787  -2.738   8.719  1.00  0.00     0.000 C 
BRANCH  19  20
ATOM     20  C   UNL     1      -5.032  -3.066   7.412  1.00  0.00     0.000 C 
BRANCH  20  21
ATOM     21  C   UNL     1      -4.483  -4.500   7.306  1.00  0.00     0.000 C 
BRANCH  21  22
ATOM     22  C   UNL     1      -3.054  -4.555   6.747  1.00  0.00    -0.000 C 
BRANCH  22  23
ATOM     23  C   UNL     1      -2.207  -3.398   7.291  1.00  0.00    -0.000 C 
BRANCH  23  24
ATOM     24  C   UNL     1      -1.557  -2.603   6.148  1.00  0.00    -0.000 C 
BRANCH  24  25
ATOM     25  C   UNL     1      -1.512  -1.092   6.425  1.00  0.00    -0.000 C 
BRANCH  25  26
ATOM     26  C   UNL     1      -2.913  -0.468   6.538  1.00  0.00    -0.000 C 
BRANCH  26  27
ATOM     27  C   UNL     1      -2.916   1.046   6.265  1.00  0.00    -0.000 C 
BRANCH  27  28
ATOM     28  C   UNL     1      -4.173   1.799   6.745  1.00  0.00    -0.000 C 
BRANCH  28  29
ATOM     29  C   UNL     1      -4.883   1.173   7.958  1.00  0.00    -0.003 C 
ATOM     30  C   UNL     1      -4.692   1.980   9.242  1.00  0.00     0.004 C 
ENDBRANCH  28  29
ENDBRANCH  27  28
ENDBRANCH  26  27
ENDBRANCH  25  26
ENDBRANCH  24  25
ENDBRANCH  23  24
ENDBRANCH  22  23
ENDBRANCH  21  22
ENDBRANCH  20  21
ENDBRANCH  19  20
ENDBRANCH  18  19
ENDBRANCH  17  18
ENDBRANCH   1  17
TORSDOF 26
ENDMDL
MODEL 7
REMARK VINA RESULT:    -3.584      2.194      4.173
REMARK INTER + INTRA:         -13.777
REMARK INTER:                  -8.661
REMARK INTRA:                  -5.116
REMARK UNBOUND:                -4.745
REMARK SMILES CCCCCCCCCCCCCCCCCCCCCCCCCCCC(=O)[O-]
REMARK SMILES IDX 15 1 16 2 17 3 18 4 19 5 20 6 21 7 22 8 23 9 24 10 25 11
REMARK SMILES IDX 26 12 27 13 28 14 29 15 30 16 14 17 13 18 12 19 11 20 10 21
REMARK SMILES IDX 9 22 8 23 7 24 6 25 5 26 4 27 3 28 2 29 1 30
REMARK H PARENT
REMARK Flexibility Score: inf
ROOT
ATOM      1  C   UNL     1      -6.584  -6.286   3.759  1.00  0.00     0.000 C 
ENDROOT
BRANCH   1   2
ATOM      2  C   UNL     1      -6.192  -7.407   4.747  1.00  0.00     0.000 C 
BRANCH   2   3
ATOM      3  C   UNL     1      -4.711  -7.837   4.688  1.00  0.00     0.000 C 
BRANCH   3   4
ATOM      4  C   UNL     1      -3.758  -7.092   5.645  1.00  0.00     0.000 C 
BRANCH   4   5
ATOM      5  C   UNL     1      -4.436  -6.637   6.948  1.00  0.00     0.000 C 
BRANCH   5   6
ATOM      6  C   UNL     1      -4.283  -5.127   7.208  1.00  0.00     0.000 C 
BRANCH   6   7
ATOM      7  C   UNL     1      -3.114  -4.444   6.470  1.00  0.00     0.000 C 
BRANCH   7   8
ATOM      8  C   UNL     1      -2.255  -3.499   7.329  1.00  0.00     0.000 C 
BRANCH   8   9
ATOM      9  C   UNL     1      -1.252  -2.683   6.496  1.00  0.00     0.000 C 
BRANCH   9  10
ATOM     10  C   UNL     1      -1.936  -1.634   5.603  1.00  0.00     0.000 C 
BRANCH  10  11
ATOM     11  C   UNL     1      -1.667  -1.793   4.094  1.00  0.00     0.000 C 
BRANCH  11  12
ATOM     12  C   UNL     1      -1.659  -0.456   3.322  1.00  0.00     0.006 C 
BRANCH  12  13
ATOM     13  C   UNL     1      -3.059   0.164   3.220  1.00  0.00     0.053 C 
BRANCH  13  14
ATOM     14  C   UNL     1      -3.024   1.603   3.622  1.00  0.00     0.041 C 
ATOM     15  O   UNL     1      -1.989   2.292   3.422  1.00  0.00    -0.550 OA
ATOM     16  O   UNL     1      -4.151   2.199   4.177  1.00  0.00    -0.550 OA
ENDBRANCH  13  14
ENDBRANCH  12  13
ENDBRANCH  11  12
ENDBRANCH  10  11
ENDBRANCH   9  10
ENDBRANCH   8   9
ENDBRANCH   7   8
ENDBRANCH   6   7
ENDBRANCH   5   6
ENDBRANCH   4   5
ENDBRANCH   3   4
ENDBRANCH   2   3
ENDBRANCH   1   2
BRANCH   1  17
ATOM     17  C   UNL     1      -6.576  -4.876   4.379  1.00  0.00     0.000 C 
BRANCH  17  18
ATOM     18  C   UNL     1      -5.812  -3.829   3.540  1.00  0.00     0.000 C 
BRANCH  18  19
ATOM     19  C   UNL     1      -5.335  -2.607   4.350  1.00  0.00     0.000 C 
BRANCH  19  20
ATOM     20  C   UNL     1      -6.116  -2.332   5.654  1.00  0.00     0.000 C 
BRANCH  20  21
ATOM     21  C   UNL     1      -5.491  -1.284   6.592  1.00  0.00     0.000 C 
BRANCH  21  22
ATOM     22  C   UNL     1      -5.465  -1.734   8.061  1.00  0.00    -0.000 C 
BRANCH  22  23
ATOM     23  C   UNL     1      -6.764  -2.460   8.435  1.00  0.00    -0.000 C 
BRANCH  23  24
ATOM     24  C   UNL     1      -6.644  -3.129   9.812  1.00  0.00    -0.000 C 
BRANCH  24  25
ATOM     25  C   UNL     1      -5.184  -3.357  10.237  1.00  0.00    -0.000 C 
BRANCH  25  26
ATOM     26  C   UNL     1      -4.880  -2.791  11.635  1.00  0.00    -0.000 C 
BRANCH  26  27
ATOM     27  C   UNL     1      -3.904  -1.602  11.597  1.00  0.00    -0.000 C 
BRANCH  27  28
ATOM     28  C   UNL     1      -2.757  -1.725  10.573  1.00  0.00    -0.000 C 
BRANCH  28  29
ATOM     29  C   UNL     1      -2.014  -0.413  10.267  1.00  0.00    -0.003 C 
ATOM     30  C   UNL     1      -2.240   0.080   8.839  1.00  0.00     0.004 C 
ENDBRANCH  28  29
ENDBRANCH  27  28
ENDBRANCH  26  27
ENDBRANCH  25  26
ENDBRANCH  24  25
ENDBRANCH  23  24
ENDBRANCH  22  23
ENDBRANCH  21  22
ENDBRANCH  20  21
ENDBRANCH  19  20
ENDBRANCH  18  19
ENDBRANCH  17  18
ENDBRANCH   1  17
TORSDOF 26
ENDMDL
MODEL 8
REMARK VINA RESULT:    -3.577      2.347      3.839
REMARK INTER + INTRA:         -13.759
REMARK INTER:                  -8.713
REMARK INTRA:                  -5.046
REMARK UNBOUND:                -4.745
REMARK SMILES CCCCCCCCCCCCCCCCCCCCCCCCCCCC(=O)[O-]
REMARK SMILES IDX 15 1 16 2 17 3 18 4 19 5 20 6 21 7 22 8 23 9 24 10 25 11
REMARK SMILES IDX 26 12 27 13 28 14 29 15 30 16 14 17 13 18 12 19 11 20 10 21
REMARK SMILES IDX 9 22 8 23 7 24 6 25 5 26 4 27 3 28 2 29 1 30
REMARK H PARENT
REMARK Flexibility Score: inf
ROOT
ATOM      1  C   UNL     1      -6.374  -1.307   7.403  1.00  0.00     0.000 C 
ENDROOT
BRANCH   1   2
ATOM      2  C   UNL     1      -5.561  -2.091   6.349  1.00  0.00     0.000 C 
BRANCH   2   3
ATOM      3  C   UNL     1      -5.192  -1.287   5.084  1.00  0.00     0.000 C 
BRANCH   3   4
ATOM      4  C   UNL     1      -4.433   0.034   5.325  1.00  0.00     0.000 C 
BRANCH   4   5
ATOM      5  C   UNL     1      -2.912  -0.095   5.136  1.00  0.00     0.000 C 
BRANCH   5   6
ATOM      6  C   UNL     1      -2.515  -1.330   4.305  1.00  0.00     0.000 C 
BRANCH   6   7
ATOM      7  C   UNL     1      -1.636  -2.365   5.037  1.00  0.00     0.000 C 
BRANCH   7   8
ATOM      8  C   UNL     1      -1.643  -2.265   6.573  1.00  0.00     0.000 C 
BRANCH   8   9
ATOM      9  C   UNL     1      -2.167  -3.542   7.251  1.00  0.00     0.000 C 
BRANCH   9  10
ATOM     10  C   UNL     1      -2.991  -4.425   6.298  1.00  0.00     0.000 C 
BRANCH  10  11
ATOM     11  C   UNL     1      -3.869  -5.485   6.991  1.00  0.00     0.000 C 
BRANCH  11  12
ATOM     12  C   UNL     1      -4.489  -6.510   6.017  1.00  0.00     0.006 C 
BRANCH  12  13
ATOM     13  C   UNL     1      -3.457  -7.067   5.027  1.00  0.00     0.053 C 
BRANCH  13  14
ATOM     14  C   UNL     1      -4.137  -7.585   3.800  1.00  0.00     0.041 C 
ATOM     15  O   UNL     1      -3.456  -8.021   2.835  1.00  0.00    -0.550 OA
ATOM     16  O   UNL     1      -5.526  -7.628   3.740  1.00  0.00    -0.550 OA
ENDBRANCH  13  14
ENDBRANCH  12  13
ENDBRANCH  11  12
ENDBRANCH  10  11
ENDBRANCH   9  10
ENDBRANCH   8   9
ENDBRANCH   7   8
ENDBRANCH   6   7
ENDBRANCH   5   6
ENDBRANCH   4   5
ENDBRANCH   3   4
ENDBRANCH   2   3
ENDBRANCH   1   2
BRANCH   1  17
ATOM     17  C   UNL     1      -6.056  -1.700   8.858  1.00  0.00     0.000 C 
BRANCH  17  18
ATOM     18  C   UNL     1      -5.626  -3.173   9.027  1.00  0.00     0.000 C 
BRANCH  18  19
ATOM     19  C   UNL     1      -6.319  -3.897  10.198  1.00  0.00     0.000 C 
BRANCH  19  20
ATOM     20  C   UNL     1      -7.827  -3.605  10.356  1.00  0.00     0.000 C 
BRANCH  20  21
ATOM     21  C   UNL     1      -8.383  -3.743  11.784  1.00  0.00     0.000 C 
BRANCH  21  22
ATOM     22  C   UNL     1      -7.838  -2.675  12.745  1.00  0.00    -0.000 C 
BRANCH  22  23
ATOM     23  C   UNL     1      -8.146  -1.264  12.229  1.00  0.00    -0.000 C 
BRANCH  23  24
ATOM     24  C   UNL     1      -6.868  -0.416  12.145  1.00  0.00    -0.000 C 
BRANCH  24  25
ATOM     25  C   UNL     1      -5.646  -1.120  12.758  1.00  0.00    -0.000 C 
BRANCH  25  26
ATOM     26  C   UNL     1      -4.329  -0.726  12.068  1.00  0.00    -0.000 C 
BRANCH  26  27
ATOM     27  C   UNL     1      -3.512  -1.945  11.604  1.00  0.00    -0.000 C 
BRANCH  27  28
ATOM     28  C   UNL     1      -2.510  -1.670  10.464  1.00  0.00    -0.000 C 
BRANCH  28  29
ATOM     29  C   UNL     1      -2.269  -0.183  10.154  1.00  0.00    -0.003 C 
ATOM     30  C   UNL     1      -2.941   0.271   8.858  1.00  0.00     0.004 C 
ENDBRANCH  28  29
ENDBRANCH  27  28
ENDBRANCH  26  27
ENDBRANCH  25  26
ENDBRANCH  24  25
ENDBRANCH  23  24
ENDBRANCH  22  23
ENDBRANCH  21  22
ENDBRANCH  20  21
ENDBRANCH  19  20
ENDBRANCH  18  19
ENDBRANCH  17  18
ENDBRANCH   1  17
TORSDOF 26
ENDMDL
MODEL 9
REMARK VINA RESULT:    -3.576      2.510      3.951
REMARK INTER + INTRA:         -13.758
REMARK INTER:                  -8.205
REMARK INTRA:                  -5.553
REMARK UNBOUND:                -4.745
REMARK SMILES CCCCCCCCCCCCCCCCCCCCCCCCCCCC(=O)[O-]
REMARK SMILES IDX 15 1 16 2 17 3 18 4 19 5 20 6 21 7 22 8 23 9 24 10 25 11
REMARK SMILES IDX 26 12 27 13 28 14 29 15 30 16 14 17 13 18 12 19 11 20 10 21
REMARK SMILES IDX 9 22 8 23 7 24 6 25 5 26 4 27 3 28 2 29 1 30
REMARK H PARENT
REMARK Flexibility Score: inf
ROOT
ATOM      1  C   UNL     1      -4.572  -2.988   3.954  1.00  0.00     0.000 C 
ENDROOT
BRANCH   1   2
ATOM      2  C   UNL     1      -3.821  -4.289   4.315  1.00  0.00     0.000 C 
BRANCH   2   3
ATOM      3  C   UNL     1      -4.155  -4.868   5.706  1.00  0.00     0.000 C 
BRANCH   3   4
ATOM      4  C   UNL     1      -3.018  -4.815   6.747  1.00  0.00     0.000 C 
BRANCH   4   5
ATOM      5  C   UNL     1      -2.692  -3.389   7.219  1.00  0.00     0.000 C 
BRANCH   5   6
ATOM      6  C   UNL     1      -1.331  -2.883   6.705  1.00  0.00     0.000 C 
BRANCH   6   7
ATOM      7  C   UNL     1      -1.397  -1.718   5.696  1.00  0.00     0.000 C 
BRANCH   7   8
ATOM      8  C   UNL     1      -0.493  -1.868   4.459  1.00  0.00     0.000 C 
BRANCH   8   9
ATOM      9  C   UNL     1      -1.186  -1.425   3.159  1.00  0.00     0.000 C 
BRANCH   9  10
ATOM     10  C   UNL     1      -1.620   0.050   3.190  1.00  0.00     0.000 C 
BRANCH  10  11
ATOM     11  C   UNL     1      -3.143   0.280   3.136  1.00  0.00     0.000 C 
BRANCH  11  12
ATOM     12  C   UNL     1      -3.577   1.678   3.626  1.00  0.00     0.006 C 
BRANCH  12  13
ATOM     13  C   UNL     1      -2.379   2.608   3.860  1.00  0.00     0.053 C 
BRANCH  13  14
ATOM     14  C   UNL     1      -2.637   3.952   3.257  1.00  0.00     0.041 C 
ATOM     15  O   UNL     1      -3.211   4.046   2.141  1.00  0.00    -0.550 OA
ATOM     16  O   UNL     1      -2.282   5.105   3.950  1.00  0.00    -0.550 OA
ENDBRANCH  13  14
ENDBRANCH  12  13
ENDBRANCH  11  12
ENDBRANCH  10  11
ENDBRANCH   9  10
ENDBRANCH   8   9
ENDBRANCH   7   8
ENDBRANCH   6   7
ENDBRANCH   5   6
ENDBRANCH   4   5
ENDBRANCH   3   4
ENDBRANCH   2   3
ENDBRANCH   1   2
BRANCH   1  17
ATOM     17  C   UNL     1      -5.655  -2.588   4.973  1.00  0.00     0.000 C 
BRANCH  17  18
ATOM     18  C   UNL     1      -5.324  -1.304   5.765  1.00  0.00     0.000 C 
BRANCH  18  19
ATOM     19  C   UNL     1      -5.775  -1.344   7.238  1.00  0.00     0.000 C 
BRANCH  19  20
ATOM     20  C   UNL     1      -6.506  -2.634   7.671  1.00  0.00     0.000 C 
BRANCH  20  21
ATOM     21  C   UNL     1      -5.800  -3.463   8.759  1.00  0.00     0.000 C 
BRANCH  21  22
ATOM     22  C   UNL     1      -6.589  -3.521  10.075  1.00  0.00    -0.000 C 
BRANCH  22  23
ATOM     23  C   UNL     1      -5.728  -3.049  11.253  1.00  0.00    -0.000 C 
BRANCH  23  24
ATOM     24  C   UNL     1      -4.895  -1.817  10.868  1.00  0.00    -0.000 C 
BRANCH  24  25
ATOM     25  C   UNL     1      -3.475  -1.852  11.456  1.00  0.00    -0.000 C 
BRANCH  25  26
ATOM     26  C   UNL     1      -2.412  -1.339  10.469  1.00  0.00    -0.000 C 
BRANCH  26  27
ATOM     27  C   UNL     1      -2.994  -0.391   9.406  1.00  0.00    -0.000 C 
BRANCH  27  28
ATOM     28  C   UNL     1      -1.952   0.379   8.569  1.00  0.00    -0.000 C 
BRANCH  28  29
ATOM     29  C   UNL     1      -2.539   1.299   7.485  1.00  0.00    -0.003 C 
ATOM     30  C   UNL     1      -3.927   1.829   7.843  1.00  0.00     0.004 C 
ENDBRANCH  28  29
ENDBRANCH  27  28
ENDBRANCH  26  27
ENDBRANCH  25  26
ENDBRANCH  24  25
ENDBRANCH  23  24
ENDBRANCH  22  23
ENDBRANCH  21  22
ENDBRANCH  20  21
ENDBRANCH  19  20
ENDBRANCH  18  19
ENDBRANCH  17  18
ENDBRANCH   1  17
TORSDOF 26
ENDMDL
