MODEL 1
REMARK VINA RESULT:    -2.963      0.000      0.000
REMARK INTER + INTRA:          -7.299
REMARK INTER:                  -5.215
REMARK INTRA:                  -2.084
REMARK UNBOUND:                -2.084
REMARK SMILES CCCCCCCCCCCCCCC(=O)[O-]
REMARK SMILES IDX 9 1 10 2 11 3 12 4 13 5 14 6 15 7 16 8 17 9 8 10 7 11 6 12
REMARK SMILES IDX 5 13 4 14 3 15 2 16 1 17
REMARK H PARENT
REMARK Flexibility Score: inf
ROOT
ATOM      1  C   UNL     1      12.264  42.585 153.200  1.00  0.00     0.000 C 
ENDROOT
BRANCH   1   2
ATOM      2  C   UNL     1      11.309  43.284 154.187  1.00  0.00     0.000 C 
BRANCH   2   3
ATOM      3  C   UNL     1      10.453  42.332 155.046  1.00  0.00     0.000 C 
BRANCH   3   4
ATOM      4  C   UNL     1       9.493  43.029 156.031  1.00  0.00     0.000 C 
BRANCH   4   5
ATOM      5  C   UNL     1       8.532  44.046 155.392  1.00  0.00     0.006 C 
BRANCH   5   6
ATOM      6  C   UNL     1       8.841  45.493 155.797  1.00  0.00     0.053 C 
BRANCH   6   7
ATOM      7  C   UNL     1       9.302  46.280 154.611  1.00  0.00     0.041 C 
ATOM      8  O   UNL     1      10.422  46.856 154.628  1.00  0.00    -0.550 OA
ATOM      9  O   UNL     1       8.517  46.337 153.467  1.00  0.00    -0.550 OA
ENDBRANCH   6   7
ENDBRANCH   5   6
ENDBRANCH   4   5
ENDBRANCH   3   4
ENDBRANCH   2   3
ENDBRANCH   1   2
BRANCH   1  10
ATOM     10  C   UNL     1      12.041  42.936 151.715  1.00  0.00     0.000 C 
BRANCH  10  11
ATOM     11  C   UNL     1      12.010  41.730 150.759  1.00  0.00    -0.000 C 
BRANCH  11  12
ATOM     12  C   UNL     1      11.950  40.384 151.496  1.00  0.00    -0.000 C 
BRANCH  12  13
ATOM     13  C   UNL     1      10.553  39.761 151.390  1.00  0.00    -0.000 C 
BRANCH  13  14
ATOM     14  C   UNL     1       9.769  39.937 152.699  1.00  0.00    -0.000 C 
BRANCH  14  15
ATOM     15  C   UNL     1       8.363  40.528 152.463  1.00  0.00    -0.000 C 
BRANCH  15  16
ATOM     16  C   UNL     1       8.318  41.586 151.349  1.00  0.00    -0.003 C 
ATOM     17  C   UNL     1       8.392  43.016 151.880  1.00  0.00     0.004 C 
ENDBRANCH  15  16
ENDBRANCH  14  15
ENDBRANCH  13  14
ENDBRANCH  12  13
ENDBRANCH  11  12
ENDBRANCH  10  11
ENDBRANCH   1  10
TORSDOF 13
ENDMDL
MODEL 2
REMARK VINA RESULT:    -2.907      2.041      4.602
REMARK INTER + INTRA:          -7.200
REMARK INTER:                  -5.231
REMARK INTRA:                  -1.969
REMARK UNBOUND:                -2.084
REMARK SMILES CCCCCCCCCCCCCCC(=O)[O-]
REMARK SMILES IDX 9 1 10 2 11 3 12 4 13 5 14 6 15 7 16 8 17 9 8 10 7 11 6 12
REMARK SMILES IDX 5 13 4 14 3 15 2 16 1 17
REMARK H PARENT
REMARK Flexibility Score: inf
ROOT
ATOM      1  C   UNL     1      12.101  42.331 150.288  1.00  0.00     0.000 C 
ENDROOT
BRANCH   1   2
ATOM      2  C   UNL     1      11.578  40.929 149.918  1.00  0.00     0.000 C 
BRANCH   2   3
ATOM      3  C   UNL     1      11.709  39.872 151.033  1.00  0.00     0.000 C 
BRANCH   3   4
ATOM      4  C   UNL     1      10.810  40.106 152.264  1.00  0.00     0.000 C 
BRANCH   4   5
ATOM      5  C   UNL     1       9.316  40.295 151.951  1.00  0.00     0.006 C 
BRANCH   5   6
ATOM      6  C   UNL     1       8.461  40.473 153.212  1.00  0.00     0.053 C 
BRANCH   6   7
ATOM      7  C   UNL     1       7.357  41.451 152.960  1.00  0.00     0.041 C 
ATOM      8  O   UNL     1       6.210  41.250 153.440  1.00  0.00    -0.550 OA
ATOM      9  O   UNL     1       7.607  42.609 152.236  1.00  0.00    -0.550 OA
ENDBRANCH   6   7
ENDBRANCH   5   6
ENDBRANCH   4   5
ENDBRANCH   3   4
ENDBRANCH   2   3
ENDBRANCH   1   2
BRANCH   1  10
ATOM     10  C   UNL     1      11.014  43.345 150.699  1.00  0.00     0.000 C 
BRANCH  10  11
ATOM     11  C   UNL     1      11.233  44.014 152.068  1.00  0.00    -0.000 C 
BRANCH  11  12
ATOM     12  C   UNL     1      12.502  43.520 152.779  1.00  0.00    -0.000 C 
BRANCH  12  13
ATOM     13  C   UNL     1      12.167  42.923 154.151  1.00  0.00    -0.000 C 
BRANCH  13  14
ATOM     14  C   UNL     1      10.686  43.140 154.501  1.00  0.00    -0.000 C 
BRANCH  14  15
ATOM     15  C   UNL     1      10.267  42.371 155.771  1.00  0.00    -0.000 C 
BRANCH  15  16
ATOM     16  C   UNL     1       9.233  43.117 156.630  1.00  0.00    -0.003 C 
ATOM     17  C   UNL     1       8.748  44.415 155.989  1.00  0.00     0.004 C 
ENDBRANCH  15  16
ENDBRANCH  14  15
ENDBRANCH  13  14
ENDBRANCH  12  13
ENDBRANCH  11  12
ENDBRANCH  10  11
ENDBRANCH   1  10
TORSDOF 13
ENDMDL
MODEL 3
REMARK VINA RESULT:    -2.899      4.385      7.157
REMARK INTER + INTRA:          -7.186
REMARK INTER:                  -5.350
REMARK INTRA:                  -1.836
REMARK UNBOUND:                -2.084
REMARK SMILES CCCCCCCCCCCCCCC(=O)[O-]
REMARK SMILES IDX 9 1 10 2 11 3 12 4 13 5 14 6 15 7 16 8 17 9 8 10 7 11 6 12
REMARK SMILES IDX 5 13 4 14 3 15 2 16 1 17
REMARK H PARENT
REMARK Flexibility Score: inf
ROOT
ATOM      1  C   UNL     1       9.899  41.152 151.093  1.00  0.00     0.000 C 
ENDROOT
BRANCH   1   2
ATOM      2  C   UNL     1      11.045  40.236 151.565  1.00  0.00     0.000 C 
BRANCH   2   3
ATOM      3  C   UNL     1      11.999  39.763 150.451  1.00  0.00     0.000 C 
BRANCH   3   4
ATOM      4  C   UNL     1      11.481  38.583 149.605  1.00  0.00     0.000 C 
BRANCH   4   5
ATOM      5  C   UNL     1      10.458  37.676 150.312  1.00  0.00     0.006 C 
BRANCH   5   6
ATOM      6  C   UNL     1       9.114  37.610 149.577  1.00  0.00     0.053 C 
BRANCH   6   7
ATOM      7  C   UNL     1       8.660  36.190 149.447  1.00  0.00     0.041 C 
ATOM      8  O   UNL     1       7.458  35.931 149.171  1.00  0.00    -0.550 OA
ATOM      9  O   UNL     1       9.574  35.153 149.581  1.00  0.00    -0.550 OA
ENDBRANCH   6   7
ENDBRANCH   5   6
ENDBRANCH   4   5
ENDBRANCH   3   4
ENDBRANCH   2   3
ENDBRANCH   1   2
BRANCH   1  10
ATOM     10  C   UNL     1       8.564  40.969 151.844  1.00  0.00     0.000 C 
BRANCH  10  11
ATOM     11  C   UNL     1       8.691  40.834 153.372  1.00  0.00    -0.000 C 
BRANCH  11  12
ATOM     12  C   UNL     1       8.186  42.074 154.126  1.00  0.00    -0.000 C 
BRANCH  12  13
ATOM     13  C   UNL     1       9.311  43.097 154.317  1.00  0.00    -0.000 C 
BRANCH  13  14
ATOM     14  C   UNL     1      10.570  42.432 154.895  1.00  0.00    -0.000 C 
BRANCH  14  15
ATOM     15  C   UNL     1      11.853  42.872 154.160  1.00  0.00    -0.000 C 
BRANCH  15  16
ATOM     16  C   UNL     1      11.604  43.902 153.047  1.00  0.00    -0.003 C 
ATOM     17  C   UNL     1      12.475  43.674 151.814  1.00  0.00     0.004 C 
ENDBRANCH  15  16
ENDBRANCH  14  15
ENDBRANCH  13  14
ENDBRANCH  12  13
ENDBRANCH  11  12
ENDBRANCH  10  11
ENDBRANCH   1  10
TORSDOF 13
ENDMDL
MODEL 4
REMARK VINA RESULT:    -2.894      1.634      3.428
REMARK INTER + INTRA:          -7.177
REMARK INTER:                  -4.970
REMARK INTRA:                  -2.207
REMARK UNBOUND:                -2.084
REMARK SMILES CCCCCCCCCCCCCCC(=O)[O-]
REMARK SMILES IDX 9 1 10 2 11 3 12 4 13 5 14 6 15 7 16 8 17 9 8 10 7 11 6 12
REMARK SMILES IDX 5 13 4 14 3 15 2 16 1 17
REMARK H PARENT
REMARK Flexibility Score: inf
ROOT
ATOM      1  C   UNL     1       9.475  39.927 150.736  1.00  0.00     0.000 C 
ENDROOT
BRANCH   1   2
ATOM      2  C   UNL     1       8.235  40.265 151.585  1.00  0.00     0.000 C 
BRANCH   2   3
ATOM      3  C   UNL     1       8.444  40.160 153.109  1.00  0.00     0.000 C 
BRANCH   3   4
ATOM      4  C   UNL     1       8.604  41.509 153.840  1.00  0.00     0.000 C 
BRANCH   4   5
ATOM      5  C   UNL     1      10.042  41.847 154.272  1.00  0.00     0.006 C 
BRANCH   5   6
ATOM      6  C   UNL     1      10.129  42.325 155.727  1.00  0.00     0.053 C 
BRANCH   6   7
ATOM      7  C   UNL     1       9.204  43.479 155.953  1.00  0.00     0.041 C 
ATOM      8  O   UNL     1       9.378  44.562 155.334  1.00  0.00    -0.550 OA
ATOM      9  O   UNL     1       8.121  43.343 156.812  1.00  0.00    -0.550 OA
ENDBRANCH   6   7
ENDBRANCH   5   6
ENDBRANCH   4   5
ENDBRANCH   3   4
ENDBRANCH   2   3
ENDBRANCH   1   2
BRANCH   1  10
ATOM     10  C   UNL     1      10.697  39.428 151.533  1.00  0.00     0.000 C 
BRANCH  10  11
ATOM     11  C   UNL     1      12.011  40.176 151.247  1.00  0.00    -0.000 C 
BRANCH  11  12
ATOM     12  C   UNL     1      12.033  40.837 149.860  1.00  0.00    -0.000 C 
BRANCH  12  13
ATOM     13  C   UNL     1      12.365  42.330 149.968  1.00  0.00    -0.000 C 
BRANCH  13  14
ATOM     14  C   UNL     1      12.183  42.833 151.408  1.00  0.00    -0.000 C 
BRANCH  14  15
ATOM     15  C   UNL     1      11.123  43.950 151.507  1.00  0.00    -0.000 C 
BRANCH  15  16
ATOM     16  C   UNL     1       9.826  43.639 150.743  1.00  0.00    -0.003 C 
ATOM     17  C   UNL     1       8.580  44.199 151.425  1.00  0.00     0.004 C 
ENDBRANCH  15  16
ENDBRANCH  14  15
ENDBRANCH  13  14
ENDBRANCH  12  13
ENDBRANCH  11  12
ENDBRANCH  10  11
ENDBRANCH   1  10
TORSDOF 13
ENDMDL
MODEL 5
REMARK VINA RESULT:    -2.890      4.170      6.462
REMARK INTER + INTRA:          -7.169
REMARK INTER:                  -5.499
REMARK INTRA:                  -1.670
REMARK UNBOUND:                -2.084
REMARK SMILES CCCCCCCCCCCCCCC(=O)[O-]
REMARK SMILES IDX 9 1 10 2 11 3 12 4 13 5 14 6 15 7 16 8 17 9 8 10 7 11 6 12
REMARK SMILES IDX 5 13 4 14 3 15 2 16 1 17
REMARK H PARENT
REMARK Flexibility Score: inf
ROOT
ATOM      1  C   UNL     1      11.596  42.038 150.974  1.00  0.00     0.000 C 
ENDROOT
BRANCH   1   2
ATOM      2  C   UNL     1      11.919  40.623 151.492  1.00  0.00     0.000 C 
BRANCH   2   3
ATOM      3  C   UNL     1      10.690  39.780 151.884  1.00  0.00     0.000 C 
BRANCH   3   4
ATOM      4  C   UNL     1       9.590  39.687 150.807  1.00  0.00     0.000 C 
BRANCH   4   5
ATOM      5  C   UNL     1       9.935  38.795 149.602  1.00  0.00     0.006 C 
BRANCH   5   6
ATOM      6  C   UNL     1      10.694  37.523 150.000  1.00  0.00     0.053 C 
BRANCH   6   7
ATOM      7  C   UNL     1       9.781  36.339 149.971  1.00  0.00     0.041 C 
ATOM      8  O   UNL     1       8.585  36.470 149.595  1.00  0.00    -0.550 OA
ATOM      9  O   UNL     1      10.261  35.082 150.313  1.00  0.00    -0.550 OA
ENDBRANCH   6   7
ENDBRANCH   5   6
ENDBRANCH   4   5
ENDBRANCH   3   4
ENDBRANCH   2   3
ENDBRANCH   1   2
BRANCH   1  10
ATOM     10  C   UNL     1      11.753  43.166 152.014  1.00  0.00     0.000 C 
BRANCH  10  11
ATOM     11  C   UNL     1      12.323  42.723 153.373  1.00  0.00    -0.000 C 
BRANCH  11  12
ATOM     12  C   UNL     1      11.278  42.754 154.499  1.00  0.00    -0.000 C 
BRANCH  12  13
ATOM     13  C   UNL     1       9.974  43.403 154.020  1.00  0.00    -0.000 C 
BRANCH  13  14
ATOM     14  C   UNL     1       8.764  42.512 154.342  1.00  0.00    -0.000 C 
BRANCH  14  15
ATOM     15  C   UNL     1       8.001  42.082 153.072  1.00  0.00    -0.000 C 
BRANCH  15  16
ATOM     16  C   UNL     1       6.942  40.997 153.327  1.00  0.00    -0.003 C 
ATOM     17  C   UNL     1       6.252  40.522 152.051  1.00  0.00     0.004 C 
ENDBRANCH  15  16
ENDBRANCH  14  15
ENDBRANCH  13  14
ENDBRANCH  12  13
ENDBRANCH  11  12
ENDBRANCH  10  11
ENDBRANCH   1  10
TORSDOF 13
ENDMDL
MODEL 6
REMARK VINA RESULT:    -2.875     12.831     15.112
REMARK INTER + INTRA:          -7.144
REMARK INTER:                  -4.722
REMARK INTRA:                  -2.421
REMARK UNBOUND:                -2.084
REMARK SMILES CCCCCCCCCCCCCCC(=O)[O-]
REMARK SMILES IDX 9 1 10 2 11 3 12 4 13 5 14 6 15 7 16 8 17 9 8 10 7 11 6 12
REMARK SMILES IDX 5 13 4 14 3 15 2 16 1 17
REMARK H PARENT
REMARK Flexibility Score: inf
ROOT
ATOM      1  C   UNL     1      12.844  37.031 138.747  1.00  0.00     0.000 C 
ENDROOT
BRANCH   1   2
ATOM      2  C   UNL     1      12.304  38.365 139.297  1.00  0.00     0.000 C 
BRANCH   2   3
ATOM      3  C   UNL     1      10.934  38.792 138.734  1.00  0.00     0.000 C 
BRANCH   3   4
ATOM      4  C   UNL     1      10.169  39.822 139.589  1.00  0.00     0.000 C 
BRANCH   4   5
ATOM      5  C   UNL     1       8.664  39.929 139.287  1.00  0.00     0.006 C 
BRANCH   5   6
ATOM      6  C   UNL     1       8.164  38.819 138.354  1.00  0.00     0.053 C 
BRANCH   6   7
ATOM      7  C   UNL     1       6.668  38.785 138.340  1.00  0.00     0.041 C 
ATOM      8  O   UNL     1       6.035  39.158 137.316  1.00  0.00    -0.550 OA
ATOM      9  O   UNL     1       5.973  38.294 139.437  1.00  0.00    -0.550 OA
ENDBRANCH   6   7
ENDBRANCH   5   6
ENDBRANCH   4   5
ENDBRANCH   3   4
ENDBRANCH   2   3
ENDBRANCH   1   2
BRANCH   1  10
ATOM     10  C   UNL     1      13.070  35.932 139.806  1.00  0.00     0.000 C 
BRANCH  10  11
ATOM     11  C   UNL     1      11.948  34.884 139.906  1.00  0.00    -0.000 C 
BRANCH  11  12
ATOM     12  C   UNL     1      10.931  34.986 138.759  1.00  0.00    -0.000 C 
BRANCH  12  13
ATOM     13  C   UNL     1       9.573  35.481 139.271  1.00  0.00    -0.000 C 
BRANCH  13  14
ATOM     14  C   UNL     1       9.561  35.571 140.804  1.00  0.00    -0.000 C 
BRANCH  14  15
ATOM     15  C   UNL     1       8.593  36.658 141.318  1.00  0.00    -0.000 C 
BRANCH  15  16
ATOM     16  C   UNL     1       9.184  37.529 142.439  1.00  0.00    -0.003 C 
ATOM     17  C   UNL     1      10.710  37.506 142.473  1.00  0.00     0.004 C 
ENDBRANCH  15  16
ENDBRANCH  14  15
ENDBRANCH  13  14
ENDBRANCH  12  13
ENDBRANCH  11  12
ENDBRANCH  10  11
ENDBRANCH   1  10
TORSDOF 13
ENDMDL
MODEL 7
REMARK VINA RESULT:    -2.847      2.898      5.461
REMARK INTER + INTRA:          -7.094
REMARK INTER:                  -5.077
REMARK INTRA:                  -2.017
REMARK UNBOUND:                -2.084
REMARK SMILES CCCCCCCCCCCCCCC(=O)[O-]
REMARK SMILES IDX 9 1 10 2 11 3 12 4 13 5 14 6 15 7 16 8 17 9 8 10 7 11 6 12
REMARK SMILES IDX 5 13 4 14 3 15 2 16 1 17
REMARK H PARENT
REMARK Flexibility Score: inf
ROOT
ATOM      1  C   UNL     1      11.796  43.425 151.637  1.00  0.00     0.000 C 
ENDROOT
BRANCH   1   2
ATOM      2  C   UNL     1      12.558  42.686 150.520  1.00  0.00     0.000 C 
BRANCH   2   3
ATOM      3  C   UNL     1      12.029  41.275 150.198  1.00  0.00     0.000 C 
BRANCH   3   4
ATOM      4  C   UNL     1      12.034  40.289 151.384  1.00  0.00     0.000 C 
BRANCH   4   5
ATOM      5  C   UNL     1      10.714  39.529 151.602  1.00  0.00     0.006 C 
BRANCH   5   6
ATOM      6  C   UNL     1       9.476  40.406 151.372  1.00  0.00     0.053 C 
BRANCH   6   7
ATOM      7  C   UNL     1       8.512  39.718 150.459  1.00  0.00     0.041 C 
ATOM      8  O   UNL     1       8.654  38.495 150.192  1.00  0.00    -0.550 OA
ATOM      9  O   UNL     1       7.428  40.414 149.940  1.00  0.00    -0.550 OA
ENDBRANCH   6   7
ENDBRANCH   5   6
ENDBRANCH   4   5
ENDBRANCH   3   4
ENDBRANCH   2   3
ENDBRANCH   1   2
BRANCH   1  10
ATOM     10  C   UNL     1      12.616  43.707 152.912  1.00  0.00     0.000 C 
BRANCH  10  11
ATOM     11  C   UNL     1      12.281  42.806 154.114  1.00  0.00    -0.000 C 
BRANCH  11  12
ATOM     12  C   UNL     1      10.803  42.391 154.157  1.00  0.00    -0.000 C 
BRANCH  12  13
ATOM     13  C   UNL     1      10.173  42.741 155.509  1.00  0.00    -0.000 C 
BRANCH  13  14
ATOM     14  C   UNL     1       9.241  43.957 155.386  1.00  0.00    -0.000 C 
BRANCH  14  15
ATOM     15  C   UNL     1       8.913  44.296 153.917  1.00  0.00    -0.000 C 
BRANCH  15  16
ATOM     16  C   UNL     1       9.430  45.675 153.473  1.00  0.00    -0.003 C 
ATOM     17  C   UNL     1      10.231  46.390 154.558  1.00  0.00     0.004 C 
ENDBRANCH  15  16
ENDBRANCH  14  15
ENDBRANCH  13  14
ENDBRANCH  12  13
ENDBRANCH  11  12
ENDBRANCH  10  11
ENDBRANCH   1  10
TORSDOF 13
ENDMDL
MODEL 8
REMARK VINA RESULT:    -2.828      1.199      1.992
REMARK INTER + INTRA:          -7.061
REMARK INTER:                  -5.068
REMARK INTRA:                  -1.993
REMARK UNBOUND:                -2.084
REMARK SMILES CCCCCCCCCCCCCCC(=O)[O-]
REMARK SMILES IDX 9 1 10 2 11 3 12 4 13 5 14 6 15 7 16 8 17 9 8 10 7 11 6 12
REMARK SMILES IDX 5 13 4 14 3 15 2 16 1 17
REMARK H PARENT
REMARK Flexibility Score: inf
ROOT
ATOM      1  C   UNL     1      10.482  44.099 153.198  1.00  0.00     0.000 C 
ENDROOT
BRANCH   1   2
ATOM      2  C   UNL     1      11.337  43.270 154.176  1.00  0.00     0.000 C 
BRANCH   2   3
ATOM      3  C   UNL     1      10.534  42.423 155.183  1.00  0.00     0.000 C 
BRANCH   3   4
ATOM      4  C   UNL     1       9.122  42.953 155.502  1.00  0.00     0.000 C 
BRANCH   4   5
ATOM      5  C   UNL     1       8.968  43.596 156.892  1.00  0.00     0.006 C 
BRANCH   5   6
ATOM      6  C   UNL     1       7.965  44.757 156.903  1.00  0.00     0.053 C 
BRANCH   6   7
ATOM      7  C   UNL     1       8.240  45.695 155.771  1.00  0.00     0.041 C 
ATOM      8  O   UNL     1       7.380  45.867 154.867  1.00  0.00    -0.550 OA
ATOM      9  O   UNL     1       9.426  46.417 155.739  1.00  0.00    -0.550 OA
ENDBRANCH   6   7
ENDBRANCH   5   6
ENDBRANCH   4   5
ENDBRANCH   3   4
ENDBRANCH   2   3
ENDBRANCH   1   2
BRANCH   1  10
ATOM     10  C   UNL     1      10.944  44.054 151.727  1.00  0.00     0.000 C 
BRANCH  10  11
ATOM     11  C   UNL     1      12.154  43.143 151.452  1.00  0.00    -0.000 C 
BRANCH  11  12
ATOM     12  C   UNL     1      12.064  42.421 150.100  1.00  0.00    -0.000 C 
BRANCH  12  13
ATOM     13  C   UNL     1      12.046  40.900 150.288  1.00  0.00    -0.000 C 
BRANCH  13  14
ATOM     14  C   UNL     1      11.797  40.529 151.758  1.00  0.00    -0.000 C 
BRANCH  14  15
ATOM     15  C   UNL     1      10.457  39.791 151.956  1.00  0.00    -0.000 C 
BRANCH  15  16
ATOM     16  C   UNL     1       9.242  40.730 152.034  1.00  0.00    -0.003 C 
ATOM     17  C   UNL     1       8.224  40.303 153.089  1.00  0.00     0.004 C 
ENDBRANCH  15  16
ENDBRANCH  14  15
ENDBRANCH  13  14
ENDBRANCH  12  13
ENDBRANCH  11  12
ENDBRANCH  10  11
ENDBRANCH   1  10
TORSDOF 13
ENDMDL
MODEL 9
REMARK VINA RESULT:    -2.805      1.490      3.375
REMARK INTER + INTRA:          -7.020
REMARK INTER:                  -5.228
REMARK INTRA:                  -1.792
REMARK UNBOUND:                -2.084
REMARK SMILES CCCCCCCCCCCCCCC(=O)[O-]
REMARK SMILES IDX 9 1 10 2 11 3 12 4 13 5 14 6 15 7 16 8 17 9 8 10 7 11 6 12
REMARK SMILES IDX 5 13 4 14 3 15 2 16 1 17
REMARK H PARENT
REMARK Flexibility Score: inf
ROOT
ATOM      1  C   UNL     1       8.934  42.656 154.950  1.00  0.00     0.000 C 
ENDROOT
BRANCH   1   2
ATOM      2  C   UNL     1       9.015  43.531 156.216  1.00  0.00     0.000 C 
BRANCH   2   3
ATOM      3  C   UNL     1       8.727  45.028 155.990  1.00  0.00     0.000 C 
BRANCH   3   4
ATOM      4  C   UNL     1       8.752  45.482 154.517  1.00  0.00     0.000 C 
BRANCH   4   5
ATOM      5  C   UNL     1      10.029  46.227 154.088  1.00  0.00     0.006 C 
BRANCH   5   6
ATOM      6  C   UNL     1       9.749  47.369 153.103  1.00  0.00     0.053 C 
BRANCH   6   7
ATOM      7  C   UNL     1       9.556  48.657 153.840  1.00  0.00     0.041 C 
ATOM      8  O   UNL     1       8.511  49.338 153.662  1.00  0.00    -0.550 OA
ATOM      9  O   UNL     1      10.505  49.081 154.760  1.00  0.00    -0.550 OA
ENDBRANCH   6   7
ENDBRANCH   5   6
ENDBRANCH   4   5
ENDBRANCH   3   4
ENDBRANCH   2   3
ENDBRANCH   1   2
BRANCH   1  10
ATOM     10  C   UNL     1      10.255  41.973 154.542  1.00  0.00     0.000 C 
BRANCH  10  11
ATOM     11  C   UNL     1      11.484  42.899 154.511  1.00  0.00    -0.000 C 
BRANCH  11  12
ATOM     12  C   UNL     1      12.157  42.955 153.131  1.00  0.00    -0.000 C 
BRANCH  12  13
ATOM     13  C   UNL     1      11.159  43.385 152.051  1.00  0.00    -0.000 C 
BRANCH  13  14
ATOM     14  C   UNL     1      10.991  42.290 150.986  1.00  0.00    -0.000 C 
BRANCH  14  15
ATOM     15  C   UNL     1      11.963  41.111 151.202  1.00  0.00    -0.000 C 
BRANCH  15  16
ATOM     16  C   UNL     1      11.256  39.768 151.450  1.00  0.00    -0.003 C 
ATOM     17  C   UNL     1       9.736  39.896 151.520  1.00  0.00     0.004 C 
ENDBRANCH  15  16
ENDBRANCH  14  15
ENDBRANCH  13  14
ENDBRANCH  12  13
ENDBRANCH  11  12
ENDBRANCH  10  11
ENDBRANCH   1  10
TORSDOF 13
ENDMDL
