MODEL 1
REMARK VINA RESULT:    -3.488      0.000      0.000
REMARK INTER + INTRA:          -5.088
REMARK INTER:                  -4.813
REMARK INTRA:                  -0.275
REMARK UNBOUND:                -0.275
REMARK SMILES CCCCCCCCO
REMARK SMILES IDX 5 1 4 2 3 3 2 4 1 5 6 6 7 7 8 8 9 9
REMARK H PARENT 9 10
REMARK Flexibility Score: inf
ROOT
ATOM      1  C   UNL     1     162.125 178.675 168.300  1.00  0.00     0.000 C 
ENDROOT
BRANCH   1   2
ATOM      2  C   UNL     1     162.820 178.317 169.620  1.00  0.00    -0.000 C 
BRANCH   2   3
ATOM      3  C   UNL     1     164.251 178.866 169.655  1.00  0.00    -0.000 C 
BRANCH   3   4
ATOM      4  C   UNL     1     164.913 178.760 168.276  1.00  0.00    -0.003 C 
ATOM      5  C   UNL     1     166.070 179.747 168.144  1.00  0.00     0.004 C 
ENDBRANCH   3   4
ENDBRANCH   2   3
ENDBRANCH   1   2
BRANCH   1   6
ATOM      6  C   UNL     1     160.609 178.817 168.498  1.00  0.00     0.002 C 
BRANCH   6   7
ATOM      7  C   UNL     1     160.052 177.861 169.568  1.00  0.00     0.028 C 
BRANCH   7   8
ATOM      8  C   UNL     1     159.098 178.542 170.561  1.00  0.00     0.156 C 
BRANCH   8   9
ATOM      9  O   UNL     1     159.737 178.798 171.783  1.00  0.00    -0.396 OA
ATOM     10  H   UNL     1     159.326 179.622 172.153  1.00  0.00     0.210 HD
ENDBRANCH   8   9
ENDBRANCH   7   8
ENDBRANCH   6   7
ENDBRANCH   1   6
TORSDOF 7
ENDMDL
MODEL 2
REMARK VINA RESULT:    -3.422      2.431      2.730
REMARK INTER + INTRA:          -4.997
REMARK INTER:                  -4.834
REMARK INTRA:                  -0.163
REMARK UNBOUND:                -0.275
REMARK SMILES CCCCCCCCO
REMARK SMILES IDX 5 1 4 2 3 3 2 4 1 5 6 6 7 7 8 8 9 9
REMARK H PARENT 9 10
REMARK Flexibility Score: inf
ROOT
ATOM      1  C   UNL     1     161.076 177.943 169.990  1.00  0.00     0.000 C 
ENDROOT
BRANCH   1   2
ATOM      2  C   UNL     1     162.016 178.611 168.978  1.00  0.00    -0.000 C 
BRANCH   2   3
ATOM      3  C   UNL     1     163.449 178.684 169.522  1.00  0.00    -0.000 C 
BRANCH   3   4
ATOM      4  C   UNL     1     164.470 178.379 168.419  1.00  0.00    -0.003 C 
ATOM      5  C   UNL     1     165.574 179.432 168.385  1.00  0.00     0.004 C 
ENDBRANCH   3   4
ENDBRANCH   2   3
ENDBRANCH   1   2
BRANCH   1   6
ATOM      6  C   UNL     1     159.682 177.728 169.385  1.00  0.00     0.002 C 
BRANCH   6   7
ATOM      7  C   UNL     1     159.722 177.431 167.876  1.00  0.00     0.028 C 
BRANCH   7   8
ATOM      8  C   UNL     1     159.121 176.067 167.503  1.00  0.00     0.156 C 
BRANCH   8   9
ATOM      9  O   UNL     1     159.952 175.375 166.610  1.00  0.00    -0.396 OA
ATOM     10  H   UNL     1     159.755 175.729 165.705  1.00  0.00     0.210 HD
ENDBRANCH   8   9
ENDBRANCH   7   8
ENDBRANCH   6   7
ENDBRANCH   1   6
TORSDOF 7
ENDMDL
MODEL 3
REMARK VINA RESULT:    -3.327     17.016     17.860
REMARK INTER + INTRA:          -4.867
REMARK INTER:                  -4.539
REMARK INTRA:                  -0.328
REMARK UNBOUND:                -0.275
REMARK SMILES CCCCCCCCO
REMARK SMILES IDX 5 1 4 2 3 3 2 4 1 5 6 6 7 7 8 8 9 9
REMARK H PARENT 9 10
REMARK Flexibility Score: inf
ROOT
ATOM      1  C   UNL     1     161.773 161.700 167.395  1.00  0.00     0.000 C 
ENDROOT
BRANCH   1   2
ATOM      2  C   UNL     1     161.517 160.225 167.057  1.00  0.00    -0.000 C 
BRANCH   2   3
ATOM      3  C   UNL     1     160.791 160.086 165.713  1.00  0.00    -0.000 C 
BRANCH   3   4
ATOM      4  C   UNL     1     160.040 161.376 165.359  1.00  0.00    -0.003 C 
ATOM      5  C   UNL     1     160.377 161.838 163.944  1.00  0.00     0.004 C 
ENDBRANCH   3   4
ENDBRANCH   2   3
ENDBRANCH   1   2
BRANCH   1   6
ATOM      6  C   UNL     1     161.178 162.061 168.763  1.00  0.00     0.002 C 
BRANCH   6   7
ATOM      7  C   UNL     1     160.621 160.840 169.516  1.00  0.00     0.028 C 
BRANCH   7   8
ATOM      8  C   UNL     1     159.130 160.964 169.867  1.00  0.00     0.156 C 
BRANCH   8   9
ATOM      9  O   UNL     1     158.880 162.125 170.613  1.00  0.00    -0.396 OA
ATOM     10  H   UNL     1     158.843 161.849 171.565  1.00  0.00     0.210 HD
ENDBRANCH   8   9
ENDBRANCH   7   8
ENDBRANCH   6   7
ENDBRANCH   1   6
TORSDOF 7
ENDMDL
MODEL 4
REMARK VINA RESULT:    -3.248      2.822      3.354
REMARK INTER + INTRA:          -4.757
REMARK INTER:                  -4.532
REMARK INTRA:                  -0.225
REMARK UNBOUND:                -0.275
REMARK SMILES CCCCCCCCO
REMARK SMILES IDX 5 1 4 2 3 3 2 4 1 5 6 6 7 7 8 8 9 9
REMARK H PARENT 9 10
REMARK Flexibility Score: inf
ROOT
ATOM      1  C   UNL     1     162.393 178.504 167.547  1.00  0.00     0.000 C 
ENDROOT
BRANCH   1   2
ATOM      2  C   UNL     1     162.557 178.571 169.071  1.00  0.00    -0.000 C 
BRANCH   2   3
ATOM      3  C   UNL     1     164.024 178.795 169.457  1.00  0.00    -0.000 C 
BRANCH   3   4
ATOM      4  C   UNL     1     164.935 178.707 168.227  1.00  0.00    -0.003 C 
ATOM      5  C   UNL     1     166.026 179.773 168.273  1.00  0.00     0.004 C 
ENDBRANCH   3   4
ENDBRANCH   2   3
ENDBRANCH   1   2
BRANCH   1   6
ATOM      6  C   UNL     1     160.936 178.207 167.164  1.00  0.00     0.002 C 
BRANCH   6   7
ATOM      7  C   UNL     1     160.734 178.053 165.647  1.00  0.00     0.028 C 
BRANCH   7   8
ATOM      8  C   UNL     1     161.169 176.682 165.106  1.00  0.00     0.156 C 
BRANCH   8   9
ATOM      9  O   UNL     1     160.859 175.658 166.014  1.00  0.00    -0.396 OA
ATOM     10  H   UNL     1     161.541 175.699 166.733  1.00  0.00     0.210 HD
ENDBRANCH   8   9
ENDBRANCH   7   8
ENDBRANCH   6   7
ENDBRANCH   1   6
TORSDOF 7
ENDMDL
MODEL 5
REMARK VINA RESULT:    -3.209     21.833     23.092
REMARK INTER + INTRA:          -4.704
REMARK INTER:                  -4.255
REMARK INTRA:                  -0.449
REMARK UNBOUND:                -0.275
REMARK SMILES CCCCCCCCO
REMARK SMILES IDX 5 1 4 2 3 3 2 4 1 5 6 6 7 7 8 8 9 9
REMARK H PARENT 9 10
REMARK Flexibility Score: inf
ROOT
ATOM      1  C   UNL     1     177.415 163.490 168.442  1.00  0.00     0.000 C 
ENDROOT
BRANCH   1   2
ATOM      2  C   UNL     1     178.581 163.011 167.567  1.00  0.00    -0.000 C 
BRANCH   2   3
ATOM      3  C   UNL     1     178.180 162.969 166.088  1.00  0.00    -0.000 C 
BRANCH   3   4
ATOM      4  C   UNL     1     177.475 161.651 165.748  1.00  0.00    -0.003 C 
ATOM      5  C   UNL     1     178.319 160.451 166.167  1.00  0.00     0.004 C 
ENDBRANCH   3   4
ENDBRANCH   2   3
ENDBRANCH   1   2
BRANCH   1   6
ATOM      6  C   UNL     1     176.927 162.368 169.370  1.00  0.00     0.002 C 
BRANCH   6   7
ATOM      7  C   UNL     1     178.040 161.373 169.743  1.00  0.00     0.028 C 
BRANCH   7   8
ATOM      8  C   UNL     1     178.012 160.948 171.220  1.00  0.00     0.156 C 
BRANCH   8   9
ATOM      9  O   UNL     1     176.710 161.007 171.739  1.00  0.00    -0.396 OA
ATOM     10  H   UNL     1     176.276 161.800 171.331  1.00  0.00     0.210 HD
ENDBRANCH   8   9
ENDBRANCH   7   8
ENDBRANCH   6   7
ENDBRANCH   1   6
TORSDOF 7
ENDMDL
MODEL 6
REMARK VINA RESULT:    -3.197     21.829     22.785
REMARK INTER + INTRA:          -4.687
REMARK INTER:                  -4.415
REMARK INTRA:                  -0.272
REMARK UNBOUND:                -0.275
REMARK SMILES CCCCCCCCO
REMARK SMILES IDX 5 1 4 2 3 3 2 4 1 5 6 6 7 7 8 8 9 9
REMARK H PARENT 9 10
REMARK Flexibility Score: inf
ROOT
ATOM      1  C   UNL     1     177.625 163.642 167.276  1.00  0.00     0.000 C 
ENDROOT
BRANCH   1   2
ATOM      2  C   UNL     1     178.872 162.904 166.770  1.00  0.00    -0.000 C 
BRANCH   2   3
ATOM      3  C   UNL     1     178.672 162.408 165.332  1.00  0.00    -0.000 C 
BRANCH   3   4
ATOM      4  C   UNL     1     177.368 161.613 165.202  1.00  0.00    -0.003 C 
ATOM      5  C   UNL     1     176.963 161.454 163.739  1.00  0.00     0.004 C 
ENDBRANCH   3   4
ENDBRANCH   2   3
ENDBRANCH   1   2
BRANCH   1   6
ATOM      6  C   UNL     1     177.550 163.606 168.809  1.00  0.00     0.002 C 
BRANCH   6   7
ATOM      7  C   UNL     1     176.848 162.346 169.345  1.00  0.00     0.028 C 
BRANCH   7   8
ATOM      8  C   UNL     1     177.645 161.621 170.441  1.00  0.00     0.156 C 
BRANCH   8   9
ATOM      9  O   UNL     1     176.804 161.194 171.480  1.00  0.00    -0.396 OA
ATOM     10  H   UNL     1     176.454 160.304 171.216  1.00  0.00     0.210 HD
ENDBRANCH   8   9
ENDBRANCH   7   8
ENDBRANCH   6   7
ENDBRANCH   1   6
TORSDOF 7
ENDMDL
MODEL 7
REMARK VINA RESULT:    -3.128     21.906     22.897
REMARK INTER + INTRA:          -4.592
REMARK INTER:                  -4.303
REMARK INTRA:                  -0.288
REMARK UNBOUND:                -0.275
REMARK SMILES CCCCCCCCO
REMARK SMILES IDX 5 1 4 2 3 3 2 4 1 5 6 6 7 7 8 8 9 9
REMARK H PARENT 9 10
REMARK Flexibility Score: inf
ROOT
ATOM      1  C   UNL     1     177.575 163.598 167.260  1.00  0.00     0.000 C 
ENDROOT
BRANCH   1   2
ATOM      2  C   UNL     1     177.734 163.477 168.781  1.00  0.00    -0.000 C 
BRANCH   2   3
ATOM      3  C   UNL     1     176.592 162.654 169.390  1.00  0.00    -0.000 C 
BRANCH   3   4
ATOM      4  C   UNL     1     177.104 161.765 170.530  1.00  0.00    -0.003 C 
ATOM      5  C   UNL     1     178.627 161.808 170.620  1.00  0.00     0.004 C 
ENDBRANCH   3   4
ENDBRANCH   2   3
ENDBRANCH   1   2
BRANCH   1   6
ATOM      6  C   UNL     1     177.705 162.225 166.584  1.00  0.00     0.002 C 
BRANCH   6   7
ATOM      7  C   UNL     1     178.262 162.312 165.152  1.00  0.00     0.028 C 
BRANCH   7   8
ATOM      8  C   UNL     1     177.425 161.540 164.121  1.00  0.00     0.156 C 
BRANCH   8   9
ATOM      9  O   UNL     1     176.201 161.127 164.668  1.00  0.00    -0.396 OA
ATOM     10  H   UNL     1     176.128 160.152 164.500  1.00  0.00     0.210 HD
ENDBRANCH   8   9
ENDBRANCH   7   8
ENDBRANCH   6   7
ENDBRANCH   1   6
TORSDOF 7
ENDMDL
MODEL 8
REMARK VINA RESULT:    -3.051      2.332      3.204
REMARK INTER + INTRA:          -4.485
REMARK INTER:                  -4.239
REMARK INTRA:                  -0.246
REMARK UNBOUND:                -0.275
REMARK SMILES CCCCCCCCO
REMARK SMILES IDX 5 1 4 2 3 3 2 4 1 5 6 6 7 7 8 8 9 9
REMARK H PARENT 9 10
REMARK Flexibility Score: inf
ROOT
ATOM      1  C   UNL     1     164.159 178.286 168.216  1.00  0.00     0.000 C 
ENDROOT
BRANCH   1   2
ATOM      2  C   UNL     1     163.410 178.090 166.890  1.00  0.00    -0.000 C 
BRANCH   2   3
ATOM      3  C   UNL     1     163.918 179.066 165.822  1.00  0.00    -0.000 C 
BRANCH   3   4
ATOM      4  C   UNL     1     163.784 178.462 164.419  1.00  0.00    -0.003 C 
ATOM      5  C   UNL     1     162.540 177.585 164.314  1.00  0.00     0.004 C 
ENDBRANCH   3   4
ENDBRANCH   2   3
ENDBRANCH   1   2
BRANCH   1   6
ATOM      6  C   UNL     1     163.180 178.587 169.359  1.00  0.00     0.002 C 
BRANCH   6   7
ATOM      7  C   UNL     1     161.719 178.685 168.888  1.00  0.00     0.028 C 
BRANCH   7   8
ATOM      8  C   UNL     1     160.736 177.900 169.772  1.00  0.00     0.156 C 
BRANCH   8   9
ATOM      9  O   UNL     1     160.950 178.171 171.131  1.00  0.00    -0.396 OA
ATOM     10  H   UNL     1     161.873 178.526 171.209  1.00  0.00     0.210 HD
ENDBRANCH   8   9
ENDBRANCH   7   8
ENDBRANCH   6   7
ENDBRANCH   1   6
TORSDOF 7
ENDMDL
MODEL 9
REMARK VINA RESULT:    -3.003      2.782      5.150
REMARK INTER + INTRA:          -4.419
REMARK INTER:                  -4.208
REMARK INTRA:                  -0.212
REMARK UNBOUND:                -0.275
REMARK SMILES CCCCCCCCO
REMARK SMILES IDX 5 1 4 2 3 3 2 4 1 5 6 6 7 7 8 8 9 9
REMARK H PARENT 9 10
REMARK Flexibility Score: inf
ROOT
ATOM      1  C   UNL     1     161.408 177.888 169.938  1.00  0.00     0.000 C 
ENDROOT
BRANCH   1   2
ATOM      2  C   UNL     1     159.947 178.224 169.614  1.00  0.00    -0.000 C 
BRANCH   2   3
ATOM      3  C   UNL     1     159.262 177.061 168.886  1.00  0.00    -0.000 C 
BRANCH   3   4
ATOM      4  C   UNL     1     159.267 177.283 167.369  1.00  0.00    -0.003 C 
ATOM      5  C   UNL     1     159.480 175.970 166.621  1.00  0.00     0.004 C 
ENDBRANCH   3   4
ENDBRANCH   2   3
ENDBRANCH   1   2
BRANCH   1   6
ATOM      6  C   UNL     1     162.367 178.664 169.023  1.00  0.00     0.002 C 
BRANCH   6   7
ATOM      7  C   UNL     1     163.812 178.688 169.551  1.00  0.00     0.028 C 
BRANCH   7   8
ATOM      8  C   UNL     1     164.870 178.690 168.437  1.00  0.00     0.156 C 
BRANCH   8   9
ATOM      9  O   UNL     1     165.637 179.864 168.469  1.00  0.00    -0.396 OA
ATOM     10  H   UNL     1     166.495 179.657 168.016  1.00  0.00     0.210 HD
ENDBRANCH   8   9
ENDBRANCH   7   8
ENDBRANCH   6   7
ENDBRANCH   1   6
TORSDOF 7
ENDMDL
