MODEL 1
REMARK VINA RESULT:    -4.691      0.000      0.000
REMARK INTER + INTRA:         -10.319
REMARK INTER:                  -8.805
REMARK INTRA:                  -1.514
REMARK UNBOUND:                -1.514
REMARK SMILES O=C([O-])CCCCCCCCCCCCCCC(=O)[O-]
REMARK SMILES IDX 10 1 9 2 8 3 7 4 6 5 5 6 4 7 2 8 1 9 3 10 11 11 12 12 13 13
REMARK SMILES IDX 14 14 15 15 16 16 17 17 18 18 19 19 20 20
REMARK H PARENT
REMARK Flexibility Score: inf
ROOT
ATOM      1  C   UNL     1      11.162   7.418  26.565  1.00  0.00     0.000 C 
ENDROOT
BRANCH   1   2
ATOM      2  C   UNL     1      12.298   6.394  26.703  1.00  0.00     0.000 C 
BRANCH   2   3
ATOM      3  C   UNL     1      13.338   6.572  25.587  1.00  0.00     0.000 C 
BRANCH   3   4
ATOM      4  C   UNL     1      12.876   7.544  24.486  1.00  0.00     0.000 C 
BRANCH   4   5
ATOM      5  C   UNL     1      13.978   8.451  23.907  1.00  0.00     0.000 C 
BRANCH   5   6
ATOM      6  C   UNL     1      14.834   9.198  24.949  1.00  0.00     0.006 C 
BRANCH   6   7
ATOM      7  C   UNL     1      16.351   9.066  24.721  1.00  0.00     0.053 C 
BRANCH   7   8
ATOM      8  C   UNL     1      17.025   8.274  25.800  1.00  0.00     0.041 C 
ATOM      9  O   UNL     1      18.217   7.893  25.659  1.00  0.00    -0.550 OA
ATOM     10  O   UNL     1      16.326   7.925  26.948  1.00  0.00    -0.550 OA
ENDBRANCH   7   8
ENDBRANCH   6   7
ENDBRANCH   5   6
ENDBRANCH   4   5
ENDBRANCH   3   4
ENDBRANCH   2   3
ENDBRANCH   1   2
BRANCH   1  11
ATOM     11  C   UNL     1      10.938   8.232  27.848  1.00  0.00     0.000 C 
BRANCH  11  12
ATOM     12  C   UNL     1       9.503   8.095  28.392  1.00  0.00     0.000 C 
BRANCH  12  13
ATOM     13  C   UNL     1       9.402   8.435  29.888  1.00  0.00     0.000 C 
BRANCH  13  14
ATOM     14  C   UNL     1       8.874   7.257  30.725  1.00  0.00     0.000 C 
BRANCH  14  15
ATOM     15  C   UNL     1       9.949   6.189  30.999  1.00  0.00     0.000 C 
BRANCH  15  16
ATOM     16  C   UNL     1       9.631   4.785  30.452  1.00  0.00     0.006 C 
BRANCH  16  17
ATOM     17  C   UNL     1      10.526   4.384  29.274  1.00  0.00     0.053 C 
BRANCH  17  18
ATOM     18  C   UNL     1       9.699   4.125  28.054  1.00  0.00     0.041 C 
ATOM     19  O   UNL     1       8.859   4.978  27.666  1.00  0.00    -0.550 OA
ATOM     20  O   UNL     1       9.892   2.964  27.316  1.00  0.00    -0.550 OA
ENDBRANCH  17  18
ENDBRANCH  16  17
ENDBRANCH  15  16
ENDBRANCH  14  15
ENDBRANCH  13  14
ENDBRANCH  12  13
ENDBRANCH  11  12
ENDBRANCH   1  11
TORSDOF 15
ENDMDL
MODEL 2
REMARK VINA RESULT:    -4.666      1.223      2.116
REMARK INTER + INTRA:         -10.271
REMARK INTER:                  -9.098
REMARK INTRA:                  -1.173
REMARK UNBOUND:                -1.514
REMARK SMILES O=C([O-])CCCCCCCCCCCCCCC(=O)[O-]
REMARK SMILES IDX 10 1 9 2 8 3 7 4 6 5 5 6 4 7 2 8 1 9 3 10 11 11 12 12 13 13
REMARK SMILES IDX 14 14 15 15 16 16 17 17 18 18 19 19 20 20
REMARK H PARENT
REMARK Flexibility Score: inf
ROOT
ATOM      1  C   UNL     1      12.964   7.444  26.183  1.00  0.00     0.000 C 
ENDROOT
BRANCH   1   2
ATOM      2  C   UNL     1      12.515   7.581  24.721  1.00  0.00     0.000 C 
BRANCH   2   3
ATOM      3  C   UNL     1      13.124   8.833  24.073  1.00  0.00     0.000 C 
BRANCH   3   4
ATOM      4  C   UNL     1      14.354   8.521  23.201  1.00  0.00     0.000 C 
BRANCH   4   5
ATOM      5  C   UNL     1      15.701   8.507  23.948  1.00  0.00     0.000 C 
BRANCH   5   6
ATOM      6  C   UNL     1      15.967   9.724  24.854  1.00  0.00     0.006 C 
BRANCH   6   7
ATOM      7  C   UNL     1      17.032   9.474  25.938  1.00  0.00     0.053 C 
BRANCH   7   8
ATOM      8  C   UNL     1      18.199   8.687  25.423  1.00  0.00     0.041 C 
ATOM      9  O   UNL     1      18.401   7.512  25.827  1.00  0.00    -0.550 OA
ATOM     10  O   UNL     1      19.086   9.264  24.522  1.00  0.00    -0.550 OA
ENDBRANCH   7   8
ENDBRANCH   6   7
ENDBRANCH   5   6
ENDBRANCH   4   5
ENDBRANCH   3   4
ENDBRANCH   2   3
ENDBRANCH   1   2
BRANCH   1  11
ATOM     11  C   UNL     1      12.041   6.531  27.004  1.00  0.00     0.000 C 
BRANCH  11  12
ATOM     12  C   UNL     1      10.561   6.944  26.904  1.00  0.00     0.000 C 
BRANCH  12  13
ATOM     13  C   UNL     1      10.132   7.889  28.038  1.00  0.00     0.000 C 
BRANCH  13  14
ATOM     14  C   UNL     1       8.904   7.370  28.806  1.00  0.00     0.000 C 
BRANCH  14  15
ATOM     15  C   UNL     1       9.061   7.485  30.334  1.00  0.00     0.000 C 
BRANCH  15  16
ATOM     16  C   UNL     1       9.790   6.307  31.007  1.00  0.00     0.006 C 
BRANCH  16  17
ATOM     17  C   UNL     1       9.395   4.945  30.423  1.00  0.00     0.053 C 
BRANCH  17  18
ATOM     18  C   UNL     1      10.515   4.383  29.605  1.00  0.00     0.041 C 
ATOM     19  O   UNL     1      11.706   4.507  29.994  1.00  0.00    -0.550 OA
ATOM     20  O   UNL     1      10.241   3.677  28.441  1.00  0.00    -0.550 OA
ENDBRANCH  17  18
ENDBRANCH  16  17
ENDBRANCH  15  16
ENDBRANCH  14  15
ENDBRANCH  13  14
ENDBRANCH  12  13
ENDBRANCH  11  12
ENDBRANCH   1  11
TORSDOF 15
ENDMDL
MODEL 3
REMARK VINA RESULT:    -4.630      1.903      3.601
REMARK INTER + INTRA:         -10.204
REMARK INTER:                  -8.189
REMARK INTRA:                  -2.015
REMARK UNBOUND:                -1.514
REMARK SMILES O=C([O-])CCCCCCCCCCCCCCC(=O)[O-]
REMARK SMILES IDX 10 1 9 2 8 3 7 4 6 5 5 6 4 7 2 8 1 9 3 10 11 11 12 12 13 13
REMARK SMILES IDX 14 14 15 15 16 16 17 17 18 18 19 19 20 20
REMARK H PARENT
REMARK Flexibility Score: inf
ROOT
ATOM      1  C   UNL     1      12.086   7.552  22.514  1.00  0.00     0.000 C 
ENDROOT
BRANCH   1   2
ATOM      2  C   UNL     1      13.297   8.210  21.836  1.00  0.00     0.000 C 
BRANCH   2   3
ATOM      3  C   UNL     1      13.575   9.597  22.433  1.00  0.00     0.000 C 
BRANCH   3   4
ATOM      4  C   UNL     1      14.888   9.654  23.236  1.00  0.00     0.000 C 
BRANCH   4   5
ATOM      5  C   UNL     1      14.756   9.318  24.733  1.00  0.00     0.000 C 
BRANCH   5   6
ATOM      6  C   UNL     1      15.299   7.938  25.152  1.00  0.00     0.006 C 
BRANCH   6   7
ATOM      7  C   UNL     1      14.221   6.982  25.697  1.00  0.00     0.053 C 
BRANCH   7   8
ATOM      8  C   UNL     1      14.430   6.649  27.143  1.00  0.00     0.041 C 
ATOM      9  O   UNL     1      15.360   7.194  27.793  1.00  0.00    -0.550 OA
ATOM     10  O   UNL     1      13.618   5.709  27.766  1.00  0.00    -0.550 OA
ENDBRANCH   7   8
ENDBRANCH   6   7
ENDBRANCH   5   6
ENDBRANCH   4   5
ENDBRANCH   3   4
ENDBRANCH   2   3
ENDBRANCH   1   2
BRANCH   1  11
ATOM     11  C   UNL     1      11.198   8.565  23.254  1.00  0.00     0.000 C 
BRANCH  11  12
ATOM     12  C   UNL     1      10.800   8.085  24.662  1.00  0.00     0.000 C 
BRANCH  12  13
ATOM     13  C   UNL     1      11.217   9.073  25.764  1.00  0.00     0.000 C 
BRANCH  13  14
ATOM     14  C   UNL     1      10.957   8.522  27.177  1.00  0.00     0.000 C 
BRANCH  14  15
ATOM     15  C   UNL     1      10.588   7.027  27.179  1.00  0.00     0.000 C 
BRANCH  15  16
ATOM     16  C   UNL     1       9.178   6.702  27.707  1.00  0.00     0.006 C 
BRANCH  16  17
ATOM     17  C   UNL     1       8.970   5.207  27.979  1.00  0.00     0.053 C 
BRANCH  17  18
ATOM     18  C   UNL     1       9.523   4.839  29.320  1.00  0.00     0.041 C 
ATOM     19  O   UNL     1      10.178   3.773  29.465  1.00  0.00    -0.550 OA
ATOM     20  O   UNL     1       9.360   5.698  30.400  1.00  0.00    -0.550 OA
ENDBRANCH  17  18
ENDBRANCH  16  17
ENDBRANCH  15  16
ENDBRANCH  14  15
ENDBRANCH  13  14
ENDBRANCH  12  13
ENDBRANCH  11  12
ENDBRANCH   1  11
TORSDOF 15
ENDMDL
MODEL 4
REMARK VINA RESULT:    -4.629      1.888      3.219
REMARK INTER + INTRA:         -10.203
REMARK INTER:                  -8.554
REMARK INTRA:                  -1.649
REMARK UNBOUND:                -1.514
REMARK SMILES O=C([O-])CCCCCCCCCCCCCCC(=O)[O-]
REMARK SMILES IDX 10 1 9 2 8 3 7 4 6 5 5 6 4 7 2 8 1 9 3 10 11 11 12 12 13 13
REMARK SMILES IDX 14 14 15 15 16 16 17 17 18 18 19 19 20 20
REMARK H PARENT
REMARK Flexibility Score: inf
ROOT
ATOM      1  C   UNL     1      11.357   7.114  23.579  1.00  0.00     0.000 C 
ENDROOT
BRANCH   1   2
ATOM      2  C   UNL     1      11.530   7.273  22.061  1.00  0.00     0.000 C 
BRANCH   2   3
ATOM      3  C   UNL     1      12.383   8.507  21.731  1.00  0.00     0.000 C 
BRANCH   3   4
ATOM      4  C   UNL     1      13.896   8.220  21.773  1.00  0.00     0.000 C 
BRANCH   4   5
ATOM      5  C   UNL     1      14.640   8.802  22.989  1.00  0.00     0.000 C 
BRANCH   5   6
ATOM      6  C   UNL     1      15.359   7.771  23.880  1.00  0.00     0.006 C 
BRANCH   6   7
ATOM      7  C   UNL     1      15.978   8.373  25.156  1.00  0.00     0.053 C 
BRANCH   7   8
ATOM      8  C   UNL     1      17.467   8.514  25.058  1.00  0.00     0.041 C 
ATOM      9  O   UNL     1      18.223   7.669  25.603  1.00  0.00    -0.550 OA
ATOM     10  O   UNL     1      18.021   9.601  24.393  1.00  0.00    -0.550 OA
ENDBRANCH   7   8
ENDBRANCH   6   7
ENDBRANCH   5   6
ENDBRANCH   4   5
ENDBRANCH   3   4
ENDBRANCH   2   3
ENDBRANCH   1   2
BRANCH   1  11
ATOM     11  C   UNL     1      10.935   8.422  24.267  1.00  0.00     0.000 C 
BRANCH  11  12
ATOM     12  C   UNL     1      11.859   8.797  25.440  1.00  0.00     0.000 C 
BRANCH  12  13
ATOM     13  C   UNL     1      12.377   7.568  26.204  1.00  0.00     0.000 C 
BRANCH  13  14
ATOM     14  C   UNL     1      11.382   7.073  27.268  1.00  0.00     0.000 C 
BRANCH  14  15
ATOM     15  C   UNL     1      11.613   5.604  27.667  1.00  0.00     0.000 C 
BRANCH  15  16
ATOM     16  C   UNL     1      10.449   4.648  27.344  1.00  0.00     0.006 C 
BRANCH  16  17
ATOM     17  C   UNL     1       9.266   4.798  28.309  1.00  0.00     0.053 C 
BRANCH  17  18
ATOM     18  C   UNL     1       9.738   4.734  29.727  1.00  0.00     0.041 C 
ATOM     19  O   UNL     1      10.216   3.664  30.188  1.00  0.00    -0.550 OA
ATOM     20  O   UNL     1       9.699   5.870  30.525  1.00  0.00    -0.550 OA
ENDBRANCH  17  18
ENDBRANCH  16  17
ENDBRANCH  15  16
ENDBRANCH  14  15
ENDBRANCH  13  14
ENDBRANCH  12  13
ENDBRANCH  11  12
ENDBRANCH   1  11
TORSDOF 15
ENDMDL
MODEL 5
REMARK VINA RESULT:    -4.623      2.745      7.515
REMARK INTER + INTRA:         -10.192
REMARK INTER:                  -8.783
REMARK INTRA:                  -1.409
REMARK UNBOUND:                -1.514
REMARK SMILES O=C([O-])CCCCCCCCCCCCCCC(=O)[O-]
REMARK SMILES IDX 10 1 9 2 8 3 7 4 6 5 5 6 4 7 2 8 1 9 3 10 11 11 12 12 13 13
REMARK SMILES IDX 14 14 15 15 16 16 17 17 18 18 19 19 20 20
REMARK H PARENT
REMARK Flexibility Score: inf
ROOT
ATOM      1  C   UNL     1      11.815   7.227  25.501  1.00  0.00     0.000 C 
ENDROOT
BRANCH   1   2
ATOM      2  C   UNL     1      11.596   7.289  27.020  1.00  0.00     0.000 C 
BRANCH   2   3
ATOM      3  C   UNL     1      10.099   7.280  27.360  1.00  0.00     0.000 C 
BRANCH   3   4
ATOM      4  C   UNL     1       9.778   8.009  28.678  1.00  0.00     0.000 C 
BRANCH   4   5
ATOM      5  C   UNL     1       8.891   7.223  29.663  1.00  0.00     0.000 C 
BRANCH   5   6
ATOM      6  C   UNL     1       9.645   6.486  30.787  1.00  0.00     0.006 C 
BRANCH   6   7
ATOM      7  C   UNL     1       9.618   4.952  30.654  1.00  0.00     0.053 C 
BRANCH   7   8
ATOM      8  C   UNL     1      10.571   4.450  29.612  1.00  0.00     0.041 C 
ATOM      9  O   UNL     1      11.803   4.688  29.711  1.00  0.00    -0.550 OA
ATOM     10  O   UNL     1      10.095   3.750  28.511  1.00  0.00    -0.550 OA
ENDBRANCH   7   8
ENDBRANCH   6   7
ENDBRANCH   5   6
ENDBRANCH   4   5
ENDBRANCH   3   4
ENDBRANCH   2   3
ENDBRANCH   1   2
BRANCH   1  11
ATOM     11  C   UNL     1      13.185   6.641  25.124  1.00  0.00     0.000 C 
BRANCH  11  12
ATOM     12  C   UNL     1      14.347   7.337  25.857  1.00  0.00     0.000 C 
BRANCH  12  13
ATOM     13  C   UNL     1      14.713   8.694  25.233  1.00  0.00     0.000 C 
BRANCH  13  14
ATOM     14  C   UNL     1      15.145   8.569  23.761  1.00  0.00     0.000 C 
BRANCH  14  15
ATOM     15  C   UNL     1      14.734   9.786  22.911  1.00  0.00     0.000 C 
BRANCH  15  16
ATOM     16  C   UNL     1      13.911   9.456  21.652  1.00  0.00     0.006 C 
BRANCH  16  17
ATOM     17  C   UNL     1      13.607   7.959  21.510  1.00  0.00     0.053 C 
BRANCH  17  18
ATOM     18  C   UNL     1      12.131   7.719  21.565  1.00  0.00     0.041 C 
ATOM     19  O   UNL     1      11.635   6.700  21.016  1.00  0.00    -0.550 OA
ATOM     20  O   UNL     1      11.310   8.590  22.268  1.00  0.00    -0.550 OA
ENDBRANCH  17  18
ENDBRANCH  16  17
ENDBRANCH  15  16
ENDBRANCH  14  15
ENDBRANCH  13  14
ENDBRANCH  12  13
ENDBRANCH  11  12
ENDBRANCH   1  11
TORSDOF 15
ENDMDL
MODEL 6
REMARK VINA RESULT:    -4.619      1.754      7.727
REMARK INTER + INTRA:         -10.184
REMARK INTER:                  -8.807
REMARK INTRA:                  -1.377
REMARK UNBOUND:                -1.514
REMARK SMILES O=C([O-])CCCCCCCCCCCCCCC(=O)[O-]
REMARK SMILES IDX 10 1 9 2 8 3 7 4 6 5 5 6 4 7 2 8 1 9 3 10 11 11 12 12 13 13
REMARK SMILES IDX 14 14 15 15 16 16 17 17 18 18 19 19 20 20
REMARK H PARENT
REMARK Flexibility Score: inf
ROOT
ATOM      1  C   UNL     1      11.500   7.292  24.469  1.00  0.00     0.000 C 
ENDROOT
BRANCH   1   2
ATOM      2  C   UNL     1      12.418   6.526  25.432  1.00  0.00     0.000 C 
BRANCH   2   3
ATOM      3  C   UNL     1      11.993   6.747  26.890  1.00  0.00     0.000 C 
BRANCH   3   4
ATOM      4  C   UNL     1      10.555   7.281  27.022  1.00  0.00     0.000 C 
BRANCH   4   5
ATOM      5  C   UNL     1       9.600   6.398  27.848  1.00  0.00     0.000 C 
BRANCH   5   6
ATOM      6  C   UNL     1       9.501   4.928  27.395  1.00  0.00     0.006 C 
BRANCH   6   7
ATOM      7  C   UNL     1       9.759   3.910  28.521  1.00  0.00     0.053 C 
BRANCH   7   8
ATOM      8  C   UNL     1      10.365   4.542  29.737  1.00  0.00     0.041 C 
ATOM      9  O   UNL     1      11.616   4.638  29.847  1.00  0.00    -0.550 OA
ATOM     10  O   UNL     1       9.550   4.994  30.768  1.00  0.00    -0.550 OA
ENDBRANCH   7   8
ENDBRANCH   6   7
ENDBRANCH   5   6
ENDBRANCH   4   5
ENDBRANCH   3   4
ENDBRANCH   2   3
ENDBRANCH   1   2
BRANCH   1  11
ATOM     11  C   UNL     1      11.740   6.919  22.998  1.00  0.00     0.000 C 
BRANCH  11  12
ATOM     12  C   UNL     1      12.080   8.141  22.125  1.00  0.00     0.000 C 
BRANCH  12  13
ATOM     13  C   UNL     1      13.589   8.289  21.876  1.00  0.00     0.000 C 
BRANCH  13  14
ATOM     14  C   UNL     1      14.080   9.735  22.067  1.00  0.00     0.000 C 
BRANCH  14  15
ATOM     15  C   UNL     1      15.145   9.865  23.172  1.00  0.00     0.000 C 
BRANCH  15  16
ATOM     16  C   UNL     1      14.868   9.046  24.447  1.00  0.00     0.006 C 
BRANCH  16  17
ATOM     17  C   UNL     1      15.906   7.943  24.687  1.00  0.00     0.053 C 
BRANCH  17  18
ATOM     18  C   UNL     1      17.053   8.471  25.489  1.00  0.00     0.041 C 
ATOM     19  O   UNL     1      18.202   7.974  25.353  1.00  0.00    -0.550 OA
ATOM     20  O   UNL     1      16.866   9.546  26.347  1.00  0.00    -0.550 OA
ENDBRANCH  17  18
ENDBRANCH  16  17
ENDBRANCH  15  16
ENDBRANCH  14  15
ENDBRANCH  13  14
ENDBRANCH  12  13
ENDBRANCH  11  12
ENDBRANCH   1  11
TORSDOF 15
ENDMDL
MODEL 7
REMARK VINA RESULT:    -4.588     11.580     13.967
REMARK INTER + INTRA:         -10.125
REMARK INTER:                  -8.004
REMARK INTRA:                  -2.121
REMARK UNBOUND:                -1.514
REMARK SMILES O=C([O-])CCCCCCCCCCCCCCC(=O)[O-]
REMARK SMILES IDX 10 1 9 2 8 3 7 4 6 5 5 6 4 7 2 8 1 9 3 10 11 11 12 12 13 13
REMARK SMILES IDX 14 14 15 15 16 16 17 17 18 18 19 19 20 20
REMARK H PARENT
REMARK Flexibility Score: inf
ROOT
ATOM      1  C   UNL     1       3.716   6.823  16.909  1.00  0.00     0.000 C 
ENDROOT
BRANCH   1   2
ATOM      2  C   UNL     1       3.178   7.953  17.798  1.00  0.00     0.000 C 
BRANCH   2   3
ATOM      3  C   UNL     1       3.390   9.322  17.137  1.00  0.00     0.000 C 
BRANCH   3   4
ATOM      4  C   UNL     1       4.764   9.938  17.457  1.00  0.00     0.000 C 
BRANCH   4   5
ATOM      5  C   UNL     1       5.299   9.647  18.872  1.00  0.00     0.000 C 
BRANCH   5   6
ATOM      6  C   UNL     1       6.659   8.923  18.929  1.00  0.00     0.006 C 
BRANCH   6   7
ATOM      7  C   UNL     1       6.597   7.529  19.580  1.00  0.00     0.053 C 
BRANCH   7   8
ATOM      8  C   UNL     1       7.436   7.440  20.819  1.00  0.00     0.041 C 
ATOM      9  O   UNL     1       8.351   6.580  20.907  1.00  0.00    -0.550 OA
ATOM     10  O   UNL     1       7.183   8.283  21.894  1.00  0.00    -0.550 OA
ENDBRANCH   7   8
ENDBRANCH   6   7
ENDBRANCH   5   6
ENDBRANCH   4   5
ENDBRANCH   3   4
ENDBRANCH   2   3
ENDBRANCH   1   2
BRANCH   1  11
ATOM     11  C   UNL     1       3.503   7.094  15.412  1.00  0.00     0.000 C 
BRANCH  11  12
ATOM     12  C   UNL     1       4.823   7.108  14.619  1.00  0.00     0.000 C 
BRANCH  12  13
ATOM     13  C   UNL     1       6.036   6.725  15.483  1.00  0.00     0.000 C 
BRANCH  13  14
ATOM     14  C   UNL     1       7.108   7.828  15.515  1.00  0.00     0.000 C 
BRANCH  14  15
ATOM     15  C   UNL     1       8.222   7.611  14.473  1.00  0.00     0.000 C 
BRANCH  15  16
ATOM     16  C   UNL     1       8.008   8.332  13.129  1.00  0.00     0.006 C 
BRANCH  16  17
ATOM     17  C   UNL     1       8.183   7.407  11.918  1.00  0.00     0.053 C 
BRANCH  17  18
ATOM     18  C   UNL     1       6.919   6.650  11.653  1.00  0.00     0.041 C 
ATOM     19  O   UNL     1       6.016   7.158  10.938  1.00  0.00    -0.550 OA
ATOM     20  O   UNL     1       6.760   5.364  12.151  1.00  0.00    -0.550 OA
ENDBRANCH  17  18
ENDBRANCH  16  17
ENDBRANCH  15  16
ENDBRANCH  14  15
ENDBRANCH  13  14
ENDBRANCH  12  13
ENDBRANCH  11  12
ENDBRANCH   1  11
TORSDOF 15
ENDMDL
MODEL 8
REMARK VINA RESULT:    -4.550     11.634     13.124
REMARK INTER + INTRA:         -10.054
REMARK INTER:                  -8.428
REMARK INTRA:                  -1.626
REMARK UNBOUND:                -1.514
REMARK SMILES O=C([O-])CCCCCCCCCCCCCCC(=O)[O-]
REMARK SMILES IDX 10 1 9 2 8 3 7 4 6 5 5 6 4 7 2 8 1 9 3 10 11 11 12 12 13 13
REMARK SMILES IDX 14 14 15 15 16 16 17 17 18 18 19 19 20 20
REMARK H PARENT
REMARK Flexibility Score: inf
ROOT
ATOM      1  C   UNL     1       2.941   8.242  15.075  1.00  0.00     0.000 C 
ENDROOT
BRANCH   1   2
ATOM      2  C   UNL     1       4.230   7.462  14.783  1.00  0.00     0.000 C 
BRANCH   2   3
ATOM      3  C   UNL     1       5.286   7.718  15.868  1.00  0.00     0.000 C 
BRANCH   3   4
ATOM      4  C   UNL     1       6.176   8.938  15.565  1.00  0.00     0.000 C 
BRANCH   4   5
ATOM      5  C   UNL     1       7.026   8.828  14.286  1.00  0.00     0.000 C 
BRANCH   5   6
ATOM      6  C   UNL     1       8.180   7.808  14.345  1.00  0.00     0.006 C 
BRANCH   6   7
ATOM      7  C   UNL     1       8.291   6.918  13.093  1.00  0.00     0.053 C 
BRANCH   7   8
ATOM      8  C   UNL     1       7.442   5.686  13.189  1.00  0.00     0.041 C 
ATOM      9  O   UNL     1       7.213   5.158  14.308  1.00  0.00    -0.550 OA
ATOM     10  O   UNL     1       6.933   5.099  12.037  1.00  0.00    -0.550 OA
ENDBRANCH   7   8
ENDBRANCH   6   7
ENDBRANCH   5   6
ENDBRANCH   4   5
ENDBRANCH   3   4
ENDBRANCH   2   3
ENDBRANCH   1   2
BRANCH   1  11
ATOM     11  C   UNL     1       2.585   8.260  16.570  1.00  0.00     0.000 C 
BRANCH  11  12
ATOM     12  C   UNL     1       2.144   9.653  17.055  1.00  0.00     0.000 C 
BRANCH  12  13
ATOM     13  C   UNL     1       1.500   9.618  18.451  1.00  0.00     0.000 C 
BRANCH  13  14
ATOM     14  C   UNL     1       2.470  10.063  19.559  1.00  0.00     0.000 C 
BRANCH  14  15
ATOM     15  C   UNL     1       3.312   8.902  20.119  1.00  0.00     0.000 C 
BRANCH  15  16
ATOM     16  C   UNL     1       4.775   8.864  19.640  1.00  0.00     0.006 C 
BRANCH  16  17
ATOM     17  C   UNL     1       5.288   7.439  19.394  1.00  0.00     0.053 C 
BRANCH  17  18
ATOM     18  C   UNL     1       6.182   7.006  20.514  1.00  0.00     0.041 C 
ATOM     19  O   UNL     1       7.432   7.086  20.394  1.00  0.00    -0.550 OA
ATOM     20  O   UNL     1       5.633   6.564  21.711  1.00  0.00    -0.550 OA
ENDBRANCH  17  18
ENDBRANCH  16  17
ENDBRANCH  15  16
ENDBRANCH  14  15
ENDBRANCH  13  14
ENDBRANCH  12  13
ENDBRANCH  11  12
ENDBRANCH   1  11
TORSDOF 15
ENDMDL
MODEL 9
REMARK VINA RESULT:    -4.522      3.000      4.561
REMARK INTER + INTRA:         -10.001
REMARK INTER:                  -8.132
REMARK INTRA:                  -1.869
REMARK UNBOUND:                -1.514
REMARK SMILES O=C([O-])CCCCCCCCCCCCCCC(=O)[O-]
REMARK SMILES IDX 10 1 9 2 8 3 7 4 6 5 5 6 4 7 2 8 1 9 3 10 11 11 12 12 13 13
REMARK SMILES IDX 14 14 15 15 16 16 17 17 18 18 19 19 20 20
REMARK H PARENT
REMARK Flexibility Score: inf
ROOT
ATOM      1  C   UNL     1      14.684   7.509  26.093  1.00  0.00     0.000 C 
ENDROOT
BRANCH   1   2
ATOM      2  C   UNL     1      14.840   8.630  25.056  1.00  0.00     0.000 C 
BRANCH   2   3
ATOM      3  C   UNL     1      15.010   8.053  23.643  1.00  0.00     0.000 C 
BRANCH   3   4
ATOM      4  C   UNL     1      13.923   8.532  22.664  1.00  0.00     0.000 C 
BRANCH   4   5
ATOM      5  C   UNL     1      12.740   9.278  23.310  1.00  0.00     0.000 C 
BRANCH   5   6
ATOM      6  C   UNL     1      11.421   8.484  23.388  1.00  0.00     0.006 C 
BRANCH   6   7
ATOM      7  C   UNL     1      11.531   7.038  22.871  1.00  0.00     0.053 C 
BRANCH   7   8
ATOM      8  C   UNL     1      10.987   6.883  21.483  1.00  0.00     0.041 C 
ATOM      9  O   UNL     1      11.656   6.284  20.601  1.00  0.00    -0.550 OA
ATOM     10  O   UNL     1       9.754   7.432  21.153  1.00  0.00    -0.550 OA
ENDBRANCH   7   8
ENDBRANCH   6   7
ENDBRANCH   5   6
ENDBRANCH   4   5
ENDBRANCH   3   4
ENDBRANCH   2   3
ENDBRANCH   1   2
BRANCH   1  11
ATOM     11  C   UNL     1      13.973   6.271  25.525  1.00  0.00     0.000 C 
BRANCH  11  12
ATOM     12  C   UNL     1      12.606   6.018  26.190  1.00  0.00     0.000 C 
BRANCH  12  13
ATOM     13  C   UNL     1      12.043   7.271  26.880  1.00  0.00     0.000 C 
BRANCH  13  14
ATOM     14  C   UNL     1      10.505   7.268  26.943  1.00  0.00     0.000 C 
BRANCH  14  15
ATOM     15  C   UNL     1       9.957   7.906  28.234  1.00  0.00     0.000 C 
BRANCH  15  16
ATOM     16  C   UNL     1       8.936   7.049  29.003  1.00  0.00     0.006 C 
BRANCH  16  17
ATOM     17  C   UNL     1       9.227   5.546  28.915  1.00  0.00     0.053 C 
BRANCH  17  18
ATOM     18  C   UNL     1       9.983   5.088  30.122  1.00  0.00     0.041 C 
ATOM     19  O   UNL     1      10.140   5.863  31.102  1.00  0.00    -0.550 OA
ATOM     20  O   UNL     1      10.471   3.789  30.187  1.00  0.00    -0.550 OA
ENDBRANCH  17  18
ENDBRANCH  16  17
ENDBRANCH  15  16
ENDBRANCH  14  15
ENDBRANCH  13  14
ENDBRANCH  12  13
ENDBRANCH  11  12
ENDBRANCH   1  11
TORSDOF 15
ENDMDL
