MODEL 1
REMARK VINA RESULT:    -3.212      0.000      0.000
REMARK INTER + INTRA:          -4.178
REMARK INTER:                  -4.057
REMARK INTRA:                  -0.122
REMARK UNBOUND:                -0.122
REMARK SMILES CCCCCCO
REMARK SMILES IDX 4 1 3 2 2 3 1 4 5 5 6 6 7 7
REMARK H PARENT 7 8
REMARK Flexibility Score: inf
ROOT
ATOM      1  C   UNL     1       1.251 -32.346  47.355  1.00  0.00     0.002 C 
ENDROOT
BRANCH   1   2
ATOM      2  C   UNL     1       1.915 -31.012  47.727  1.00  0.00    -0.000 C 
BRANCH   2   3
ATOM      3  C   UNL     1       1.091 -29.796  47.277  1.00  0.00    -0.003 C 
ATOM      4  C   UNL     1       1.943 -28.722  46.601  1.00  0.00     0.004 C 
ENDBRANCH   2   3
ENDBRANCH   1   2
BRANCH   1   5
ATOM      5  C   UNL     1       0.019 -32.119  46.469  1.00  0.00     0.028 C 
BRANCH   5   6
ATOM      6  C   UNL     1       0.218 -32.682  45.061  1.00  0.00     0.156 C 
BRANCH   6   7
ATOM      7  O   UNL     1       0.525 -34.048  45.127  1.00  0.00    -0.396 OA
ATOM      8  H   UNL     1       1.409 -34.152  44.687  1.00  0.00     0.210 HD
ENDBRANCH   6   7
ENDBRANCH   5   6
ENDBRANCH   1   5
TORSDOF 5
ENDMDL
MODEL 2
REMARK VINA RESULT:    -3.198     14.191     15.281
REMARK INTER + INTRA:          -4.161
REMARK INTER:                  -4.073
REMARK INTRA:                  -0.089
REMARK UNBOUND:                -0.122
REMARK SMILES CCCCCCO
REMARK SMILES IDX 4 1 3 2 2 3 1 4 5 5 6 6 7 7
REMARK H PARENT 7 8
REMARK Flexibility Score: inf
ROOT
ATOM      1  C   UNL     1       9.249 -23.245  57.058  1.00  0.00     0.002 C 
ENDROOT
BRANCH   1   2
ATOM      2  C   UNL     1       8.319 -22.192  57.679  1.00  0.00    -0.000 C 
BRANCH   2   3
ATOM      3  C   UNL     1       8.271 -20.891  56.863  1.00  0.00    -0.003 C 
ATOM      4  C   UNL     1       8.080 -21.138  55.367  1.00  0.00     0.004 C 
ENDBRANCH   2   3
ENDBRANCH   1   2
BRANCH   1   5
ATOM      5  C   UNL     1       8.513 -24.576  56.855  1.00  0.00     0.028 C 
BRANCH   5   6
ATOM      6  C   UNL     1       9.278 -25.512  55.917  1.00  0.00     0.156 C 
BRANCH   6   7
ATOM      7  O   UNL     1      10.402 -26.036  56.569  1.00  0.00    -0.396 OA
ATOM      8  H   UNL     1      10.517 -26.958  56.220  1.00  0.00     0.210 HD
ENDBRANCH   6   7
ENDBRANCH   5   6
ENDBRANCH   1   5
TORSDOF 5
ENDMDL
MODEL 3
REMARK VINA RESULT:    -3.040     10.026     10.994
REMARK INTER + INTRA:          -3.961
REMARK INTER:                  -3.930
REMARK INTRA:                  -0.031
REMARK UNBOUND:                -0.122
REMARK SMILES CCCCCCO
REMARK SMILES IDX 4 1 3 2 2 3 1 4 5 5 6 6 7 7
REMARK H PARENT 7 8
REMARK Flexibility Score: inf
ROOT
ATOM      1  C   UNL     1       7.976 -39.438  46.095  1.00  0.00     0.002 C 
ENDROOT
BRANCH   1   2
ATOM      2  C   UNL     1       9.482 -39.223  45.883  1.00  0.00    -0.000 C 
BRANCH   2   3
ATOM      3  C   UNL     1      10.111 -40.297  44.982  1.00  0.00    -0.003 C 
ATOM      4  C   UNL     1      11.249 -41.051  45.668  1.00  0.00     0.004 C 
ENDBRANCH   2   3
ENDBRANCH   1   2
BRANCH   1   5
ATOM      5  C   UNL     1       7.224 -38.100  46.086  1.00  0.00     0.028 C 
BRANCH   5   6
ATOM      6  C   UNL     1       5.805 -38.249  45.532  1.00  0.00     0.156 C 
BRANCH   6   7
ATOM      7  O   UNL     1       5.476 -37.139  44.744  1.00  0.00    -0.396 OA
ATOM      8  H   UNL     1       5.114 -36.457  45.368  1.00  0.00     0.210 HD
ENDBRANCH   6   7
ENDBRANCH   5   6
ENDBRANCH   1   5
TORSDOF 5
ENDMDL
MODEL 4
REMARK VINA RESULT:    -3.007     14.423     15.533
REMARK INTER + INTRA:          -3.920
REMARK INTER:                  -3.747
REMARK INTRA:                  -0.173
REMARK UNBOUND:                -0.122
REMARK SMILES CCCCCCO
REMARK SMILES IDX 4 1 3 2 2 3 1 4 5 5 6 6 7 7
REMARK H PARENT 7 8
REMARK Flexibility Score: inf
ROOT
ATOM      1  C   UNL     1       9.611 -21.673  56.524  1.00  0.00     0.002 C 
ENDROOT
BRANCH   1   2
ATOM      2  C   UNL     1       9.541 -22.768  57.599  1.00  0.00    -0.000 C 
BRANCH   2   3
ATOM      3  C   UNL     1       8.508 -23.856  57.269  1.00  0.00    -0.003 C 
ATOM      4  C   UNL     1       9.063 -24.936  56.341  1.00  0.00     0.004 C 
ENDBRANCH   2   3
ENDBRANCH   1   2
BRANCH   1   5
ATOM      5  C   UNL     1       8.233 -21.035  56.300  1.00  0.00     0.028 C 
BRANCH   5   6
ATOM      6  C   UNL     1       7.835 -21.045  54.823  1.00  0.00     0.156 C 
BRANCH   6   7
ATOM      7  O   UNL     1       7.439 -22.333  54.439  1.00  0.00    -0.396 OA
ATOM      8  H   UNL     1       8.231 -22.916  54.576  1.00  0.00     0.210 HD
ENDBRANCH   6   7
ENDBRANCH   5   6
ENDBRANCH   1   5
TORSDOF 5
ENDMDL
MODEL 5
REMARK VINA RESULT:    -3.004      2.092      2.932
REMARK INTER + INTRA:          -3.917
REMARK INTER:                  -3.705
REMARK INTRA:                  -0.212
REMARK UNBOUND:                -0.122
REMARK SMILES CCCCCCO
REMARK SMILES IDX 4 1 3 2 2 3 1 4 5 5 6 6 7 7
REMARK H PARENT 7 8
REMARK Flexibility Score: inf
ROOT
ATOM      1  C   UNL     1       0.143 -30.407  46.000  1.00  0.00     0.002 C 
ENDROOT
BRANCH   1   2
ATOM      2  C   UNL     1       0.631 -30.244  47.447  1.00  0.00    -0.000 C 
BRANCH   2   3
ATOM      3  C   UNL     1       1.715 -31.265  47.824  1.00  0.00    -0.003 C 
ATOM      4  C   UNL     1       1.339 -32.696  47.442  1.00  0.00     0.004 C 
ENDBRANCH   2   3
ENDBRANCH   1   2
BRANCH   1   5
ATOM      5  C   UNL     1       1.165 -29.835  45.009  1.00  0.00     0.028 C 
BRANCH   5   6
ATOM      6  C   UNL     1       1.810 -30.931  44.158  1.00  0.00     0.156 C 
BRANCH   6   7
ATOM      7  O   UNL     1       3.164 -31.066  44.492  1.00  0.00    -0.396 OA
ATOM      8  H   UNL     1       3.237 -31.914  45.004  1.00  0.00     0.210 HD
ENDBRANCH   6   7
ENDBRANCH   5   6
ENDBRANCH   1   5
TORSDOF 5
ENDMDL
MODEL 6
REMARK VINA RESULT:    -2.997      9.283     10.033
REMARK INTER + INTRA:          -3.907
REMARK INTER:                  -3.802
REMARK INTRA:                  -0.105
REMARK UNBOUND:                -0.122
REMARK SMILES CCCCCCO
REMARK SMILES IDX 4 1 3 2 2 3 1 4 5 5 6 6 7 7
REMARK H PARENT 7 8
REMARK Flexibility Score: inf
ROOT
ATOM      1  C   UNL     1       8.210 -39.240  46.079  1.00  0.00     0.002 C 
ENDROOT
BRANCH   1   2
ATOM      2  C   UNL     1       9.700 -38.989  45.805  1.00  0.00    -0.000 C 
BRANCH   2   3
ATOM      3  C   UNL     1      10.042 -37.494  45.720  1.00  0.00    -0.003 C 
ATOM      4  C   UNL     1      10.967 -37.035  46.847  1.00  0.00     0.004 C 
ENDBRANCH   2   3
ENDBRANCH   1   2
BRANCH   1   5
ATOM      5  C   UNL     1       7.410 -37.932  46.005  1.00  0.00     0.028 C 
BRANCH   5   6
ATOM      6  C   UNL     1       5.945 -38.181  45.643  1.00  0.00     0.156 C 
BRANCH   6   7
ATOM      7  O   UNL     1       5.490 -37.188  44.765  1.00  0.00    -0.396 OA
ATOM      8  H   UNL     1       5.846 -36.329  45.114  1.00  0.00     0.210 HD
ENDBRANCH   6   7
ENDBRANCH   5   6
ENDBRANCH   1   5
TORSDOF 5
ENDMDL
MODEL 7
REMARK VINA RESULT:    -2.919      1.378      2.321
REMARK INTER + INTRA:          -3.809
REMARK INTER:                  -3.760
REMARK INTRA:                  -0.049
REMARK UNBOUND:                -0.122
REMARK SMILES CCCCCCO
REMARK SMILES IDX 4 1 3 2 2 3 1 4 5 5 6 6 7 7
REMARK H PARENT 7 8
REMARK Flexibility Score: inf
ROOT
ATOM      1  C   UNL     1       2.303 -30.143  46.937  1.00  0.00     0.002 C 
ENDROOT
BRANCH   1   2
ATOM      2  C   UNL     1       1.388 -28.910  46.917  1.00  0.00    -0.000 C 
BRANCH   2   3
ATOM      3  C   UNL     1       2.063 -27.683  46.286  1.00  0.00    -0.003 C 
ATOM      4  C   UNL     1       2.459 -27.911  44.827  1.00  0.00     0.004 C 
ENDBRANCH   2   3
ENDBRANCH   1   2
BRANCH   1   5
ATOM      5  C   UNL     1       1.719 -31.246  47.830  1.00  0.00     0.028 C 
BRANCH   5   6
ATOM      6  C   UNL     1       0.950 -32.288  47.017  1.00  0.00     0.156 C 
BRANCH   6   7
ATOM      7  O   UNL     1       1.443 -33.571  47.287  1.00  0.00    -0.396 OA
ATOM      8  H   UNL     1       1.617 -33.990  46.403  1.00  0.00     0.210 HD
ENDBRANCH   6   7
ENDBRANCH   5   6
ENDBRANCH   1   5
TORSDOF 5
ENDMDL
MODEL 8
REMARK VINA RESULT:    -2.916      2.407      3.797
REMARK INTER + INTRA:          -3.805
REMARK INTER:                  -3.674
REMARK INTRA:                  -0.131
REMARK UNBOUND:                -0.122
REMARK SMILES CCCCCCO
REMARK SMILES IDX 4 1 3 2 2 3 1 4 5 5 6 6 7 7
REMARK H PARENT 7 8
REMARK Flexibility Score: inf
ROOT
ATOM      1  C   UNL     1       1.570 -30.855  47.646  1.00  0.00     0.002 C 
ENDROOT
BRANCH   1   2
ATOM      2  C   UNL     1       1.122 -32.260  47.221  1.00  0.00    -0.000 C 
BRANCH   2   3
ATOM      3  C   UNL     1      -0.124 -32.237  46.323  1.00  0.00    -0.003 C 
ATOM      4  C   UNL     1       0.133 -32.834  44.939  1.00  0.00     0.004 C 
ENDBRANCH   2   3
ENDBRANCH   1   2
BRANCH   1   5
ATOM      5  C   UNL     1       0.454 -29.828  47.414  1.00  0.00     0.028 C 
BRANCH   5   6
ATOM      6  C   UNL     1       0.954 -28.610  46.636  1.00  0.00     0.156 C 
BRANCH   6   7
ATOM      7  O   UNL     1       2.296 -28.355  46.948  1.00  0.00    -0.396 OA
ATOM      8  H   UNL     1       2.677 -27.886  46.161  1.00  0.00     0.210 HD
ENDBRANCH   6   7
ENDBRANCH   5   6
ENDBRANCH   1   5
TORSDOF 5
ENDMDL
MODEL 9
REMARK VINA RESULT:    -2.841      2.455      3.311
REMARK INTER + INTRA:          -3.710
REMARK INTER:                  -3.511
REMARK INTRA:                  -0.199
REMARK UNBOUND:                -0.122
REMARK SMILES CCCCCCO
REMARK SMILES IDX 4 1 3 2 2 3 1 4 5 5 6 6 7 7
REMARK H PARENT 7 8
REMARK Flexibility Score: inf
ROOT
ATOM      1  C   UNL     1      -0.122 -30.826  45.944  1.00  0.00     0.002 C 
ENDROOT
BRANCH   1   2
ATOM      2  C   UNL     1       0.792 -31.764  45.142  1.00  0.00    -0.000 C 
BRANCH   2   3
ATOM      3  C   UNL     1       1.260 -31.143  43.816  1.00  0.00    -0.003 C 
ATOM      4  C   UNL     1       2.305 -30.045  44.014  1.00  0.00     0.004 C 
ENDBRANCH   2   3
ENDBRANCH   1   2
BRANCH   1   5
ATOM      5  C   UNL     1       0.564 -30.360  47.234  1.00  0.00     0.028 C 
BRANCH   5   6
ATOM      6  C   UNL     1       1.785 -31.219  47.571  1.00  0.00     0.156 C 
BRANCH   6   7
ATOM      7  O   UNL     1       2.947 -30.436  47.549  1.00  0.00    -0.396 OA
ATOM      8  H   UNL     1       3.613 -30.948  47.020  1.00  0.00     0.210 HD
ENDBRANCH   6   7
ENDBRANCH   5   6
ENDBRANCH   1   5
TORSDOF 5
ENDMDL
