MODEL 1
REMARK VINA RESULT:    -6.211      0.000      0.000
REMARK INTER + INTRA:          -6.211
REMARK INTER:                  -6.211
REMARK INTRA:                   0.000
REMARK UNBOUND:                 0.000
REMARK SMILES CC1=CC[C@H]2C[C@@H]1C2(C)C
REMARK SMILES IDX 1 1 2 2 3 3 4 4 5 5 6 6 7 7 8 8 9 9 10 10
REMARK H PARENT
REMARK Flexibility Score: inf
ROOT
ATOM      1  C   UNL     1     136.022 139.286 124.367  1.00  0.00     0.039 C 
ATOM      2  C   UNL     1     136.461 137.968 123.804  1.00  0.00    -0.074 C 
ATOM      3  C   UNL     1     135.571 136.956 123.588  1.00  0.00    -0.027 C 
ATOM      4  C   UNL     1     136.092 135.614 123.033  1.00  0.00     0.031 C 
ATOM      5  C   UNL     1     137.636 135.706 122.772  1.00  0.00    -0.000 C 
ATOM      6  C   UNL     1     137.858 137.039 122.031  1.00  0.00     0.013 C 
ATOM      7  C   UNL     1     137.923 137.695 123.423  1.00  0.00     0.021 C 
ATOM      8  C   UNL     1     138.357 136.323 124.003  1.00  0.00    -0.026 C 
ATOM      9  C   UNL     1     139.892 136.119 123.946  1.00  0.00     0.012 C 
ATOM     10  C   UNL     1     137.866 135.933 125.426  1.00  0.00     0.012 C 
ENDROOT
TORSDOF 0
ENDMDL
MODEL 2
REMARK VINA RESULT:    -6.201     22.295     23.544
REMARK INTER + INTRA:          -6.201
REMARK INTER:                  -6.201
REMARK INTRA:                   0.000
REMARK UNBOUND:                 0.000
REMARK SMILES CC1=CC[C@H]2C[C@@H]1C2(C)C
REMARK SMILES IDX 1 1 2 2 3 3 4 4 5 5 6 6 7 7 8 8 9 9 10 10
REMARK H PARENT
REMARK Flexibility Score: inf
ROOT
ATOM      1  C   UNL     1     154.677 151.434 124.476  1.00  0.00     0.039 C 
ATOM      2  C   UNL     1     154.240 152.749 123.905  1.00  0.00    -0.074 C 
ATOM      3  C   UNL     1     155.125 153.771 123.716  1.00  0.00    -0.027 C 
ATOM      4  C   UNL     1     154.604 155.110 123.152  1.00  0.00     0.031 C 
ATOM      5  C   UNL     1     153.069 155.003 122.851  1.00  0.00    -0.000 C 
ATOM      6  C   UNL     1     152.881 153.671 122.099  1.00  0.00     0.013 C 
ATOM      7  C   UNL     1     152.786 153.009 123.487  1.00  0.00     0.021 C 
ATOM      8  C   UNL     1     152.323 154.375 124.060  1.00  0.00    -0.026 C 
ATOM      9  C   UNL     1     150.787 154.563 123.963  1.00  0.00     0.012 C 
ATOM     10  C   UNL     1     152.771 154.764 125.496  1.00  0.00     0.012 C 
ENDROOT
TORSDOF 0
ENDMDL
MODEL 3
REMARK VINA RESULT:    -6.199     14.230     16.654
REMARK INTER + INTRA:          -6.199
REMARK INTER:                  -6.199
REMARK INTRA:                   0.000
REMARK UNBOUND:                 0.000
REMARK SMILES CC1=CC[C@H]2C[C@@H]1C2(C)C
REMARK SMILES IDX 1 1 2 2 3 3 4 4 5 5 6 6 7 7 8 8 9 9 10 10
REMARK H PARENT
REMARK Flexibility Score: inf
ROOT
ATOM      1  C   UNL     1     151.422 136.028 124.480  1.00  0.00     0.039 C 
ATOM      2  C   UNL     1     152.740 136.456 123.911  1.00  0.00    -0.074 C 
ATOM      3  C   UNL     1     153.756 135.564 123.720  1.00  0.00    -0.027 C 
ATOM      4  C   UNL     1     155.098 136.075 123.159  1.00  0.00     0.031 C 
ATOM      5  C   UNL     1     155.004 137.612 122.862  1.00  0.00    -0.000 C 
ATOM      6  C   UNL     1     153.674 137.813 122.110  1.00  0.00     0.013 C 
ATOM      7  C   UNL     1     153.012 137.910 123.498  1.00  0.00     0.021 C 
ATOM      8  C   UNL     1     154.381 138.360 124.072  1.00  0.00    -0.026 C 
ATOM      9  C   UNL     1     154.582 139.894 123.980  1.00  0.00     0.012 C 
ATOM     10  C   UNL     1     154.766 137.904 125.508  1.00  0.00     0.012 C 
ENDROOT
TORSDOF 0
ENDMDL
MODEL 4
REMARK VINA RESULT:    -6.116     14.206     16.630
REMARK INTER + INTRA:          -6.116
REMARK INTER:                  -6.116
REMARK INTRA:                   0.000
REMARK UNBOUND:                 0.000
REMARK SMILES CC1=CC[C@H]2C[C@@H]1C2(C)C
REMARK SMILES IDX 1 1 2 2 3 3 4 4 5 5 6 6 7 7 8 8 9 9 10 10
REMARK H PARENT
REMARK Flexibility Score: inf
ROOT
ATOM      1  C   UNL     1     139.267 154.751 124.509  1.00  0.00     0.039 C 
ATOM      2  C   UNL     1     137.967 154.272 123.936  1.00  0.00    -0.074 C 
ATOM      3  C   UNL     1     136.917 155.124 123.746  1.00  0.00    -0.027 C 
ATOM      4  C   UNL     1     135.597 154.561 123.180  1.00  0.00     0.031 C 
ATOM      5  C   UNL     1     135.754 153.030 122.877  1.00  0.00    -0.000 C 
ATOM      6  C   UNL     1     137.093 152.886 122.127  1.00  0.00     0.013 C 
ATOM      7  C   UNL     1     137.756 152.811 123.516  1.00  0.00     0.021 C 
ATOM      8  C   UNL     1     136.405 152.303 124.085  1.00  0.00    -0.026 C 
ATOM      9  C   UNL     1     136.266 150.762 123.986  1.00  0.00     0.012 C 
ATOM     10  C   UNL     1     135.999 152.737 125.522  1.00  0.00     0.012 C 
ENDROOT
TORSDOF 0
ENDMDL
MODEL 5
REMARK VINA RESULT:    -5.514      1.020      3.315
REMARK INTER + INTRA:          -5.514
REMARK INTER:                  -5.514
REMARK INTRA:                   0.000
REMARK UNBOUND:                 0.000
REMARK SMILES CC1=CC[C@H]2C[C@@H]1C2(C)C
REMARK SMILES IDX 1 1 2 2 3 3 4 4 5 5 6 6 7 7 8 8 9 9 10 10
REMARK H PARENT
REMARK Flexibility Score: inf
ROOT
ATOM      1  C   UNL     1     140.348 136.401 124.496  1.00  0.00     0.039 C 
ATOM      2  C   UNL     1     139.039 136.035 123.866  1.00  0.00    -0.074 C 
ATOM      3  C   UNL     1     138.981 135.247 122.752  1.00  0.00    -0.027 C 
ATOM      4  C   UNL     1     137.602 134.932 122.136  1.00  0.00     0.031 C 
ATOM      5  C   UNL     1     136.468 135.590 122.996  1.00  0.00    -0.000 C 
ATOM      6  C   UNL     1     136.805 135.253 124.462  1.00  0.00     0.013 C 
ATOM      7  C   UNL     1     137.699 136.507 124.447  1.00  0.00     0.021 C 
ATOM      8  C   UNL     1     136.814 137.072 123.305  1.00  0.00    -0.026 C 
ATOM      9  C   UNL     1     135.591 137.860 123.842  1.00  0.00     0.012 C 
ATOM     10  C   UNL     1     137.493 137.926 122.197  1.00  0.00     0.012 C 
ENDROOT
TORSDOF 0
ENDMDL
MODEL 6
REMARK VINA RESULT:    -5.326      1.118      2.928
REMARK INTER + INTRA:          -5.326
REMARK INTER:                  -5.326
REMARK INTRA:                   0.000
REMARK UNBOUND:                 0.000
REMARK SMILES CC1=CC[C@H]2C[C@@H]1C2(C)C
REMARK SMILES IDX 1 1 2 2 3 3 4 4 5 5 6 6 7 7 8 8 9 9 10 10
REMARK H PARENT
REMARK Flexibility Score: inf
ROOT
ATOM      1  C   UNL     1     139.716 135.577 125.721  1.00  0.00     0.039 C 
ATOM      2  C   UNL     1     138.475 135.782 124.906  1.00  0.00    -0.074 C 
ATOM      3  C   UNL     1     137.388 134.969 125.051  1.00  0.00    -0.027 C 
ATOM      4  C   UNL     1     136.152 135.216 124.161  1.00  0.00     0.031 C 
ATOM      5  C   UNL     1     136.396 136.460 123.238  1.00  0.00    -0.000 C 
ATOM      6  C   UNL     1     136.975 137.555 124.155  1.00  0.00     0.013 C 
ATOM      7  C   UNL     1     138.353 136.922 123.885  1.00  0.00     0.021 C 
ATOM      8  C   UNL     1     137.787 136.361 122.554  1.00  0.00    -0.026 C 
ATOM      9  C   UNL     1     137.937 137.364 121.382  1.00  0.00     0.012 C 
ATOM     10  C   UNL     1     138.282 134.969 122.069  1.00  0.00     0.012 C 
ENDROOT
TORSDOF 0
ENDMDL
MODEL 7
REMARK VINA RESULT:    -5.211     14.711     16.401
REMARK INTER + INTRA:          -5.211
REMARK INTER:                  -5.211
REMARK INTRA:                   0.000
REMARK UNBOUND:                 0.000
REMARK SMILES CC1=CC[C@H]2C[C@@H]1C2(C)C
REMARK SMILES IDX 1 1 2 2 3 3 4 4 5 5 6 6 7 7 8 8 9 9 10 10
REMARK H PARENT
REMARK Flexibility Score: inf
ROOT
ATOM      1  C   UNL     1     135.489 151.196 125.608  1.00  0.00     0.039 C 
ATOM      2  C   UNL     1     135.951 152.346 124.765  1.00  0.00    -0.074 C 
ATOM      3  C   UNL     1     135.529 153.621 125.009  1.00  0.00    -0.027 C 
ATOM      4  C   UNL     1     136.020 154.755 124.085  1.00  0.00     0.031 C 
ATOM      5  C   UNL     1     137.003 154.180 123.007  1.00  0.00    -0.000 C 
ATOM      6  C   UNL     1     137.981 153.270 123.775  1.00  0.00     0.013 C 
ATOM      7  C   UNL     1     136.933 152.154 123.601  1.00  0.00     0.021 C 
ATOM      8  C   UNL     1     136.403 152.906 122.352  1.00  0.00    -0.026 C 
ATOM      9  C   UNL     1     137.155 152.502 121.058  1.00  0.00     0.012 C 
ATOM     10  C   UNL     1     134.876 152.867 122.059  1.00  0.00     0.012 C 
ENDROOT
TORSDOF 0
ENDMDL
MODEL 8
REMARK VINA RESULT:    -5.098     22.409     23.509
REMARK INTER + INTRA:          -5.098
REMARK INTER:                  -5.098
REMARK INTRA:                   0.000
REMARK UNBOUND:                 0.000
REMARK SMILES CC1=CC[C@H]2C[C@@H]1C2(C)C
REMARK SMILES IDX 1 1 2 2 3 3 4 4 5 5 6 6 7 7 8 8 9 9 10 10
REMARK H PARENT
REMARK Flexibility Score: inf
ROOT
ATOM      1  C   UNL     1     150.595 154.411 124.500  1.00  0.00     0.039 C 
ATOM      2  C   UNL     1     151.984 154.499 123.946  1.00  0.00    -0.074 C 
ATOM      3  C   UNL     1     152.233 155.092 122.742  1.00  0.00    -0.027 C 
ATOM      4  C   UNL     1     153.683 155.123 122.215  1.00  0.00     0.031 C 
ATOM      5  C   UNL     1     154.647 154.461 123.259  1.00  0.00    -0.000 C 
ATOM      6  C   UNL     1     154.260 155.060 124.625  1.00  0.00     0.013 C 
ATOM      7  C   UNL     1     153.198 153.948 124.708  1.00  0.00     0.021 C 
ATOM      8  C   UNL     1     154.070 153.102 123.743  1.00  0.00    -0.026 C 
ATOM      9  C   UNL     1     155.125 152.252 124.495  1.00  0.00     0.012 C 
ATOM     10  C   UNL     1     153.354 152.187 122.710  1.00  0.00     0.012 C 
ENDROOT
TORSDOF 0
ENDMDL
