MODEL 1
REMARK VINA RESULT:    -4.791      0.000      0.000
REMARK INTER + INTRA:          -5.461
REMARK INTER:                  -5.211
REMARK INTRA:                  -0.249
REMARK UNBOUND:                -0.249
REMARK SMILES O=C([O-])c1ccccc1O
REMARK SMILES IDX 4 1 9 2 5 3 8 4 6 5 7 6 2 7 1 8 3 9 10 10
REMARK H PARENT 10 11
REMARK Flexibility Score: inf
ROOT
ATOM      1  C   UNL     1      -3.891  14.878   7.005  1.00  0.00     0.039 A 
ATOM      2  C   UNL     1      -3.048  16.017   7.073  1.00  0.00     0.124 A 
ATOM      3  C   UNL     1      -3.649  13.800   7.875  1.00  0.00     0.014 A 
ATOM      4  C   UNL     1      -1.961  16.022   7.956  1.00  0.00     0.047 A 
ATOM      5  C   UNL     1      -2.573  13.830   8.765  1.00  0.00     0.001 A 
ATOM      6  C   UNL     1      -1.724  14.935   8.798  1.00  0.00     0.004 A 
ENDROOT
BRANCH   1   7
ATOM      7  C   UNL     1      -4.999  14.756   6.030  1.00  0.00     0.075 C 
ATOM      8  O   UNL     1      -5.787  15.716   5.823  1.00  0.00    -0.545 OA
ATOM      9  O   UNL     1      -5.140  13.594   5.280  1.00  0.00    -0.545 OA
ENDBRANCH   1   7
BRANCH   2  10
ATOM     10  O   UNL     1      -3.273  17.168   6.313  1.00  0.00    -0.507 OA
ATOM     11  H   UNL     1      -3.605  17.152   5.360  1.00  0.00     0.293 HD
ENDBRANCH   2  10
TORSDOF 2
ENDMDL
MODEL 2
REMARK VINA RESULT:    -4.490      3.146      4.210
REMARK INTER + INTRA:          -5.133
REMARK INTER:                  -4.882
REMARK INTRA:                  -0.251
REMARK UNBOUND:                -0.249
REMARK SMILES O=C([O-])c1ccccc1O
REMARK SMILES IDX 4 1 9 2 5 3 8 4 6 5 7 6 2 7 1 8 3 9 10 10
REMARK H PARENT 10 11
REMARK Flexibility Score: inf
ROOT
ATOM      1  C   UNL     1      -7.523  14.664   5.769  1.00  0.00     0.039 A 
ATOM      2  C   UNL     1      -6.890  15.663   6.555  1.00  0.00     0.124 A 
ATOM      3  C   UNL     1      -6.738  13.641   5.208  1.00  0.00     0.014 A 
ATOM      4  C   UNL     1      -5.497  15.645   6.704  1.00  0.00     0.047 A 
ATOM      5  C   UNL     1      -5.353  13.627   5.386  1.00  0.00     0.001 A 
ATOM      6  C   UNL     1      -4.732  14.633   6.124  1.00  0.00     0.004 A 
ENDROOT
BRANCH   1   7
ATOM      7  C   UNL     1      -8.975  14.671   5.483  1.00  0.00     0.075 C 
ATOM      8  O   UNL     1      -9.626  13.595   5.412  1.00  0.00    -0.545 OA
ATOM      9  O   UNL     1      -9.653  15.878   5.355  1.00  0.00    -0.545 OA
ENDBRANCH   1   7
BRANCH   2  10
ATOM     10  O   UNL     1      -7.602  16.660   7.226  1.00  0.00    -0.507 OA
ATOM     11  H   UNL     1      -7.761  16.658   8.223  1.00  0.00     0.293 HD
ENDBRANCH   2  10
TORSDOF 2
ENDMDL
MODEL 3
REMARK VINA RESULT:    -4.469      1.662      2.410
REMARK INTER + INTRA:          -5.111
REMARK INTER:                  -4.917
REMARK INTRA:                  -0.193
REMARK UNBOUND:                -0.249
REMARK SMILES O=C([O-])c1ccccc1O
REMARK SMILES IDX 4 1 9 2 5 3 8 4 6 5 7 6 2 7 1 8 3 9 10 10
REMARK H PARENT 10 11
REMARK Flexibility Score: inf
ROOT
ATOM      1  C   UNL     1      -3.835  14.720   7.084  1.00  0.00     0.039 A 
ATOM      2  C   UNL     1      -2.933  14.298   8.096  1.00  0.00     0.124 A 
ATOM      3  C   UNL     1      -3.541  15.886   6.355  1.00  0.00     0.014 A 
ATOM      4  C   UNL     1      -1.808  15.079   8.389  1.00  0.00     0.047 A 
ATOM      5  C   UNL     1      -2.403  16.642   6.646  1.00  0.00     0.001 A 
ATOM      6  C   UNL     1      -1.543  16.244   7.669  1.00  0.00     0.004 A 
ENDROOT
BRANCH   1   7
ATOM      7  C   UNL     1      -5.095  14.004   6.783  1.00  0.00     0.075 C 
ATOM      8  O   UNL     1      -5.986  13.863   7.661  1.00  0.00    -0.545 OA
ATOM      9  O   UNL     1      -5.337  13.534   5.497  1.00  0.00    -0.545 OA
ENDBRANCH   1   7
BRANCH   2  10
ATOM     10  O   UNL     1      -3.097  13.104   8.803  1.00  0.00    -0.507 OA
ATOM     11  H   UNL     1      -2.636  12.241   8.555  1.00  0.00     0.293 HD
ENDBRANCH   2  10
TORSDOF 2
ENDMDL
MODEL 4
REMARK VINA RESULT:    -4.444      2.831      4.078
REMARK INTER + INTRA:          -5.083
REMARK INTER:                  -4.857
REMARK INTRA:                  -0.226
REMARK UNBOUND:                -0.249
REMARK SMILES O=C([O-])c1ccccc1O
REMARK SMILES IDX 4 1 9 2 5 3 8 4 6 5 7 6 2 7 1 8 3 9 10 10
REMARK H PARENT 10 11
REMARK Flexibility Score: inf
ROOT
ATOM      1  C   UNL     1      -7.042  15.178   6.167  1.00  0.00     0.039 A 
ATOM      2  C   UNL     1      -6.324  14.138   5.521  1.00  0.00     0.124 A 
ATOM      3  C   UNL     1      -6.338  16.087   6.978  1.00  0.00     0.014 A 
ATOM      4  C   UNL     1      -4.949  14.000   5.750  1.00  0.00     0.047 A 
ATOM      5  C   UNL     1      -4.963  15.948   7.178  1.00  0.00     0.001 A 
ATOM      6  C   UNL     1      -4.271  14.900   6.573  1.00  0.00     0.004 A 
ENDROOT
BRANCH   1   7
ATOM      7  C   UNL     1      -8.510  15.330   6.054  1.00  0.00     0.075 C 
ATOM      8  O   UNL     1      -9.226  14.393   5.613  1.00  0.00    -0.545 OA
ATOM      9  O   UNL     1      -9.124  16.495   6.500  1.00  0.00    -0.545 OA
ENDBRANCH   1   7
BRANCH   2  10
ATOM     10  O   UNL     1      -6.925  13.250   4.625  1.00  0.00    -0.507 OA
ATOM     11  H   UNL     1      -7.559  13.538   3.894  1.00  0.00     0.293 HD
ENDBRANCH   2  10
TORSDOF 2
ENDMDL
MODEL 5
REMARK VINA RESULT:    -4.386     10.447     11.535
REMARK INTER + INTRA:          -5.020
REMARK INTER:                  -4.780
REMARK INTRA:                  -0.240
REMARK UNBOUND:                -0.249
REMARK SMILES O=C([O-])c1ccccc1O
REMARK SMILES IDX 4 1 9 2 5 3 8 4 6 5 7 6 2 7 1 8 3 9 10 10
REMARK H PARENT 10 11
REMARK Flexibility Score: inf
ROOT
ATOM      1  C   UNL     1      -2.459  25.609  11.022  1.00  0.00     0.039 A 
ATOM      2  C   UNL     1      -2.751  25.103  12.315  1.00  0.00     0.124 A 
ATOM      3  C   UNL     1      -1.956  24.730  10.045  1.00  0.00     0.014 A 
ATOM      4  C   UNL     1      -2.477  23.761  12.611  1.00  0.00     0.047 A 
ATOM      5  C   UNL     1      -1.710  23.390  10.351  1.00  0.00     0.001 A 
ATOM      6  C   UNL     1      -1.960  22.909  11.635  1.00  0.00     0.004 A 
ENDROOT
BRANCH   1   7
ATOM      7  C   UNL     1      -2.627  27.035  10.662  1.00  0.00     0.075 C 
ATOM      8  O   UNL     1      -1.701  27.674  10.097  1.00  0.00    -0.545 OA
ATOM      9  O   UNL     1      -3.844  27.669  10.885  1.00  0.00    -0.545 OA
ENDBRANCH   1   7
BRANCH   2  10
ATOM     10  O   UNL     1      -3.339  25.881  13.315  1.00  0.00    -0.507 OA
ATOM     11  H   UNL     1      -3.030  25.882  14.276  1.00  0.00     0.293 HD
ENDBRANCH   2  10
TORSDOF 2
ENDMDL
MODEL 6
REMARK VINA RESULT:    -4.358      2.021      4.156
REMARK INTER + INTRA:          -4.990
REMARK INTER:                  -4.806
REMARK INTRA:                  -0.183
REMARK UNBOUND:                -0.249
REMARK SMILES O=C([O-])c1ccccc1O
REMARK SMILES IDX 4 1 9 2 5 3 8 4 6 5 7 6 2 7 1 8 3 9 10 10
REMARK H PARENT 10 11
REMARK Flexibility Score: inf
ROOT
ATOM      1  C   UNL     1      -5.192  14.672   6.437  1.00  0.00     0.039 A 
ATOM      2  C   UNL     1      -6.228  15.581   6.777  1.00  0.00     0.124 A 
ATOM      3  C   UNL     1      -5.465  13.644   5.517  1.00  0.00     0.014 A 
ATOM      4  C   UNL     1      -7.510  15.400   6.242  1.00  0.00     0.047 A 
ATOM      5  C   UNL     1      -6.744  13.492   4.976  1.00  0.00     0.001 A 
ATOM      6  C   UNL     1      -7.767  14.362   5.346  1.00  0.00     0.004 A 
ENDROOT
BRANCH   1   7
ATOM      7  C   UNL     1      -3.840  14.737   7.036  1.00  0.00     0.075 C 
ATOM      8  O   UNL     1      -3.393  13.786   7.730  1.00  0.00    -0.545 OA
ATOM      9  O   UNL     1      -3.018  15.829   6.780  1.00  0.00    -0.545 OA
ENDBRANCH   1   7
BRANCH   2  10
ATOM     10  O   UNL     1      -6.021  16.686   7.607  1.00  0.00    -0.507 OA
ATOM     11  H   UNL     1      -5.626  16.621   8.534  1.00  0.00     0.293 HD
ENDBRANCH   2  10
TORSDOF 2
ENDMDL
MODEL 7
REMARK VINA RESULT:    -4.346      1.762      2.054
REMARK INTER + INTRA:          -4.977
REMARK INTER:                  -4.758
REMARK INTRA:                  -0.219
REMARK UNBOUND:                -0.249
REMARK SMILES O=C([O-])c1ccccc1O
REMARK SMILES IDX 4 1 9 2 5 3 8 4 6 5 7 6 2 7 1 8 3 9 10 10
REMARK H PARENT 10 11
REMARK Flexibility Score: inf
ROOT
ATOM      1  C   UNL     1      -4.686  14.458   7.511  1.00  0.00     0.039 A 
ATOM      2  C   UNL     1      -5.116  15.614   8.215  1.00  0.00     0.124 A 
ATOM      3  C   UNL     1      -3.406  13.939   7.775  1.00  0.00     0.014 A 
ATOM      4  C   UNL     1      -4.239  16.247   9.105  1.00  0.00     0.047 A 
ATOM      5  C   UNL     1      -2.553  14.571   8.682  1.00  0.00     0.001 A 
ATOM      6  C   UNL     1      -2.965  15.730   9.338  1.00  0.00     0.004 A 
ENDROOT
BRANCH   1   7
ATOM      7  C   UNL     1      -5.516  13.790   6.483  1.00  0.00     0.075 C 
ATOM      8  O   UNL     1      -5.080  13.612   5.316  1.00  0.00    -0.545 OA
ATOM      9  O   UNL     1      -6.769  13.290   6.819  1.00  0.00    -0.545 OA
ENDBRANCH   1   7
BRANCH   2  10
ATOM     10  O   UNL     1      -6.403  16.141   8.086  1.00  0.00    -0.507 OA
ATOM     11  H   UNL     1      -7.198  15.602   7.775  1.00  0.00     0.293 HD
ENDBRANCH   2  10
TORSDOF 2
ENDMDL
MODEL 8
REMARK VINA RESULT:    -4.266      2.853      5.192
REMARK INTER + INTRA:          -4.889
REMARK INTER:                  -4.637
REMARK INTRA:                  -0.252
REMARK UNBOUND:                -0.249
REMARK SMILES O=C([O-])c1ccccc1O
REMARK SMILES IDX 4 1 9 2 5 3 8 4 6 5 7 6 2 7 1 8 3 9 10 10
REMARK H PARENT 10 11
REMARK Flexibility Score: inf
ROOT
ATOM      1  C   UNL     1      -6.777  15.173   6.173  1.00  0.00     0.039 A 
ATOM      2  C   UNL     1      -7.447  14.291   5.286  1.00  0.00     0.124 A 
ATOM      3  C   UNL     1      -7.532  16.124   6.884  1.00  0.00     0.014 A 
ATOM      4  C   UNL     1      -8.828  14.423   5.090  1.00  0.00     0.047 A 
ATOM      5  C   UNL     1      -8.911  16.228   6.692  1.00  0.00     0.001 A 
ATOM      6  C   UNL     1      -9.556  15.386   5.789  1.00  0.00     0.004 A 
ENDROOT
BRANCH   1   7
ATOM      7  C   UNL     1      -5.309  15.161   6.360  1.00  0.00     0.075 C 
ATOM      8  O   UNL     1      -4.661  16.236   6.467  1.00  0.00    -0.545 OA
ATOM      9  O   UNL     1      -4.635  13.952   6.487  1.00  0.00    -0.545 OA
ENDBRANCH   1   7
BRANCH   2  10
ATOM     10  O   UNL     1      -6.792  13.256   4.613  1.00  0.00    -0.507 OA
ATOM     11  H   UNL     1      -6.245  13.394   3.776  1.00  0.00     0.293 HD
ENDBRANCH   2  10
TORSDOF 2
ENDMDL
MODEL 9
REMARK VINA RESULT:    -4.251      4.930      6.147
REMARK INTER + INTRA:          -4.873
REMARK INTER:                  -4.621
REMARK INTRA:                  -0.252
REMARK UNBOUND:                -0.249
REMARK SMILES O=C([O-])c1ccccc1O
REMARK SMILES IDX 4 1 9 2 5 3 8 4 6 5 7 6 2 7 1 8 3 9 10 10
REMARK H PARENT 10 11
REMARK Flexibility Score: inf
ROOT
ATOM      1  C   UNL     1      -8.920  15.555   6.024  1.00  0.00     0.039 A 
ATOM      2  C   UNL     1      -8.337  16.485   6.924  1.00  0.00     0.124 A 
ATOM      3  C   UNL     1     -10.285  15.678   5.710  1.00  0.00     0.014 A 
ATOM      4  C   UNL     1      -9.140  17.463   7.525  1.00  0.00     0.047 A 
ATOM      5  C   UNL     1     -11.066  16.673   6.302  1.00  0.00     0.001 A 
ATOM      6  C   UNL     1     -10.497  17.557   7.216  1.00  0.00     0.004 A 
ENDROOT
BRANCH   1   7
ATOM      7  C   UNL     1      -8.161  14.434   5.426  1.00  0.00     0.075 C 
ATOM      8  O   UNL     1      -8.678  13.292   5.305  1.00  0.00    -0.545 OA
ATOM      9  O   UNL     1      -6.882  14.650   4.925  1.00  0.00    -0.545 OA
ENDBRANCH   1   7
BRANCH   2  10
ATOM     10  O   UNL     1      -6.971  16.495   7.219  1.00  0.00    -0.507 OA
ATOM     11  H   UNL     1      -6.493  15.731   7.675  1.00  0.00     0.293 HD
ENDBRANCH   2  10
TORSDOF 2
ENDMDL
