MODEL 1
REMARK VINA RESULT:    -4.667      0.000      0.000
REMARK INTER + INTRA:          -6.982
REMARK INTER:                  -6.303
REMARK INTRA:                  -0.678
REMARK UNBOUND:                -0.678
REMARK SMILES CCCCCCC=CC(=O)[O-]
REMARK SMILES IDX 5 1 6 2 7 3 8 4 9 5 10 6 11 7 4 8 3 9 2 10 1 11
REMARK H PARENT
REMARK Flexibility Score: inf
ROOT
ATOM      1  C   UNL     1      20.391  23.003  10.258  1.00  0.00     0.004 C 
ENDROOT
BRANCH   1   2
ATOM      2  C   UNL     1      18.864  22.885  10.131  1.00  0.00     0.027 C 
BRANCH   2   3
ATOM      3  C   UNL     1      18.249  24.204   9.762  1.00  0.00    -0.025 C 
ATOM      4  C   UNL     1      18.969  25.330   9.740  1.00  0.00     0.020 C 
BRANCH   4   5
ATOM      5  C   UNL     1      18.390  26.630   9.369  1.00  0.00     0.064 C 
ATOM      6  O   UNL     1      19.121  27.640   9.182  1.00  0.00    -0.545 OA
ATOM      7  O   UNL     1      17.015  26.749   9.221  1.00  0.00    -0.545 OA
ENDBRANCH   4   5
ENDBRANCH   2   3
ENDBRANCH   1   2
BRANCH   1   8
ATOM      8  C   UNL     1      21.137  22.260   9.139  1.00  0.00     0.000 C 
BRANCH   8   9
ATOM      9  C   UNL     1      21.327  23.124   7.882  1.00  0.00    -0.000 C 
BRANCH   9  10
ATOM     10  C   UNL     1      20.774  22.414   6.641  1.00  0.00    -0.003 C 
ATOM     11  C   UNL     1      19.323  22.806   6.381  1.00  0.00     0.004 C 
ENDBRANCH   9  10
ENDBRANCH   8   9
ENDBRANCH   1   8
TORSDOF 6
ENDMDL
MODEL 2
REMARK VINA RESULT:    -4.632      1.555      2.713
REMARK INTER + INTRA:          -6.935
REMARK INTER:                  -6.332
REMARK INTRA:                  -0.603
REMARK UNBOUND:                -0.678
REMARK SMILES CCCCCCC=CC(=O)[O-]
REMARK SMILES IDX 5 1 6 2 7 3 8 4 9 5 10 6 11 7 4 8 3 9 2 10 1 11
REMARK H PARENT
REMARK Flexibility Score: inf
ROOT
ATOM      1  C   UNL     1      17.931  23.214   5.977  1.00  0.00     0.004 C 
ENDROOT
BRANCH   1   2
ATOM      2  C   UNL     1      16.978  23.937   6.942  1.00  0.00     0.027 C 
BRANCH   2   3
ATOM      3  C   UNL     1      17.721  24.490   8.123  1.00  0.00    -0.025 C 
ATOM      4  C   UNL     1      18.070  25.780   8.188  1.00  0.00     0.020 C 
BRANCH   4   5
ATOM      5  C   UNL     1      18.787  26.345   9.342  1.00  0.00     0.064 C 
ATOM      6  O   UNL     1      19.027  25.650  10.364  1.00  0.00    -0.545 OA
ATOM      7  O   UNL     1      19.205  27.669   9.304  1.00  0.00    -0.545 OA
ENDBRANCH   4   5
ENDBRANCH   2   3
ENDBRANCH   1   2
BRANCH   1   8
ATOM      8  C   UNL     1      18.887  22.252   6.699  1.00  0.00     0.000 C 
BRANCH   8   9
ATOM      9  C   UNL     1      20.329  22.354   6.181  1.00  0.00    -0.000 C 
BRANCH   9  10
ATOM     10  C   UNL     1      21.334  22.252   7.335  1.00  0.00    -0.003 C 
ATOM     11  C   UNL     1      21.246  23.469   8.252  1.00  0.00     0.004 C 
ENDBRANCH   9  10
ENDBRANCH   8   9
ENDBRANCH   1   8
TORSDOF 6
ENDMDL
MODEL 3
REMARK VINA RESULT:    -4.576      0.978      1.755
REMARK INTER + INTRA:          -6.859
REMARK INTER:                  -6.181
REMARK INTRA:                  -0.678
REMARK UNBOUND:                -0.678
REMARK SMILES CCCCCCC=CC(=O)[O-]
REMARK SMILES IDX 5 1 6 2 7 3 8 4 9 5 10 6 11 7 4 8 3 9 2 10 1 11
REMARK H PARENT
REMARK Flexibility Score: inf
ROOT
ATOM      1  C   UNL     1      21.275  23.242   8.021  1.00  0.00     0.004 C 
ENDROOT
BRANCH   1   2
ATOM      2  C   UNL     1      20.375  22.936   9.228  1.00  0.00     0.027 C 
BRANCH   2   3
ATOM      3  C   UNL     1      19.599  24.151   9.647  1.00  0.00    -0.025 C 
ATOM      4  C   UNL     1      19.390  25.171   8.807  1.00  0.00     0.020 C 
BRANCH   4   5
ATOM      5  C   UNL     1      18.621  26.365   9.192  1.00  0.00     0.064 C 
ATOM      6  O   UNL     1      19.150  27.508   9.190  1.00  0.00    -0.545 OA
ATOM      7  O   UNL     1      17.290  26.230   9.564  1.00  0.00    -0.545 OA
ENDBRANCH   4   5
ENDBRANCH   2   3
ENDBRANCH   1   2
BRANCH   1   8
ATOM      8  C   UNL     1      20.917  22.401   6.786  1.00  0.00     0.000 C 
BRANCH   8   9
ATOM      9  C   UNL     1      19.442  21.973   6.771  1.00  0.00    -0.000 C 
BRANCH   9  10
ATOM     10  C   UNL     1      18.642  22.799   5.758  1.00  0.00    -0.003 C 
ATOM     11  C   UNL     1      17.345  23.320   6.371  1.00  0.00     0.004 C 
ENDBRANCH   9  10
ENDBRANCH   8   9
ENDBRANCH   1   8
TORSDOF 6
ENDMDL
MODEL 4
REMARK VINA RESULT:    -4.544      2.938      4.926
REMARK INTER + INTRA:          -6.816
REMARK INTER:                  -6.300
REMARK INTRA:                  -0.516
REMARK UNBOUND:                -0.678
REMARK SMILES CCCCCCC=CC(=O)[O-]
REMARK SMILES IDX 5 1 6 2 7 3 8 4 9 5 10 6 11 7 4 8 3 9 2 10 1 11
REMARK H PARENT
REMARK Flexibility Score: inf
ROOT
ATOM      1  C   UNL     1      17.274  23.783   6.623  1.00  0.00     0.004 C 
ENDROOT
BRANCH   1   2
ATOM      2  C   UNL     1      18.559  23.074   6.167  1.00  0.00     0.027 C 
BRANCH   2   3
ATOM      3  C   UNL     1      19.400  22.671   7.343  1.00  0.00    -0.025 C 
ATOM      4  C   UNL     1      20.730  22.812   7.333  1.00  0.00     0.020 C 
BRANCH   4   5
ATOM      5  C   UNL     1      21.572  22.437   8.479  1.00  0.00     0.064 C 
ATOM      6  O   UNL     1      21.528  23.083   9.560  1.00  0.00    -0.545 OA
ATOM      7  O   UNL     1      22.432  21.352   8.368  1.00  0.00    -0.545 OA
ENDBRANCH   4   5
ENDBRANCH   2   3
ENDBRANCH   1   2
BRANCH   1   8
ATOM      8  C   UNL     1      17.208  23.968   8.146  1.00  0.00     0.000 C 
BRANCH   8   9
ATOM      9  C   UNL     1      17.292  25.444   8.566  1.00  0.00    -0.000 C 
BRANCH   9  10
ATOM     10  C   UNL     1      18.697  25.790   9.073  1.00  0.00    -0.003 C 
ATOM     11  C   UNL     1      19.060  27.236   8.749  1.00  0.00     0.004 C 
ENDBRANCH   9  10
ENDBRANCH   8   9
ENDBRANCH   1   8
TORSDOF 6
ENDMDL
MODEL 5
REMARK VINA RESULT:    -4.483      3.271      5.440
REMARK INTER + INTRA:          -6.733
REMARK INTER:                  -6.383
REMARK INTRA:                  -0.351
REMARK UNBOUND:                -0.678
REMARK SMILES CCCCCCC=CC(=O)[O-]
REMARK SMILES IDX 5 1 6 2 7 3 8 4 9 5 10 6 11 7 4 8 3 9 2 10 1 11
REMARK H PARENT
REMARK Flexibility Score: inf
ROOT
ATOM      1  C   UNL     1      16.877  24.301   7.274  1.00  0.00     0.004 C 
ENDROOT
BRANCH   1   2
ATOM      2  C   UNL     1      17.677  23.493   6.240  1.00  0.00     0.027 C 
BRANCH   2   3
ATOM      3  C   UNL     1      19.028  23.116   6.776  1.00  0.00    -0.025 C 
ATOM      4  C   UNL     1      19.876  22.363   6.067  1.00  0.00     0.020 C 
BRANCH   4   5
ATOM      5  C   UNL     1      21.209  21.992   6.567  1.00  0.00     0.064 C 
ATOM      6  O   UNL     1      21.750  22.626   7.511  1.00  0.00    -0.545 OA
ATOM      7  O   UNL     1      21.883  20.925   5.988  1.00  0.00    -0.545 OA
ENDBRANCH   4   5
ENDBRANCH   2   3
ENDBRANCH   1   2
BRANCH   1   8
ATOM      8  C   UNL     1      17.758  24.851   8.406  1.00  0.00     0.000 C 
BRANCH   8   9
ATOM      9  C   UNL     1      17.038  25.910   9.254  1.00  0.00    -0.000 C 
BRANCH   9  10
ATOM     10  C   UNL     1      17.604  27.308   8.981  1.00  0.00    -0.003 C 
ATOM     11  C   UNL     1      19.113  27.258   8.757  1.00  0.00     0.004 C 
ENDBRANCH   9  10
ENDBRANCH   8   9
ENDBRANCH   1   8
TORSDOF 6
ENDMDL
MODEL 6
REMARK VINA RESULT:    -4.405      3.748      5.531
REMARK INTER + INTRA:          -6.629
REMARK INTER:                  -6.275
REMARK INTRA:                  -0.354
REMARK UNBOUND:                -0.678
REMARK SMILES CCCCCCC=CC(=O)[O-]
REMARK SMILES IDX 5 1 6 2 7 3 8 4 9 5 10 6 11 7 4 8 3 9 2 10 1 11
REMARK H PARENT
REMARK Flexibility Score: inf
ROOT
ATOM      1  C   UNL     1      19.146  24.169   7.981  1.00  0.00     0.004 C 
ENDROOT
BRANCH   1   2
ATOM      2  C   UNL     1      20.582  23.866   8.439  1.00  0.00     0.027 C 
BRANCH   2   3
ATOM      3  C   UNL     1      21.192  22.769   7.616  1.00  0.00    -0.025 C 
ATOM      4  C   UNL     1      20.670  22.404   6.439  1.00  0.00     0.020 C 
BRANCH   4   5
ATOM      5  C   UNL     1      21.259  21.342   5.610  1.00  0.00     0.064 C 
ATOM      6  O   UNL     1      22.156  20.583   6.064  1.00  0.00    -0.545 OA
ATOM      7  O   UNL     1      20.819  21.171   4.304  1.00  0.00    -0.545 OA
ENDBRANCH   4   5
ENDBRANCH   2   3
ENDBRANCH   1   2
BRANCH   1   8
ATOM      8  C   UNL     1      18.301  24.829   9.081  1.00  0.00     0.000 C 
BRANCH   8   9
ATOM      9  C   UNL     1      19.066  25.928   9.835  1.00  0.00    -0.000 C 
BRANCH   9  10
ATOM     10  C   UNL     1      19.013  27.255   9.069  1.00  0.00    -0.003 C 
ATOM     11  C   UNL     1      17.582  27.605   8.671  1.00  0.00     0.004 C 
ENDBRANCH   9  10
ENDBRANCH   8   9
ENDBRANCH   1   8
TORSDOF 6
ENDMDL
MODEL 7
REMARK VINA RESULT:    -4.343      1.213      2.110
REMARK INTER + INTRA:          -6.544
REMARK INTER:                  -5.801
REMARK INTRA:                  -0.742
REMARK UNBOUND:                -0.678
REMARK SMILES CCCCCCC=CC(=O)[O-]
REMARK SMILES IDX 5 1 6 2 7 3 8 4 9 5 10 6 11 7 4 8 3 9 2 10 1 11
REMARK H PARENT
REMARK Flexibility Score: inf
ROOT
ATOM      1  C   UNL     1      21.431  22.104   8.714  1.00  0.00     0.004 C 
ENDROOT
BRANCH   1   2
ATOM      2  C   UNL     1      21.244  23.138   9.836  1.00  0.00     0.027 C 
BRANCH   2   3
ATOM      3  C   UNL     1      19.791  23.441  10.056  1.00  0.00    -0.025 C 
ATOM      4  C   UNL     1      19.277  24.644   9.776  1.00  0.00     0.020 C 
BRANCH   4   5
ATOM      5  C   UNL     1      17.853  24.959   9.971  1.00  0.00     0.064 C 
ATOM      6  O   UNL     1      17.213  24.498  10.953  1.00  0.00    -0.545 OA
ATOM      7  O   UNL     1      17.203  25.777   9.057  1.00  0.00    -0.545 OA
ENDBRANCH   4   5
ENDBRANCH   2   3
ENDBRANCH   1   2
BRANCH   1   8
ATOM      8  C   UNL     1      21.388  22.737   7.314  1.00  0.00     0.000 C 
BRANCH   8   9
ATOM      9  C   UNL     1      20.253  22.173   6.446  1.00  0.00    -0.000 C 
BRANCH   9  10
ATOM     10  C   UNL     1      19.033  23.101   6.470  1.00  0.00    -0.003 C 
ATOM     11  C   UNL     1      17.816  22.396   7.062  1.00  0.00     0.004 C 
ENDBRANCH   9  10
ENDBRANCH   8   9
ENDBRANCH   1   8
TORSDOF 6
ENDMDL
MODEL 8
REMARK VINA RESULT:    -4.271      2.622      4.380
REMARK INTER + INTRA:          -6.447
REMARK INTER:                  -5.991
REMARK INTRA:                  -0.455
REMARK UNBOUND:                -0.678
REMARK SMILES CCCCCCC=CC(=O)[O-]
REMARK SMILES IDX 5 1 6 2 7 3 8 4 9 5 10 6 11 7 4 8 3 9 2 10 1 11
REMARK H PARENT
REMARK Flexibility Score: inf
ROOT
ATOM      1  C   UNL     1      17.069  22.920  11.389  1.00  0.00     0.004 C 
ENDROOT
BRANCH   1   2
ATOM      2  C   UNL     1      18.296  22.002  11.512  1.00  0.00     0.027 C 
BRANCH   2   3
ATOM      3  C   UNL     1      19.160  22.088  10.287  1.00  0.00    -0.025 C 
ATOM      4  C   UNL     1      20.281  22.817  10.272  1.00  0.00     0.020 C 
BRANCH   4   5
ATOM      5  C   UNL     1      21.150  22.905   9.088  1.00  0.00     0.064 C 
ATOM      6  O   UNL     1      21.000  23.821   8.236  1.00  0.00    -0.545 OA
ATOM      7  O   UNL     1      22.153  21.962   8.906  1.00  0.00    -0.545 OA
ENDBRANCH   4   5
ENDBRANCH   2   3
ENDBRANCH   1   2
BRANCH   1   8
ATOM      8  C   UNL     1      16.958  23.577  10.005  1.00  0.00     0.000 C 
BRANCH   8   9
ATOM      9  C   UNL     1      17.177  25.097  10.054  1.00  0.00    -0.000 C 
BRANCH   9  10
ATOM     10  C   UNL     1      17.908  25.585   8.798  1.00  0.00    -0.003 C 
ATOM     11  C   UNL     1      18.863  26.730   9.125  1.00  0.00     0.004 C 
ENDBRANCH   9  10
ENDBRANCH   8   9
ENDBRANCH   1   8
TORSDOF 6
ENDMDL
MODEL 9
REMARK VINA RESULT:    -4.262      1.569      3.272
REMARK INTER + INTRA:          -6.435
REMARK INTER:                  -5.762
REMARK INTRA:                  -0.673
REMARK UNBOUND:                -0.678
REMARK SMILES CCCCCCC=CC(=O)[O-]
REMARK SMILES IDX 5 1 6 2 7 3 8 4 9 5 10 6 11 7 4 8 3 9 2 10 1 11
REMARK H PARENT
REMARK Flexibility Score: inf
ROOT
ATOM      1  C   UNL     1      19.927  21.642   8.735  1.00  0.00     0.004 C 
ENDROOT
BRANCH   1   2
ATOM      2  C   UNL     1      20.191  22.824   7.789  1.00  0.00     0.027 C 
BRANCH   2   3
ATOM      3  C   UNL     1      19.217  23.940   8.033  1.00  0.00    -0.025 C 
ATOM      4  C   UNL     1      19.440  24.873   8.965  1.00  0.00     0.020 C 
BRANCH   4   5
ATOM      5  C   UNL     1      18.505  25.982   9.211  1.00  0.00     0.064 C 
ATOM      6  O   UNL     1      17.292  25.765   9.474  1.00  0.00    -0.545 OA
ATOM      7  O   UNL     1      18.967  27.290   9.151  1.00  0.00    -0.545 OA
ENDBRANCH   4   5
ENDBRANCH   2   3
ENDBRANCH   1   2
BRANCH   1   8
ATOM      8  C   UNL     1      18.440  21.261   8.805  1.00  0.00     0.000 C 
BRANCH   8   9
ATOM      9  C   UNL     1      17.991  20.898  10.229  1.00  0.00    -0.000 C 
BRANCH   9  10
ATOM     10  C   UNL     1      18.340  22.018  11.215  1.00  0.00    -0.003 C 
ATOM     11  C   UNL     1      17.093  22.787  11.642  1.00  0.00     0.004 C 
ENDBRANCH   9  10
ENDBRANCH   8   9
ENDBRANCH   1   8
TORSDOF 6
ENDMDL
