MODEL 1
REMARK VINA RESULT:    -2.973      0.000      0.000
REMARK INTER + INTRA:          -7.730
REMARK INTER:                  -5.580
REMARK INTRA:                  -2.150
REMARK UNBOUND:                -2.150
REMARK SMILES O=C([O-])CCCCCCCCCCCCCCC(=O)[O-]
REMARK SMILES IDX 10 1 9 2 8 3 7 4 6 5 5 6 4 7 2 8 1 9 3 10 11 11 12 12 13 13
REMARK SMILES IDX 14 14 15 15 16 16 17 17 18 18 19 19 20 20
REMARK H PARENT
REMARK Flexibility Score: inf
ROOT
ATOM      1  C   UNL     1      61.977  27.897  59.660  1.00  0.00     0.000 C 
ENDROOT
BRANCH   1   2
ATOM      2  C   UNL     1      62.912  27.739  60.871  1.00  0.00     0.000 C 
BRANCH   2   3
ATOM      3  C   UNL     1      63.018  29.026  61.706  1.00  0.00     0.000 C 
BRANCH   3   4
ATOM      4  C   UNL     1      64.343  29.772  61.481  1.00  0.00     0.000 C 
BRANCH   4   5
ATOM      5  C   UNL     1      65.441  28.870  60.897  1.00  0.00     0.000 C 
BRANCH   5   6
ATOM      6  C   UNL     1      66.642  29.705  60.426  1.00  0.00     0.006 C 
BRANCH   6   7
ATOM      7  C   UNL     1      67.672  28.862  59.663  1.00  0.00     0.053 C 
BRANCH   7   8
ATOM      8  C   UNL     1      68.888  28.583  60.494  1.00  0.00     0.041 C 
ATOM      9  O   UNL     1      68.864  28.777  61.738  1.00  0.00    -0.550 OA
ATOM     10  O   UNL     1      70.057  28.140  59.888  1.00  0.00    -0.550 OA
ENDBRANCH   7   8
ENDBRANCH   6   7
ENDBRANCH   5   6
ENDBRANCH   4   5
ENDBRANCH   3   4
ENDBRANCH   2   3
ENDBRANCH   1   2
BRANCH   1  11
ATOM     11  C   UNL     1      61.007  29.079  59.813  1.00  0.00     0.000 C 
BRANCH  11  12
ATOM     12  C   UNL     1      61.087  30.016  58.598  1.00  0.00     0.000 C 
BRANCH  12  13
ATOM     13  C   UNL     1      62.089  31.171  58.816  1.00  0.00     0.000 C 
BRANCH  13  14
ATOM     14  C   UNL     1      63.429  30.968  58.091  1.00  0.00     0.000 C 
BRANCH  14  15
ATOM     15  C   UNL     1      64.490  32.004  58.496  1.00  0.00     0.000 C 
BRANCH  15  16
ATOM     16  C   UNL     1      63.978  32.994  59.553  1.00  0.00     0.006 C 
BRANCH  16  17
ATOM     17  C   UNL     1      65.000  33.247  60.669  1.00  0.00     0.053 C 
BRANCH  17  18
ATOM     18  C   UNL     1      65.137  34.714  60.927  1.00  0.00     0.041 C 
ATOM     19  O   UNL     1      64.792  35.198  62.037  1.00  0.00    -0.550 OA
ATOM     20  O   UNL     1      65.604  35.556  59.925  1.00  0.00    -0.550 OA
ENDBRANCH  17  18
ENDBRANCH  16  17
ENDBRANCH  15  16
ENDBRANCH  14  15
ENDBRANCH  13  14
ENDBRANCH  12  13
ENDBRANCH  11  12
ENDBRANCH   1  11
TORSDOF 15
ENDMDL
MODEL 2
REMARK VINA RESULT:    -2.960     10.533     11.944
REMARK INTER + INTRA:          -7.705
REMARK INTER:                  -5.475
REMARK INTRA:                  -2.230
REMARK UNBOUND:                -2.150
REMARK SMILES O=C([O-])CCCCCCCCCCCCCCC(=O)[O-]
REMARK SMILES IDX 10 1 9 2 8 3 7 4 6 5 5 6 4 7 2 8 1 9 3 10 11 11 12 12 13 13
REMARK SMILES IDX 14 14 15 15 16 16 17 17 18 18 19 19 20 20
REMARK H PARENT
REMARK Flexibility Score: inf
ROOT
ATOM      1  C   UNL     1      63.132  25.894  49.759  1.00  0.00     0.000 C 
ENDROOT
BRANCH   1   2
ATOM      2  C   UNL     1      64.341  26.578  50.420  1.00  0.00     0.000 C 
BRANCH   2   3
ATOM      3  C   UNL     1      64.994  27.630  49.508  1.00  0.00     0.000 C 
BRANCH   3   4
ATOM      4  C   UNL     1      64.305  27.736  48.137  1.00  0.00     0.000 C 
BRANCH   4   5
ATOM      5  C   UNL     1      65.117  28.556  47.124  1.00  0.00     0.000 C 
BRANCH   5   6
ATOM      6  C   UNL     1      66.500  28.913  47.690  1.00  0.00     0.006 C 
BRANCH   6   7
ATOM      7  C   UNL     1      67.219  29.972  46.844  1.00  0.00     0.053 C 
BRANCH   7   8
ATOM      8  C   UNL     1      68.240  29.358  45.935  1.00  0.00     0.041 C 
ATOM      9  O   UNL     1      68.245  28.115  45.735  1.00  0.00    -0.550 OA
ATOM     10  O   UNL     1      69.207  30.156  45.337  1.00  0.00    -0.550 OA
ENDBRANCH   7   8
ENDBRANCH   6   7
ENDBRANCH   5   6
ENDBRANCH   4   5
ENDBRANCH   3   4
ENDBRANCH   2   3
ENDBRANCH   1   2
BRANCH   1  11
ATOM     11  C   UNL     1      61.812  26.204  50.481  1.00  0.00     0.000 C 
BRANCH  11  12
ATOM     12  C   UNL     1      60.872  27.021  49.580  1.00  0.00     0.000 C 
BRANCH  12  13
ATOM     13  C   UNL     1      61.004  28.540  49.825  1.00  0.00     0.000 C 
BRANCH  13  14
ATOM     14  C   UNL     1      61.651  28.893  51.174  1.00  0.00     0.000 C 
BRANCH  14  15
ATOM     15  C   UNL     1      62.590  30.108  51.087  1.00  0.00     0.000 C 
BRANCH  15  16
ATOM     16  C   UNL     1      62.649  30.710  49.675  1.00  0.00     0.006 C 
BRANCH  16  17
ATOM     17  C   UNL     1      64.014  31.333  49.355  1.00  0.00     0.053 C 
BRANCH  17  18
ATOM     18  C   UNL     1      63.852  32.760  48.938  1.00  0.00     0.041 C 
ATOM     19  O   UNL     1      64.708  33.620  49.273  1.00  0.00    -0.550 OA
ATOM     20  O   UNL     1      62.729  33.151  48.219  1.00  0.00    -0.550 OA
ENDBRANCH  17  18
ENDBRANCH  16  17
ENDBRANCH  15  16
ENDBRANCH  14  15
ENDBRANCH  13  14
ENDBRANCH  12  13
ENDBRANCH  11  12
ENDBRANCH   1  11
TORSDOF 15
ENDMDL
MODEL 3
REMARK VINA RESULT:    -2.931      1.529      5.088
REMARK INTER + INTRA:          -7.652
REMARK INTER:                  -5.276
REMARK INTRA:                  -2.376
REMARK UNBOUND:                -2.150
REMARK SMILES O=C([O-])CCCCCCCCCCCCCCC(=O)[O-]
REMARK SMILES IDX 10 1 9 2 8 3 7 4 6 5 5 6 4 7 2 8 1 9 3 10 11 11 12 12 13 13
REMARK SMILES IDX 14 14 15 15 16 16 17 17 18 18 19 19 20 20
REMARK H PARENT
REMARK Flexibility Score: inf
ROOT
ATOM      1  C   UNL     1      62.525  28.957  58.056  1.00  0.00     0.000 C 
ENDROOT
BRANCH   1   2
ATOM      2  C   UNL     1      62.413  30.256  57.240  1.00  0.00     0.000 C 
BRANCH   2   3
ATOM      3  C   UNL     1      61.896  31.436  58.080  1.00  0.00     0.000 C 
BRANCH   3   4
ATOM      4  C   UNL     1      62.975  32.020  59.008  1.00  0.00     0.000 C 
BRANCH   4   5
ATOM      5  C   UNL     1      64.343  32.149  58.322  1.00  0.00     0.000 C 
BRANCH   5   6
ATOM      6  C   UNL     1      65.245  33.135  59.080  1.00  0.00     0.006 C 
BRANCH   6   7
ATOM      7  C   UNL     1      65.025  33.077  60.597  1.00  0.00     0.053 C 
BRANCH   7   8
ATOM      8  C   UNL     1      64.754  34.434  61.173  1.00  0.00     0.041 C 
ATOM      9  O   UNL     1      65.559  34.947  61.992  1.00  0.00    -0.550 OA
ATOM     10  O   UNL     1      63.593  35.115  60.828  1.00  0.00    -0.550 OA
ENDBRANCH   7   8
ENDBRANCH   6   7
ENDBRANCH   5   6
ENDBRANCH   4   5
ENDBRANCH   3   4
ENDBRANCH   2   3
ENDBRANCH   1   2
BRANCH   1  11
ATOM     11  C   UNL     1      61.157  28.421  58.505  1.00  0.00     0.000 C 
BRANCH  11  12
ATOM     12  C   UNL     1      61.196  27.979  59.976  1.00  0.00     0.000 C 
BRANCH  12  13
ATOM     13  C   UNL     1      61.635  29.121  60.918  1.00  0.00     0.000 C 
BRANCH  13  14
ATOM     14  C   UNL     1      62.873  28.781  61.763  1.00  0.00     0.000 C 
BRANCH  14  15
ATOM     15  C   UNL     1      64.100  29.631  61.394  1.00  0.00     0.000 C 
BRANCH  15  16
ATOM     16  C   UNL     1      65.133  28.852  60.564  1.00  0.00     0.006 C 
BRANCH  16  17
ATOM     17  C   UNL     1      66.518  29.511  60.577  1.00  0.00     0.053 C 
BRANCH  17  18
ATOM     18  C   UNL     1      67.053  29.627  59.185  1.00  0.00     0.041 C 
ATOM     19  O   UNL     1      68.150  30.208  58.973  1.00  0.00    -0.550 OA
ATOM     20  O   UNL     1      66.317  29.135  58.113  1.00  0.00    -0.550 OA
ENDBRANCH  17  18
ENDBRANCH  16  17
ENDBRANCH  15  16
ENDBRANCH  14  15
ENDBRANCH  13  14
ENDBRANCH  12  13
ENDBRANCH  11  12
ENDBRANCH   1  11
TORSDOF 15
ENDMDL
MODEL 4
REMARK VINA RESULT:    -2.911      4.043      6.429
REMARK INTER + INTRA:          -7.613
REMARK INTER:                  -5.299
REMARK INTRA:                  -2.314
REMARK UNBOUND:                -2.150
REMARK SMILES O=C([O-])CCCCCCCCCCCCCCC(=O)[O-]
REMARK SMILES IDX 10 1 9 2 8 3 7 4 6 5 5 6 4 7 2 8 1 9 3 10 11 11 12 12 13 13
REMARK SMILES IDX 14 14 15 15 16 16 17 17 18 18 19 19 20 20
REMARK H PARENT
REMARK Flexibility Score: inf
ROOT
ATOM      1  C   UNL     1      62.093  27.104  58.841  1.00  0.00     0.000 C 
ENDROOT
BRANCH   1   2
ATOM      2  C   UNL     1      62.439  25.692  59.344  1.00  0.00     0.000 C 
BRANCH   2   3
ATOM      3  C   UNL     1      63.521  25.705  60.437  1.00  0.00     0.000 C 
BRANCH   3   4
ATOM      4  C   UNL     1      63.056  25.032  61.738  1.00  0.00     0.000 C 
BRANCH   4   5
ATOM      5  C   UNL     1      62.293  25.991  62.664  1.00  0.00     0.000 C 
BRANCH   5   6
ATOM      6  C   UNL     1      61.050  25.309  63.256  1.00  0.00     0.006 C 
BRANCH   6   7
ATOM      7  C   UNL     1      60.240  24.552  62.195  1.00  0.00     0.053 C 
BRANCH   7   8
ATOM      8  C   UNL     1      59.063  25.349  61.721  1.00  0.00     0.041 C 
ATOM      9  O   UNL     1      58.853  26.503  62.177  1.00  0.00    -0.550 OA
ATOM     10  O   UNL     1      58.180  24.801  60.799  1.00  0.00    -0.550 OA
ENDBRANCH   7   8
ENDBRANCH   6   7
ENDBRANCH   5   6
ENDBRANCH   4   5
ENDBRANCH   3   4
ENDBRANCH   2   3
ENDBRANCH   1   2
BRANCH   1  11
ATOM     11  C   UNL     1      60.772  27.631  59.423  1.00  0.00     0.000 C 
BRANCH  11  12
ATOM     12  C   UNL     1      61.031  28.719  60.476  1.00  0.00     0.000 C 
BRANCH  12  13
ATOM     13  C   UNL     1      62.437  29.343  60.339  1.00  0.00     0.000 C 
BRANCH  13  14
ATOM     14  C   UNL     1      63.280  29.250  61.620  1.00  0.00     0.000 C 
BRANCH  14  15
ATOM     15  C   UNL     1      64.702  29.808  61.442  1.00  0.00     0.000 C 
BRANCH  15  16
ATOM     16  C   UNL     1      65.462  29.135  60.289  1.00  0.00     0.006 C 
BRANCH  16  17
ATOM     17  C   UNL     1      66.315  27.948  60.758  1.00  0.00     0.053 C 
BRANCH  17  18
ATOM     18  C   UNL     1      67.767  28.305  60.725  1.00  0.00     0.041 C 
ATOM     19  O   UNL     1      68.375  28.588  61.791  1.00  0.00    -0.550 OA
ATOM     20  O   UNL     1      68.440  28.371  59.511  1.00  0.00    -0.550 OA
ENDBRANCH  17  18
ENDBRANCH  16  17
ENDBRANCH  15  16
ENDBRANCH  14  15
ENDBRANCH  13  14
ENDBRANCH  12  13
ENDBRANCH  11  12
ENDBRANCH   1  11
TORSDOF 15
ENDMDL
MODEL 5
REMARK VINA RESULT:    -2.908      2.234      3.531
REMARK INTER + INTRA:          -7.607
REMARK INTER:                  -5.757
REMARK INTRA:                  -1.850
REMARK UNBOUND:                -2.150
REMARK SMILES O=C([O-])CCCCCCCCCCCCCCC(=O)[O-]
REMARK SMILES IDX 10 1 9 2 8 3 7 4 6 5 5 6 4 7 2 8 1 9 3 10 11 11 12 12 13 13
REMARK SMILES IDX 14 14 15 15 16 16 17 17 18 18 19 19 20 20
REMARK H PARENT
REMARK Flexibility Score: inf
ROOT
ATOM      1  C   UNL     1      65.156  26.549  59.270  1.00  0.00     0.000 C 
ENDROOT
BRANCH   1   2
ATOM      2  C   UNL     1      66.531  27.218  59.427  1.00  0.00     0.000 C 
BRANCH   2   3
ATOM      3  C   UNL     1      66.747  27.797  60.836  1.00  0.00     0.000 C 
BRANCH   3   4
ATOM      4  C   UNL     1      67.690  29.011  60.839  1.00  0.00     0.000 C 
BRANCH   4   5
ATOM      5  C   UNL     1      68.918  28.814  59.939  1.00  0.00     0.000 C 
BRANCH   5   6
ATOM      6  C   UNL     1      70.217  29.058  60.722  1.00  0.00     0.006 C 
BRANCH   6   7
ATOM      7  C   UNL     1      71.160  30.028  59.999  1.00  0.00     0.053 C 
BRANCH   7   8
ATOM      8  C   UNL     1      72.307  30.443  60.869  1.00  0.00     0.041 C 
ATOM      9  O   UNL     1      72.573  29.797  61.916  1.00  0.00    -0.550 OA
ATOM     10  O   UNL     1      73.059  31.563  60.540  1.00  0.00    -0.550 OA
ENDBRANCH   7   8
ENDBRANCH   6   7
ENDBRANCH   5   6
ENDBRANCH   4   5
ENDBRANCH   3   4
ENDBRANCH   2   3
ENDBRANCH   1   2
BRANCH   1  11
ATOM     11  C   UNL     1      64.419  26.390  60.609  1.00  0.00     0.000 C 
BRANCH  11  12
ATOM     12  C   UNL     1      63.063  27.112  60.579  1.00  0.00     0.000 C 
BRANCH  12  13
ATOM     13  C   UNL     1      62.913  28.120  61.739  1.00  0.00     0.000 C 
BRANCH  13  14
ATOM     14  C   UNL     1      63.528  29.497  61.442  1.00  0.00     0.000 C 
BRANCH  14  15
ATOM     15  C   UNL     1      63.423  29.892  59.959  1.00  0.00     0.000 C 
BRANCH  15  16
ATOM     16  C   UNL     1      64.615  30.737  59.486  1.00  0.00     0.006 C 
BRANCH  16  17
ATOM     17  C   UNL     1      65.194  31.618  60.600  1.00  0.00     0.053 C 
BRANCH  17  18
ATOM     18  C   UNL     1      64.801  33.046  60.394  1.00  0.00     0.041 C 
ATOM     19  O   UNL     1      64.173  33.388  59.357  1.00  0.00    -0.550 OA
ATOM     20  O   UNL     1      65.168  34.011  61.324  1.00  0.00    -0.550 OA
ENDBRANCH  17  18
ENDBRANCH  16  17
ENDBRANCH  15  16
ENDBRANCH  14  15
ENDBRANCH  13  14
ENDBRANCH  12  13
ENDBRANCH  11  12
ENDBRANCH   1  11
TORSDOF 15
ENDMDL
MODEL 6
REMARK VINA RESULT:    -2.891     11.865     13.629
REMARK INTER + INTRA:          -7.576
REMARK INTER:                  -5.644
REMARK INTRA:                  -1.932
REMARK UNBOUND:                -2.150
REMARK SMILES O=C([O-])CCCCCCCCCCCCCCC(=O)[O-]
REMARK SMILES IDX 10 1 9 2 8 3 7 4 6 5 5 6 4 7 2 8 1 9 3 10 11 11 12 12 13 13
REMARK SMILES IDX 14 14 15 15 16 16 17 17 18 18 19 19 20 20
REMARK H PARENT
REMARK Flexibility Score: inf
ROOT
ATOM      1  C   UNL     1      63.998  24.636  51.018  1.00  0.00     0.000 C 
ENDROOT
BRANCH   1   2
ATOM      2  C   UNL     1      62.762  24.655  51.933  1.00  0.00     0.000 C 
BRANCH   2   3
ATOM      3  C   UNL     1      61.749  23.554  51.576  1.00  0.00     0.000 C 
BRANCH   3   4
ATOM      4  C   UNL     1      61.708  23.252  50.070  1.00  0.00     0.000 C 
BRANCH   4   5
ATOM      5  C   UNL     1      60.659  22.192  49.703  1.00  0.00     0.000 C 
BRANCH   5   6
ATOM      6  C   UNL     1      61.303  20.803  49.577  1.00  0.00     0.006 C 
BRANCH   6   7
ATOM      7  C   UNL     1      60.932  19.881  50.745  1.00  0.00     0.053 C 
BRANCH   7   8
ATOM      8  C   UNL     1      59.974  18.808  50.325  1.00  0.00     0.041 C 
ATOM      9  O   UNL     1      59.987  17.687  50.897  1.00  0.00    -0.550 OA
ATOM     10  O   UNL     1      59.091  19.037  49.277  1.00  0.00    -0.550 OA
ENDBRANCH   7   8
ENDBRANCH   6   7
ENDBRANCH   5   6
ENDBRANCH   4   5
ENDBRANCH   3   4
ENDBRANCH   2   3
ENDBRANCH   1   2
BRANCH   1  11
ATOM     11  C   UNL     1      64.364  26.032  50.491  1.00  0.00     0.000 C 
BRANCH  11  12
ATOM     12  C   UNL     1      63.402  26.467  49.374  1.00  0.00     0.000 C 
BRANCH  12  13
ATOM     13  C   UNL     1      62.860  27.896  49.595  1.00  0.00     0.000 C 
BRANCH  13  14
ATOM     14  C   UNL     1      61.390  27.935  50.041  1.00  0.00     0.000 C 
BRANCH  14  15
ATOM     15  C   UNL     1      60.593  26.702  49.583  1.00  0.00     0.000 C 
BRANCH  15  16
ATOM     16  C   UNL     1      59.497  26.300  50.581  1.00  0.00     0.006 C 
BRANCH  16  17
ATOM     17  C   UNL     1      58.538  25.245  50.013  1.00  0.00     0.053 C 
BRANCH  17  18
ATOM     18  C   UNL     1      57.163  25.436  50.570  1.00  0.00     0.041 C 
ATOM     19  O   UNL     1      56.173  25.522  49.797  1.00  0.00    -0.550 OA
ATOM     20  O   UNL     1      56.980  25.566  51.941  1.00  0.00    -0.550 OA
ENDBRANCH  17  18
ENDBRANCH  16  17
ENDBRANCH  15  16
ENDBRANCH  14  15
ENDBRANCH  13  14
ENDBRANCH  12  13
ENDBRANCH  11  12
ENDBRANCH   1  11
TORSDOF 15
ENDMDL
MODEL 7
REMARK VINA RESULT:    -2.890     10.901     12.905
REMARK INTER + INTRA:          -7.574
REMARK INTER:                  -5.524
REMARK INTRA:                  -2.049
REMARK UNBOUND:                -2.150
REMARK SMILES O=C([O-])CCCCCCCCCCCCCCC(=O)[O-]
REMARK SMILES IDX 10 1 9 2 8 3 7 4 6 5 5 6 4 7 2 8 1 9 3 10 11 11 12 12 13 13
REMARK SMILES IDX 14 14 15 15 16 16 17 17 18 18 19 19 20 20
REMARK H PARENT
REMARK Flexibility Score: inf
ROOT
ATOM      1  C   UNL     1      60.954  28.858  49.842  1.00  0.00     0.000 C 
ENDROOT
BRANCH   1   2
ATOM      2  C   UNL     1      61.207  27.410  49.391  1.00  0.00     0.000 C 
BRANCH   2   3
ATOM      3  C   UNL     1      62.704  27.060  49.343  1.00  0.00     0.000 C 
BRANCH   3   4
ATOM      4  C   UNL     1      63.028  25.744  50.069  1.00  0.00     0.000 C 
BRANCH   4   5
ATOM      5  C   UNL     1      61.788  25.085  50.690  1.00  0.00     0.000 C 
BRANCH   5   6
ATOM      6  C   UNL     1      61.607  23.653  50.165  1.00  0.00     0.006 C 
BRANCH   6   7
ATOM      7  C   UNL     1      60.237  23.067  50.531  1.00  0.00     0.053 C 
BRANCH   7   8
ATOM      8  C   UNL     1      60.365  21.744  51.223  1.00  0.00     0.041 C 
ATOM      9  O   UNL     1      59.366  21.224  51.786  1.00  0.00    -0.550 OA
ATOM     10  O   UNL     1      61.596  21.103  51.275  1.00  0.00    -0.550 OA
ENDBRANCH   7   8
ENDBRANCH   6   7
ENDBRANCH   5   6
ENDBRANCH   4   5
ENDBRANCH   3   4
ENDBRANCH   2   3
ENDBRANCH   1   2
BRANCH   1  11
ATOM     11  C   UNL     1      61.440  29.124  51.275  1.00  0.00     0.000 C 
BRANCH  11  12
ATOM     12  C   UNL     1      60.523  28.440  52.301  1.00  0.00     0.000 C 
BRANCH  12  13
ATOM     13  C   UNL     1      59.078  28.981  52.247  1.00  0.00     0.000 C 
BRANCH  13  14
ATOM     14  C   UNL     1      58.015  27.882  52.085  1.00  0.00     0.000 C 
BRANCH  14  15
ATOM     15  C   UNL     1      58.614  26.466  52.093  1.00  0.00     0.000 C 
BRANCH  15  16
ATOM     16  C   UNL     1      57.599  25.392  51.669  1.00  0.00     0.006 C 
BRANCH  16  17
ATOM     17  C   UNL     1      57.184  25.520  50.198  1.00  0.00     0.053 C 
BRANCH  17  18
ATOM     18  C   UNL     1      55.697  25.634  50.084  1.00  0.00     0.041 C 
ATOM     19  O   UNL     1      55.133  25.474  48.970  1.00  0.00    -0.550 OA
ATOM     20  O   UNL     1      54.937  25.964  51.199  1.00  0.00    -0.550 OA
ENDBRANCH  17  18
ENDBRANCH  16  17
ENDBRANCH  15  16
ENDBRANCH  14  15
ENDBRANCH  13  14
ENDBRANCH  12  13
ENDBRANCH  11  12
ENDBRANCH   1  11
TORSDOF 15
ENDMDL
MODEL 8
REMARK VINA RESULT:    -2.874      1.828      2.772
REMARK INTER + INTRA:          -7.544
REMARK INTER:                  -5.822
REMARK INTRA:                  -1.722
REMARK UNBOUND:                -2.150
REMARK SMILES O=C([O-])CCCCCCCCCCCCCCC(=O)[O-]
REMARK SMILES IDX 10 1 9 2 8 3 7 4 6 5 5 6 4 7 2 8 1 9 3 10 11 11 12 12 13 13
REMARK SMILES IDX 14 14 15 15 16 16 17 17 18 18 19 19 20 20
REMARK H PARENT
REMARK Flexibility Score: inf
ROOT
ATOM      1  C   UNL     1      63.832  28.053  60.190  1.00  0.00     0.000 C 
ENDROOT
BRANCH   1   2
ATOM      2  C   UNL     1      65.228  27.549  60.592  1.00  0.00     0.000 C 
BRANCH   2   3
ATOM      3  C   UNL     1      66.235  27.614  59.432  1.00  0.00     0.000 C 
BRANCH   3   4
ATOM      4  C   UNL     1      67.646  28.015  59.893  1.00  0.00     0.000 C 
BRANCH   4   5
ATOM      5  C   UNL     1      67.703  28.381  61.384  1.00  0.00     0.000 C 
BRANCH   5   6
ATOM      6  C   UNL     1      69.152  28.618  61.835  1.00  0.00     0.006 C 
BRANCH   6   7
ATOM      7  C   UNL     1      70.147  28.522  60.672  1.00  0.00     0.053 C 
BRANCH   7   8
ATOM      8  C   UNL     1      71.011  29.743  60.576  1.00  0.00     0.041 C 
ATOM      9  O   UNL     1      71.813  30.026  61.503  1.00  0.00    -0.550 OA
ATOM     10  O   UNL     1      70.903  30.584  59.476  1.00  0.00    -0.550 OA
ENDBRANCH   7   8
ENDBRANCH   6   7
ENDBRANCH   5   6
ENDBRANCH   4   5
ENDBRANCH   3   4
ENDBRANCH   2   3
ENDBRANCH   1   2
BRANCH   1  11
ATOM     11  C   UNL     1      63.474  29.393  60.850  1.00  0.00     0.000 C 
BRANCH  11  12
ATOM     12  C   UNL     1      64.697  30.003  61.552  1.00  0.00     0.000 C 
BRANCH  12  13
ATOM     13  C   UNL     1      65.080  31.380  60.967  1.00  0.00     0.000 C 
BRANCH  13  14
ATOM     14  C   UNL     1      65.406  31.342  59.465  1.00  0.00     0.000 C 
BRANCH  14  15
ATOM     15  C   UNL     1      64.804  32.527  58.693  1.00  0.00     0.000 C 
BRANCH  15  16
ATOM     16  C   UNL     1      63.679  33.230  59.469  1.00  0.00     0.006 C 
BRANCH  16  17
ATOM     17  C   UNL     1      63.874  34.750  59.544  1.00  0.00     0.053 C 
BRANCH  17  18
ATOM     18  C   UNL     1      65.071  35.082  60.377  1.00  0.00     0.041 C 
ATOM     19  O   UNL     1      66.069  35.646  59.856  1.00  0.00    -0.550 OA
ATOM     20  O   UNL     1      65.104  34.727  61.720  1.00  0.00    -0.550 OA
ENDBRANCH  17  18
ENDBRANCH  16  17
ENDBRANCH  15  16
ENDBRANCH  14  15
ENDBRANCH  13  14
ENDBRANCH  12  13
ENDBRANCH  11  12
ENDBRANCH   1  11
TORSDOF 15
ENDMDL
MODEL 9
REMARK VINA RESULT:    -2.847     10.207     11.977
REMARK INTER + INTRA:          -7.493
REMARK INTER:                  -5.138
REMARK INTRA:                  -2.355
REMARK UNBOUND:                -2.150
REMARK SMILES O=C([O-])CCCCCCCCCCCCCCC(=O)[O-]
REMARK SMILES IDX 10 1 9 2 8 3 7 4 6 5 5 6 4 7 2 8 1 9 3 10 11 11 12 12 13 13
REMARK SMILES IDX 14 14 15 15 16 16 17 17 18 18 19 19 20 20
REMARK H PARENT
REMARK Flexibility Score: inf
ROOT
ATOM      1  C   UNL     1      63.000  28.099  53.547  1.00  0.00     0.000 C 
ENDROOT
BRANCH   1   2
ATOM      2  C   UNL     1      63.145  26.691  52.947  1.00  0.00     0.000 C 
BRANCH   2   3
ATOM      3  C   UNL     1      64.206  26.631  51.835  1.00  0.00     0.000 C 
BRANCH   3   4
ATOM      4  C   UNL     1      63.816  25.677  50.695  1.00  0.00     0.000 C 
BRANCH   4   5
ATOM      5  C   UNL     1      64.493  26.032  49.363  1.00  0.00     0.000 C 
BRANCH   5   6
ATOM      6  C   UNL     1      64.745  27.544  49.262  1.00  0.00     0.006 C 
BRANCH   6   7
ATOM      7  C   UNL     1      64.402  28.099  47.874  1.00  0.00     0.053 C 
BRANCH   7   8
ATOM      8  C   UNL     1      65.634  28.408  47.078  1.00  0.00     0.041 C 
ATOM      9  O   UNL     1      66.112  27.550  46.292  1.00  0.00    -0.550 OA
ATOM     10  O   UNL     1      66.271  29.633  47.233  1.00  0.00    -0.550 OA
ENDBRANCH   7   8
ENDBRANCH   6   7
ENDBRANCH   5   6
ENDBRANCH   4   5
ENDBRANCH   3   4
ENDBRANCH   2   3
ENDBRANCH   1   2
BRANCH   1  11
ATOM     11  C   UNL     1      62.689  29.165  52.485  1.00  0.00     0.000 C 
BRANCH  11  12
ATOM     12  C   UNL     1      61.220  29.609  52.564  1.00  0.00     0.000 C 
BRANCH  12  13
ATOM     13  C   UNL     1      60.477  29.411  51.225  1.00  0.00     0.000 C 
BRANCH  13  14
ATOM     14  C   UNL     1      61.401  29.021  50.060  1.00  0.00     0.000 C 
BRANCH  14  15
ATOM     15  C   UNL     1      60.987  27.702  49.385  1.00  0.00     0.000 C 
BRANCH  15  16
ATOM     16  C   UNL     1      60.321  26.721  50.362  1.00  0.00     0.006 C 
BRANCH  16  17
ATOM     17  C   UNL     1      59.855  25.430  49.676  1.00  0.00     0.053 C 
BRANCH  17  18
ATOM     18  C   UNL     1      58.637  24.889  50.354  1.00  0.00     0.041 C 
ATOM     19  O   UNL     1      57.492  25.287  50.013  1.00  0.00    -0.550 OA
ATOM     20  O   UNL     1      58.767  23.980  51.397  1.00  0.00    -0.550 OA
ENDBRANCH  17  18
ENDBRANCH  16  17
ENDBRANCH  15  16
ENDBRANCH  14  15
ENDBRANCH  13  14
ENDBRANCH  12  13
ENDBRANCH  11  12
ENDBRANCH   1  11
TORSDOF 15
ENDMDL
