MODEL 1
REMARK VINA RESULT:    -3.521      0.000      0.000
REMARK INTER + INTRA:          -7.633
REMARK INTER:                  -6.814
REMARK INTRA:                  -0.819
REMARK UNBOUND:                -0.819
REMARK SMILES CCCCCC=CCC=CCCCCCCCCOC(C)=O
REMARK SMILES IDX 12 1 11 2 10 3 9 4 8 5 7 6 6 7 5 8 4 9 3 10 2 11 1 12 13 13
REMARK SMILES IDX 14 14 15 15 16 16 17 17 18 18 19 19 20 20 22 21 21 22
REMARK H PARENT
REMARK Flexibility Score: inf
ROOT
ATOM      1  C   UNL     1      21.172  32.977  41.847  1.00  0.00     0.004 C 
ENDROOT
BRANCH   1   2
ATOM      2  C   UNL     1      19.985  32.010  41.735  1.00  0.00     0.027 C 
BRANCH   2   3
ATOM      3  C   UNL     1      18.762  32.716  41.218  1.00  0.00    -0.031 C 
ATOM      4  C   UNL     1      17.565  32.109  41.178  1.00  0.00    -0.027 C 
BRANCH   4   5
ATOM      5  C   UNL     1      16.344  32.814  40.663  1.00  0.00     0.054 C 
BRANCH   5   6
ATOM      6  C   UNL     1      15.099  32.090  41.091  1.00  0.00    -0.027 C 
ATOM      7  C   UNL     1      14.107  32.719  41.739  1.00  0.00    -0.031 C 
BRANCH   7   8
ATOM      8  C   UNL     1      12.880  31.985  42.210  1.00  0.00     0.027 C 
BRANCH   8   9
ATOM      9  C   UNL     1      11.597  32.814  42.030  1.00  0.00     0.004 C 
BRANCH   9  10
ATOM     10  C   UNL     1      11.275  33.711  43.248  1.00  0.00     0.000 C 
BRANCH  10  11
ATOM     11  C   UNL     1      10.029  33.262  44.030  1.00  0.00    -0.003 C 
ATOM     12  C   UNL     1       9.210  32.205  43.292  1.00  0.00     0.004 C 
ENDBRANCH  10  11
ENDBRANCH   9  10
ENDBRANCH   8   9
ENDBRANCH   7   8
ENDBRANCH   5   6
ENDBRANCH   4   5
ENDBRANCH   2   3
ENDBRANCH   1   2
BRANCH   1  13
ATOM     13  C   UNL     1      22.271  32.698  40.806  1.00  0.00     0.000 C 
BRANCH  13  14
ATOM     14  C   UNL     1      21.766  32.120  39.469  1.00  0.00     0.000 C 
BRANCH  14  15
ATOM     15  C   UNL     1      21.063  33.133  38.542  1.00  0.00     0.000 C 
BRANCH  15  16
ATOM     16  C   UNL     1      21.754  34.506  38.438  1.00  0.00     0.003 C 
BRANCH  16  17
ATOM     17  C   UNL     1      21.280  35.553  39.463  1.00  0.00     0.042 C 
BRANCH  17  18
ATOM     18  C   UNL     1      22.384  36.505  39.930  1.00  0.00     0.233 C 
BRANCH  18  19
ATOM     19  O   UNL     1      22.676  36.285  41.307  1.00  0.00    -0.466 OA
BRANCH  19  20
ATOM     20  C   UNL     1      23.051  37.315  42.173  1.00  0.00     0.302 C 
ATOM     21  O   UNL     1      22.181  37.971  42.809  1.00  0.00    -0.253 OA
ATOM     22  C   UNL     1      24.490  37.676  42.306  1.00  0.00     0.139 C 
ENDBRANCH  19  20
ENDBRANCH  18  19
ENDBRANCH  17  18
ENDBRANCH  16  17
ENDBRANCH  15  16
ENDBRANCH  14  15
ENDBRANCH  13  14
ENDBRANCH   1  13
TORSDOF 16
ENDMDL
MODEL 2
REMARK VINA RESULT:    -3.259      1.673      2.982
REMARK INTER + INTRA:          -7.126
REMARK INTER:                  -6.143
REMARK INTRA:                  -0.983
REMARK UNBOUND:                -0.819
REMARK SMILES CCCCCC=CCC=CCCCCCCCCOC(C)=O
REMARK SMILES IDX 12 1 11 2 10 3 9 4 8 5 7 6 6 7 5 8 4 9 3 10 2 11 1 12 13 13
REMARK SMILES IDX 14 14 15 15 16 16 17 17 18 18 19 19 20 20 22 21 21 22
REMARK H PARENT
REMARK Flexibility Score: inf
ROOT
ATOM      1  C   UNL     1      22.963  32.672  40.401  1.00  0.00     0.004 C 
ENDROOT
BRANCH   1   2
ATOM      2  C   UNL     1      21.706  32.485  41.264  1.00  0.00     0.027 C 
BRANCH   2   3
ATOM      3  C   UNL     1      20.461  32.778  40.473  1.00  0.00    -0.031 C 
ATOM      4  C   UNL     1      19.246  32.753  41.042  1.00  0.00    -0.027 C 
BRANCH   4   5
ATOM      5  C   UNL     1      18.002  33.047  40.253  1.00  0.00     0.054 C 
BRANCH   5   6
ATOM      6  C   UNL     1      16.863  32.192  40.730  1.00  0.00    -0.027 C 
ATOM      7  C   UNL     1      15.686  32.726  41.089  1.00  0.00    -0.031 C 
BRANCH   7   8
ATOM      8  C   UNL     1      14.558  31.876  41.611  1.00  0.00     0.027 C 
BRANCH   8   9
ATOM      9  C   UNL     1      13.267  32.051  40.795  1.00  0.00     0.004 C 
BRANCH   9  10
ATOM     10  C   UNL     1      12.133  32.741  41.588  1.00  0.00     0.000 C 
BRANCH  10  11
ATOM     11  C   UNL     1      12.075  32.325  43.067  1.00  0.00    -0.003 C 
ATOM     12  C   UNL     1      11.000  33.070  43.855  1.00  0.00     0.004 C 
ENDBRANCH  10  11
ENDBRANCH   9  10
ENDBRANCH   8   9
ENDBRANCH   7   8
ENDBRANCH   5   6
ENDBRANCH   4   5
ENDBRANCH   2   3
ENDBRANCH   1   2
BRANCH   1  13
ATOM     13  C   UNL     1      24.246  32.815  41.238  1.00  0.00     0.000 C 
BRANCH  13  14
ATOM     14  C   UNL     1      24.036  32.755  42.764  1.00  0.00     0.000 C 
BRANCH  14  15
ATOM     15  C   UNL     1      24.815  33.812  43.573  1.00  0.00     0.000 C 
BRANCH  15  16
ATOM     16  C   UNL     1      23.984  35.031  44.020  1.00  0.00     0.003 C 
BRANCH  16  17
ATOM     17  C   UNL     1      22.687  35.261  43.222  1.00  0.00     0.042 C 
BRANCH  17  18
ATOM     18  C   UNL     1      22.045  36.629  43.468  1.00  0.00     0.233 C 
BRANCH  18  19
ATOM     19  O   UNL     1      22.397  37.534  42.425  1.00  0.00    -0.466 OA
BRANCH  19  20
ATOM     20  C   UNL     1      23.041  37.122  41.255  1.00  0.00     0.302 C 
ATOM     21  O   UNL     1      24.300  37.131  41.175  1.00  0.00    -0.253 OA
ATOM     22  C   UNL     1      22.229  36.716  40.073  1.00  0.00     0.139 C 
ENDBRANCH  19  20
ENDBRANCH  18  19
ENDBRANCH  17  18
ENDBRANCH  16  17
ENDBRANCH  15  16
ENDBRANCH  14  15
ENDBRANCH  13  14
ENDBRANCH   1  13
TORSDOF 16
ENDMDL
MODEL 3
REMARK VINA RESULT:    -3.246      4.079      9.864
REMARK INTER + INTRA:          -7.101
REMARK INTER:                  -6.067
REMARK INTRA:                  -1.033
REMARK UNBOUND:                -0.819
REMARK SMILES CCCCCC=CCC=CCCCCCCCCOC(C)=O
REMARK SMILES IDX 12 1 11 2 10 3 9 4 8 5 7 6 6 7 5 8 4 9 3 10 2 11 1 12 13 13
REMARK SMILES IDX 14 14 15 15 16 16 17 17 18 18 19 19 20 20 22 21 21 22
REMARK H PARENT
REMARK Flexibility Score: inf
ROOT
ATOM      1  C   UNL     1      19.308  31.926  40.348  1.00  0.00     0.004 C 
ENDROOT
BRANCH   1   2
ATOM      2  C   UNL     1      20.787  31.990  39.936  1.00  0.00     0.027 C 
BRANCH   2   3
ATOM      3  C   UNL     1      21.652  32.396  41.097  1.00  0.00    -0.031 C 
ATOM      4  C   UNL     1      22.977  32.183  41.092  1.00  0.00    -0.027 C 
BRANCH   4   5
ATOM      5  C   UNL     1      23.842  32.589  42.251  1.00  0.00     0.054 C 
BRANCH   5   6
ATOM      6  C   UNL     1      24.188  34.048  42.163  1.00  0.00    -0.027 C 
ATOM      7  C   UNL     1      23.550  34.967  42.904  1.00  0.00    -0.031 C 
BRANCH   7   8
ATOM      8  C   UNL     1      23.863  36.435  42.784  1.00  0.00     0.027 C 
BRANCH   8   9
ATOM      9  C   UNL     1      22.602  37.311  42.874  1.00  0.00     0.004 C 
BRANCH   9  10
ATOM     10  C   UNL     1      22.055  37.737  41.492  1.00  0.00     0.000 C 
BRANCH  10  11
ATOM     11  C   UNL     1      22.688  36.972  40.317  1.00  0.00    -0.003 C 
ATOM     12  C   UNL     1      21.704  36.037  39.615  1.00  0.00     0.004 C 
ENDBRANCH  10  11
ENDBRANCH   9  10
ENDBRANCH   8   9
ENDBRANCH   7   8
ENDBRANCH   5   6
ENDBRANCH   4   5
ENDBRANCH   2   3
ENDBRANCH   1   2
BRANCH   1  13
ATOM     13  C   UNL     1      18.369  32.553  39.302  1.00  0.00     0.000 C 
BRANCH  13  14
ATOM     14  C   UNL     1      16.891  32.133  39.422  1.00  0.00     0.000 C 
BRANCH  14  15
ATOM     15  C   UNL     1      16.239  32.419  40.790  1.00  0.00     0.000 C 
BRANCH  15  16
ATOM     16  C   UNL     1      14.790  31.916  40.938  1.00  0.00     0.003 C 
BRANCH  16  17
ATOM     17  C   UNL     1      13.892  32.777  41.846  1.00  0.00     0.042 C 
BRANCH  17  18
ATOM     18  C   UNL     1      12.400  32.459  41.721  1.00  0.00     0.233 C 
BRANCH  18  19
ATOM     19  O   UNL     1      11.834  32.231  43.009  1.00  0.00    -0.466 OA
BRANCH  19  20
ATOM     20  C   UNL     1      10.497  32.509  43.305  1.00  0.00     0.302 C 
ATOM     21  O   UNL     1       9.565  31.920  42.692  1.00  0.00    -0.253 OA
ATOM     22  C   UNL     1      10.171  33.550  44.320  1.00  0.00     0.139 C 
ENDBRANCH  19  20
ENDBRANCH  18  19
ENDBRANCH  17  18
ENDBRANCH  16  17
ENDBRANCH  15  16
ENDBRANCH  14  15
ENDBRANCH  13  14
ENDBRANCH   1  13
TORSDOF 16
ENDMDL
MODEL 4
REMARK VINA RESULT:    -2.802      2.973      5.135
REMARK INTER + INTRA:          -6.242
REMARK INTER:                  -5.119
REMARK INTRA:                  -1.123
REMARK UNBOUND:                -0.819
REMARK SMILES CCCCCC=CCC=CCCCCCCCCOC(C)=O
REMARK SMILES IDX 12 1 11 2 10 3 9 4 8 5 7 6 6 7 5 8 4 9 3 10 2 11 1 12 13 13
REMARK SMILES IDX 14 14 15 15 16 16 17 17 18 18 19 19 20 20 22 21 21 22
REMARK H PARENT
REMARK Flexibility Score: inf
ROOT
ATOM      1  C   UNL     1      21.167  34.591  40.163  1.00  0.00     0.004 C 
ENDROOT
BRANCH   1   2
ATOM      2  C   UNL     1      21.549  35.470  38.962  1.00  0.00     0.027 C 
BRANCH   2   3
ATOM      3  C   UNL     1      20.693  35.149  37.767  1.00  0.00    -0.031 C 
ATOM      4  C   UNL     1      20.851  34.009  37.078  1.00  0.00    -0.027 C 
BRANCH   4   5
ATOM      5  C   UNL     1      19.997  33.687  35.885  1.00  0.00     0.054 C 
BRANCH   5   6
ATOM      6  C   UNL     1      18.953  32.668  36.246  1.00  0.00    -0.027 C 
ATOM      7  C   UNL     1      17.673  33.015  36.448  1.00  0.00    -0.031 C 
BRANCH   7   8
ATOM      8  C   UNL     1      16.635  32.003  36.855  1.00  0.00     0.027 C 
BRANCH   8   9
ATOM      9  C   UNL     1      16.428  31.957  38.378  1.00  0.00     0.004 C 
BRANCH   9  10
ATOM     10  C   UNL     1      17.695  32.342  39.177  1.00  0.00     0.000 C 
BRANCH  10  11
ATOM     11  C   UNL     1      17.415  32.675  40.652  1.00  0.00    -0.003 C 
ATOM     12  C   UNL     1      15.967  32.407  41.060  1.00  0.00     0.004 C 
ENDBRANCH  10  11
ENDBRANCH   9  10
ENDBRANCH   8   9
ENDBRANCH   7   8
ENDBRANCH   5   6
ENDBRANCH   4   5
ENDBRANCH   2   3
ENDBRANCH   1   2
BRANCH   1  13
ATOM     13  C   UNL     1      21.853  33.213  40.136  1.00  0.00     0.000 C 
BRANCH  13  14
ATOM     14  C   UNL     1      23.223  33.156  40.841  1.00  0.00     0.000 C 
BRANCH  14  15
ATOM     15  C   UNL     1      23.170  32.819  42.345  1.00  0.00     0.000 C 
BRANCH  15  16
ATOM     16  C   UNL     1      24.539  32.544  42.998  1.00  0.00     0.003 C 
BRANCH  16  17
ATOM     17  C   UNL     1      25.125  33.721  43.800  1.00  0.00     0.042 C 
BRANCH  17  18
ATOM     18  C   UNL     1      24.826  35.093  43.190  1.00  0.00     0.233 C 
BRANCH  18  19
ATOM     19  O   UNL     1      23.652  35.648  43.776  1.00  0.00    -0.466 OA
BRANCH  19  20
ATOM     20  C   UNL     1      22.779  36.481  43.070  1.00  0.00     0.302 C 
ATOM     21  O   UNL     1      21.565  36.569  43.400  1.00  0.00    -0.253 OA
ATOM     22  C   UNL     1      23.279  37.233  41.885  1.00  0.00     0.139 C 
ENDBRANCH  19  20
ENDBRANCH  18  19
ENDBRANCH  17  18
ENDBRANCH  16  17
ENDBRANCH  15  16
ENDBRANCH  14  15
ENDBRANCH  13  14
ENDBRANCH   1  13
TORSDOF 16
ENDMDL
MODEL 5
REMARK VINA RESULT:    -2.695      2.646      3.500
REMARK INTER + INTRA:          -6.034
REMARK INTER:                  -4.672
REMARK INTRA:                  -1.362
REMARK UNBOUND:                -0.819
REMARK SMILES CCCCCC=CCC=CCCCCCCCCOC(C)=O
REMARK SMILES IDX 12 1 11 2 10 3 9 4 8 5 7 6 6 7 5 8 4 9 3 10 2 11 1 12 13 13
REMARK SMILES IDX 14 14 15 15 16 16 17 17 18 18 19 19 20 20 22 21 21 22
REMARK H PARENT
REMARK Flexibility Score: inf
ROOT
ATOM      1  C   UNL     1      20.263  33.879  42.298  1.00  0.00     0.004 C 
ENDROOT
BRANCH   1   2
ATOM      2  C   UNL     1      19.705  32.609  41.637  1.00  0.00     0.027 C 
BRANCH   2   3
ATOM      3  C   UNL     1      18.341  32.860  41.056  1.00  0.00    -0.031 C 
ATOM      4  C   UNL     1      17.708  31.930  40.324  1.00  0.00    -0.027 C 
BRANCH   4   5
ATOM      5  C   UNL     1      16.345  32.179  39.744  1.00  0.00     0.054 C 
BRANCH   5   6
ATOM      6  C   UNL     1      15.279  31.877  40.759  1.00  0.00    -0.027 C 
ATOM      7  C   UNL     1      14.543  32.850  41.316  1.00  0.00    -0.031 C 
BRANCH   7   8
ATOM      8  C   UNL     1      13.507  32.554  42.367  1.00  0.00     0.027 C 
BRANCH   8   9
ATOM      9  C   UNL     1      13.085  33.813  43.144  1.00  0.00     0.004 C 
BRANCH   9  10
ATOM     10  C   UNL     1      12.001  33.537  44.211  1.00  0.00     0.000 C 
BRANCH  10  11
ATOM     11  C   UNL     1      11.113  32.325  43.887  1.00  0.00    -0.003 C 
ATOM     12  C   UNL     1       9.621  32.650  43.930  1.00  0.00     0.004 C 
ENDBRANCH  10  11
ENDBRANCH   9  10
ENDBRANCH   8   9
ENDBRANCH   7   8
ENDBRANCH   5   6
ENDBRANCH   4   5
ENDBRANCH   2   3
ENDBRANCH   1   2
BRANCH   1  13
ATOM     13  C   UNL     1      21.799  33.952  42.248  1.00  0.00     0.000 C 
BRANCH  13  14
ATOM     14  C   UNL     1      22.511  32.589  42.128  1.00  0.00     0.000 C 
BRANCH  14  15
ATOM     15  C   UNL     1      24.003  32.663  41.747  1.00  0.00     0.000 C 
BRANCH  15  16
ATOM     16  C   UNL     1      24.289  33.241  40.347  1.00  0.00     0.003 C 
BRANCH  16  17
ATOM     17  C   UNL     1      24.443  32.192  39.230  1.00  0.00     0.042 C 
BRANCH  17  18
ATOM     18  C   UNL     1      23.787  32.597  37.908  1.00  0.00     0.233 C 
BRANCH  18  19
ATOM     19  O   UNL     1      22.496  32.004  37.796  1.00  0.00    -0.466 OA
BRANCH  19  20
ATOM     20  C   UNL     1      21.321  32.692  38.109  1.00  0.00     0.302 C 
ATOM     21  O   UNL     1      20.229  32.074  38.246  1.00  0.00    -0.253 OA
ATOM     22  C   UNL     1      21.349  34.176  38.232  1.00  0.00     0.139 C 
ENDBRANCH  19  20
ENDBRANCH  18  19
ENDBRANCH  17  18
ENDBRANCH  16  17
ENDBRANCH  15  16
ENDBRANCH  14  15
ENDBRANCH  13  14
ENDBRANCH   1  13
TORSDOF 16
ENDMDL
MODEL 6
REMARK VINA RESULT:    -2.680      4.060      6.150
REMARK INTER + INTRA:          -6.006
REMARK INTER:                  -5.023
REMARK INTRA:                  -0.983
REMARK UNBOUND:                -0.819
REMARK SMILES CCCCCC=CCC=CCCCCCCCCOC(C)=O
REMARK SMILES IDX 12 1 11 2 10 3 9 4 8 5 7 6 6 7 5 8 4 9 3 10 2 11 1 12 13 13
REMARK SMILES IDX 14 14 15 15 16 16 17 17 18 18 19 19 20 20 22 21 21 22
REMARK H PARENT
REMARK Flexibility Score: inf
ROOT
ATOM      1  C   UNL     1      23.345  32.630  40.312  1.00  0.00     0.004 C 
ENDROOT
BRANCH   1   2
ATOM      2  C   UNL     1      22.319  31.965  41.242  1.00  0.00     0.027 C 
BRANCH   2   3
ATOM      3  C   UNL     1      21.046  32.764  41.298  1.00  0.00    -0.031 C 
ATOM      4  C   UNL     1      19.859  32.213  41.003  1.00  0.00    -0.027 C 
BRANCH   4   5
ATOM      5  C   UNL     1      18.587  33.010  41.059  1.00  0.00     0.054 C 
BRANCH   5   6
ATOM      6  C   UNL     1      17.786  32.812  39.803  1.00  0.00    -0.027 C 
ATOM      7  C   UNL     1      18.357  32.390  38.666  1.00  0.00    -0.031 C 
BRANCH   7   8
ATOM      8  C   UNL     1      17.566  32.236  37.394  1.00  0.00     0.027 C 
BRANCH   8   9
ATOM      9  C   UNL     1      18.382  32.618  36.147  1.00  0.00     0.004 C 
BRANCH   9  10
ATOM     10  C   UNL     1      19.402  33.749  36.409  1.00  0.00     0.000 C 
BRANCH  10  11
ATOM     11  C   UNL     1      20.858  33.343  36.126  1.00  0.00    -0.003 C 
ATOM     12  C   UNL     1      21.182  31.923  36.588  1.00  0.00     0.004 C 
ENDBRANCH  10  11
ENDBRANCH   9  10
ENDBRANCH   8   9
ENDBRANCH   7   8
ENDBRANCH   5   6
ENDBRANCH   4   5
ENDBRANCH   2   3
ENDBRANCH   1   2
BRANCH   1  13
ATOM     13  C   UNL     1      24.677  32.941  41.018  1.00  0.00     0.000 C 
BRANCH  13  14
ATOM     14  C   UNL     1      25.125  31.890  42.053  1.00  0.00     0.000 C 
BRANCH  14  15
ATOM     15  C   UNL     1      24.563  32.092  43.474  1.00  0.00     0.000 C 
BRANCH  15  16
ATOM     16  C   UNL     1      25.125  33.314  44.228  1.00  0.00     0.003 C 
BRANCH  16  17
ATOM     17  C   UNL     1      24.881  34.670  43.540  1.00  0.00     0.042 C 
BRANCH  17  18
ATOM     18  C   UNL     1      23.482  35.243  43.784  1.00  0.00     0.233 C 
BRANCH  18  19
ATOM     19  O   UNL     1      22.934  35.742  42.567  1.00  0.00    -0.466 OA
BRANCH  19  20
ATOM     20  C   UNL     1      23.018  37.087  42.198  1.00  0.00     0.302 C 
ATOM     21  O   UNL     1      22.258  37.947  42.721  1.00  0.00    -0.253 OA
ATOM     22  C   UNL     1      23.980  37.499  41.138  1.00  0.00     0.139 C 
ENDBRANCH  19  20
ENDBRANCH  18  19
ENDBRANCH  17  18
ENDBRANCH  16  17
ENDBRANCH  15  16
ENDBRANCH  14  15
ENDBRANCH  13  14
ENDBRANCH   1  13
TORSDOF 16
ENDMDL
