MODEL 1
REMARK VINA RESULT:    -6.289      0.000      0.000
REMARK INTER + INTRA:         -14.915
REMARK INTER:                 -13.643
REMARK INTRA:                  -1.273
REMARK UNBOUND:                -1.273
REMARK SMILES CCCCCCCCCCCCCCCCCCCCCC(=O)[O-]
REMARK SMILES IDX 12 1 11 2 10 3 9 4 8 5 7 6 6 7 5 8 4 9 3 10 2 11 1 12 13 13
REMARK SMILES IDX 14 14 15 15 16 16 17 17 18 18 19 19 20 20 21 21 22 22 23 23
REMARK SMILES IDX 24 24
REMARK H PARENT
REMARK Flexibility Score: inf
ROOT
ATOM      1  C   UNL     1      88.570 326.532 197.737  1.00  0.00     0.000 C 
ENDROOT
BRANCH   1   2
ATOM      2  C   UNL     1      87.797 325.759 196.654  1.00  0.00     0.000 C 
BRANCH   2   3
ATOM      3  C   UNL     1      86.597 326.539 196.078  1.00  0.00     0.000 C 
BRANCH   3   4
ATOM      4  C   UNL     1      86.744 326.798 194.568  1.00  0.00    -0.000 C 
BRANCH   4   5
ATOM      5  C   UNL     1      88.135 326.423 194.033  1.00  0.00    -0.000 C 
BRANCH   5   6
ATOM      6  C   UNL     1      88.077 325.361 192.923  1.00  0.00    -0.000 C 
BRANCH   6   7
ATOM      7  C   UNL     1      86.722 324.634 192.866  1.00  0.00    -0.000 C 
BRANCH   7   8
ATOM      8  C   UNL     1      86.689 323.458 191.865  1.00  0.00    -0.000 C 
BRANCH   8   9
ATOM      9  C   UNL     1      88.081 323.151 191.285  1.00  0.00    -0.000 C 
BRANCH   9  10
ATOM     10  C   UNL     1      88.080 323.126 189.741  1.00  0.00    -0.000 C 
BRANCH  10  11
ATOM     11  C   UNL     1      89.281 323.852 189.112  1.00  0.00    -0.003 C 
ATOM     12  C   UNL     1      90.374 322.898 188.636  1.00  0.00     0.004 C 
ENDBRANCH  10  11
ENDBRANCH   9  10
ENDBRANCH   8   9
ENDBRANCH   7   8
ENDBRANCH   6   7
ENDBRANCH   5   6
ENDBRANCH   4   5
ENDBRANCH   3   4
ENDBRANCH   2   3
ENDBRANCH   1   2
BRANCH   1  13
ATOM     13  C   UNL     1      89.181 325.609 198.806  1.00  0.00     0.000 C 
BRANCH  13  14
ATOM     14  C   UNL     1      89.556 326.358 200.095  1.00  0.00     0.000 C 
BRANCH  14  15
ATOM     15  C   UNL     1      88.622 326.015 201.269  1.00  0.00     0.000 C 
BRANCH  15  16
ATOM     16  C   UNL     1      89.094 326.621 202.604  1.00  0.00     0.000 C 
BRANCH  16  17
ATOM     17  C   UNL     1      90.620 326.797 202.738  1.00  0.00     0.000 C 
BRANCH  17  18
ATOM     18  C   UNL     1      91.137 326.960 204.180  1.00  0.00     0.000 C 
BRANCH  18  19
ATOM     19  C   UNL     1      90.082 327.517 205.161  1.00  0.00     0.000 C 
BRANCH  19  20
ATOM     20  C   UNL     1      90.147 326.841 206.541  1.00  0.00     0.006 C 
BRANCH  20  21
ATOM     21  C   UNL     1      88.807 326.210 206.943  1.00  0.00     0.053 C 
BRANCH  21  22
ATOM     22  C   UNL     1      88.624 324.856 206.330  1.00  0.00     0.041 C 
ATOM     23  O   UNL     1      89.148 323.843 206.863  1.00  0.00    -0.550 OA
ATOM     24  O   UNL     1      87.901 324.718 205.153  1.00  0.00    -0.550 OA
ENDBRANCH  21  22
ENDBRANCH  20  21
ENDBRANCH  19  20
ENDBRANCH  18  19
ENDBRANCH  17  18
ENDBRANCH  16  17
ENDBRANCH  15  16
ENDBRANCH  14  15
ENDBRANCH  13  14
ENDBRANCH   1  13
TORSDOF 20
ENDMDL
MODEL 2
REMARK VINA RESULT:    -6.138      4.798     11.724
REMARK INTER + INTRA:         -14.587
REMARK INTER:                 -12.612
REMARK INTRA:                  -1.975
REMARK UNBOUND:                -1.273
REMARK SMILES CCCCCCCCCCCCCCCCCCCCCC(=O)[O-]
REMARK SMILES IDX 12 1 11 2 10 3 9 4 8 5 7 6 6 7 5 8 4 9 3 10 2 11 1 12 13 13
REMARK SMILES IDX 14 14 15 15 16 16 17 17 18 18 19 19 20 20 21 21 22 22 23 23
REMARK SMILES IDX 24 24
REMARK H PARENT
REMARK Flexibility Score: inf
ROOT
ATOM      1  C   UNL     1      89.491 324.657 198.614  1.00  0.00     0.000 C 
ENDROOT
BRANCH   1   2
ATOM      2  C   UNL     1      88.907 325.306 199.881  1.00  0.00     0.000 C 
BRANCH   2   3
ATOM      3  C   UNL     1      89.705 326.534 200.368  1.00  0.00     0.000 C 
BRANCH   3   4
ATOM      4  C   UNL     1      90.274 326.332 201.783  1.00  0.00    -0.000 C 
BRANCH   4   5
ATOM      5  C   UNL     1      89.361 326.903 202.880  1.00  0.00    -0.000 C 
BRANCH   5   6
ATOM      6  C   UNL     1      89.971 326.776 204.285  1.00  0.00    -0.000 C 
BRANCH   6   7
ATOM      7  C   UNL     1      88.921 326.892 205.402  1.00  0.00    -0.000 C 
BRANCH   7   8
ATOM      8  C   UNL     1      88.637 325.560 206.130  1.00  0.00    -0.000 C 
BRANCH   8   9
ATOM      9  C   UNL     1      87.158 325.148 206.031  1.00  0.00    -0.000 C 
BRANCH   9  10
ATOM     10  C   UNL     1      86.967 323.833 205.244  1.00  0.00    -0.000 C 
BRANCH  10  11
ATOM     11  C   UNL     1      87.755 323.786 203.924  1.00  0.00    -0.003 C 
ATOM     12  C   UNL     1      86.857 323.638 202.697  1.00  0.00     0.004 C 
ENDBRANCH  10  11
ENDBRANCH   9  10
ENDBRANCH   8   9
ENDBRANCH   7   8
ENDBRANCH   6   7
ENDBRANCH   5   6
ENDBRANCH   4   5
ENDBRANCH   3   4
ENDBRANCH   2   3
ENDBRANCH   1   2
BRANCH   1  13
ATOM     13  C   UNL     1      88.508 324.670 197.431  1.00  0.00     0.000 C 
BRANCH  13  14
ATOM     14  C   UNL     1      88.154 326.092 196.967  1.00  0.00     0.000 C 
BRANCH  14  15
ATOM     15  C   UNL     1      88.880 326.488 195.670  1.00  0.00     0.000 C 
BRANCH  15  16
ATOM     16  C   UNL     1      87.911 326.803 194.515  1.00  0.00     0.000 C 
BRANCH  16  17
ATOM     17  C   UNL     1      86.519 326.151 194.635  1.00  0.00     0.000 C 
BRANCH  17  18
ATOM     18  C   UNL     1      86.280 324.943 193.708  1.00  0.00     0.000 C 
BRANCH  18  19
ATOM     19  C   UNL     1      87.167 323.722 194.034  1.00  0.00     0.000 C 
BRANCH  19  20
ATOM     20  C   UNL     1      88.226 323.460 192.949  1.00  0.00     0.006 C 
BRANCH  20  21
ATOM     21  C   UNL     1      87.976 324.288 191.682  1.00  0.00     0.053 C 
BRANCH  21  22
ATOM     22  C   UNL     1      87.993 323.438 190.449  1.00  0.00     0.041 C 
ATOM     23  O   UNL     1      88.970 323.490 189.656  1.00  0.00    -0.550 OA
ATOM     24  O   UNL     1      86.915 322.612 190.160  1.00  0.00    -0.550 OA
ENDBRANCH  21  22
ENDBRANCH  20  21
ENDBRANCH  19  20
ENDBRANCH  18  19
ENDBRANCH  17  18
ENDBRANCH  16  17
ENDBRANCH  15  16
ENDBRANCH  14  15
ENDBRANCH  13  14
ENDBRANCH   1  13
TORSDOF 20
ENDMDL
MODEL 3
REMARK VINA RESULT:    -6.117      5.071     12.272
REMARK INTER + INTRA:         -14.542
REMARK INTER:                 -13.048
REMARK INTRA:                  -1.494
REMARK UNBOUND:                -1.273
REMARK SMILES CCCCCCCCCCCCCCCCCCCCCC(=O)[O-]
REMARK SMILES IDX 12 1 11 2 10 3 9 4 8 5 7 6 6 7 5 8 4 9 3 10 2 11 1 12 13 13
REMARK SMILES IDX 14 14 15 15 16 16 17 17 18 18 19 19 20 20 21 21 22 22 23 23
REMARK SMILES IDX 24 24
REMARK H PARENT
REMARK Flexibility Score: inf
ROOT
ATOM      1  C   UNL     1      89.314 326.524 199.263  1.00  0.00     0.000 C 
ENDROOT
BRANCH   1   2
ATOM      2  C   UNL     1      88.764 326.146 200.649  1.00  0.00     0.000 C 
BRANCH   2   3
ATOM      3  C   UNL     1      89.782 326.346 201.792  1.00  0.00     0.000 C 
BRANCH   3   4
ATOM      4  C   UNL     1      89.103 326.783 203.103  1.00  0.00    -0.000 C 
BRANCH   4   5
ATOM      5  C   UNL     1      89.994 326.567 204.336  1.00  0.00    -0.000 C 
BRANCH   5   6
ATOM      6  C   UNL     1      89.473 327.304 205.580  1.00  0.00    -0.000 C 
BRANCH   6   7
ATOM      7  C   UNL     1      89.044 326.345 206.704  1.00  0.00    -0.000 C 
BRANCH   7   8
ATOM      8  C   UNL     1      88.515 324.987 206.193  1.00  0.00    -0.000 C 
BRANCH   8   9
ATOM      9  C   UNL     1      86.978 324.952 206.123  1.00  0.00    -0.000 C 
BRANCH   9  10
ATOM     10  C   UNL     1      86.461 323.904 205.113  1.00  0.00    -0.000 C 
BRANCH  10  11
ATOM     11  C   UNL     1      87.415 323.667 203.930  1.00  0.00    -0.003 C 
ATOM     12  C   UNL     1      86.684 323.469 202.603  1.00  0.00     0.004 C 
ENDBRANCH  10  11
ENDBRANCH   9  10
ENDBRANCH   8   9
ENDBRANCH   7   8
ENDBRANCH   6   7
ENDBRANCH   5   6
ENDBRANCH   4   5
ENDBRANCH   3   4
ENDBRANCH   2   3
ENDBRANCH   1   2
BRANCH   1  13
ATOM     13  C   UNL     1      88.833 325.576 198.152  1.00  0.00     0.000 C 
BRANCH  13  14
ATOM     14  C   UNL     1      88.057 326.305 197.043  1.00  0.00     0.000 C 
BRANCH  14  15
ATOM     15  C   UNL     1      88.896 326.500 195.768  1.00  0.00     0.000 C 
BRANCH  15  16
ATOM     16  C   UNL     1      88.031 326.646 194.501  1.00  0.00     0.000 C 
BRANCH  16  17
ATOM     17  C   UNL     1      86.720 325.835 194.508  1.00  0.00     0.000 C 
BRANCH  17  18
ATOM     18  C   UNL     1      86.635 324.719 193.449  1.00  0.00     0.000 C 
BRANCH  18  19
ATOM     19  C   UNL     1      87.996 324.066 193.121  1.00  0.00     0.000 C 
BRANCH  19  20
ATOM     20  C   UNL     1      87.967 323.280 191.798  1.00  0.00     0.006 C 
BRANCH  20  21
ATOM     21  C   UNL     1      88.455 324.123 190.612  1.00  0.00     0.053 C 
BRANCH  21  22
ATOM     22  C   UNL     1      88.671 323.287 189.388  1.00  0.00     0.041 C 
ATOM     23  O   UNL     1      87.700 322.700 188.842  1.00  0.00    -0.550 OA
ATOM     24  O   UNL     1      89.950 323.131 188.870  1.00  0.00    -0.550 OA
ENDBRANCH  21  22
ENDBRANCH  20  21
ENDBRANCH  19  20
ENDBRANCH  18  19
ENDBRANCH  17  18
ENDBRANCH  16  17
ENDBRANCH  15  16
ENDBRANCH  14  15
ENDBRANCH  13  14
ENDBRANCH   1  13
TORSDOF 20
ENDMDL
MODEL 4
REMARK VINA RESULT:    -6.052      1.483      2.818
REMARK INTER + INTRA:         -14.400
REMARK INTER:                 -12.473
REMARK INTRA:                  -1.927
REMARK UNBOUND:                -1.273
REMARK SMILES CCCCCCCCCCCCCCCCCCCCCC(=O)[O-]
REMARK SMILES IDX 12 1 11 2 10 3 9 4 8 5 7 6 6 7 5 8 4 9 3 10 2 11 1 12 13 13
REMARK SMILES IDX 14 14 15 15 16 16 17 17 18 18 19 19 20 20 21 21 22 22 23 23
REMARK SMILES IDX 24 24
REMARK H PARENT
REMARK Flexibility Score: inf
ROOT
ATOM      1  C   UNL     1      89.971 325.100 199.623  1.00  0.00     0.000 C 
ENDROOT
BRANCH   1   2
ATOM      2  C   UNL     1      88.829 324.569 198.739  1.00  0.00     0.000 C 
BRANCH   2   3
ATOM      3  C   UNL     1      89.204 324.463 197.246  1.00  0.00     0.000 C 
BRANCH   3   4
ATOM      4  C   UNL     1      88.899 325.761 196.478  1.00  0.00    -0.000 C 
BRANCH   4   5
ATOM      5  C   UNL     1      87.608 326.445 196.954  1.00  0.00    -0.000 C 
BRANCH   5   6
ATOM      6  C   UNL     1      86.525 326.491 195.864  1.00  0.00    -0.000 C 
BRANCH   6   7
ATOM      7  C   UNL     1      87.103 326.360 194.444  1.00  0.00    -0.000 C 
BRANCH   7   8
ATOM      8  C   UNL     1      86.521 325.174 193.643  1.00  0.00    -0.000 C 
BRANCH   8   9
ATOM      9  C   UNL     1      87.620 324.231 193.122  1.00  0.00    -0.000 C 
BRANCH   9  10
ATOM     10  C   UNL     1      88.145 324.654 191.733  1.00  0.00    -0.000 C 
BRANCH  10  11
ATOM     11  C   UNL     1      88.116 323.521 190.693  1.00  0.00    -0.003 C 
ATOM     12  C   UNL     1      86.973 322.533 190.918  1.00  0.00     0.004 C 
ENDBRANCH  10  11
ENDBRANCH   9  10
ENDBRANCH   8   9
ENDBRANCH   7   8
ENDBRANCH   6   7
ENDBRANCH   5   6
ENDBRANCH   4   5
ENDBRANCH   3   4
ENDBRANCH   2   3
ENDBRANCH   1   2
BRANCH   1  13
ATOM     13  C   UNL     1      89.648 326.462 200.260  1.00  0.00     0.000 C 
BRANCH  13  14
ATOM     14  C   UNL     1      88.943 326.330 201.620  1.00  0.00     0.000 C 
BRANCH  14  15
ATOM     15  C   UNL     1      89.853 326.722 202.797  1.00  0.00     0.000 C 
BRANCH  15  16
ATOM     16  C   UNL     1      89.072 327.314 203.985  1.00  0.00     0.000 C 
BRANCH  16  17
ATOM     17  C   UNL     1      89.824 327.305 205.330  1.00  0.00     0.000 C 
BRANCH  17  18
ATOM     18  C   UNL     1      89.473 326.134 206.269  1.00  0.00     0.000 C 
BRANCH  18  19
ATOM     19  C   UNL     1      87.979 325.745 206.247  1.00  0.00     0.000 C 
BRANCH  19  20
ATOM     20  C   UNL     1      87.767 324.243 205.990  1.00  0.00     0.006 C 
BRANCH  20  21
ATOM     21  C   UNL     1      87.338 323.957 204.544  1.00  0.00     0.053 C 
BRANCH  21  22
ATOM     22  C   UNL     1      88.454 323.365 203.740  1.00  0.00     0.041 C 
ATOM     23  O   UNL     1      89.614 323.289 204.224  1.00  0.00    -0.550 OA
ATOM     24  O   UNL     1      88.219 322.928 202.442  1.00  0.00    -0.550 OA
ENDBRANCH  21  22
ENDBRANCH  20  21
ENDBRANCH  19  20
ENDBRANCH  18  19
ENDBRANCH  17  18
ENDBRANCH  16  17
ENDBRANCH  15  16
ENDBRANCH  14  15
ENDBRANCH  13  14
ENDBRANCH   1  13
TORSDOF 20
ENDMDL
MODEL 5
REMARK VINA RESULT:    -6.034      4.817     11.719
REMARK INTER + INTRA:         -14.362
REMARK INTER:                 -12.546
REMARK INTRA:                  -1.816
REMARK UNBOUND:                -1.273
REMARK SMILES CCCCCCCCCCCCCCCCCCCCCC(=O)[O-]
REMARK SMILES IDX 12 1 11 2 10 3 9 4 8 5 7 6 6 7 5 8 4 9 3 10 2 11 1 12 13 13
REMARK SMILES IDX 14 14 15 15 16 16 17 17 18 18 19 19 20 20 21 21 22 22 23 23
REMARK SMILES IDX 24 24
REMARK H PARENT
REMARK Flexibility Score: inf
ROOT
ATOM      1  C   UNL     1      90.702 326.474 201.181  1.00  0.00     0.000 C 
ENDROOT
BRANCH   1   2
ATOM      2  C   UNL     1      90.717 326.958 202.641  1.00  0.00     0.000 C 
BRANCH   2   3
ATOM      3  C   UNL     1      89.341 326.874 203.333  1.00  0.00     0.000 C 
BRANCH   3   4
ATOM      4  C   UNL     1      89.316 327.636 204.671  1.00  0.00    -0.000 C 
BRANCH   4   5
ATOM      5  C   UNL     1      89.872 326.805 205.839  1.00  0.00    -0.000 C 
BRANCH   5   6
ATOM      6  C   UNL     1      88.764 326.233 206.739  1.00  0.00    -0.000 C 
BRANCH   6   7
ATOM      7  C   UNL     1      88.335 324.815 206.325  1.00  0.00    -0.000 C 
BRANCH   7   8
ATOM      8  C   UNL     1      86.890 324.735 205.787  1.00  0.00    -0.000 C 
BRANCH   8   9
ATOM      9  C   UNL     1      86.693 323.548 204.827  1.00  0.00    -0.000 C 
BRANCH   9  10
ATOM     10  C   UNL     1      87.240 323.841 203.413  1.00  0.00    -0.000 C 
BRANCH  10  11
ATOM     11  C   UNL     1      88.311 322.841 202.948  1.00  0.00    -0.003 C 
ATOM     12  C   UNL     1      89.736 323.341 203.179  1.00  0.00     0.004 C 
ENDBRANCH  10  11
ENDBRANCH   9  10
ENDBRANCH   8   9
ENDBRANCH   7   8
ENDBRANCH   6   7
ENDBRANCH   5   6
ENDBRANCH   4   5
ENDBRANCH   3   4
ENDBRANCH   2   3
ENDBRANCH   1   2
BRANCH   1  13
ATOM     13  C   UNL     1      89.278 326.299 200.626  1.00  0.00     0.000 C 
BRANCH  13  14
ATOM     14  C   UNL     1      89.261 325.697 199.212  1.00  0.00     0.000 C 
BRANCH  14  15
ATOM     15  C   UNL     1      88.870 326.726 198.137  1.00  0.00     0.000 C 
BRANCH  15  16
ATOM     16  C   UNL     1      88.155 326.089 196.931  1.00  0.00     0.000 C 
BRANCH  16  17
ATOM     17  C   UNL     1      88.693 326.519 195.552  1.00  0.00     0.000 C 
BRANCH  17  18
ATOM     18  C   UNL     1      87.647 326.546 194.420  1.00  0.00     0.000 C 
BRANCH  18  19
ATOM     19  C   UNL     1      87.371 325.162 193.793  1.00  0.00     0.000 C 
BRANCH  19  20
ATOM     20  C   UNL     1      88.111 324.965 192.458  1.00  0.00     0.006 C 
BRANCH  20  21
ATOM     21  C   UNL     1      88.116 323.497 192.010  1.00  0.00     0.053 C 
BRANCH  21  22
ATOM     22  C   UNL     1      87.980 323.369 190.523  1.00  0.00     0.041 C 
ATOM     23  O   UNL     1      88.823 323.909 189.760  1.00  0.00    -0.550 OA
ATOM     24  O   UNL     1      86.902 322.682 189.982  1.00  0.00    -0.550 OA
ENDBRANCH  21  22
ENDBRANCH  20  21
ENDBRANCH  19  20
ENDBRANCH  18  19
ENDBRANCH  17  18
ENDBRANCH  16  17
ENDBRANCH  15  16
ENDBRANCH  14  15
ENDBRANCH  13  14
ENDBRANCH   1  13
TORSDOF 20
ENDMDL
MODEL 6
REMARK VINA RESULT:    -6.014     18.123     20.385
REMARK INTER + INTRA:         -14.318
REMARK INTER:                 -11.382
REMARK INTRA:                  -2.936
REMARK UNBOUND:                -1.273
REMARK SMILES CCCCCCCCCCCCCCCCCCCCCC(=O)[O-]
REMARK SMILES IDX 12 1 11 2 10 3 9 4 8 5 7 6 6 7 5 8 4 9 3 10 2 11 1 12 13 13
REMARK SMILES IDX 14 14 15 15 16 16 17 17 18 18 19 19 20 20 21 21 22 22 23 23
REMARK SMILES IDX 24 24
REMARK H PARENT
REMARK Flexibility Score: inf
ROOT
ATOM      1  C   UNL     1     104.045 312.968 192.059  1.00  0.00     0.000 C 
ENDROOT
BRANCH   1   2
ATOM      2  C   UNL     1     105.343 313.710 191.700  1.00  0.00     0.000 C 
BRANCH   2   3
ATOM      3  C   UNL     1     105.242 314.539 190.403  1.00  0.00     0.000 C 
BRANCH   3   4
ATOM      4  C   UNL     1     103.869 314.385 189.723  1.00  0.00    -0.000 C 
BRANCH   4   5
ATOM      5  C   UNL     1     103.256 315.731 189.308  1.00  0.00    -0.000 C 
BRANCH   5   6
ATOM      6  C   UNL     1     103.872 316.921 190.062  1.00  0.00    -0.000 C 
BRANCH   6   7
ATOM      7  C   UNL     1     102.922 317.514 191.116  1.00  0.00    -0.000 C 
BRANCH   7   8
ATOM      8  C   UNL     1     103.016 316.825 192.495  1.00  0.00    -0.000 C 
BRANCH   8   9
ATOM      9  C   UNL     1     104.397 317.016 193.146  1.00  0.00    -0.000 C 
BRANCH   9  10
ATOM     10  C   UNL     1     104.613 316.071 194.349  1.00  0.00    -0.000 C 
BRANCH  10  11
ATOM     11  C   UNL     1     103.350 315.293 194.755  1.00  0.00    -0.003 C 
ATOM     12  C   UNL     1     102.964 315.501 196.218  1.00  0.00     0.004 C 
ENDBRANCH  10  11
ENDBRANCH   9  10
ENDBRANCH   8   9
ENDBRANCH   7   8
ENDBRANCH   6   7
ENDBRANCH   5   6
ENDBRANCH   4   5
ENDBRANCH   3   4
ENDBRANCH   2   3
ENDBRANCH   1   2
BRANCH   1  13
ATOM     13  C   UNL     1     104.265 311.842 193.084  1.00  0.00     0.000 C 
BRANCH  13  14
ATOM     14  C   UNL     1     105.721 311.757 193.570  1.00  0.00     0.000 C 
BRANCH  14  15
ATOM     15  C   UNL     1     105.824 311.545 195.090  1.00  0.00     0.000 C 
BRANCH  15  16
ATOM     16  C   UNL     1     104.614 312.114 195.855  1.00  0.00     0.000 C 
BRANCH  16  17
ATOM     17  C   UNL     1     103.806 311.078 196.662  1.00  0.00     0.000 C 
BRANCH  17  18
ATOM     18  C   UNL     1     103.715 311.354 198.176  1.00  0.00     0.000 C 
BRANCH  18  19
ATOM     19  C   UNL     1     103.779 312.853 198.541  1.00  0.00     0.000 C 
BRANCH  19  20
ATOM     20  C   UNL     1     103.997 313.082 200.047  1.00  0.00     0.006 C 
BRANCH  20  21
ATOM     21  C   UNL     1     104.506 311.821 200.757  1.00  0.00     0.053 C 
BRANCH  21  22
ATOM     22  C   UNL     1     103.579 311.386 201.851  1.00  0.00     0.041 C 
ATOM     23  O   UNL     1     102.385 311.085 201.587  1.00  0.00    -0.550 OA
ATOM     24  O   UNL     1     104.025 311.345 203.165  1.00  0.00    -0.550 OA
ENDBRANCH  21  22
ENDBRANCH  20  21
ENDBRANCH  19  20
ENDBRANCH  18  19
ENDBRANCH  17  18
ENDBRANCH  16  17
ENDBRANCH  15  16
ENDBRANCH  14  15
ENDBRANCH  13  14
ENDBRANCH   1  13
TORSDOF 20
ENDMDL
MODEL 7
REMARK VINA RESULT:    -5.990     18.695     20.373
REMARK INTER + INTRA:         -14.267
REMARK INTER:                 -11.917
REMARK INTRA:                  -2.350
REMARK UNBOUND:                -1.273
REMARK SMILES CCCCCCCCCCCCCCCCCCCCCC(=O)[O-]
REMARK SMILES IDX 12 1 11 2 10 3 9 4 8 5 7 6 6 7 5 8 4 9 3 10 2 11 1 12 13 13
REMARK SMILES IDX 14 14 15 15 16 16 17 17 18 18 19 19 20 20 21 21 22 22 23 23
REMARK SMILES IDX 24 24
REMARK H PARENT
REMARK Flexibility Score: inf
ROOT
ATOM      1  C   UNL     1     104.457 311.756 195.978  1.00  0.00     0.000 C 
ENDROOT
BRANCH   1   2
ATOM      2  C   UNL     1     103.516 311.534 194.781  1.00  0.00     0.000 C 
BRANCH   2   3
ATOM      3  C   UNL     1     104.258 311.246 193.459  1.00  0.00     0.000 C 
BRANCH   3   4
ATOM      4  C   UNL     1     105.696 311.793 193.470  1.00  0.00    -0.000 C 
BRANCH   4   5
ATOM      5  C   UNL     1     105.891 312.973 192.505  1.00  0.00    -0.000 C 
BRANCH   5   6
ATOM      6  C   UNL     1     104.598 313.355 191.767  1.00  0.00    -0.000 C 
BRANCH   6   7
ATOM      7  C   UNL     1     103.988 314.672 192.277  1.00  0.00    -0.000 C 
BRANCH   7   8
ATOM      8  C   UNL     1     104.407 315.033 193.719  1.00  0.00    -0.000 C 
BRANCH   8   9
ATOM      9  C   UNL     1     103.216 315.515 194.566  1.00  0.00    -0.000 C 
BRANCH   9  10
ATOM     10  C   UNL     1     103.387 315.178 196.063  1.00  0.00    -0.000 C 
BRANCH  10  11
ATOM     11  C   UNL     1     102.097 314.673 196.731  1.00  0.00    -0.003 C 
ATOM     12  C   UNL     1     101.653 315.541 197.907  1.00  0.00     0.004 C 
ENDBRANCH  10  11
ENDBRANCH   9  10
ENDBRANCH   8   9
ENDBRANCH   7   8
ENDBRANCH   6   7
ENDBRANCH   5   6
ENDBRANCH   4   5
ENDBRANCH   3   4
ENDBRANCH   2   3
ENDBRANCH   1   2
BRANCH   1  13
ATOM     13  C   UNL     1     103.900 311.177 197.289  1.00  0.00     0.000 C 
BRANCH  13  14
ATOM     14  C   UNL     1     103.900 312.198 198.439  1.00  0.00     0.000 C 
BRANCH  14  15
ATOM     15  C   UNL     1     103.594 311.552 199.801  1.00  0.00     0.000 C 
BRANCH  15  16
ATOM     16  C   UNL     1     102.236 311.991 200.379  1.00  0.00     0.000 C 
BRANCH  16  17
ATOM     17  C   UNL     1     101.611 311.013 201.394  1.00  0.00     0.000 C 
BRANCH  17  18
ATOM     18  C   UNL     1     101.804 311.394 202.874  1.00  0.00     0.000 C 
BRANCH  18  19
ATOM     19  C   UNL     1     102.716 310.422 203.654  1.00  0.00     0.000 C 
BRANCH  19  20
ATOM     20  C   UNL     1     104.210 310.731 203.454  1.00  0.00     0.006 C 
BRANCH  20  21
ATOM     21  C   UNL     1     104.542 312.201 203.743  1.00  0.00     0.053 C 
BRANCH  21  22
ATOM     22  C   UNL     1     104.718 312.454 205.209  1.00  0.00     0.041 C 
ATOM     23  O   UNL     1     105.097 311.527 205.971  1.00  0.00    -0.550 OA
ATOM     24  O   UNL     1     104.431 313.706 205.736  1.00  0.00    -0.550 OA
ENDBRANCH  21  22
ENDBRANCH  20  21
ENDBRANCH  19  20
ENDBRANCH  18  19
ENDBRANCH  17  18
ENDBRANCH  16  17
ENDBRANCH  15  16
ENDBRANCH  14  15
ENDBRANCH  13  14
ENDBRANCH   1  13
TORSDOF 20
ENDMDL
MODEL 8
REMARK VINA RESULT:    -5.962     19.886     23.200
REMARK INTER + INTRA:         -14.206
REMARK INTER:                 -12.066
REMARK INTRA:                  -2.139
REMARK UNBOUND:                -1.273
REMARK SMILES CCCCCCCCCCCCCCCCCCCCCC(=O)[O-]
REMARK SMILES IDX 12 1 11 2 10 3 9 4 8 5 7 6 6 7 5 8 4 9 3 10 2 11 1 12 13 13
REMARK SMILES IDX 14 14 15 15 16 16 17 17 18 18 19 19 20 20 21 21 22 22 23 23
REMARK SMILES IDX 24 24
REMARK H PARENT
REMARK Flexibility Score: inf
ROOT
ATOM      1  C   UNL     1     103.313 311.719 199.546  1.00  0.00     0.000 C 
ENDROOT
BRANCH   1   2
ATOM      2  C   UNL     1     104.382 312.036 200.607  1.00  0.00     0.000 C 
BRANCH   2   3
ATOM      3  C   UNL     1     104.231 313.438 201.234  1.00  0.00     0.000 C 
BRANCH   3   4
ATOM      4  C   UNL     1     105.312 313.717 202.295  1.00  0.00    -0.000 C 
BRANCH   4   5
ATOM      5  C   UNL     1     104.753 314.416 203.544  1.00  0.00    -0.000 C 
BRANCH   5   6
ATOM      6  C   UNL     1     105.273 313.797 204.852  1.00  0.00    -0.000 C 
BRANCH   6   7
ATOM      7  C   UNL     1     105.276 312.259 204.822  1.00  0.00    -0.000 C 
BRANCH   7   8
ATOM      8  C   UNL     1     104.469 311.614 205.969  1.00  0.00    -0.000 C 
BRANCH   8   9
ATOM      9  C   UNL     1     103.277 310.792 205.448  1.00  0.00    -0.000 C 
BRANCH   9  10
ATOM     10  C   UNL     1     103.133 310.877 203.913  1.00  0.00    -0.000 C 
BRANCH  10  11
ATOM     11  C   UNL     1     101.854 311.597 203.454  1.00  0.00    -0.003 C 
ATOM     12  C   UNL     1     101.175 310.914 202.269  1.00  0.00     0.004 C 
ENDBRANCH  10  11
ENDBRANCH   9  10
ENDBRANCH   8   9
ENDBRANCH   7   8
ENDBRANCH   6   7
ENDBRANCH   5   6
ENDBRANCH   4   5
ENDBRANCH   3   4
ENDBRANCH   2   3
ENDBRANCH   1   2
BRANCH   1  13
ATOM     13  C   UNL     1     103.875 311.724 198.114  1.00  0.00     0.000 C 
BRANCH  13  14
ATOM     14  C   UNL     1     103.720 313.085 197.418  1.00  0.00     0.000 C 
BRANCH  14  15
ATOM     15  C   UNL     1     103.521 312.952 195.899  1.00  0.00     0.000 C 
BRANCH  15  16
ATOM     16  C   UNL     1     103.778 311.522 195.386  1.00  0.00     0.000 C 
BRANCH  16  17
ATOM     17  C   UNL     1     103.821 311.376 193.852  1.00  0.00     0.000 C 
BRANCH  17  18
ATOM     18  C   UNL     1     105.227 311.460 193.226  1.00  0.00     0.000 C 
BRANCH  18  19
ATOM     19  C   UNL     1     105.543 312.830 192.587  1.00  0.00     0.000 C 
BRANCH  19  20
ATOM     20  C   UNL     1     104.272 313.625 192.243  1.00  0.00     0.006 C 
BRANCH  20  21
ATOM     21  C   UNL     1     104.059 313.751 190.728  1.00  0.00     0.053 C 
BRANCH  21  22
ATOM     22  C   UNL     1     104.626 315.030 190.192  1.00  0.00     0.041 C 
ATOM     23  O   UNL     1     105.755 315.038 189.634  1.00  0.00    -0.550 OA
ATOM     24  O   UNL     1     103.921 316.217 190.337  1.00  0.00    -0.550 OA
ENDBRANCH  21  22
ENDBRANCH  20  21
ENDBRANCH  19  20
ENDBRANCH  18  19
ENDBRANCH  17  18
ENDBRANCH  16  17
ENDBRANCH  15  16
ENDBRANCH  14  15
ENDBRANCH  13  14
ENDBRANCH   1  13
TORSDOF 20
ENDMDL
MODEL 9
REMARK VINA RESULT:    -5.942      2.058      3.363
REMARK INTER + INTRA:         -14.162
REMARK INTER:                 -11.995
REMARK INTRA:                  -2.167
REMARK UNBOUND:                -1.273
REMARK SMILES CCCCCCCCCCCCCCCCCCCCCC(=O)[O-]
REMARK SMILES IDX 12 1 11 2 10 3 9 4 8 5 7 6 6 7 5 8 4 9 3 10 2 11 1 12 13 13
REMARK SMILES IDX 14 14 15 15 16 16 17 17 18 18 19 19 20 20 21 21 22 22 23 23
REMARK SMILES IDX 24 24
REMARK H PARENT
REMARK Flexibility Score: inf
ROOT
ATOM      1  C   UNL     1      89.237 326.853 199.149  1.00  0.00     0.000 C 
ENDROOT
BRANCH   1   2
ATOM      2  C   UNL     1      88.848 325.721 198.183  1.00  0.00     0.000 C 
BRANCH   2   3
ATOM      3  C   UNL     1      88.030 326.202 196.966  1.00  0.00     0.000 C 
BRANCH   3   4
ATOM      4  C   UNL     1      88.924 326.502 195.749  1.00  0.00    -0.000 C 
BRANCH   4   5
ATOM      5  C   UNL     1      88.116 326.834 194.485  1.00  0.00    -0.000 C 
BRANCH   5   6
ATOM      6  C   UNL     1      86.681 326.284 194.537  1.00  0.00    -0.000 C 
BRANCH   6   7
ATOM      7  C   UNL     1      86.443 325.148 193.527  1.00  0.00    -0.000 C 
BRANCH   7   8
ATOM      8  C   UNL     1      87.711 324.731 192.750  1.00  0.00    -0.000 C 
BRANCH   8   9
ATOM      9  C   UNL     1      88.335 323.439 193.308  1.00  0.00    -0.000 C 
BRANCH   9  10
ATOM     10  C   UNL     1      87.415 322.740 194.333  1.00  0.00    -0.000 C 
BRANCH  10  11
ATOM     11  C   UNL     1      87.929 322.824 195.779  1.00  0.00    -0.003 C 
ATOM     12  C   UNL     1      89.363 322.321 195.935  1.00  0.00     0.004 C 
ENDBRANCH  10  11
ENDBRANCH   9  10
ENDBRANCH   8   9
ENDBRANCH   7   8
ENDBRANCH   6   7
ENDBRANCH   5   6
ENDBRANCH   4   5
ENDBRANCH   3   4
ENDBRANCH   2   3
ENDBRANCH   1   2
BRANCH   1  13
ATOM     13  C   UNL     1      89.969 326.343 200.402  1.00  0.00     0.000 C 
BRANCH  13  14
ATOM     14  C   UNL     1      89.009 325.800 201.472  1.00  0.00     0.000 C 
BRANCH  14  15
ATOM     15  C   UNL     1      88.799 326.789 202.632  1.00  0.00     0.000 C 
BRANCH  15  16
ATOM     16  C   UNL     1      89.743 326.524 203.821  1.00  0.00     0.000 C 
BRANCH  16  17
ATOM     17  C   UNL     1      89.225 327.016 205.187  1.00  0.00     0.000 C 
BRANCH  17  18
ATOM     18  C   UNL     1      88.371 325.999 205.969  1.00  0.00     0.000 C 
BRANCH  18  19
ATOM     19  C   UNL     1      88.958 324.571 205.980  1.00  0.00     0.000 C 
BRANCH  19  20
ATOM     20  C   UNL     1      87.867 323.487 205.934  1.00  0.00     0.006 C 
BRANCH  20  21
ATOM     21  C   UNL     1      86.722 323.856 204.981  1.00  0.00     0.053 C 
BRANCH  21  22
ATOM     22  C   UNL     1      86.985 323.379 203.586  1.00  0.00     0.041 C 
ATOM     23  O   UNL     1      86.183 323.662 202.657  1.00  0.00    -0.550 OA
ATOM     24  O   UNL     1      88.099 322.595 203.318  1.00  0.00    -0.550 OA
ENDBRANCH  21  22
ENDBRANCH  20  21
ENDBRANCH  19  20
ENDBRANCH  18  19
ENDBRANCH  17  18
ENDBRANCH  16  17
ENDBRANCH  15  16
ENDBRANCH  14  15
ENDBRANCH  13  14
ENDBRANCH   1  13
TORSDOF 20
ENDMDL
