MODEL 1
REMARK VINA RESULT:    -4.465      0.000      0.000
REMARK INTER + INTRA:          -9.971
REMARK INTER:                  -8.380
REMARK INTRA:                  -1.591
REMARK UNBOUND:                -1.591
REMARK SMILES O=C([O-])CCCCCCCCCCCCCCC(=O)[O-]
REMARK SMILES IDX 10 1 9 2 8 3 7 4 6 5 5 6 4 7 2 8 1 9 3 10 11 11 12 12 13 13
REMARK SMILES IDX 14 14 15 15 16 16 17 17 18 18 19 19 20 20
REMARK H PARENT
REMARK Flexibility Score: inf
ROOT
ATOM      1  C   UNL     1      24.322   6.823   9.283  1.00  0.00     0.000 C 
ENDROOT
BRANCH   1   2
ATOM      2  C   UNL     1      24.199   5.625   8.329  1.00  0.00     0.000 C 
BRANCH   2   3
ATOM      3  C   UNL     1      23.494   4.446   9.016  1.00  0.00     0.000 C 
BRANCH   3   4
ATOM      4  C   UNL     1      22.164   4.074   8.329  1.00  0.00     0.000 C 
BRANCH   4   5
ATOM      5  C   UNL     1      20.951   4.050   9.278  1.00  0.00     0.000 C 
BRANCH   5   6
ATOM      6  C   UNL     1      19.904   5.150   8.996  1.00  0.00     0.006 C 
BRANCH   6   7
ATOM      7  C   UNL     1      20.066   6.395   9.883  1.00  0.00     0.053 C 
BRANCH   7   8
ATOM      8  C   UNL     1      19.001   7.414   9.612  1.00  0.00     0.041 C 
ATOM      9  O   UNL     1      18.275   7.312   8.588  1.00  0.00    -0.550 OA
ATOM     10  O   UNL     1      18.794   8.459  10.502  1.00  0.00    -0.550 OA
ENDBRANCH   7   8
ENDBRANCH   6   7
ENDBRANCH   5   6
ENDBRANCH   4   5
ENDBRANCH   3   4
ENDBRANCH   2   3
ENDBRANCH   1   2
BRANCH   1  11
ATOM     11  C   UNL     1      24.350   6.404  10.762  1.00  0.00     0.000 C 
BRANCH  11  12
ATOM     12  C   UNL     1      23.252   7.093  11.591  1.00  0.00     0.000 C 
BRANCH  12  13
ATOM     13  C   UNL     1      22.503   6.120  12.521  1.00  0.00     0.000 C 
BRANCH  13  14
ATOM     14  C   UNL     1      22.006   6.733  13.842  1.00  0.00     0.000 C 
BRANCH  14  15
ATOM     15  C   UNL     1      22.586   6.031  15.083  1.00  0.00     0.000 C 
BRANCH  15  16
ATOM     16  C   UNL     1      23.767   6.799  15.703  1.00  0.00     0.006 C 
BRANCH  16  17
ATOM     17  C   UNL     1      25.084   6.008  15.736  1.00  0.00     0.053 C 
BRANCH  17  18
ATOM     18  C   UNL     1      26.180   6.713  14.995  1.00  0.00     0.041 C 
ATOM     19  O   UNL     1      27.350   6.730  15.459  1.00  0.00    -0.550 OA
ATOM     20  O   UNL     1      25.914   7.321  13.775  1.00  0.00    -0.550 OA
ENDBRANCH  17  18
ENDBRANCH  16  17
ENDBRANCH  15  16
ENDBRANCH  14  15
ENDBRANCH  13  14
ENDBRANCH  12  13
ENDBRANCH  11  12
ENDBRANCH   1  11
TORSDOF 15
ENDMDL
MODEL 2
REMARK VINA RESULT:    -4.417      5.318      9.527
REMARK INTER + INTRA:          -9.882
REMARK INTER:                  -8.318
REMARK INTRA:                  -1.564
REMARK UNBOUND:                -1.591
REMARK SMILES O=C([O-])CCCCCCCCCCCCCCC(=O)[O-]
REMARK SMILES IDX 10 1 9 2 8 3 7 4 6 5 5 6 4 7 2 8 1 9 3 10 11 11 12 12 13 13
REMARK SMILES IDX 14 14 15 15 16 16 17 17 18 18 19 19 20 20
REMARK H PARENT
REMARK Flexibility Score: inf
ROOT
ATOM      1  C   UNL     1      22.899   1.642  19.944  1.00  0.00     0.000 C 
ENDROOT
BRANCH   1   2
ATOM      2  C   UNL     1      24.405   1.682  20.241  1.00  0.00     0.000 C 
BRANCH   2   3
ATOM      3  C   UNL     1      25.213   1.112  19.065  1.00  0.00     0.000 C 
BRANCH   3   4
ATOM      4  C   UNL     1      25.682   2.209  18.088  1.00  0.00     0.000 C 
BRANCH   4   5
ATOM      5  C   UNL     1      26.536   3.312  18.744  1.00  0.00     0.000 C 
BRANCH   5   6
ATOM      6  C   UNL     1      27.761   3.745  17.909  1.00  0.00     0.006 C 
BRANCH   6   7
ATOM      7  C   UNL     1      28.986   4.117  18.761  1.00  0.00     0.053 C 
BRANCH   7   8
ATOM      8  C   UNL     1      29.695   5.320  18.219  1.00  0.00     0.041 C 
ATOM      9  O   UNL     1      29.678   5.561  16.982  1.00  0.00    -0.550 OA
ATOM     10  O   UNL     1      30.354   6.187  19.080  1.00  0.00    -0.550 OA
ENDBRANCH   7   8
ENDBRANCH   6   7
ENDBRANCH   5   6
ENDBRANCH   4   5
ENDBRANCH   3   4
ENDBRANCH   2   3
ENDBRANCH   1   2
BRANCH   1  11
ATOM     11  C   UNL     1      22.334   3.017  19.551  1.00  0.00     0.000 C 
BRANCH  11  12
ATOM     12  C   UNL     1      23.122   4.179  20.180  1.00  0.00     0.000 C 
BRANCH  12  13
ATOM     13  C   UNL     1      23.022   5.481  19.364  1.00  0.00     0.000 C 
BRANCH  13  14
ATOM     14  C   UNL     1      23.558   5.390  17.923  1.00  0.00     0.000 C 
BRANCH  14  15
ATOM     15  C   UNL     1      22.776   6.275  16.937  1.00  0.00     0.000 C 
BRANCH  15  16
ATOM     16  C   UNL     1      23.690   7.213  16.128  1.00  0.00     0.006 C 
BRANCH  16  17
ATOM     17  C   UNL     1      24.137   6.641  14.773  1.00  0.00     0.053 C 
BRANCH  17  18
ATOM     18  C   UNL     1      25.629   6.568  14.659  1.00  0.00     0.041 C 
ATOM     19  O   UNL     1      26.278   5.742  15.352  1.00  0.00    -0.550 OA
ATOM     20  O   UNL     1      26.299   7.391  13.762  1.00  0.00    -0.550 OA
ENDBRANCH  17  18
ENDBRANCH  16  17
ENDBRANCH  15  16
ENDBRANCH  14  15
ENDBRANCH  13  14
ENDBRANCH  12  13
ENDBRANCH  11  12
ENDBRANCH   1  11
TORSDOF 15
ENDMDL
MODEL 3
REMARK VINA RESULT:    -4.310      5.028      8.151
REMARK INTER + INTRA:          -9.680
REMARK INTER:                  -8.168
REMARK INTRA:                  -1.512
REMARK UNBOUND:                -1.591
REMARK SMILES O=C([O-])CCCCCCCCCCCCCCC(=O)[O-]
REMARK SMILES IDX 10 1 9 2 8 3 7 4 6 5 5 6 4 7 2 8 1 9 3 10 11 11 12 12 13 13
REMARK SMILES IDX 14 14 15 15 16 16 17 17 18 18 19 19 20 20
REMARK H PARENT
REMARK Flexibility Score: inf
ROOT
ATOM      1  C   UNL     1      23.429   4.518  19.057  1.00  0.00     0.000 C 
ENDROOT
BRANCH   1   2
ATOM      2  C   UNL     1      23.031   5.971  18.755  1.00  0.00     0.000 C 
BRANCH   2   3
ATOM      3  C   UNL     1      23.267   6.308  17.275  1.00  0.00     0.000 C 
BRANCH   3   4
ATOM      4  C   UNL     1      23.843   5.116  16.484  1.00  0.00     0.000 C 
BRANCH   4   5
ATOM      5  C   UNL     1      25.224   5.387  15.856  1.00  0.00     0.000 C 
BRANCH   5   6
ATOM      6  C   UNL     1      25.333   6.744  15.128  1.00  0.00     0.006 C 
BRANCH   6   7
ATOM      7  C   UNL     1      25.093   6.651  13.612  1.00  0.00     0.053 C 
BRANCH   7   8
ATOM      8  C   UNL     1      26.350   6.313  12.870  1.00  0.00     0.041 C 
ATOM      9  O   UNL     1      26.420   5.252  12.194  1.00  0.00    -0.550 OA
ATOM     10  O   UNL     1      27.433   7.181  12.903  1.00  0.00    -0.550 OA
ENDBRANCH   7   8
ENDBRANCH   6   7
ENDBRANCH   5   6
ENDBRANCH   4   5
ENDBRANCH   3   4
ENDBRANCH   2   3
ENDBRANCH   1   2
BRANCH   1  11
ATOM     11  C   UNL     1      22.744   3.964  20.317  1.00  0.00     0.000 C 
BRANCH  11  12
ATOM     12  C   UNL     1      22.661   2.428  20.316  1.00  0.00     0.000 C 
BRANCH  12  13
ATOM     13  C   UNL     1      23.998   1.756  20.680  1.00  0.00     0.000 C 
BRANCH  13  14
ATOM     14  C   UNL     1      24.726   1.075  19.507  1.00  0.00     0.000 C 
BRANCH  14  15
ATOM     15  C   UNL     1      26.180   1.552  19.346  1.00  0.00     0.000 C 
BRANCH  15  16
ATOM     16  C   UNL     1      26.331   2.646  18.273  1.00  0.00     0.006 C 
BRANCH  16  17
ATOM     17  C   UNL     1      27.416   3.689  18.586  1.00  0.00     0.053 C 
BRANCH  17  18
ATOM     18  C   UNL     1      28.795   3.111  18.487  1.00  0.00     0.041 C 
ATOM     19  O   UNL     1      29.647   3.346  19.383  1.00  0.00    -0.550 OA
ATOM     20  O   UNL     1      29.127   2.283  17.422  1.00  0.00    -0.550 OA
ENDBRANCH  17  18
ENDBRANCH  16  17
ENDBRANCH  15  16
ENDBRANCH  14  15
ENDBRANCH  13  14
ENDBRANCH  12  13
ENDBRANCH  11  12
ENDBRANCH   1  11
TORSDOF 15
ENDMDL
MODEL 4
REMARK VINA RESULT:    -4.300      6.046      8.630
REMARK INTER + INTRA:          -9.662
REMARK INTER:                  -7.587
REMARK INTRA:                  -2.076
REMARK UNBOUND:                -1.591
REMARK SMILES O=C([O-])CCCCCCCCCCCCCCC(=O)[O-]
REMARK SMILES IDX 10 1 9 2 8 3 7 4 6 5 5 6 4 7 2 8 1 9 3 10 11 11 12 12 13 13
REMARK SMILES IDX 14 14 15 15 16 16 17 17 18 18 19 19 20 20
REMARK H PARENT
REMARK Flexibility Score: inf
ROOT
ATOM      1  C   UNL     1      28.418   2.547  16.635  1.00  0.00     0.000 C 
ENDROOT
BRANCH   1   2
ATOM      2  C   UNL     1      27.095   1.768  16.591  1.00  0.00     0.000 C 
BRANCH   2   3
ATOM      3  C   UNL     1      25.923   2.698  16.239  1.00  0.00     0.000 C 
BRANCH   3   4
ATOM      4  C   UNL     1      25.736   3.827  17.273  1.00  0.00     0.000 C 
BRANCH   4   5
ATOM      5  C   UNL     1      25.411   3.330  18.695  1.00  0.00     0.000 C 
BRANCH   5   6
ATOM      6  C   UNL     1      24.049   2.611  18.817  1.00  0.00     0.006 C 
BRANCH   6   7
ATOM      7  C   UNL     1      22.841   3.539  18.603  1.00  0.00     0.053 C 
BRANCH   7   8
ATOM      8  C   UNL     1      22.864   4.706  19.541  1.00  0.00     0.041 C 
ATOM      9  O   UNL     1      23.002   5.875  19.093  1.00  0.00    -0.550 OA
ATOM     10  O   UNL     1      22.708   4.507  20.906  1.00  0.00    -0.550 OA
ENDBRANCH   7   8
ENDBRANCH   6   7
ENDBRANCH   5   6
ENDBRANCH   4   5
ENDBRANCH   3   4
ENDBRANCH   2   3
ENDBRANCH   1   2
BRANCH   1  11
ATOM     11  C   UNL     1      29.220   2.282  17.921  1.00  0.00     0.000 C 
BRANCH  11  12
ATOM     12  C   UNL     1      29.700   3.580  18.594  1.00  0.00     0.000 C 
BRANCH  12  13
ATOM     13  C   UNL     1      29.094   4.844  17.956  1.00  0.00     0.000 C 
BRANCH  13  14
ATOM     14  C   UNL     1      30.112   5.792  17.295  1.00  0.00     0.000 C 
BRANCH  14  15
ATOM     15  C   UNL     1      29.633   6.330  15.936  1.00  0.00     0.000 C 
BRANCH  15  16
ATOM     16  C   UNL     1      28.118   6.150  15.726  1.00  0.00     0.006 C 
BRANCH  16  17
ATOM     17  C   UNL     1      27.729   5.698  14.310  1.00  0.00     0.053 C 
BRANCH  17  18
ATOM     18  C   UNL     1      27.206   6.833  13.483  1.00  0.00     0.041 C 
ATOM     19  O   UNL     1      27.945   7.387  12.627  1.00  0.00    -0.550 OA
ATOM     20  O   UNL     1      25.892   7.256  13.635  1.00  0.00    -0.550 OA
ENDBRANCH  17  18
ENDBRANCH  16  17
ENDBRANCH  15  16
ENDBRANCH  14  15
ENDBRANCH  13  14
ENDBRANCH  12  13
ENDBRANCH  11  12
ENDBRANCH   1  11
TORSDOF 15
ENDMDL
MODEL 5
REMARK VINA RESULT:    -4.285      1.899      6.969
REMARK INTER + INTRA:          -9.634
REMARK INTER:                  -7.504
REMARK INTRA:                  -2.130
REMARK UNBOUND:                -1.591
REMARK SMILES O=C([O-])CCCCCCCCCCCCCCC(=O)[O-]
REMARK SMILES IDX 10 1 9 2 8 3 7 4 6 5 5 6 4 7 2 8 1 9 3 10 11 11 12 12 13 13
REMARK SMILES IDX 14 14 15 15 16 16 17 17 18 18 19 19 20 20
REMARK H PARENT
REMARK Flexibility Score: inf
ROOT
ATOM      1  C   UNL     1      22.546   5.080  13.796  1.00  0.00     0.000 C 
ENDROOT
BRANCH   1   2
ATOM      2  C   UNL     1      22.004   5.944  14.945  1.00  0.00     0.000 C 
BRANCH   2   3
ATOM      3  C   UNL     1      22.971   5.941  16.139  1.00  0.00     0.000 C 
BRANCH   3   4
ATOM      4  C   UNL     1      23.817   7.227  16.215  1.00  0.00     0.000 C 
BRANCH   4   5
ATOM      5  C   UNL     1      25.070   7.210  15.318  1.00  0.00     0.000 C 
BRANCH   5   6
ATOM      6  C   UNL     1      25.854   5.880  15.351  1.00  0.00     0.006 C 
BRANCH   6   7
ATOM      7  C   UNL     1      26.413   5.460  13.982  1.00  0.00     0.053 C 
BRANCH   7   8
ATOM      8  C   UNL     1      27.320   6.504  13.408  1.00  0.00     0.041 C 
ATOM      9  O   UNL     1      27.071   7.008  12.280  1.00  0.00    -0.550 OA
ATOM     10  O   UNL     1      28.425   6.940  14.127  1.00  0.00    -0.550 OA
ENDBRANCH   7   8
ENDBRANCH   6   7
ENDBRANCH   5   6
ENDBRANCH   4   5
ENDBRANCH   3   4
ENDBRANCH   2   3
ENDBRANCH   1   2
BRANCH   1  11
ATOM     11  C   UNL     1      21.464   4.195  13.157  1.00  0.00     0.000 C 
BRANCH  11  12
ATOM     12  C   UNL     1      21.955   3.493  11.879  1.00  0.00     0.000 C 
BRANCH  12  13
ATOM     13  C   UNL     1      23.415   3.838  11.530  1.00  0.00     0.000 C 
BRANCH  13  14
ATOM     14  C   UNL     1      23.625   4.447  10.131  1.00  0.00     0.000 C 
BRANCH  14  15
ATOM     15  C   UNL     1      24.413   5.767  10.166  1.00  0.00     0.000 C 
BRANCH  15  16
ATOM     16  C   UNL     1      23.729   6.846  11.026  1.00  0.00     0.006 C 
BRANCH  16  17
ATOM     17  C   UNL     1      22.556   7.554  10.331  1.00  0.00     0.053 C 
BRANCH  17  18
ATOM     18  C   UNL     1      21.253   7.292  11.024  1.00  0.00     0.041 C 
ATOM     19  O   UNL     1      20.939   7.945  12.053  1.00  0.00    -0.550 OA
ATOM     20  O   UNL     1      20.370   6.350  10.511  1.00  0.00    -0.550 OA
ENDBRANCH  17  18
ENDBRANCH  16  17
ENDBRANCH  15  16
ENDBRANCH  14  15
ENDBRANCH  13  14
ENDBRANCH  12  13
ENDBRANCH  11  12
ENDBRANCH   1  11
TORSDOF 15
ENDMDL
MODEL 6
REMARK VINA RESULT:    -4.276      5.667     10.065
REMARK INTER + INTRA:          -9.617
REMARK INTER:                  -8.316
REMARK INTRA:                  -1.301
REMARK UNBOUND:                -1.591
REMARK SMILES O=C([O-])CCCCCCCCCCCCCCC(=O)[O-]
REMARK SMILES IDX 10 1 9 2 8 3 7 4 6 5 5 6 4 7 2 8 1 9 3 10 11 11 12 12 13 13
REMARK SMILES IDX 14 14 15 15 16 16 17 17 18 18 19 19 20 20
REMARK H PARENT
REMARK Flexibility Score: inf
ROOT
ATOM      1  C   UNL     1      28.534   2.913  18.611  1.00  0.00     0.000 C 
ENDROOT
BRANCH   1   2
ATOM      2  C   UNL     1      27.351   3.893  18.604  1.00  0.00     0.000 C 
BRANCH   2   3
ATOM      3  C   UNL     1      26.013   3.139  18.641  1.00  0.00     0.000 C 
BRANCH   3   4
ATOM      4  C   UNL     1      26.200   1.613  18.757  1.00  0.00     0.000 C 
BRANCH   4   5
ATOM      5  C   UNL     1      25.497   0.985  19.976  1.00  0.00     0.000 C 
BRANCH   5   6
ATOM      6  C   UNL     1      24.155   1.654  20.346  1.00  0.00     0.006 C 
BRANCH   6   7
ATOM      7  C   UNL     1      23.954   1.834  21.860  1.00  0.00     0.053 C 
BRANCH   7   8
ATOM      8  C   UNL     1      22.502   1.866  22.229  1.00  0.00     0.041 C 
ATOM      9  O   UNL     1      21.910   0.804  22.559  1.00  0.00    -0.550 OA
ATOM     10  O   UNL     1      21.810   3.069  22.231  1.00  0.00    -0.550 OA
ENDBRANCH   7   8
ENDBRANCH   6   7
ENDBRANCH   5   6
ENDBRANCH   4   5
ENDBRANCH   3   4
ENDBRANCH   2   3
ENDBRANCH   1   2
BRANCH   1  11
ATOM     11  C   UNL     1      29.895   3.625  18.535  1.00  0.00     0.000 C 
BRANCH  11  12
ATOM     12  C   UNL     1      29.791   5.130  18.837  1.00  0.00     0.000 C 
BRANCH  12  13
ATOM     13  C   UNL     1      30.300   6.009  17.679  1.00  0.00     0.000 C 
BRANCH  13  14
ATOM     14  C   UNL     1      30.223   5.360  16.285  1.00  0.00     0.000 C 
BRANCH  14  15
ATOM     15  C   UNL     1      29.443   6.214  15.270  1.00  0.00     0.000 C 
BRANCH  15  16
ATOM     16  C   UNL     1      27.932   6.249  15.561  1.00  0.00     0.006 C 
BRANCH  16  17
ATOM     17  C   UNL     1      27.084   5.416  14.587  1.00  0.00     0.053 C 
BRANCH  17  18
ATOM     18  C   UNL     1      26.514   6.253  13.482  1.00  0.00     0.041 C 
ATOM     19  O   UNL     1      26.065   7.404  13.725  1.00  0.00    -0.550 OA
ATOM     20  O   UNL     1      26.509   5.773  12.179  1.00  0.00    -0.550 OA
ENDBRANCH  17  18
ENDBRANCH  16  17
ENDBRANCH  15  16
ENDBRANCH  14  15
ENDBRANCH  13  14
ENDBRANCH  12  13
ENDBRANCH  11  12
ENDBRANCH   1  11
TORSDOF 15
ENDMDL
MODEL 7
REMARK VINA RESULT:    -4.265      3.754      6.933
REMARK INTER + INTRA:          -9.597
REMARK INTER:                  -7.671
REMARK INTRA:                  -1.926
REMARK UNBOUND:                -1.591
REMARK SMILES O=C([O-])CCCCCCCCCCCCCCC(=O)[O-]
REMARK SMILES IDX 10 1 9 2 8 3 7 4 6 5 5 6 4 7 2 8 1 9 3 10 11 11 12 12 13 13
REMARK SMILES IDX 14 14 15 15 16 16 17 17 18 18 19 19 20 20
REMARK H PARENT
REMARK Flexibility Score: inf
ROOT
ATOM      1  C   UNL     1      24.264   2.524  18.687  1.00  0.00     0.000 C 
ENDROOT
BRANCH   1   2
ATOM      2  C   UNL     1      23.990   3.976  19.107  1.00  0.00     0.000 C 
BRANCH   2   3
ATOM      3  C   UNL     1      23.007   4.651  18.138  1.00  0.00     0.000 C 
BRANCH   3   4
ATOM      4  C   UNL     1      23.356   6.132  17.884  1.00  0.00     0.000 C 
BRANCH   4   5
ATOM      5  C   UNL     1      22.617   6.754  16.683  1.00  0.00     0.000 C 
BRANCH   5   6
ATOM      6  C   UNL     1      22.433   5.794  15.487  1.00  0.00     0.006 C 
BRANCH   6   7
ATOM      7  C   UNL     1      22.711   6.449  14.123  1.00  0.00     0.053 C 
BRANCH   7   8
ATOM      8  C   UNL     1      21.445   6.837  13.424  1.00  0.00     0.041 C 
ATOM      9  O   UNL     1      21.334   6.676  12.179  1.00  0.00    -0.550 OA
ATOM     10  O   UNL     1      20.378   7.352  14.149  1.00  0.00    -0.550 OA
ENDBRANCH   7   8
ENDBRANCH   6   7
ENDBRANCH   5   6
ENDBRANCH   4   5
ENDBRANCH   3   4
ENDBRANCH   2   3
ENDBRANCH   1   2
BRANCH   1  11
ATOM     11  C   UNL     1      25.520   1.939  19.355  1.00  0.00     0.000 C 
BRANCH  11  12
ATOM     12  C   UNL     1      26.748   1.967  18.429  1.00  0.00     0.000 C 
BRANCH  12  13
ATOM     13  C   UNL     1      27.635   3.207  18.648  1.00  0.00     0.000 C 
BRANCH  13  14
ATOM     14  C   UNL     1      27.646   4.214  17.483  1.00  0.00     0.000 C 
BRANCH  14  15
ATOM     15  C   UNL     1      26.923   3.689  16.231  1.00  0.00     0.000 C 
BRANCH  15  16
ATOM     16  C   UNL     1      25.979   4.734  15.608  1.00  0.00     0.006 C 
BRANCH  16  17
ATOM     17  C   UNL     1      26.668   6.054  15.224  1.00  0.00     0.053 C 
BRANCH  17  18
ATOM     18  C   UNL     1      26.977   6.120  13.759  1.00  0.00     0.041 C 
ATOM     19  O   UNL     1      26.808   5.108  13.029  1.00  0.00    -0.550 OA
ATOM     20  O   UNL     1      27.418   7.310  13.195  1.00  0.00    -0.550 OA
ENDBRANCH  17  18
ENDBRANCH  16  17
ENDBRANCH  15  16
ENDBRANCH  14  15
ENDBRANCH  13  14
ENDBRANCH  12  13
ENDBRANCH  11  12
ENDBRANCH   1  11
TORSDOF 15
ENDMDL
MODEL 8
REMARK VINA RESULT:    -4.221      1.874      2.800
REMARK INTER + INTRA:          -9.514
REMARK INTER:                  -7.265
REMARK INTRA:                  -2.248
REMARK UNBOUND:                -1.591
REMARK SMILES O=C([O-])CCCCCCCCCCCCCCC(=O)[O-]
REMARK SMILES IDX 10 1 9 2 8 3 7 4 6 5 5 6 4 7 2 8 1 9 3 10 11 11 12 12 13 13
REMARK SMILES IDX 14 14 15 15 16 16 17 17 18 18 19 19 20 20
REMARK H PARENT
REMARK Flexibility Score: inf
ROOT
ATOM      1  C   UNL     1      23.156   3.240  12.100  1.00  0.00     0.000 C 
ENDROOT
BRANCH   1   2
ATOM      2  C   UNL     1      24.326   3.770  11.257  1.00  0.00     0.000 C 
BRANCH   2   3
ATOM      3  C   UNL     1      23.821   4.390   9.945  1.00  0.00     0.000 C 
BRANCH   3   4
ATOM      4  C   UNL     1      24.159   5.890   9.835  1.00  0.00     0.000 C 
BRANCH   4   5
ATOM      5  C   UNL     1      22.965   6.825  10.109  1.00  0.00     0.000 C 
BRANCH   5   6
ATOM      6  C   UNL     1      21.614   6.095  10.272  1.00  0.00     0.006 C 
BRANCH   6   7
ATOM      7  C   UNL     1      20.394   7.026  10.173  1.00  0.00     0.053 C 
BRANCH   7   8
ATOM      8  C   UNL     1      19.809   7.321  11.520  1.00  0.00     0.041 C 
ATOM      9  O   UNL     1      18.726   6.781  11.871  1.00  0.00    -0.550 OA
ATOM     10  O   UNL     1      20.470   8.171  12.397  1.00  0.00    -0.550 OA
ENDBRANCH   7   8
ENDBRANCH   6   7
ENDBRANCH   5   6
ENDBRANCH   4   5
ENDBRANCH   3   4
ENDBRANCH   2   3
ENDBRANCH   1   2
BRANCH   1  11
ATOM     11  C   UNL     1      23.458   3.250  13.608  1.00  0.00     0.000 C 
BRANCH  11  12
ATOM     12  C   UNL     1      22.439   4.081  14.407  1.00  0.00     0.000 C 
BRANCH  12  13
ATOM     13  C   UNL     1      22.167   5.461  13.779  1.00  0.00     0.000 C 
BRANCH  13  14
ATOM     14  C   UNL     1      23.374   6.417  13.760  1.00  0.00     0.000 C 
BRANCH  14  15
ATOM     15  C   UNL     1      23.957   6.672  15.161  1.00  0.00     0.000 C 
BRANCH  15  16
ATOM     16  C   UNL     1      25.494   6.579  15.191  1.00  0.00     0.006 C 
BRANCH  16  17
ATOM     17  C   UNL     1      26.098   5.774  14.029  1.00  0.00     0.053 C 
BRANCH  17  18
ATOM     18  C   UNL     1      27.052   6.594  13.215  1.00  0.00     0.041 C 
ATOM     19  O   UNL     1      26.807   6.835  12.004  1.00  0.00    -0.550 OA
ATOM     20  O   UNL     1      28.194   7.121  13.804  1.00  0.00    -0.550 OA
ENDBRANCH  17  18
ENDBRANCH  16  17
ENDBRANCH  15  16
ENDBRANCH  14  15
ENDBRANCH  13  14
ENDBRANCH  12  13
ENDBRANCH  11  12
ENDBRANCH   1  11
TORSDOF 15
ENDMDL
MODEL 9
REMARK VINA RESULT:    -4.166      4.597      8.022
REMARK INTER + INTRA:          -9.411
REMARK INTER:                  -7.696
REMARK INTRA:                  -1.715
REMARK UNBOUND:                -1.591
REMARK SMILES O=C([O-])CCCCCCCCCCCCCCC(=O)[O-]
REMARK SMILES IDX 10 1 9 2 8 3 7 4 6 5 5 6 4 7 2 8 1 9 3 10 11 11 12 12 13 13
REMARK SMILES IDX 14 14 15 15 16 16 17 17 18 18 19 19 20 20
REMARK H PARENT
REMARK Flexibility Score: inf
ROOT
ATOM      1  C   UNL     1      22.703   3.382  19.825  1.00  0.00     0.000 C 
ENDROOT
BRANCH   1   2
ATOM      2  C   UNL     1      23.074   4.872  19.788  1.00  0.00     0.000 C 
BRANCH   2   3
ATOM      3  C   UNL     1      23.032   5.413  18.350  1.00  0.00     0.000 C 
BRANCH   3   4
ATOM      4  C   UNL     1      23.838   4.538  17.368  1.00  0.00     0.000 C 
BRANCH   4   5
ATOM      5  C   UNL     1      24.665   5.340  16.345  1.00  0.00     0.000 C 
BRANCH   5   6
ATOM      6  C   UNL     1      23.927   6.561  15.754  1.00  0.00     0.006 C 
BRANCH   6   7
ATOM      7  C   UNL     1      23.160   6.250  14.458  1.00  0.00     0.053 C 
BRANCH   7   8
ATOM      8  C   UNL     1      21.691   6.092  14.706  1.00  0.00     0.041 C 
ATOM      9  O   UNL     1      21.219   4.966  15.015  1.00  0.00    -0.550 OA
ATOM     10  O   UNL     1      20.847   7.191  14.621  1.00  0.00    -0.550 OA
ENDBRANCH   7   8
ENDBRANCH   6   7
ENDBRANCH   5   6
ENDBRANCH   4   5
ENDBRANCH   3   4
ENDBRANCH   2   3
ENDBRANCH   1   2
BRANCH   1  11
ATOM     11  C   UNL     1      23.042   2.719  21.170  1.00  0.00     0.000 C 
BRANCH  11  12
ATOM     12  C   UNL     1      23.946   1.485  21.008  1.00  0.00     0.000 C 
BRANCH  12  13
ATOM     13  C   UNL     1      24.418   1.275  19.557  1.00  0.00     0.000 C 
BRANCH  13  14
ATOM     14  C   UNL     1      25.925   1.003  19.394  1.00  0.00     0.000 C 
BRANCH  14  15
ATOM     15  C   UNL     1      26.559   1.813  18.250  1.00  0.00     0.000 C 
BRANCH  15  16
ATOM     16  C   UNL     1      27.059   3.196  18.708  1.00  0.00     0.006 C 
BRANCH  16  17
ATOM     17  C   UNL     1      27.865   3.957  17.643  1.00  0.00     0.053 C 
BRANCH  17  18
ATOM     18  C   UNL     1      29.296   4.139  18.047  1.00  0.00     0.041 C 
ATOM     19  O   UNL     1      29.690   3.755  19.180  1.00  0.00    -0.550 OA
ATOM     20  O   UNL     1      30.203   4.702  17.158  1.00  0.00    -0.550 OA
ENDBRANCH  17  18
ENDBRANCH  16  17
ENDBRANCH  15  16
ENDBRANCH  14  15
ENDBRANCH  13  14
ENDBRANCH  12  13
ENDBRANCH  11  12
ENDBRANCH   1  11
TORSDOF 15
ENDMDL
