MODEL 1
REMARK VINA RESULT:    -7.652      0.000      0.000
REMARK INTER + INTRA:          -9.307
REMARK INTER:                  -8.994
REMARK INTRA:                  -0.313
REMARK UNBOUND:                -0.313
REMARK SMILES O=c1cc(-c2ccc(O)c(O)c2)oc2cc(O)cc(O)c12
REMARK SMILES IDX 4 1 3 2 2 3 1 4 21 5 19 6 18 7 16 8 15 9 14 10 13 11 5 12
REMARK SMILES IDX 6 13 7 14 8 15 12 16 10 17 9 18 11 20 20 22 17 24
REMARK H PARENT 9 19 11 21 20 23 17 25
REMARK Flexibility Score: inf
ROOT
ATOM      1  C   UNL     1     -23.087  85.028 -23.422  1.00  0.00     0.138 A 
ATOM      2  C   UNL     1     -23.884  84.398 -24.387  1.00  0.00     0.100 A 
ATOM      3  C   UNL     1     -24.267  85.100 -25.532  1.00  0.00     0.197 A 
ATOM      4  O   UNL     1     -25.034  84.529 -26.350  1.00  0.00    -0.289 OA
ATOM      5  C   UNL     1     -23.822  86.430 -25.723  1.00  0.00     0.107 A 
ATOM      6  C   UNL     1     -24.115  87.227 -26.869  1.00  0.00     0.134 A 
ATOM      7  C   UNL     1     -23.717  88.570 -26.895  1.00  0.00     0.093 A 
ATOM      8  C   UNL     1     -22.985  89.125 -25.846  1.00  0.00     0.123 A 
ATOM      9  C   UNL     1     -22.646  88.339 -24.744  1.00  0.00     0.094 A 
ATOM     10  C   UNL     1     -23.059  87.006 -24.672  1.00  0.00     0.146 A 
ATOM     11  O   UNL     1     -22.728  86.295 -23.600  1.00  0.00    -0.456 OA
ENDROOT
BRANCH   1  12
ATOM     12  C   UNL     1     -22.651  84.328 -22.187  1.00  0.00     0.021 A 
ATOM     13  C   UNL     1     -22.652  82.923 -22.094  1.00  0.00     0.016 A 
ATOM     14  C   UNL     1     -22.226  82.290 -20.923  1.00  0.00     0.051 A 
ATOM     15  C   UNL     1     -21.786  83.047 -19.831  1.00  0.00     0.157 A 
ATOM     16  C   UNL     1     -22.194  85.080 -21.089  1.00  0.00     0.062 A 
ATOM     17  C   UNL     1     -21.767  84.444 -19.915  1.00  0.00     0.158 A 
BRANCH  15  18
ATOM     18  O   UNL     1     -21.362  82.419 -18.661  1.00  0.00    -0.504 OA
ATOM     19  H   UNL     1     -21.212  81.418 -18.622  1.00  0.00     0.293 HD
ENDBRANCH  15  18
BRANCH  17  20
ATOM     20  O   UNL     1     -21.325  85.194 -18.827  1.00  0.00    -0.504 OA
ATOM     21  H   UNL     1     -20.445  85.698 -18.853  1.00  0.00     0.293 HD
ENDBRANCH  17  20
ENDBRANCH   1  12
BRANCH   6  22
ATOM     22  O   UNL     1     -24.766  86.747 -28.009  1.00  0.00    -0.507 OA
ATOM     23  H   UNL     1     -24.401  86.039 -28.627  1.00  0.00     0.293 HD
ENDBRANCH   6  22
BRANCH   8  24
ATOM     24  O   UNL     1     -22.593  90.460 -25.913  1.00  0.00    -0.508 OA
ATOM     25  H   UNL     1     -22.122  90.914 -25.139  1.00  0.00     0.293 HD
ENDBRANCH   8  24
TORSDOF 5
ENDMDL
MODEL 2
REMARK VINA RESULT:    -6.774      1.845      6.708
REMARK INTER + INTRA:          -8.276
REMARK INTER:                  -8.007
REMARK INTRA:                  -0.269
REMARK UNBOUND:                -0.313
REMARK SMILES O=c1cc(-c2ccc(O)c(O)c2)oc2cc(O)cc(O)c12
REMARK SMILES IDX 4 1 3 2 2 3 1 4 21 5 19 6 18 7 16 8 15 9 14 10 13 11 5 12
REMARK SMILES IDX 6 13 7 14 8 15 12 16 10 17 9 18 11 20 20 22 17 24
REMARK H PARENT 9 19 11 21 20 23 17 25
REMARK Flexibility Score: inf
ROOT
ATOM      1  C   UNL     1     -23.375  85.269 -23.820  1.00  0.00     0.138 A 
ATOM      2  C   UNL     1     -23.206  84.173 -24.677  1.00  0.00     0.100 A 
ATOM      3  C   UNL     1     -22.730  82.964 -24.167  1.00  0.00     0.197 A 
ATOM      4  O   UNL     1     -22.530  82.017 -24.971  1.00  0.00    -0.289 OA
ATOM      5  C   UNL     1     -22.452  82.845 -22.784  1.00  0.00     0.107 A 
ATOM      6  C   UNL     1     -22.002  81.651 -22.146  1.00  0.00     0.134 A 
ATOM      7  C   UNL     1     -21.648  81.684 -20.791  1.00  0.00     0.093 A 
ATOM      8  C   UNL     1     -21.785  82.850 -20.039  1.00  0.00     0.123 A 
ATOM      9  C   UNL     1     -22.276  84.010 -20.640  1.00  0.00     0.094 A 
ATOM     10  C   UNL     1     -22.604  84.018 -21.998  1.00  0.00     0.146 A 
ATOM     11  O   UNL     1     -23.054  85.147 -22.536  1.00  0.00    -0.456 OA
ENDROOT
BRANCH   1  12
ATOM     12  C   UNL     1     -23.878  86.577 -24.310  1.00  0.00     0.021 A 
ATOM     13  C   UNL     1     -25.254  86.823 -24.482  1.00  0.00     0.016 A 
ATOM     14  C   UNL     1     -25.700  88.068 -24.935  1.00  0.00     0.051 A 
ATOM     15  C   UNL     1     -24.782  89.088 -25.215  1.00  0.00     0.157 A 
ATOM     16  C   UNL     1     -22.965  87.613 -24.580  1.00  0.00     0.062 A 
ATOM     17  C   UNL     1     -23.413  88.861 -25.035  1.00  0.00     0.158 A 
BRANCH  15  18
ATOM     18  O   UNL     1     -25.224  90.330 -25.668  1.00  0.00    -0.504 OA
ATOM     19  H   UNL     1     -26.157  90.668 -25.463  1.00  0.00     0.293 HD
ENDBRANCH  15  18
BRANCH  17  20
ATOM     20  O   UNL     1     -22.503  89.880 -25.310  1.00  0.00    -0.504 OA
ATOM     21  H   UNL     1     -22.810  90.792 -25.632  1.00  0.00     0.293 HD
ENDBRANCH  17  20
ENDBRANCH   1  12
BRANCH   6  22
ATOM     22  O   UNL     1     -21.910  80.410 -22.785  1.00  0.00    -0.507 OA
ATOM     23  H   UNL     1     -21.814  80.281 -23.780  1.00  0.00     0.293 HD
ENDBRANCH   6  22
BRANCH   8  24
ATOM     24  O   UNL     1     -21.438  82.842 -18.690  1.00  0.00    -0.508 OA
ATOM     25  H   UNL     1     -21.958  83.378 -18.005  1.00  0.00     0.293 HD
ENDBRANCH   8  24
TORSDOF 5
ENDMDL
MODEL 3
REMARK VINA RESULT:    -6.762      5.306      8.798
REMARK INTER + INTRA:          -8.262
REMARK INTER:                  -7.980
REMARK INTRA:                  -0.282
REMARK UNBOUND:                -0.313
REMARK SMILES O=c1cc(-c2ccc(O)c(O)c2)oc2cc(O)cc(O)c12
REMARK SMILES IDX 4 1 3 2 2 3 1 4 21 5 19 6 18 7 16 8 15 9 14 10 13 11 5 12
REMARK SMILES IDX 6 13 7 14 8 15 12 16 10 17 9 18 11 20 20 22 17 24
REMARK H PARENT 9 19 11 21 20 23 17 25
REMARK Flexibility Score: inf
ROOT
ATOM      1  C   UNL     1     -23.893  91.451 -29.228  1.00  0.00     0.138 A 
ATOM      2  C   UNL     1     -23.373  91.602 -30.522  1.00  0.00     0.100 A 
ATOM      3  C   UNL     1     -23.340  92.867 -31.110  1.00  0.00     0.197 A 
ATOM      4  O   UNL     1     -22.925  92.961 -32.294  1.00  0.00    -0.289 OA
ATOM      5  C   UNL     1     -23.800  93.992 -30.384  1.00  0.00     0.107 A 
ATOM      6  C   UNL     1     -23.775  95.334 -30.866  1.00  0.00     0.134 A 
ATOM      7  C   UNL     1     -24.365  96.352 -30.105  1.00  0.00     0.093 A 
ATOM      8  C   UNL     1     -24.923  96.085 -28.855  1.00  0.00     0.123 A 
ATOM      9  C   UNL     1     -24.904  94.784 -28.350  1.00  0.00     0.094 A 
ATOM     10  C   UNL     1     -24.355  93.742 -29.101  1.00  0.00     0.146 A 
ATOM     11  O   UNL     1     -24.369  92.516 -28.590  1.00  0.00    -0.456 OA
ENDROOT
BRANCH   1  12
ATOM     12  C   UNL     1     -23.952  90.129 -28.557  1.00  0.00     0.021 A 
ATOM     13  C   UNL     1     -24.590  89.024 -29.154  1.00  0.00     0.016 A 
ATOM     14  C   UNL     1     -24.621  87.787 -28.503  1.00  0.00     0.051 A 
ATOM     15  C   UNL     1     -24.010  87.631 -27.253  1.00  0.00     0.157 A 
ATOM     16  C   UNL     1     -23.329  89.958 -27.307  1.00  0.00     0.062 A 
ATOM     17  C   UNL     1     -23.361  88.717 -26.655  1.00  0.00     0.158 A 
BRANCH  15  18
ATOM     18  O   UNL     1     -24.040  86.399 -26.601  1.00  0.00    -0.504 OA
ATOM     19  H   UNL     1     -24.487  86.289 -25.698  1.00  0.00     0.293 HD
ENDBRANCH  15  18
BRANCH  17  20
ATOM     20  O   UNL     1     -22.751  88.557 -25.412  1.00  0.00    -0.504 OA
ATOM     21  H   UNL     1     -22.220  89.306 -24.982  1.00  0.00     0.293 HD
ENDBRANCH  17  20
ENDBRANCH   1  12
BRANCH   6  22
ATOM     22  O   UNL     1     -23.167  95.724 -32.064  1.00  0.00    -0.507 OA
ATOM     23  H   UNL     1     -22.476  96.453 -32.148  1.00  0.00     0.293 HD
ENDBRANCH   6  22
BRANCH   8  24
ATOM     24  O   UNL     1     -25.487  97.125 -28.119  1.00  0.00    -0.508 OA
ATOM     25  H   UNL     1     -26.404  97.496 -28.342  1.00  0.00     0.293 HD
ENDBRANCH   8  24
TORSDOF 5
ENDMDL
MODEL 4
REMARK VINA RESULT:    -6.622      1.360      3.072
REMARK INTER + INTRA:          -8.097
REMARK INTER:                  -7.803
REMARK INTRA:                  -0.295
REMARK UNBOUND:                -0.313
REMARK SMILES O=c1cc(-c2ccc(O)c(O)c2)oc2cc(O)cc(O)c12
REMARK SMILES IDX 4 1 3 2 2 3 1 4 21 5 19 6 18 7 16 8 15 9 14 10 13 11 5 12
REMARK SMILES IDX 6 13 7 14 8 15 12 16 10 17 9 18 11 20 20 22 17 24
REMARK H PARENT 9 19 11 21 20 23 17 25
REMARK Flexibility Score: inf
ROOT
ATOM      1  C   UNL     1     -22.665  85.366 -23.086  1.00  0.00     0.138 A 
ATOM      2  C   UNL     1     -22.061  86.589 -23.408  1.00  0.00     0.100 A 
ATOM      3  C   UNL     1     -22.461  87.275 -24.557  1.00  0.00     0.197 A 
ATOM      4  O   UNL     1     -21.858  88.339 -24.853  1.00  0.00    -0.289 OA
ATOM      5  C   UNL     1     -23.494  86.747 -25.368  1.00  0.00     0.107 A 
ATOM      6  C   UNL     1     -24.010  87.379 -26.537  1.00  0.00     0.134 A 
ATOM      7  C   UNL     1     -24.953  86.706 -27.326  1.00  0.00     0.093 A 
ATOM      8  C   UNL     1     -25.440  85.453 -26.954  1.00  0.00     0.123 A 
ATOM      9  C   UNL     1     -24.980  84.849 -25.783  1.00  0.00     0.094 A 
ATOM     10  C   UNL     1     -24.015  85.479 -24.994  1.00  0.00     0.146 A 
ATOM     11  O   UNL     1     -23.594  84.865 -23.894  1.00  0.00    -0.456 OA
ENDROOT
BRANCH   1  12
ATOM     12  C   UNL     1     -22.278  84.595 -21.877  1.00  0.00     0.021 A 
ATOM     13  C   UNL     1     -22.102  85.219 -20.627  1.00  0.00     0.016 A 
ATOM     14  C   UNL     1     -21.748  84.467 -19.503  1.00  0.00     0.051 A 
ATOM     15  C   UNL     1     -21.572  83.082 -19.607  1.00  0.00     0.157 A 
ATOM     16  C   UNL     1     -22.112  83.201 -21.968  1.00  0.00     0.062 A 
ATOM     17  C   UNL     1     -21.757  82.447 -20.841  1.00  0.00     0.158 A 
BRANCH  15  18
ATOM     18  O   UNL     1     -21.218  82.329 -18.488  1.00  0.00    -0.504 OA
ATOM     19  H   UNL     1     -21.261  81.317 -18.496  1.00  0.00     0.293 HD
ENDBRANCH  15  18
BRANCH  17  20
ATOM     20  O   UNL     1     -21.584  81.068 -20.939  1.00  0.00    -0.504 OA
ATOM     21  H   UNL     1     -22.320  80.422 -20.677  1.00  0.00     0.293 HD
ENDBRANCH  17  20
ENDBRANCH   1  12
BRANCH   6  22
ATOM     22  O   UNL     1     -23.655  88.666 -26.952  1.00  0.00    -0.507 OA
ATOM     23  H   UNL     1     -23.843  89.511 -26.435  1.00  0.00     0.293 HD
ENDBRANCH   6  22
BRANCH   8  24
ATOM     24  O   UNL     1     -26.388  84.820 -27.755  1.00  0.00    -0.508 OA
ATOM     25  H   UNL     1     -27.150  84.286 -27.353  1.00  0.00     0.293 HD
ENDBRANCH   8  24
TORSDOF 5
ENDMDL
MODEL 5
REMARK VINA RESULT:    -6.511      6.271      9.366
REMARK INTER + INTRA:          -7.966
REMARK INTER:                  -7.683
REMARK INTRA:                  -0.283
REMARK UNBOUND:                -0.313
REMARK SMILES O=c1cc(-c2ccc(O)c(O)c2)oc2cc(O)cc(O)c12
REMARK SMILES IDX 4 1 3 2 2 3 1 4 21 5 19 6 18 7 16 8 15 9 14 10 13 11 5 12
REMARK SMILES IDX 6 13 7 14 8 15 12 16 10 17 9 18 11 20 20 22 17 24
REMARK H PARENT 9 19 11 21 20 23 17 25
REMARK Flexibility Score: inf
ROOT
ATOM      1  C   UNL     1     -24.884  91.983 -28.510  1.00  0.00     0.138 A 
ATOM      2  C   UNL     1     -25.451  92.816 -27.536  1.00  0.00     0.100 A 
ATOM      3  C   UNL     1     -25.442  94.200 -27.719  1.00  0.00     0.197 A 
ATOM      4  O   UNL     1     -25.903  94.924 -26.800  1.00  0.00    -0.289 OA
ATOM      5  C   UNL     1     -24.891  94.749 -28.902  1.00  0.00     0.107 A 
ATOM      6  C   UNL     1     -24.864  96.140 -29.215  1.00  0.00     0.134 A 
ATOM      7  C   UNL     1     -24.187  96.576 -30.362  1.00  0.00     0.093 A 
ATOM      8  C   UNL     1     -23.589  95.667 -31.235  1.00  0.00     0.123 A 
ATOM      9  C   UNL     1     -23.656  94.300 -30.965  1.00  0.00     0.094 A 
ATOM     10  C   UNL     1     -24.294  93.836 -29.813  1.00  0.00     0.146 A 
ATOM     11  O   UNL     1     -24.323  92.528 -29.585  1.00  0.00    -0.456 OA
ENDROOT
BRANCH   1  12
ATOM     12  C   UNL     1     -24.866  90.506 -28.365  1.00  0.00     0.021 A 
ATOM     13  C   UNL     1     -26.051  89.766 -28.185  1.00  0.00     0.016 A 
ATOM     14  C   UNL     1     -26.005  88.374 -28.061  1.00  0.00     0.051 A 
ATOM     15  C   UNL     1     -24.781  87.699 -28.124  1.00  0.00     0.157 A 
ATOM     16  C   UNL     1     -23.642  89.817 -28.440  1.00  0.00     0.062 A 
ATOM     17  C   UNL     1     -23.597  88.421 -28.316  1.00  0.00     0.158 A 
BRANCH  15  18
ATOM     18  O   UNL     1     -24.732  86.312 -28.000  1.00  0.00    -0.504 OA
ATOM     19  H   UNL     1     -25.575  85.759 -27.901  1.00  0.00     0.293 HD
ENDBRANCH  15  18
BRANCH  17  20
ATOM     20  O   UNL     1     -22.380  87.745 -28.381  1.00  0.00    -0.504 OA
ATOM     21  H   UNL     1     -21.532  88.142 -27.992  1.00  0.00     0.293 HD
ENDBRANCH  17  20
ENDBRANCH   1  12
BRANCH   6  22
ATOM     22  O   UNL     1     -25.503  97.125 -28.456  1.00  0.00    -0.507 OA
ATOM     23  H   UNL     1     -25.314  98.113 -28.519  1.00  0.00     0.293 HD
ENDBRANCH   6  22
BRANCH   8  24
ATOM     24  O   UNL     1     -22.938  96.136 -32.374  1.00  0.00    -0.508 OA
ATOM     25  H   UNL     1     -22.902  95.590 -33.227  1.00  0.00     0.293 HD
ENDBRANCH   8  24
TORSDOF 5
ENDMDL
MODEL 6
REMARK VINA RESULT:    -6.450      1.218      2.758
REMARK INTER + INTRA:          -7.895
REMARK INTER:                  -7.609
REMARK INTRA:                  -0.285
REMARK UNBOUND:                -0.313
REMARK SMILES O=c1cc(-c2ccc(O)c(O)c2)oc2cc(O)cc(O)c12
REMARK SMILES IDX 4 1 3 2 2 3 1 4 21 5 19 6 18 7 16 8 15 9 14 10 13 11 5 12
REMARK SMILES IDX 6 13 7 14 8 15 12 16 10 17 9 18 11 20 20 22 17 24
REMARK H PARENT 9 19 11 21 20 23 17 25
REMARK Flexibility Score: inf
ROOT
ATOM      1  C   UNL     1     -22.965  85.224 -23.399  1.00  0.00     0.138 A 
ATOM      2  C   UNL     1     -22.383  86.457 -23.724  1.00  0.00     0.100 A 
ATOM      3  C   UNL     1     -22.795  87.134 -24.873  1.00  0.00     0.197 A 
ATOM      4  O   UNL     1     -22.210  88.208 -25.171  1.00  0.00    -0.289 OA
ATOM      5  C   UNL     1     -23.819  86.587 -25.682  1.00  0.00     0.107 A 
ATOM      6  C   UNL     1     -24.348  87.208 -26.851  1.00  0.00     0.134 A 
ATOM      7  C   UNL     1     -25.280  86.518 -27.638  1.00  0.00     0.093 A 
ATOM      8  C   UNL     1     -25.745  85.257 -27.264  1.00  0.00     0.123 A 
ATOM      9  C   UNL     1     -25.274  84.664 -26.092  1.00  0.00     0.094 A 
ATOM     10  C   UNL     1     -24.319  85.311 -25.306  1.00  0.00     0.146 A 
ATOM     11  O   UNL     1     -23.886  84.706 -24.205  1.00  0.00    -0.456 OA
ENDROOT
BRANCH   1  12
ATOM     12  C   UNL     1     -22.563  84.462 -22.190  1.00  0.00     0.021 A 
ATOM     13  C   UNL     1     -22.583  83.054 -22.162  1.00  0.00     0.016 A 
ATOM     14  C   UNL     1     -22.188  82.363 -21.012  1.00  0.00     0.051 A 
ATOM     15  C   UNL     1     -21.761  83.063 -19.878  1.00  0.00     0.157 A 
ATOM     16  C   UNL     1     -22.119  85.157 -21.049  1.00  0.00     0.062 A 
ATOM     17  C   UNL     1     -21.724  84.462 -19.897  1.00  0.00     0.158 A 
BRANCH  15  18
ATOM     18  O   UNL     1     -21.369  82.376 -18.730  1.00  0.00    -0.504 OA
ATOM     19  H   UNL     1     -20.526  81.815 -18.711  1.00  0.00     0.293 HD
ENDBRANCH  15  18
BRANCH  17  20
ATOM     20  O   UNL     1     -21.295  85.156 -18.767  1.00  0.00    -0.504 OA
ATOM     21  H   UNL     1     -21.795  85.096 -17.887  1.00  0.00     0.293 HD
ENDBRANCH  17  20
ENDBRANCH   1  12
BRANCH   6  22
ATOM     22  O   UNL     1     -24.016  88.501 -27.269  1.00  0.00    -0.507 OA
ATOM     23  H   UNL     1     -24.671  89.260 -27.369  1.00  0.00     0.293 HD
ENDBRANCH   6  22
BRANCH   8  24
ATOM     24  O   UNL     1     -26.683  84.607 -28.063  1.00  0.00    -0.508 OA
ATOM     25  H   UNL     1     -27.008  83.672 -27.845  1.00  0.00     0.293 HD
ENDBRANCH   8  24
TORSDOF 5
ENDMDL
MODEL 7
REMARK VINA RESULT:    -6.289      4.333      9.647
REMARK INTER + INTRA:          -7.705
REMARK INTER:                  -7.426
REMARK INTRA:                  -0.279
REMARK UNBOUND:                -0.313
REMARK SMILES O=c1cc(-c2ccc(O)c(O)c2)oc2cc(O)cc(O)c12
REMARK SMILES IDX 4 1 3 2 2 3 1 4 21 5 19 6 18 7 16 8 15 9 14 10 13 11 5 12
REMARK SMILES IDX 6 13 7 14 8 15 12 16 10 17 9 18 11 20 20 22 17 24
REMARK H PARENT 9 19 11 21 20 23 17 25
REMARK Flexibility Score: inf
ROOT
ATOM      1  C   UNL     1     -24.420  91.456 -28.471  1.00  0.00     0.138 A 
ATOM      2  C   UNL     1     -25.029  90.450 -29.235  1.00  0.00     0.100 A 
ATOM      3  C   UNL     1     -24.924  89.118 -28.833  1.00  0.00     0.197 A 
ATOM      4  O   UNL     1     -25.429  88.233 -29.571  1.00  0.00    -0.289 OA
ATOM      5  C   UNL     1     -24.233  88.796 -27.641  1.00  0.00     0.107 A 
ATOM      6  C   UNL     1     -24.097  87.478 -27.112  1.00  0.00     0.134 A 
ATOM      7  C   UNL     1     -23.290  87.266 -25.986  1.00  0.00     0.093 A 
ATOM      8  C   UNL     1     -22.665  88.331 -25.337  1.00  0.00     0.123 A 
ATOM      9  C   UNL     1     -22.835  89.631 -25.815  1.00  0.00     0.094 A 
ATOM     10  C   UNL     1     -23.604  89.870 -26.955  1.00  0.00     0.146 A 
ATOM     11  O   UNL     1     -23.730  91.121 -27.386  1.00  0.00    -0.456 OA
ENDROOT
BRANCH   1  12
ATOM     12  C   UNL     1     -24.501  92.888 -28.854  1.00  0.00     0.021 A 
ATOM     13  C   UNL     1     -24.042  93.346 -30.104  1.00  0.00     0.016 A 
ATOM     14  C   UNL     1     -24.140  94.699 -30.442  1.00  0.00     0.051 A 
ATOM     15  C   UNL     1     -24.705  95.613 -29.544  1.00  0.00     0.157 A 
ATOM     16  C   UNL     1     -25.079  93.811 -27.964  1.00  0.00     0.062 A 
ATOM     17  C   UNL     1     -25.177  95.168 -28.304  1.00  0.00     0.158 A 
BRANCH  15  18
ATOM     18  O   UNL     1     -24.803  96.963 -29.878  1.00  0.00    -0.504 OA
ATOM     19  H   UNL     1     -24.257  97.668 -29.398  1.00  0.00     0.293 HD
ENDBRANCH  15  18
BRANCH  17  20
ATOM     20  O   UNL     1     -25.742  96.080 -27.414  1.00  0.00    -0.504 OA
ATOM     21  H   UNL     1     -25.722  95.925 -26.412  1.00  0.00     0.293 HD
ENDBRANCH  17  20
ENDBRANCH   1  12
BRANCH   6  22
ATOM     22  O   UNL     1     -24.748  86.356 -27.632  1.00  0.00    -0.507 OA
ATOM     23  H   UNL     1     -24.837  85.470 -27.159  1.00  0.00     0.293 HD
ENDBRANCH   6  22
BRANCH   8  24
ATOM     24  O   UNL     1     -21.883  88.084 -24.211  1.00  0.00    -0.508 OA
ATOM     25  H   UNL     1     -21.697  88.808 -23.525  1.00  0.00     0.293 HD
ENDBRANCH   8  24
TORSDOF 5
ENDMDL
MODEL 8
REMARK VINA RESULT:    -6.243      4.303      7.389
REMARK INTER + INTRA:          -7.651
REMARK INTER:                  -7.378
REMARK INTRA:                  -0.273
REMARK UNBOUND:                -0.313
REMARK SMILES O=c1cc(-c2ccc(O)c(O)c2)oc2cc(O)cc(O)c12
REMARK SMILES IDX 4 1 3 2 2 3 1 4 21 5 19 6 18 7 16 8 15 9 14 10 13 11 5 12
REMARK SMILES IDX 6 13 7 14 8 15 12 16 10 17 9 18 11 20 20 22 17 24
REMARK H PARENT 9 19 11 21 20 23 17 25
REMARK Flexibility Score: inf
ROOT
ATOM      1  C   UNL     1     -23.455  90.421 -28.108  1.00  0.00     0.138 A 
ATOM      2  C   UNL     1     -22.983  90.150 -29.400  1.00  0.00     0.100 A 
ATOM      3  C   UNL     1     -23.052  91.139 -30.383  1.00  0.00     0.197 A 
ATOM      4  O   UNL     1     -22.678  90.846 -31.548  1.00  0.00    -0.289 OA
ATOM      5  C   UNL     1     -23.568  92.417 -30.059  1.00  0.00     0.107 A 
ATOM      6  C   UNL     1     -23.649  93.513 -30.967  1.00  0.00     0.134 A 
ATOM      7  C   UNL     1     -24.285  94.695 -30.567  1.00  0.00     0.093 A 
ATOM      8  C   UNL     1     -24.789  94.840 -29.274  1.00  0.00     0.123 A 
ATOM      9  C   UNL     1     -24.667  93.792 -28.361  1.00  0.00     0.094 A 
ATOM     10  C   UNL     1     -24.069  92.589 -28.740  1.00  0.00     0.146 A 
ATOM     11  O   UNL     1     -23.985  91.610 -27.845  1.00  0.00    -0.456 OA
ENDROOT
BRANCH   1  12
ATOM     12  C   UNL     1     -23.405  89.405 -27.027  1.00  0.00     0.021 A 
ATOM     13  C   UNL     1     -22.942  89.721 -25.736  1.00  0.00     0.016 A 
ATOM     14  C   UNL     1     -22.916  88.747 -24.733  1.00  0.00     0.051 A 
ATOM     15  C   UNL     1     -23.359  87.446 -25.001  1.00  0.00     0.157 A 
ATOM     16  C   UNL     1     -23.860  88.098 -27.283  1.00  0.00     0.062 A 
ATOM     17  C   UNL     1     -23.834  87.121 -26.277  1.00  0.00     0.158 A 
BRANCH  15  18
ATOM     18  O   UNL     1     -23.333  86.472 -24.004  1.00  0.00    -0.504 OA
ATOM     19  H   UNL     1     -23.032  86.687 -23.061  1.00  0.00     0.293 HD
ENDBRANCH  15  18
BRANCH  17  20
ATOM     20  O   UNL     1     -24.277  85.826 -26.539  1.00  0.00    -0.504 OA
ATOM     21  H   UNL     1     -25.197  85.512 -26.248  1.00  0.00     0.293 HD
ENDBRANCH  17  20
ENDBRANCH   1  12
BRANCH   6  22
ATOM     22  O   UNL     1     -23.102  93.505 -32.254  1.00  0.00    -0.507 OA
ATOM     23  H   UNL     1     -22.452  94.189 -32.608  1.00  0.00     0.293 HD
ENDBRANCH   6  22
BRANCH   8  24
ATOM     24  O   UNL     1     -25.402  96.036 -28.906  1.00  0.00    -0.508 OA
ATOM     25  H   UNL     1     -26.252  96.047 -28.352  1.00  0.00     0.293 HD
ENDBRANCH   8  24
TORSDOF 5
ENDMDL
MODEL 9
REMARK VINA RESULT:    -6.184      2.464      6.960
REMARK INTER + INTRA:          -7.582
REMARK INTER:                  -7.318
REMARK INTRA:                  -0.263
REMARK UNBOUND:                -0.313
REMARK SMILES O=c1cc(-c2ccc(O)c(O)c2)oc2cc(O)cc(O)c12
REMARK SMILES IDX 4 1 3 2 2 3 1 4 21 5 19 6 18 7 16 8 15 9 14 10 13 11 5 12
REMARK SMILES IDX 6 13 7 14 8 15 12 16 10 17 9 18 11 20 20 22 17 24
REMARK H PARENT 9 19 11 21 20 23 17 25
REMARK Flexibility Score: inf
ROOT
ATOM      1  C   UNL     1     -22.781  84.661 -23.393  1.00  0.00     0.138 A 
ATOM      2  C   UNL     1     -22.826  84.420 -22.013  1.00  0.00     0.100 A 
ATOM      3  C   UNL     1     -22.384  83.195 -21.511  1.00  0.00     0.197 A 
ATOM      4  O   UNL     1     -22.494  82.985 -20.275  1.00  0.00    -0.289 OA
ATOM      5  C   UNL     1     -21.866  82.219 -22.395  1.00  0.00     0.107 A 
ATOM      6  C   UNL     1     -21.349  80.952 -21.993  1.00  0.00     0.134 A 
ATOM      7  C   UNL     1     -20.970  80.020 -22.967  1.00  0.00     0.093 A 
ATOM      8  C   UNL     1     -21.032  80.332 -24.325  1.00  0.00     0.123 A 
ATOM      9  C   UNL     1     -21.485  81.589 -24.728  1.00  0.00     0.094 A 
ATOM     10  C   UNL     1     -21.903  82.527 -23.782  1.00  0.00     0.146 A 
ATOM     11  O   UNL     1     -22.341  83.707 -24.207  1.00  0.00    -0.456 OA
ENDROOT
BRANCH   1  12
ATOM     12  C   UNL     1     -23.238  85.946 -23.979  1.00  0.00     0.021 A 
ATOM     13  C   UNL     1     -24.580  86.154 -24.352  1.00  0.00     0.016 A 
ATOM     14  C   UNL     1     -24.985  87.379 -24.891  1.00  0.00     0.051 A 
ATOM     15  C   UNL     1     -24.061  88.416 -25.059  1.00  0.00     0.157 A 
ATOM     16  C   UNL     1     -22.320  87.000 -24.140  1.00  0.00     0.062 A 
ATOM     17  C   UNL     1     -22.726  88.228 -24.681  1.00  0.00     0.158 A 
BRANCH  15  18
ATOM     18  O   UNL     1     -24.461  89.638 -25.598  1.00  0.00    -0.504 OA
ATOM     19  H   UNL     1     -23.862  90.455 -25.560  1.00  0.00     0.293 HD
ENDBRANCH  15  18
BRANCH  17  20
ATOM     20  O   UNL     1     -21.810  89.265 -24.847  1.00  0.00    -0.504 OA
ATOM     21  H   UNL     1     -21.204  89.563 -24.090  1.00  0.00     0.293 HD
ENDBRANCH  17  20
ENDBRANCH   1  12
BRANCH   6  22
ATOM     22  O   UNL     1     -21.165  80.570 -20.660  1.00  0.00    -0.507 OA
ATOM     23  H   UNL     1     -20.853  81.183 -19.923  1.00  0.00     0.293 HD
ENDBRANCH   6  22
BRANCH   8  24
ATOM     24  O   UNL     1     -20.632  79.386 -25.266  1.00  0.00    -0.508 OA
ATOM     25  H   UNL     1     -20.343  79.655 -26.200  1.00  0.00     0.293 HD
ENDBRANCH   8  24
TORSDOF 5
ENDMDL
