MODEL 1
REMARK VINA RESULT:    -5.009      0.000      0.000
REMARK INTER + INTRA:         -16.106
REMARK INTER:                 -13.209
REMARK INTRA:                  -2.896
REMARK UNBOUND:                -2.896
REMARK SMILES CCCCCCCCCCCCCCCCCCCCCCCCCCCCCC(=O)[O-]
REMARK SMILES IDX 16 1 17 2 18 3 19 4 20 5 21 6 22 7 23 8 24 9 25 10 26 11
REMARK SMILES IDX 27 12 28 13 29 14 30 15 31 16 32 17 15 18 14 19 13 20 12 21
REMARK SMILES IDX 11 22 10 23 9 24 8 25 7 26 6 27 5 28 4 29 3 30 2 31 1 32
REMARK H PARENT
REMARK Flexibility Score: inf
ROOT
ATOM      1  C   UNL     1      37.505  57.360  17.579  1.00  0.00     0.000 C 
ENDROOT
BRANCH   1   2
ATOM      2  C   UNL     1      38.576  56.370  17.075  1.00  0.00     0.000 C 
BRANCH   2   3
ATOM      3  C   UNL     1      39.863  56.381  17.918  1.00  0.00     0.000 C 
BRANCH   3   4
ATOM      4  C   UNL     1      41.116  56.012  17.107  1.00  0.00     0.000 C 
BRANCH   4   5
ATOM      5  C   UNL     1      42.177  55.275  17.944  1.00  0.00     0.000 C 
BRANCH   5   6
ATOM      6  C   UNL     1      43.303  54.605  17.133  1.00  0.00     0.000 C 
BRANCH   6   7
ATOM      7  C   UNL     1      42.870  53.402  16.271  1.00  0.00     0.000 C 
BRANCH   7   8
ATOM      8  C   UNL     1      43.261  53.494  14.784  1.00  0.00     0.000 C 
BRANCH   8   9
ATOM      9  C   UNL     1      44.742  53.847  14.572  1.00  0.00     0.000 C 
BRANCH   9  10
ATOM     10  C   UNL     1      45.594  52.577  14.440  1.00  0.00     0.000 C 
BRANCH  10  11
ATOM     11  C   UNL     1      47.050  52.885  14.048  1.00  0.00     0.000 C 
BRANCH  11  12
ATOM     12  C   UNL     1      48.065  52.552  15.168  1.00  0.00     0.000 C 
BRANCH  12  13
ATOM     13  C   UNL     1      48.832  53.786  15.679  1.00  0.00     0.006 C 
BRANCH  13  14
ATOM     14  C   UNL     1      48.078  55.106  15.462  1.00  0.00     0.053 C 
BRANCH  14  15
ATOM     15  C   UNL     1      47.453  55.604  16.732  1.00  0.00     0.041 C 
ATOM     16  O   UNL     1      46.369  56.243  16.698  1.00  0.00    -0.550 OA
ATOM     17  O   UNL     1      48.072  55.361  17.953  1.00  0.00    -0.550 OA
ENDBRANCH  14  15
ENDBRANCH  13  14
ENDBRANCH  12  13
ENDBRANCH  11  12
ENDBRANCH  10  11
ENDBRANCH   9  10
ENDBRANCH   8   9
ENDBRANCH   7   8
ENDBRANCH   6   7
ENDBRANCH   5   6
ENDBRANCH   4   5
ENDBRANCH   3   4
ENDBRANCH   2   3
ENDBRANCH   1   2
BRANCH   1  18
ATOM     18  C   UNL     1      36.178  57.227  16.802  1.00  0.00     0.000 C 
BRANCH  18  19
ATOM     19  C   UNL     1      35.995  58.337  15.757  1.00  0.00     0.000 C 
BRANCH  19  20
ATOM     20  C   UNL     1      35.692  57.792  14.349  1.00  0.00     0.000 C 
BRANCH  20  21
ATOM     21  C   UNL     1      35.713  56.255  14.290  1.00  0.00     0.000 C 
BRANCH  21  22
ATOM     22  C   UNL     1      34.353  55.600  13.987  1.00  0.00     0.000 C 
BRANCH  22  23
ATOM     23  C   UNL     1      33.199  56.616  13.935  1.00  0.00     0.000 C 
BRANCH  23  24
ATOM     24  C   UNL     1      32.130  56.334  15.012  1.00  0.00    -0.000 C 
BRANCH  24  25
ATOM     25  C   UNL     1      32.662  56.416  16.452  1.00  0.00    -0.000 C 
BRANCH  25  26
ATOM     26  C   UNL     1      32.466  55.111  17.241  1.00  0.00    -0.000 C 
BRANCH  26  27
ATOM     27  C   UNL     1      31.096  55.051  17.943  1.00  0.00    -0.000 C 
BRANCH  27  28
ATOM     28  C   UNL     1      30.159  53.964  17.372  1.00  0.00    -0.000 C 
BRANCH  28  29
ATOM     29  C   UNL     1      30.786  53.180  16.203  1.00  0.00    -0.000 C 
BRANCH  29  30
ATOM     30  C   UNL     1      31.085  51.713  16.574  1.00  0.00    -0.000 C 
BRANCH  30  31
ATOM     31  C   UNL     1      32.579  51.370  16.448  1.00  0.00    -0.003 C 
ATOM     32  C   UNL     1      33.276  52.211  15.376  1.00  0.00     0.004 C 
ENDBRANCH  30  31
ENDBRANCH  29  30
ENDBRANCH  28  29
ENDBRANCH  27  28
ENDBRANCH  26  27
ENDBRANCH  25  26
ENDBRANCH  24  25
ENDBRANCH  23  24
ENDBRANCH  22  23
ENDBRANCH  21  22
ENDBRANCH  20  21
ENDBRANCH  19  20
ENDBRANCH  18  19
ENDBRANCH   1  18
TORSDOF 28
ENDMDL
MODEL 2
REMARK VINA RESULT:    -4.960      1.269      3.077
REMARK INTER + INTRA:         -15.976
REMARK INTER:                 -13.671
REMARK INTRA:                  -2.304
REMARK UNBOUND:                -2.896
REMARK SMILES CCCCCCCCCCCCCCCCCCCCCCCCCCCCCC(=O)[O-]
REMARK SMILES IDX 16 1 17 2 18 3 19 4 20 5 21 6 22 7 23 8 24 9 25 10 26 11
REMARK SMILES IDX 27 12 28 13 29 14 30 15 31 16 32 17 15 18 14 19 13 20 12 21
REMARK SMILES IDX 11 22 10 23 9 24 8 25 7 26 6 27 5 28 4 29 3 30 2 31 1 32
REMARK H PARENT
REMARK Flexibility Score: inf
ROOT
ATOM      1  C   UNL     1      40.782  55.628  18.324  1.00  0.00     0.000 C 
ENDROOT
BRANCH   1   2
ATOM      2  C   UNL     1      42.034  55.958  17.485  1.00  0.00     0.000 C 
BRANCH   2   3
ATOM      3  C   UNL     1      42.770  54.710  16.968  1.00  0.00     0.000 C 
BRANCH   3   4
ATOM      4  C   UNL     1      42.322  54.288  15.559  1.00  0.00     0.000 C 
BRANCH   4   5
ATOM      5  C   UNL     1      43.276  53.273  14.904  1.00  0.00     0.000 C 
BRANCH   5   6
ATOM      6  C   UNL     1      44.777  53.593  15.051  1.00  0.00     0.000 C 
BRANCH   6   7
ATOM      7  C   UNL     1      45.738  52.517  14.508  1.00  0.00     0.000 C 
BRANCH   7   8
ATOM      8  C   UNL     1      47.167  53.012  14.215  1.00  0.00     0.000 C 
BRANCH   8   9
ATOM      9  C   UNL     1      48.233  52.317  15.076  1.00  0.00     0.000 C 
BRANCH   9  10
ATOM     10  C   UNL     1      48.903  53.315  16.031  1.00  0.00     0.000 C 
BRANCH  10  11
ATOM     11  C   UNL     1      48.423  54.759  15.802  1.00  0.00     0.000 C 
BRANCH  11  12
ATOM     12  C   UNL     1      47.753  55.383  17.049  1.00  0.00     0.000 C 
BRANCH  12  13
ATOM     13  C   UNL     1      47.632  56.917  16.969  1.00  0.00     0.006 C 
BRANCH  13  14
ATOM     14  C   UNL     1      47.793  57.469  15.545  1.00  0.00     0.053 C 
BRANCH  14  15
ATOM     15  C   UNL     1      46.466  57.718  14.892  1.00  0.00     0.041 C 
ATOM     16  O   UNL     1      45.870  58.814  15.061  1.00  0.00    -0.550 OA
ATOM     17  O   UNL     1      45.889  56.736  14.094  1.00  0.00    -0.550 OA
ENDBRANCH  14  15
ENDBRANCH  13  14
ENDBRANCH  12  13
ENDBRANCH  11  12
ENDBRANCH  10  11
ENDBRANCH   9  10
ENDBRANCH   8   9
ENDBRANCH   7   8
ENDBRANCH   6   7
ENDBRANCH   5   6
ENDBRANCH   4   5
ENDBRANCH   3   4
ENDBRANCH   2   3
ENDBRANCH   1   2
BRANCH   1  18
ATOM     18  C   UNL     1      39.754  56.778  18.312  1.00  0.00     0.000 C 
BRANCH  18  19
ATOM     19  C   UNL     1      38.604  56.529  17.324  1.00  0.00     0.000 C 
BRANCH  19  20
ATOM     20  C   UNL     1      37.428  57.503  17.516  1.00  0.00     0.000 C 
BRANCH  20  21
ATOM     21  C   UNL     1      36.141  57.025  16.823  1.00  0.00     0.000 C 
BRANCH  21  22
ATOM     22  C   UNL     1      35.754  57.813  15.559  1.00  0.00     0.000 C 
BRANCH  22  23
ATOM     23  C   UNL     1      34.881  56.998  14.590  1.00  0.00     0.000 C 
BRANCH  23  24
ATOM     24  C   UNL     1      33.588  56.489  15.264  1.00  0.00    -0.000 C 
BRANCH  24  25
ATOM     25  C   UNL     1      32.348  56.550  14.355  1.00  0.00    -0.000 C 
BRANCH  25  26
ATOM     26  C   UNL     1      31.027  56.553  15.142  1.00  0.00    -0.000 C 
BRANCH  26  27
ATOM     27  C   UNL     1      31.206  57.058  16.586  1.00  0.00    -0.000 C 
BRANCH  27  28
ATOM     28  C   UNL     1      30.753  56.038  17.654  1.00  0.00    -0.000 C 
BRANCH  28  29
ATOM     29  C   UNL     1      31.566  54.730  17.623  1.00  0.00    -0.000 C 
BRANCH  29  30
ATOM     30  C   UNL     1      30.780  53.565  16.987  1.00  0.00    -0.000 C 
BRANCH  30  31
ATOM     31  C   UNL     1      31.583  52.847  15.890  1.00  0.00    -0.003 C 
ATOM     32  C   UNL     1      33.032  52.587  16.311  1.00  0.00     0.004 C 
ENDBRANCH  30  31
ENDBRANCH  29  30
ENDBRANCH  28  29
ENDBRANCH  27  28
ENDBRANCH  26  27
ENDBRANCH  25  26
ENDBRANCH  24  25
ENDBRANCH  23  24
ENDBRANCH  22  23
ENDBRANCH  21  22
ENDBRANCH  20  21
ENDBRANCH  19  20
ENDBRANCH  18  19
ENDBRANCH   1  18
TORSDOF 28
ENDMDL
MODEL 3
REMARK VINA RESULT:    -4.881      3.668     12.874
REMARK INTER + INTRA:         -15.766
REMARK INTER:                 -13.507
REMARK INTRA:                  -2.259
REMARK UNBOUND:                -2.896
REMARK SMILES CCCCCCCCCCCCCCCCCCCCCCCCCCCCCC(=O)[O-]
REMARK SMILES IDX 16 1 17 2 18 3 19 4 20 5 21 6 22 7 23 8 24 9 25 10 26 11
REMARK SMILES IDX 27 12 28 13 29 14 30 15 31 16 32 17 15 18 14 19 13 20 12 21
REMARK SMILES IDX 11 22 10 23 9 24 8 25 7 26 6 27 5 28 4 29 3 30 2 31 1 32
REMARK H PARENT
REMARK Flexibility Score: inf
ROOT
ATOM      1  C   UNL     1      36.571  57.173  17.118  1.00  0.00     0.000 C 
ENDROOT
BRANCH   1   2
ATOM      2  C   UNL     1      36.007  57.946  15.908  1.00  0.00     0.000 C 
BRANCH   2   3
ATOM      3  C   UNL     1      35.805  57.067  14.662  1.00  0.00     0.000 C 
BRANCH   3   4
ATOM      4  C   UNL     1      34.326  56.907  14.272  1.00  0.00     0.000 C 
BRANCH   4   5
ATOM      5  C   UNL     1      33.439  56.468  15.451  1.00  0.00     0.000 C 
BRANCH   5   6
ATOM      6  C   UNL     1      32.012  56.028  15.069  1.00  0.00     0.000 C 
BRANCH   6   7
ATOM      7  C   UNL     1      30.873  56.797  15.769  1.00  0.00     0.000 C 
BRANCH   7   8
ATOM      8  C   UNL     1      30.889  56.723  17.307  1.00  0.00     0.000 C 
BRANCH   8   9
ATOM      9  C   UNL     1      31.220  55.320  17.839  1.00  0.00     0.000 C 
BRANCH   9  10
ATOM     10  C   UNL     1      29.947  54.472  17.976  1.00  0.00     0.000 C 
BRANCH  10  11
ATOM     11  C   UNL     1      29.647  53.653  16.709  1.00  0.00     0.000 C 
BRANCH  11  12
ATOM     12  C   UNL     1      29.580  52.129  16.971  1.00  0.00     0.000 C 
BRANCH  12  13
ATOM     13  C   UNL     1      30.646  51.332  16.195  1.00  0.00     0.006 C 
BRANCH  13  14
ATOM     14  C   UNL     1      31.435  52.185  15.191  1.00  0.00     0.053 C 
BRANCH  14  15
ATOM     15  C   UNL     1      32.892  52.249  15.540  1.00  0.00     0.041 C 
ATOM     16  O   UNL     1      33.277  52.912  16.539  1.00  0.00    -0.550 OA
ATOM     17  O   UNL     1      33.824  51.574  14.760  1.00  0.00    -0.550 OA
ENDBRANCH  14  15
ENDBRANCH  13  14
ENDBRANCH  12  13
ENDBRANCH  11  12
ENDBRANCH  10  11
ENDBRANCH   9  10
ENDBRANCH   8   9
ENDBRANCH   7   8
ENDBRANCH   6   7
ENDBRANCH   5   6
ENDBRANCH   4   5
ENDBRANCH   3   4
ENDBRANCH   2   3
ENDBRANCH   1   2
BRANCH   1  18
ATOM     18  C   UNL     1      38.014  56.684  16.875  1.00  0.00     0.000 C 
BRANCH  18  19
ATOM     19  C   UNL     1      38.969  57.082  18.009  1.00  0.00     0.000 C 
BRANCH  19  20
ATOM     20  C   UNL     1      40.035  56.009  18.299  1.00  0.00     0.000 C 
BRANCH  20  21
ATOM     21  C   UNL     1      41.110  55.927  17.202  1.00  0.00     0.000 C 
BRANCH  21  22
ATOM     22  C   UNL     1      42.482  55.413  17.676  1.00  0.00     0.000 C 
BRANCH  22  23
ATOM     23  C   UNL     1      43.022  54.265  16.808  1.00  0.00     0.000 C 
BRANCH  23  24
ATOM     24  C   UNL     1      42.472  54.318  15.367  1.00  0.00    -0.000 C 
BRANCH  24  25
ATOM     25  C   UNL     1      43.403  53.680  14.322  1.00  0.00    -0.000 C 
BRANCH  25  26
ATOM     26  C   UNL     1      44.594  52.939  14.951  1.00  0.00    -0.000 C 
BRANCH  26  27
ATOM     27  C   UNL     1      45.705  52.642  13.927  1.00  0.00    -0.000 C 
BRANCH  27  28
ATOM     28  C   UNL     1      46.925  51.916  14.536  1.00  0.00    -0.000 C 
BRANCH  28  29
ATOM     29  C   UNL     1      48.252  52.661  14.298  1.00  0.00    -0.000 C 
BRANCH  29  30
ATOM     30  C   UNL     1      48.697  53.478  15.529  1.00  0.00    -0.000 C 
BRANCH  30  31
ATOM     31  C   UNL     1      48.307  54.961  15.419  1.00  0.00    -0.003 C 
ATOM     32  C   UNL     1      47.147  55.324  16.350  1.00  0.00     0.004 C 
ENDBRANCH  30  31
ENDBRANCH  29  30
ENDBRANCH  28  29
ENDBRANCH  27  28
ENDBRANCH  26  27
ENDBRANCH  25  26
ENDBRANCH  24  25
ENDBRANCH  23  24
ENDBRANCH  22  23
ENDBRANCH  21  22
ENDBRANCH  20  21
ENDBRANCH  19  20
ENDBRANCH  18  19
ENDBRANCH   1  18
TORSDOF 28
ENDMDL
MODEL 4
REMARK VINA RESULT:    -4.778      3.677     12.199
REMARK INTER + INTRA:         -15.496
REMARK INTER:                 -12.314
REMARK INTRA:                  -3.182
REMARK UNBOUND:                -2.896
REMARK SMILES CCCCCCCCCCCCCCCCCCCCCCCCCCCCCC(=O)[O-]
REMARK SMILES IDX 16 1 17 2 18 3 19 4 20 5 21 6 22 7 23 8 24 9 25 10 26 11
REMARK SMILES IDX 27 12 28 13 29 14 30 15 31 16 32 17 15 18 14 19 13 20 12 21
REMARK SMILES IDX 11 22 10 23 9 24 8 25 7 26 6 27 5 28 4 29 3 30 2 31 1 32
REMARK H PARENT
REMARK Flexibility Score: inf
ROOT
ATOM      1  C   UNL     1      35.062  57.126  15.977  1.00  0.00     0.000 C 
ENDROOT
BRANCH   1   2
ATOM      2  C   UNL     1      34.691  56.453  14.639  1.00  0.00     0.000 C 
BRANCH   2   3
ATOM      3  C   UNL     1      33.450  57.068  13.970  1.00  0.00     0.000 C 
BRANCH   3   4
ATOM      4  C   UNL     1      32.198  56.183  14.096  1.00  0.00     0.000 C 
BRANCH   4   5
ATOM      5  C   UNL     1      30.966  56.955  14.601  1.00  0.00     0.000 C 
BRANCH   5   6
ATOM      6  C   UNL     1      30.752  56.923  16.127  1.00  0.00     0.000 C 
BRANCH   6   7
ATOM      7  C   UNL     1      31.803  56.126  16.925  1.00  0.00     0.000 C 
BRANCH   7   8
ATOM      8  C   UNL     1      31.227  55.195  18.009  1.00  0.00     0.000 C 
BRANCH   8   9
ATOM      9  C   UNL     1      29.905  54.532  17.592  1.00  0.00     0.000 C 
BRANCH   9  10
ATOM     10  C   UNL     1      30.163  53.200  16.873  1.00  0.00     0.000 C 
BRANCH  10  11
ATOM     11  C   UNL     1      29.997  53.314  15.348  1.00  0.00     0.000 C 
BRANCH  11  12
ATOM     12  C   UNL     1      31.158  52.662  14.559  1.00  0.00     0.000 C 
BRANCH  12  13
ATOM     13  C   UNL     1      32.534  52.875  15.217  1.00  0.00     0.006 C 
BRANCH  13  14
ATOM     14  C   UNL     1      33.619  51.927  14.683  1.00  0.00     0.053 C 
BRANCH  14  15
ATOM     15  C   UNL     1      34.054  50.938  15.724  1.00  0.00     0.041 C 
ATOM     16  O   UNL     1      33.689  51.075  16.921  1.00  0.00    -0.550 OA
ATOM     17  O   UNL     1      34.862  49.864  15.368  1.00  0.00    -0.550 OA
ENDBRANCH  14  15
ENDBRANCH  13  14
ENDBRANCH  12  13
ENDBRANCH  11  12
ENDBRANCH  10  11
ENDBRANCH   9  10
ENDBRANCH   8   9
ENDBRANCH   7   8
ENDBRANCH   6   7
ENDBRANCH   5   6
ENDBRANCH   4   5
ENDBRANCH   3   4
ENDBRANCH   2   3
ENDBRANCH   1   2
BRANCH   1  18
ATOM     18  C   UNL     1      36.488  57.716  15.956  1.00  0.00     0.000 C 
BRANCH  18  19
ATOM     19  C   UNL     1      37.526  56.767  16.573  1.00  0.00     0.000 C 
BRANCH  19  20
ATOM     20  C   UNL     1      38.242  57.375  17.793  1.00  0.00     0.000 C 
BRANCH  20  21
ATOM     21  C   UNL     1      39.333  56.452  18.363  1.00  0.00     0.000 C 
BRANCH  21  22
ATOM     22  C   UNL     1      40.456  56.089  17.374  1.00  0.00     0.000 C 
BRANCH  22  23
ATOM     23  C   UNL     1      41.775  55.725  18.076  1.00  0.00     0.000 C 
BRANCH  23  24
ATOM     24  C   UNL     1      42.869  55.303  17.072  1.00  0.00    -0.000 C 
BRANCH  24  25
ATOM     25  C   UNL     1      42.966  53.782  16.862  1.00  0.00    -0.000 C 
BRANCH  25  26
ATOM     26  C   UNL     1      42.780  53.366  15.393  1.00  0.00    -0.000 C 
BRANCH  26  27
ATOM     27  C   UNL     1      43.888  53.926  14.482  1.00  0.00    -0.000 C 
BRANCH  27  28
ATOM     28  C   UNL     1      45.287  53.347  14.788  1.00  0.00    -0.000 C 
BRANCH  28  29
ATOM     29  C   UNL     1      46.401  54.411  14.751  1.00  0.00    -0.000 C 
BRANCH  29  30
ATOM     30  C   UNL     1      45.841  55.848  14.729  1.00  0.00    -0.000 C 
BRANCH  30  31
ATOM     31  C   UNL     1      46.073  56.586  16.058  1.00  0.00    -0.003 C 
ATOM     32  C   UNL     1      46.990  55.804  17.002  1.00  0.00     0.004 C 
ENDBRANCH  30  31
ENDBRANCH  29  30
ENDBRANCH  28  29
ENDBRANCH  27  28
ENDBRANCH  26  27
ENDBRANCH  25  26
ENDBRANCH  24  25
ENDBRANCH  23  24
ENDBRANCH  22  23
ENDBRANCH  21  22
ENDBRANCH  20  21
ENDBRANCH  19  20
ENDBRANCH  18  19
ENDBRANCH   1  18
TORSDOF 28
ENDMDL
MODEL 5
REMARK VINA RESULT:    -4.770      4.011     13.142
REMARK INTER + INTRA:         -15.475
REMARK INTER:                 -12.814
REMARK INTRA:                  -2.661
REMARK UNBOUND:                -2.896
REMARK SMILES CCCCCCCCCCCCCCCCCCCCCCCCCCCCCC(=O)[O-]
REMARK SMILES IDX 16 1 17 2 18 3 19 4 20 5 21 6 22 7 23 8 24 9 25 10 26 11
REMARK SMILES IDX 27 12 28 13 29 14 30 15 31 16 32 17 15 18 14 19 13 20 12 21
REMARK SMILES IDX 11 22 10 23 9 24 8 25 7 26 6 27 5 28 4 29 3 30 2 31 1 32
REMARK H PARENT
REMARK Flexibility Score: inf
ROOT
ATOM      1  C   UNL     1      39.776  56.838  18.033  1.00  0.00     0.000 C 
ENDROOT
BRANCH   1   2
ATOM      2  C   UNL     1      38.535  56.508  17.177  1.00  0.00     0.000 C 
BRANCH   2   3
ATOM      3  C   UNL     1      37.339  57.436  17.452  1.00  0.00     0.000 C 
BRANCH   3   4
ATOM      4  C   UNL     1      36.141  57.162  16.529  1.00  0.00     0.000 C 
BRANCH   4   5
ATOM      5  C   UNL     1      36.294  57.805  15.139  1.00  0.00     0.000 C 
BRANCH   5   6
ATOM      6  C   UNL     1      35.165  57.485  14.140  1.00  0.00     0.000 C 
BRANCH   6   7
ATOM      7  C   UNL     1      34.756  56.001  14.058  1.00  0.00     0.000 C 
BRANCH   7   8
ATOM      8  C   UNL     1      33.399  55.665  14.704  1.00  0.00     0.000 C 
BRANCH   8   9
ATOM      9  C   UNL     1      32.235  56.478  14.116  1.00  0.00     0.000 C 
BRANCH   9  10
ATOM     10  C   UNL     1      31.215  56.840  15.205  1.00  0.00     0.000 C 
BRANCH  10  11
ATOM     11  C   UNL     1      31.779  56.654  16.624  1.00  0.00     0.000 C 
BRANCH  11  12
ATOM     12  C   UNL     1      30.735  56.111  17.629  1.00  0.00     0.000 C 
BRANCH  12  13
ATOM     13  C   UNL     1      30.771  54.578  17.773  1.00  0.00     0.006 C 
BRANCH  13  14
ATOM     14  C   UNL     1      30.172  53.837  16.568  1.00  0.00     0.053 C 
BRANCH  14  15
ATOM     15  C   UNL     1      31.189  52.972  15.885  1.00  0.00     0.041 C 
ATOM     16  O   UNL     1      31.168  52.834  14.634  1.00  0.00    -0.550 OA
ATOM     17  O   UNL     1      32.161  52.318  16.634  1.00  0.00    -0.550 OA
ENDBRANCH  14  15
ENDBRANCH  13  14
ENDBRANCH  12  13
ENDBRANCH  11  12
ENDBRANCH  10  11
ENDBRANCH   9  10
ENDBRANCH   8   9
ENDBRANCH   7   8
ENDBRANCH   6   7
ENDBRANCH   5   6
ENDBRANCH   4   5
ENDBRANCH   3   4
ENDBRANCH   2   3
ENDBRANCH   1   2
BRANCH   1  18
ATOM     18  C   UNL     1      40.723  55.628  18.175  1.00  0.00     0.000 C 
BRANCH  18  19
ATOM     19  C   UNL     1      41.911  55.693  17.204  1.00  0.00     0.000 C 
BRANCH  19  20
ATOM     20  C   UNL     1      41.624  55.001  15.859  1.00  0.00     0.000 C 
BRANCH  20  21
ATOM     21  C   UNL     1      42.763  54.068  15.415  1.00  0.00     0.000 C 
BRANCH  21  22
ATOM     22  C   UNL     1      43.587  54.575  14.218  1.00  0.00     0.000 C 
BRANCH  22  23
ATOM     23  C   UNL     1      45.078  54.214  14.322  1.00  0.00     0.000 C 
BRANCH  23  24
ATOM     24  C   UNL     1      45.292  52.722  14.654  1.00  0.00    -0.000 C 
BRANCH  24  25
ATOM     25  C   UNL     1      46.470  52.080  13.902  1.00  0.00    -0.000 C 
BRANCH  25  26
ATOM     26  C   UNL     1      47.796  52.168  14.676  1.00  0.00    -0.000 C 
BRANCH  26  27
ATOM     27  C   UNL     1      48.801  53.125  14.007  1.00  0.00    -0.000 C 
BRANCH  27  28
ATOM     28  C   UNL     1      49.043  54.421  14.812  1.00  0.00    -0.000 C 
BRANCH  28  29
ATOM     29  C   UNL     1      48.322  54.430  16.173  1.00  0.00    -0.000 C 
BRANCH  29  30
ATOM     30  C   UNL     1      48.050  55.860  16.685  1.00  0.00    -0.000 C 
BRANCH  30  31
ATOM     31  C   UNL     1      46.550  56.132  16.892  1.00  0.00    -0.003 C 
ATOM     32  C   UNL     1      46.068  57.348  16.097  1.00  0.00     0.004 C 
ENDBRANCH  30  31
ENDBRANCH  29  30
ENDBRANCH  28  29
ENDBRANCH  27  28
ENDBRANCH  26  27
ENDBRANCH  25  26
ENDBRANCH  24  25
ENDBRANCH  23  24
ENDBRANCH  22  23
ENDBRANCH  21  22
ENDBRANCH  20  21
ENDBRANCH  19  20
ENDBRANCH  18  19
ENDBRANCH   1  18
TORSDOF 28
ENDMDL
MODEL 6
REMARK VINA RESULT:    -4.699      3.801     12.352
REMARK INTER + INTRA:         -15.286
REMARK INTER:                 -13.036
REMARK INTRA:                  -2.250
REMARK UNBOUND:                -2.896
REMARK SMILES CCCCCCCCCCCCCCCCCCCCCCCCCCCCCC(=O)[O-]
REMARK SMILES IDX 16 1 17 2 18 3 19 4 20 5 21 6 22 7 23 8 24 9 25 10 26 11
REMARK SMILES IDX 27 12 28 13 29 14 30 15 31 16 32 17 15 18 14 19 13 20 12 21
REMARK SMILES IDX 11 22 10 23 9 24 8 25 7 26 6 27 5 28 4 29 3 30 2 31 1 32
REMARK H PARENT
REMARK Flexibility Score: inf
ROOT
ATOM      1  C   UNL     1      36.639  57.114  17.167  1.00  0.00     0.000 C 
ENDROOT
BRANCH   1   2
ATOM      2  C   UNL     1      36.077  58.082  16.104  1.00  0.00     0.000 C 
BRANCH   2   3
ATOM      3  C   UNL     1      36.080  57.497  14.682  1.00  0.00     0.000 C 
BRANCH   3   4
ATOM      4  C   UNL     1      34.670  57.177  14.160  1.00  0.00     0.000 C 
BRANCH   4   5
ATOM      5  C   UNL     1      33.820  56.387  15.172  1.00  0.00     0.000 C 
BRANCH   5   6
ATOM      6  C   UNL     1      32.408  56.004  14.686  1.00  0.00     0.000 C 
BRANCH   6   7
ATOM      7  C   UNL     1      31.249  56.772  15.351  1.00  0.00     0.000 C 
BRANCH   7   8
ATOM      8  C   UNL     1      30.789  56.205  16.707  1.00  0.00     0.000 C 
BRANCH   8   9
ATOM      9  C   UNL     1      31.553  54.938  17.121  1.00  0.00     0.000 C 
BRANCH   9  10
ATOM     10  C   UNL     1      30.631  53.710  17.096  1.00  0.00     0.000 C 
BRANCH  10  11
ATOM     11  C   UNL     1      31.090  52.652  16.078  1.00  0.00     0.000 C 
BRANCH  11  12
ATOM     12  C   UNL     1      32.622  52.638  15.863  1.00  0.00     0.000 C 
BRANCH  12  13
ATOM     13  C   UNL     1      33.355  51.638  16.777  1.00  0.00     0.006 C 
BRANCH  13  14
ATOM     14  C   UNL     1      32.961  50.176  16.522  1.00  0.00     0.053 C 
BRANCH  14  15
ATOM     15  C   UNL     1      33.601  49.636  15.277  1.00  0.00     0.041 C 
ATOM     16  O   UNL     1      34.755  49.135  15.323  1.00  0.00    -0.550 OA
ATOM     17  O   UNL     1      32.919  49.688  14.067  1.00  0.00    -0.550 OA
ENDBRANCH  14  15
ENDBRANCH  13  14
ENDBRANCH  12  13
ENDBRANCH  11  12
ENDBRANCH  10  11
ENDBRANCH   9  10
ENDBRANCH   8   9
ENDBRANCH   7   8
ENDBRANCH   6   7
ENDBRANCH   5   6
ENDBRANCH   4   5
ENDBRANCH   3   4
ENDBRANCH   2   3
ENDBRANCH   1   2
BRANCH   1  18
ATOM     18  C   UNL     1      38.093  56.699  16.864  1.00  0.00     0.000 C 
BRANCH  18  19
ATOM     19  C   UNL     1      39.062  57.083  17.992  1.00  0.00     0.000 C 
BRANCH  19  20
ATOM     20  C   UNL     1      40.118  55.998  18.271  1.00  0.00     0.000 C 
BRANCH  20  21
ATOM     21  C   UNL     1      41.151  55.868  17.138  1.00  0.00     0.000 C 
BRANCH  21  22
ATOM     22  C   UNL     1      42.591  55.586  17.603  1.00  0.00     0.000 C 
BRANCH  22  23
ATOM     23  C   UNL     1      43.198  54.336  16.945  1.00  0.00     0.000 C 
BRANCH  23  24
ATOM     24  C   UNL     1      42.398  53.889  15.703  1.00  0.00    -0.000 C 
BRANCH  24  25
ATOM     25  C   UNL     1      43.275  53.561  14.483  1.00  0.00    -0.000 C 
BRANCH  25  26
ATOM     26  C   UNL     1      44.637  52.957  14.867  1.00  0.00    -0.000 C 
BRANCH  26  27
ATOM     27  C   UNL     1      45.815  53.719  14.231  1.00  0.00    -0.000 C 
BRANCH  27  28
ATOM     28  C   UNL     1      46.467  54.747  15.182  1.00  0.00    -0.000 C 
BRANCH  28  29
ATOM     29  C   UNL     1      45.920  56.175  14.996  1.00  0.00    -0.000 C 
BRANCH  29  30
ATOM     30  C   UNL     1      45.821  56.945  16.328  1.00  0.00    -0.000 C 
BRANCH  30  31
ATOM     31  C   UNL     1      47.127  57.676  16.680  1.00  0.00    -0.003 C 
ATOM     32  C   UNL     1      48.077  56.800  17.502  1.00  0.00     0.004 C 
ENDBRANCH  30  31
ENDBRANCH  29  30
ENDBRANCH  28  29
ENDBRANCH  27  28
ENDBRANCH  26  27
ENDBRANCH  25  26
ENDBRANCH  24  25
ENDBRANCH  23  24
ENDBRANCH  22  23
ENDBRANCH  21  22
ENDBRANCH  20  21
ENDBRANCH  19  20
ENDBRANCH  18  19
ENDBRANCH   1  18
TORSDOF 28
ENDMDL
MODEL 7
REMARK VINA RESULT:    -4.607      3.675     12.674
REMARK INTER + INTRA:         -15.045
REMARK INTER:                 -12.033
REMARK INTRA:                  -3.012
REMARK UNBOUND:                -2.896
REMARK SMILES CCCCCCCCCCCCCCCCCCCCCCCCCCCCCC(=O)[O-]
REMARK SMILES IDX 16 1 17 2 18 3 19 4 20 5 21 6 22 7 23 8 24 9 25 10 26 11
REMARK SMILES IDX 27 12 28 13 29 14 30 15 31 16 32 17 15 18 14 19 13 20 12 21
REMARK SMILES IDX 11 22 10 23 9 24 8 25 7 26 6 27 5 28 4 29 3 30 2 31 1 32
REMARK H PARENT
REMARK Flexibility Score: inf
ROOT
ATOM      1  C   UNL     1      38.605  56.377  16.193  1.00  0.00     0.000 C 
ENDROOT
BRANCH   1   2
ATOM      2  C   UNL     1      37.146  56.629  15.758  1.00  0.00     0.000 C 
BRANCH   2   3
ATOM      3  C   UNL     1      36.356  57.504  16.746  1.00  0.00     0.000 C 
BRANCH   3   4
ATOM      4  C   UNL     1      34.846  57.521  16.460  1.00  0.00     0.000 C 
BRANCH   4   5
ATOM      5  C   UNL     1      34.252  56.112  16.279  1.00  0.00     0.000 C 
BRANCH   5   6
ATOM      6  C   UNL     1      32.820  56.071  15.711  1.00  0.00     0.000 C 
BRANCH   6   7
ATOM      7  C   UNL     1      31.716  56.569  16.665  1.00  0.00     0.000 C 
BRANCH   7   8
ATOM      8  C   UNL     1      31.414  55.635  17.851  1.00  0.00     0.000 C 
BRANCH   8   9
ATOM      9  C   UNL     1      29.965  55.122  17.860  1.00  0.00     0.000 C 
BRANCH   9  10
ATOM     10  C   UNL     1      29.922  53.599  17.676  1.00  0.00     0.000 C 
BRANCH  10  11
ATOM     11  C   UNL     1      30.357  53.165  16.266  1.00  0.00     0.000 C 
BRANCH  11  12
ATOM     12  C   UNL     1      30.430  51.629  16.096  1.00  0.00     0.000 C 
BRANCH  12  13
ATOM     13  C   UNL     1      31.867  51.078  16.157  1.00  0.00     0.006 C 
BRANCH  13  14
ATOM     14  C   UNL     1      32.943  52.172  16.094  1.00  0.00     0.053 C 
BRANCH  14  15
ATOM     15  C   UNL     1      33.683  52.150  14.789  1.00  0.00     0.041 C 
ATOM     16  O   UNL     1      33.518  53.074  13.950  1.00  0.00    -0.550 OA
ATOM     17  O   UNL     1      34.555  51.106  14.502  1.00  0.00    -0.550 OA
ENDBRANCH  14  15
ENDBRANCH  13  14
ENDBRANCH  12  13
ENDBRANCH  11  12
ENDBRANCH  10  11
ENDBRANCH   9  10
ENDBRANCH   8   9
ENDBRANCH   7   8
ENDBRANCH   6   7
ENDBRANCH   5   6
ENDBRANCH   4   5
ENDBRANCH   3   4
ENDBRANCH   2   3
ENDBRANCH   1   2
BRANCH   1  18
ATOM     18  C   UNL     1      38.813  56.627  17.701  1.00  0.00     0.000 C 
BRANCH  18  19
ATOM     19  C   UNL     1      40.178  56.128  18.197  1.00  0.00     0.000 C 
BRANCH  19  20
ATOM     20  C   UNL     1      41.154  55.812  17.050  1.00  0.00     0.000 C 
BRANCH  20  21
ATOM     21  C   UNL     1      42.588  55.551  17.542  1.00  0.00     0.000 C 
BRANCH  21  22
ATOM     22  C   UNL     1      43.140  54.151  17.216  1.00  0.00     0.000 C 
BRANCH  22  23
ATOM     23  C   UNL     1      42.775  53.681  15.798  1.00  0.00     0.000 C 
BRANCH  23  24
ATOM     24  C   UNL     1      44.018  53.237  14.997  1.00  0.00    -0.000 C 
BRANCH  24  25
ATOM     25  C   UNL     1      45.176  54.249  15.033  1.00  0.00    -0.000 C 
BRANCH  25  26
ATOM     26  C   UNL     1      44.938  55.466  14.124  1.00  0.00    -0.000 C 
BRANCH  26  27
ATOM     27  C   UNL     1      45.726  56.706  14.589  1.00  0.00    -0.000 C 
BRANCH  27  28
ATOM     28  C   UNL     1      45.729  56.893  16.123  1.00  0.00    -0.000 C 
BRANCH  28  29
ATOM     29  C   UNL     1      46.981  57.628  16.638  1.00  0.00    -0.000 C 
BRANCH  29  30
ATOM     30  C   UNL     1      48.250  56.755  16.556  1.00  0.00    -0.000 C 
BRANCH  30  31
ATOM     31  C   UNL     1      48.038  55.356  17.158  1.00  0.00    -0.003 C 
ATOM     32  C   UNL     1      48.616  54.251  16.270  1.00  0.00     0.004 C 
ENDBRANCH  30  31
ENDBRANCH  29  30
ENDBRANCH  28  29
ENDBRANCH  27  28
ENDBRANCH  26  27
ENDBRANCH  25  26
ENDBRANCH  24  25
ENDBRANCH  23  24
ENDBRANCH  22  23
ENDBRANCH  21  22
ENDBRANCH  20  21
ENDBRANCH  19  20
ENDBRANCH  18  19
ENDBRANCH   1  18
TORSDOF 28
ENDMDL
MODEL 8
REMARK VINA RESULT:    -4.477      1.558      2.654
REMARK INTER + INTRA:         -14.702
REMARK INTER:                 -11.303
REMARK INTRA:                  -3.399
REMARK UNBOUND:                -2.896
REMARK SMILES CCCCCCCCCCCCCCCCCCCCCCCCCCCCCC(=O)[O-]
REMARK SMILES IDX 16 1 17 2 18 3 19 4 20 5 21 6 22 7 23 8 24 9 25 10 26 11
REMARK SMILES IDX 27 12 28 13 29 14 30 15 31 16 32 17 15 18 14 19 13 20 12 21
REMARK SMILES IDX 11 22 10 23 9 24 8 25 7 26 6 27 5 28 4 29 3 30 2 31 1 32
REMARK H PARENT
REMARK Flexibility Score: inf
ROOT
ATOM      1  C   UNL     1      39.456  56.026  17.996  1.00  0.00     0.000 C 
ENDROOT
BRANCH   1   2
ATOM      2  C   UNL     1      40.911  56.381  17.626  1.00  0.00     0.000 C 
BRANCH   2   3
ATOM      3  C   UNL     1      41.635  55.265  16.854  1.00  0.00     0.000 C 
BRANCH   3   4
ATOM      4  C   UNL     1      41.231  55.198  15.372  1.00  0.00     0.000 C 
BRANCH   4   5
ATOM      5  C   UNL     1      42.084  54.207  14.561  1.00  0.00     0.000 C 
BRANCH   5   6
ATOM      6  C   UNL     1      42.978  53.272  15.398  1.00  0.00     0.000 C 
BRANCH   6   7
ATOM      7  C   UNL     1      44.492  53.387  15.127  1.00  0.00     0.000 C 
BRANCH   7   8
ATOM      8  C   UNL     1      45.036  54.827  15.087  1.00  0.00     0.000 C 
BRANCH   8   9
ATOM      9  C   UNL     1      45.096  55.488  16.473  1.00  0.00     0.000 C 
BRANCH   9  10
ATOM     10  C   UNL     1      45.179  57.016  16.349  1.00  0.00     0.000 C 
BRANCH  10  11
ATOM     11  C   UNL     1      46.056  57.462  15.167  1.00  0.00     0.000 C 
BRANCH  11  12
ATOM     12  C   UNL     1      47.325  58.230  15.607  1.00  0.00     0.000 C 
BRANCH  12  13
ATOM     13  C   UNL     1      48.557  57.321  15.778  1.00  0.00     0.006 C 
BRANCH  13  14
ATOM     14  C   UNL     1      48.518  56.067  14.891  1.00  0.00     0.053 C 
BRANCH  14  15
ATOM     15  C   UNL     1      48.650  54.810  15.699  1.00  0.00     0.041 C 
ATOM     16  O   UNL     1      48.984  53.731  15.144  1.00  0.00    -0.550 OA
ATOM     17  O   UNL     1      48.404  54.834  17.068  1.00  0.00    -0.550 OA
ENDBRANCH  14  15
ENDBRANCH  13  14
ENDBRANCH  12  13
ENDBRANCH  11  12
ENDBRANCH  10  11
ENDBRANCH   9  10
ENDBRANCH   8   9
ENDBRANCH   7   8
ENDBRANCH   6   7
ENDBRANCH   5   6
ENDBRANCH   4   5
ENDBRANCH   3   4
ENDBRANCH   2   3
ENDBRANCH   1   2
BRANCH   1  18
ATOM     18  C   UNL     1      38.499  57.222  17.807  1.00  0.00     0.000 C 
BRANCH  18  19
ATOM     19  C   UNL     1      37.374  56.923  16.806  1.00  0.00     0.000 C 
BRANCH  19  20
ATOM     20  C   UNL     1      37.894  56.365  15.468  1.00  0.00     0.000 C 
BRANCH  20  21
ATOM     21  C   UNL     1      37.078  56.857  14.261  1.00  0.00     0.000 C 
BRANCH  21  22
ATOM     22  C   UNL     1      35.979  57.881  14.595  1.00  0.00     0.000 C 
BRANCH  22  23
ATOM     23  C   UNL     1      34.617  57.517  13.981  1.00  0.00     0.000 C 
BRANCH  23  24
ATOM     24  C   UNL     1      33.999  56.266  14.640  1.00  0.00    -0.000 C 
BRANCH  24  25
ATOM     25  C   UNL     1      33.778  56.406  16.156  1.00  0.00    -0.000 C 
BRANCH  25  26
ATOM     26  C   UNL     1      32.291  56.462  16.543  1.00  0.00    -0.000 C 
BRANCH  26  27
ATOM     27  C   UNL     1      31.380  55.857  15.458  1.00  0.00    -0.000 C 
BRANCH  27  28
ATOM     28  C   UNL     1      30.362  54.834  16.009  1.00  0.00    -0.000 C 
BRANCH  28  29
ATOM     29  C   UNL     1      30.559  53.418  15.437  1.00  0.00    -0.000 C 
BRANCH  29  30
ATOM     30  C   UNL     1      32.042  53.098  15.157  1.00  0.00    -0.000 C 
BRANCH  30  31
ATOM     31  C   UNL     1      32.785  52.619  16.415  1.00  0.00    -0.003 C 
ATOM     32  C   UNL     1      33.687  51.415  16.131  1.00  0.00     0.004 C 
ENDBRANCH  30  31
ENDBRANCH  29  30
ENDBRANCH  28  29
ENDBRANCH  27  28
ENDBRANCH  26  27
ENDBRANCH  25  26
ENDBRANCH  24  25
ENDBRANCH  23  24
ENDBRANCH  22  23
ENDBRANCH  21  22
ENDBRANCH  20  21
ENDBRANCH  19  20
ENDBRANCH  18  19
ENDBRANCH   1  18
TORSDOF 28
ENDMDL
MODEL 9
REMARK VINA RESULT:    -4.437      4.307     13.153
REMARK INTER + INTRA:         -14.596
REMARK INTER:                 -12.184
REMARK INTRA:                  -2.412
REMARK UNBOUND:                -2.896
REMARK SMILES CCCCCCCCCCCCCCCCCCCCCCCCCCCCCC(=O)[O-]
REMARK SMILES IDX 16 1 17 2 18 3 19 4 20 5 21 6 22 7 23 8 24 9 25 10 26 11
REMARK SMILES IDX 27 12 28 13 29 14 30 15 31 16 32 17 15 18 14 19 13 20 12 21
REMARK SMILES IDX 11 22 10 23 9 24 8 25 7 26 6 27 5 28 4 29 3 30 2 31 1 32
REMARK H PARENT
REMARK Flexibility Score: inf
ROOT
ATOM      1  C   UNL     1      42.544  54.584  17.818  1.00  0.00     0.000 C 
ENDROOT
BRANCH   1   2
ATOM      2  C   UNL     1      42.057  55.934  17.251  1.00  0.00     0.000 C 
BRANCH   2   3
ATOM      3  C   UNL     1      40.532  56.001  17.058  1.00  0.00     0.000 C 
BRANCH   3   4
ATOM      4  C   UNL     1      39.784  56.424  18.333  1.00  0.00     0.000 C 
BRANCH   4   5
ATOM      5  C   UNL     1      38.446  57.127  18.039  1.00  0.00     0.000 C 
BRANCH   5   6
ATOM      6  C   UNL     1      37.798  56.765  16.688  1.00  0.00     0.000 C 
BRANCH   6   7
ATOM      7  C   UNL     1      36.316  57.164  16.538  1.00  0.00     0.000 C 
BRANCH   7   8
ATOM      8  C   UNL     1      35.988  57.982  15.276  1.00  0.00     0.000 C 
BRANCH   8   9
ATOM      9  C   UNL     1      34.867  57.360  14.429  1.00  0.00     0.000 C 
BRANCH   9  10
ATOM     10  C   UNL     1      33.973  56.452  15.286  1.00  0.00     0.000 C 
BRANCH  10  11
ATOM     11  C   UNL     1      33.233  55.396  14.448  1.00  0.00     0.000 C 
BRANCH  11  12
ATOM     12  C   UNL     1      33.085  54.037  15.172  1.00  0.00     0.000 C 
BRANCH  12  13
ATOM     13  C   UNL     1      32.682  54.178  16.652  1.00  0.00     0.006 C 
BRANCH  13  14
ATOM     14  C   UNL     1      31.163  54.261  16.865  1.00  0.00     0.053 C 
BRANCH  14  15
ATOM     15  C   UNL     1      30.742  55.621  17.340  1.00  0.00     0.041 C 
ATOM     16  O   UNL     1      30.370  55.790  18.531  1.00  0.00    -0.550 OA
ATOM     17  O   UNL     1      30.763  56.701  16.464  1.00  0.00    -0.550 OA
ENDBRANCH  14  15
ENDBRANCH  13  14
ENDBRANCH  12  13
ENDBRANCH  11  12
ENDBRANCH  10  11
ENDBRANCH   9  10
ENDBRANCH   8   9
ENDBRANCH   7   8
ENDBRANCH   6   7
ENDBRANCH   5   6
ENDBRANCH   4   5
ENDBRANCH   3   4
ENDBRANCH   2   3
ENDBRANCH   1   2
BRANCH   1  18
ATOM     18  C   UNL     1      43.147  53.677  16.724  1.00  0.00     0.000 C 
BRANCH  18  19
ATOM     19  C   UNL     1      42.331  53.700  15.424  1.00  0.00     0.000 C 
BRANCH  19  20
ATOM     20  C   UNL     1      43.196  53.485  14.169  1.00  0.00     0.000 C 
BRANCH  20  21
ATOM     21  C   UNL     1      44.146  54.663  13.892  1.00  0.00     0.000 C 
BRANCH  21  22
ATOM     22  C   UNL     1      45.643  54.304  13.900  1.00  0.00     0.000 C 
BRANCH  22  23
ATOM     23  C   UNL     1      45.920  52.909  14.484  1.00  0.00     0.000 C 
BRANCH  23  24
ATOM     24  C   UNL     1      47.430  52.596  14.547  1.00  0.00    -0.000 C 
BRANCH  24  25
ATOM     25  C   UNL     1      48.325  53.756  14.080  1.00  0.00    -0.000 C 
BRANCH  25  26
ATOM     26  C   UNL     1      49.041  54.467  15.240  1.00  0.00    -0.000 C 
BRANCH  26  27
ATOM     27  C   UNL     1      48.464  54.074  16.613  1.00  0.00    -0.000 C 
BRANCH  27  28
ATOM     28  C   UNL     1      48.009  55.285  17.458  1.00  0.00    -0.000 C 
BRANCH  28  29
ATOM     29  C   UNL     1      47.769  56.553  16.616  1.00  0.00    -0.000 C 
BRANCH  29  30
ATOM     30  C   UNL     1      48.682  57.721  17.041  1.00  0.00    -0.000 C 
BRANCH  30  31
ATOM     31  C   UNL     1      48.972  58.689  15.882  1.00  0.00    -0.003 C 
ATOM     32  C   UNL     1      48.556  58.109  14.527  1.00  0.00     0.004 C 
ENDBRANCH  30  31
ENDBRANCH  29  30
ENDBRANCH  28  29
ENDBRANCH  27  28
ENDBRANCH  26  27
ENDBRANCH  25  26
ENDBRANCH  24  25
ENDBRANCH  23  24
ENDBRANCH  22  23
ENDBRANCH  21  22
ENDBRANCH  20  21
ENDBRANCH  19  20
ENDBRANCH  18  19
ENDBRANCH   1  18
TORSDOF 28
ENDMDL
