MODEL 1
REMARK VINA RESULT:    -4.399      0.000      0.000
REMARK INTER + INTRA:          -9.097
REMARK INTER:                  -8.000
REMARK INTRA:                  -1.097
REMARK UNBOUND:                -1.097
REMARK SMILES CCCCCCCCCCCCCCCC(=O)[O-]
REMARK SMILES IDX 9 1 10 2 11 3 12 4 13 5 14 6 15 7 16 8 17 9 18 10 8 11 7 12
REMARK SMILES IDX 6 13 5 14 4 15 3 16 2 17 1 18
REMARK H PARENT
REMARK Flexibility Score: inf
ROOT
ATOM      1  C   UNL     1     -14.900   6.633  29.944  1.00  0.00     0.000 C 
ENDROOT
BRANCH   1   2
ATOM      2  C   UNL     1     -14.592   7.785  28.975  1.00  0.00     0.000 C 
BRANCH   2   3
ATOM      3  C   UNL     1     -13.121   7.753  28.535  1.00  0.00     0.000 C 
BRANCH   3   4
ATOM      4  C   UNL     1     -12.335   6.579  29.147  1.00  0.00     0.000 C 
BRANCH   4   5
ATOM      5  C   UNL     1     -10.890   6.909  29.567  1.00  0.00     0.000 C 
BRANCH   5   6
ATOM      6  C   UNL     1     -10.283   5.854  30.507  1.00  0.00     0.006 C 
BRANCH   6   7
ATOM      7  C   UNL     1     -11.360   5.062  31.261  1.00  0.00     0.053 C 
BRANCH   7   8
ATOM      8  C   UNL     1     -11.029   3.603  31.332  1.00  0.00     0.041 C 
ATOM      9  O   UNL     1      -9.836   3.228  31.482  1.00  0.00    -0.550 OA
ATOM     10  O   UNL     1     -12.043   2.656  31.262  1.00  0.00    -0.550 OA
ENDBRANCH   7   8
ENDBRANCH   6   7
ENDBRANCH   5   6
ENDBRANCH   4   5
ENDBRANCH   3   4
ENDBRANCH   2   3
ENDBRANCH   1   2
BRANCH   1  11
ATOM     11  C   UNL     1     -16.285   6.762  30.601  1.00  0.00     0.000 C 
BRANCH  11  12
ATOM     12  C   UNL     1     -16.610   5.580  31.530  1.00  0.00    -0.000 C 
BRANCH  12  13
ATOM     13  C   UNL     1     -15.664   4.386  31.320  1.00  0.00    -0.000 C 
BRANCH  13  14
ATOM     14  C   UNL     1     -15.147   3.798  32.641  1.00  0.00    -0.000 C 
BRANCH  14  15
ATOM     15  C   UNL     1     -16.311   3.302  33.513  1.00  0.00    -0.000 C 
BRANCH  15  16
ATOM     16  C   UNL     1     -16.369   1.767  33.621  1.00  0.00    -0.000 C 
BRANCH  16  17
ATOM     17  C   UNL     1     -16.786   1.230  35.001  1.00  0.00    -0.003 C 
ATOM     18  C   UNL     1     -15.599   0.783  35.853  1.00  0.00     0.004 C 
ENDBRANCH  16  17
ENDBRANCH  15  16
ENDBRANCH  14  15
ENDBRANCH  13  14
ENDBRANCH  12  13
ENDBRANCH  11  12
ENDBRANCH   1  11
TORSDOF 14
ENDMDL
MODEL 2
REMARK VINA RESULT:    -4.276      2.166      5.632
REMARK INTER + INTRA:          -8.873
REMARK INTER:                  -7.384
REMARK INTRA:                  -1.488
REMARK UNBOUND:                -1.097
REMARK SMILES CCCCCCCCCCCCCCCC(=O)[O-]
REMARK SMILES IDX 9 1 10 2 11 3 12 4 13 5 14 6 15 7 16 8 17 9 18 10 8 11 7 12
REMARK SMILES IDX 6 13 5 14 4 15 3 16 2 17 1 18
REMARK H PARENT
REMARK Flexibility Score: inf
ROOT
ATOM      1  C   UNL     1     -13.710   7.959  27.569  1.00  0.00     0.000 C 
ENDROOT
BRANCH   1   2
ATOM      2  C   UNL     1     -14.328   8.187  28.957  1.00  0.00     0.000 C 
BRANCH   2   3
ATOM      3  C   UNL     1     -14.786   6.859  29.578  1.00  0.00     0.000 C 
BRANCH   3   4
ATOM      4  C   UNL     1     -16.070   6.998  30.417  1.00  0.00     0.000 C 
BRANCH   4   5
ATOM      5  C   UNL     1     -16.392   5.795  31.323  1.00  0.00     0.000 C 
BRANCH   5   6
ATOM      6  C   UNL     1     -15.652   4.514  30.904  1.00  0.00     0.006 C 
BRANCH   6   7
ATOM      7  C   UNL     1     -14.839   3.911  32.057  1.00  0.00     0.053 C 
BRANCH   7   8
ATOM      8  C   UNL     1     -15.614   2.863  32.795  1.00  0.00     0.041 C 
ATOM      9  O   UNL     1     -16.451   3.193  33.676  1.00  0.00    -0.550 OA
ATOM     10  O   UNL     1     -15.432   1.519  32.490  1.00  0.00    -0.550 OA
ENDBRANCH   7   8
ENDBRANCH   6   7
ENDBRANCH   5   6
ENDBRANCH   4   5
ENDBRANCH   3   4
ENDBRANCH   2   3
ENDBRANCH   1   2
BRANCH   1  11
ATOM     11  C   UNL     1     -12.172   7.960  27.596  1.00  0.00     0.000 C 
BRANCH  11  12
ATOM     12  C   UNL     1     -11.596   9.125  28.421  1.00  0.00    -0.000 C 
BRANCH  12  13
ATOM     13  C   UNL     1     -10.676   8.645  29.556  1.00  0.00    -0.000 C 
BRANCH  13  14
ATOM     14  C   UNL     1     -10.275   7.170  29.411  1.00  0.00    -0.000 C 
BRANCH  14  15
ATOM     15  C   UNL     1     -10.595   6.386  30.694  1.00  0.00    -0.000 C 
BRANCH  15  16
ATOM     16  C   UNL     1     -11.426   5.117  30.429  1.00  0.00    -0.000 C 
BRANCH  16  17
ATOM     17  C   UNL     1     -11.158   3.953  31.400  1.00  0.00    -0.003 C 
ATOM     18  C   UNL     1      -9.678   3.792  31.748  1.00  0.00     0.004 C 
ENDBRANCH  16  17
ENDBRANCH  15  16
ENDBRANCH  14  15
ENDBRANCH  13  14
ENDBRANCH  12  13
ENDBRANCH  11  12
ENDBRANCH   1  11
TORSDOF 14
ENDMDL
MODEL 3
REMARK VINA RESULT:    -4.199      2.484      5.793
REMARK INTER + INTRA:          -8.733
REMARK INTER:                  -7.397
REMARK INTRA:                  -1.336
REMARK UNBOUND:                -1.097
REMARK SMILES CCCCCCCCCCCCCCCC(=O)[O-]
REMARK SMILES IDX 9 1 10 2 11 3 12 4 13 5 14 6 15 7 16 8 17 9 18 10 8 11 7 12
REMARK SMILES IDX 6 13 5 14 4 15 3 16 2 17 1 18
REMARK H PARENT
REMARK Flexibility Score: inf
ROOT
ATOM      1  C   UNL     1     -15.133   4.771  30.529  1.00  0.00     0.000 C 
ENDROOT
BRANCH   1   2
ATOM      2  C   UNL     1     -14.578   3.987  31.727  1.00  0.00     0.000 C 
BRANCH   2   3
ATOM      3  C   UNL     1     -13.101   3.624  31.508  1.00  0.00     0.000 C 
BRANCH   3   4
ATOM      4  C   UNL     1     -12.327   4.699  30.723  1.00  0.00     0.000 C 
BRANCH   4   5
ATOM      5  C   UNL     1     -10.996   5.140  31.359  1.00  0.00     0.000 C 
BRANCH   5   6
ATOM      6  C   UNL     1      -9.856   4.135  31.124  1.00  0.00     0.006 C 
BRANCH   6   7
ATOM      7  C   UNL     1      -8.477   4.807  31.144  1.00  0.00     0.053 C 
BRANCH   7   8
ATOM      8  C   UNL     1      -7.706   4.460  32.380  1.00  0.00     0.041 C 
ATOM      9  O   UNL     1      -8.202   3.685  33.241  1.00  0.00    -0.550 OA
ATOM     10  O   UNL     1      -6.428   4.970  32.569  1.00  0.00    -0.550 OA
ENDBRANCH   7   8
ENDBRANCH   6   7
ENDBRANCH   5   6
ENDBRANCH   4   5
ENDBRANCH   3   4
ENDBRANCH   2   3
ENDBRANCH   1   2
BRANCH   1  11
ATOM     11  C   UNL     1     -16.122   5.872  30.946  1.00  0.00     0.000 C 
BRANCH  11  12
ATOM     12  C   UNL     1     -15.866   7.204  30.217  1.00  0.00    -0.000 C 
BRANCH  12  13
ATOM     13  C   UNL     1     -14.513   7.225  29.487  1.00  0.00    -0.000 C 
BRANCH  13  14
ATOM     14  C   UNL     1     -14.398   8.382  28.484  1.00  0.00    -0.000 C 
BRANCH  14  15
ATOM     15  C   UNL     1     -13.063   9.123  28.652  1.00  0.00    -0.000 C 
BRANCH  15  16
ATOM     16  C   UNL     1     -11.841   8.232  28.361  1.00  0.00    -0.000 C 
BRANCH  16  17
ATOM     17  C   UNL     1     -10.789   8.189  29.482  1.00  0.00    -0.003 C 
ATOM     18  C   UNL     1      -9.356   8.109  28.957  1.00  0.00     0.004 C 
ENDBRANCH  16  17
ENDBRANCH  15  16
ENDBRANCH  14  15
ENDBRANCH  13  14
ENDBRANCH  12  13
ENDBRANCH  11  12
ENDBRANCH   1  11
TORSDOF 14
ENDMDL
MODEL 4
REMARK VINA RESULT:    -4.168      1.767      6.288
REMARK INTER + INTRA:          -8.676
REMARK INTER:                  -7.352
REMARK INTRA:                  -1.324
REMARK UNBOUND:                -1.097
REMARK SMILES CCCCCCCCCCCCCCCC(=O)[O-]
REMARK SMILES IDX 9 1 10 2 11 3 12 4 13 5 14 6 15 7 16 8 17 9 18 10 8 11 7 12
REMARK SMILES IDX 6 13 5 14 4 15 3 16 2 17 1 18
REMARK H PARENT
REMARK Flexibility Score: inf
ROOT
ATOM      1  C   UNL     1     -16.014   2.843  34.166  1.00  0.00     0.000 C 
ENDROOT
BRANCH   1   2
ATOM      2  C   UNL     1     -16.363   1.407  34.584  1.00  0.00     0.000 C 
BRANCH   2   3
ATOM      3  C   UNL     1     -16.834   0.584  33.375  1.00  0.00     0.000 C 
BRANCH   3   4
ATOM      4  C   UNL     1     -15.675  -0.087  32.615  1.00  0.00     0.000 C 
BRANCH   4   5
ATOM      5  C   UNL     1     -15.425   0.455  31.195  1.00  0.00     0.000 C 
BRANCH   5   6
ATOM      6  C   UNL     1     -13.932   0.653  30.883  1.00  0.00     0.006 C 
BRANCH   6   7
ATOM      7  C   UNL     1     -13.554   2.136  30.778  1.00  0.00     0.053 C 
BRANCH   7   8
ATOM      8  C   UNL     1     -12.143   2.383  31.217  1.00  0.00     0.041 C 
ATOM      9  O   UNL     1     -11.297   1.450  31.192  1.00  0.00    -0.550 OA
ATOM     10  O   UNL     1     -11.755   3.652  31.628  1.00  0.00    -0.550 OA
ENDBRANCH   7   8
ENDBRANCH   6   7
ENDBRANCH   5   6
ENDBRANCH   4   5
ENDBRANCH   3   4
ENDBRANCH   2   3
ENDBRANCH   1   2
BRANCH   1  11
ATOM     11  C   UNL     1     -16.916   3.370  33.037  1.00  0.00     0.000 C 
BRANCH  11  12
ATOM     12  C   UNL     1     -16.170   4.315  32.077  1.00  0.00    -0.000 C 
BRANCH  12  13
ATOM     13  C   UNL     1     -17.026   5.518  31.651  1.00  0.00    -0.000 C 
BRANCH  13  14
ATOM     14  C   UNL     1     -16.255   6.515  30.773  1.00  0.00    -0.000 C 
BRANCH  14  15
ATOM     15  C   UNL     1     -14.954   5.889  30.246  1.00  0.00    -0.000 C 
BRANCH  15  16
ATOM     16  C   UNL     1     -14.409   6.602  28.995  1.00  0.00    -0.000 C 
BRANCH  16  17
ATOM     17  C   UNL     1     -14.414   8.139  29.071  1.00  0.00    -0.003 C 
ATOM     18  C   UNL     1     -13.280   8.782  28.275  1.00  0.00     0.004 C 
ENDBRANCH  16  17
ENDBRANCH  15  16
ENDBRANCH  14  15
ENDBRANCH  13  14
ENDBRANCH  12  13
ENDBRANCH  11  12
ENDBRANCH   1  11
TORSDOF 14
ENDMDL
MODEL 5
REMARK VINA RESULT:    -4.132      2.500      5.386
REMARK INTER + INTRA:          -8.612
REMARK INTER:                  -6.944
REMARK INTRA:                  -1.667
REMARK UNBOUND:                -1.097
REMARK SMILES CCCCCCCCCCCCCCCC(=O)[O-]
REMARK SMILES IDX 9 1 10 2 11 3 12 4 13 5 14 6 15 7 16 8 17 9 18 10 8 11 7 12
REMARK SMILES IDX 6 13 5 14 4 15 3 16 2 17 1 18
REMARK H PARENT
REMARK Flexibility Score: inf
ROOT
ATOM      1  C   UNL     1     -12.403   7.866  28.677  1.00  0.00     0.000 C 
ENDROOT
BRANCH   1   2
ATOM      2  C   UNL     1     -13.343   9.071  28.521  1.00  0.00     0.000 C 
BRANCH   2   3
ATOM      3  C   UNL     1     -14.760   8.728  29.004  1.00  0.00     0.000 C 
BRANCH   3   4
ATOM      4  C   UNL     1     -14.932   7.240  29.358  1.00  0.00     0.000 C 
BRANCH   4   5
ATOM      5  C   UNL     1     -16.013   6.940  30.413  1.00  0.00     0.000 C 
BRANCH   5   6
ATOM      6  C   UNL     1     -16.406   5.454  30.463  1.00  0.00     0.006 C 
BRANCH   6   7
ATOM      7  C   UNL     1     -16.786   5.003  31.880  1.00  0.00     0.053 C 
BRANCH   7   8
ATOM      8  C   UNL     1     -16.308   3.613  32.168  1.00  0.00     0.041 C 
ATOM      9  O   UNL     1     -16.493   2.690  31.330  1.00  0.00    -0.550 OA
ATOM     10  O   UNL     1     -15.631   3.342  33.351  1.00  0.00    -0.550 OA
ENDBRANCH   7   8
ENDBRANCH   6   7
ENDBRANCH   5   6
ENDBRANCH   4   5
ENDBRANCH   3   4
ENDBRANCH   2   3
ENDBRANCH   1   2
BRANCH   1  11
ATOM     11  C   UNL     1     -10.968   8.167  28.214  1.00  0.00     0.000 C 
BRANCH  11  12
ATOM     12  C   UNL     1      -9.939   7.185  28.802  1.00  0.00    -0.000 C 
BRANCH  12  13
ATOM     13  C   UNL     1     -10.170   6.915  30.299  1.00  0.00    -0.000 C 
BRANCH  13  14
ATOM     14  C   UNL     1     -10.172   5.417  30.639  1.00  0.00    -0.000 C 
BRANCH  14  15
ATOM     15  C   UNL     1     -10.922   4.613  29.565  1.00  0.00    -0.000 C 
BRANCH  15  16
ATOM     16  C   UNL     1     -12.438   4.535  29.822  1.00  0.00    -0.000 C 
BRANCH  16  17
ATOM     17  C   UNL     1     -12.834   3.965  31.195  1.00  0.00    -0.003 C 
ATOM     18  C   UNL     1     -12.754   2.441  31.257  1.00  0.00     0.004 C 
ENDBRANCH  16  17
ENDBRANCH  15  16
ENDBRANCH  14  15
ENDBRANCH  13  14
ENDBRANCH  12  13
ENDBRANCH  11  12
ENDBRANCH   1  11
TORSDOF 14
ENDMDL
MODEL 6
REMARK VINA RESULT:    -4.128      1.685      2.360
REMARK INTER + INTRA:          -8.604
REMARK INTER:                  -7.063
REMARK INTRA:                  -1.541
REMARK UNBOUND:                -1.097
REMARK SMILES CCCCCCCCCCCCCCCC(=O)[O-]
REMARK SMILES IDX 9 1 10 2 11 3 12 4 13 5 14 6 15 7 16 8 17 9 18 10 8 11 7 12
REMARK SMILES IDX 6 13 5 14 4 15 3 16 2 17 1 18
REMARK H PARENT
REMARK Flexibility Score: inf
ROOT
ATOM      1  C   UNL     1     -13.958   6.540  29.365  1.00  0.00     0.000 C 
ENDROOT
BRANCH   1   2
ATOM      2  C   UNL     1     -13.632   7.393  28.130  1.00  0.00     0.000 C 
BRANCH   2   3
ATOM      3  C   UNL     1     -12.956   8.711  28.538  1.00  0.00     0.000 C 
BRANCH   3   4
ATOM      4  C   UNL     1     -11.428   8.686  28.352  1.00  0.00     0.000 C 
BRANCH   4   5
ATOM      5  C   UNL     1     -10.620   8.360  29.623  1.00  0.00     0.000 C 
BRANCH   5   6
ATOM      6  C   UNL     1     -10.005   6.951  29.596  1.00  0.00     0.006 C 
BRANCH   6   7
ATOM      7  C   UNL     1     -10.443   6.105  30.800  1.00  0.00     0.053 C 
BRANCH   7   8
ATOM      8  C   UNL     1      -9.438   5.044  31.129  1.00  0.00     0.041 C 
ATOM      9  O   UNL     1      -8.218   5.222  30.870  1.00  0.00    -0.550 OA
ATOM     10  O   UNL     1      -9.846   3.869  31.749  1.00  0.00    -0.550 OA
ENDBRANCH   7   8
ENDBRANCH   6   7
ENDBRANCH   5   6
ENDBRANCH   4   5
ENDBRANCH   3   4
ENDBRANCH   2   3
ENDBRANCH   1   2
BRANCH   1  11
ATOM     11  C   UNL     1     -15.338   6.861  29.963  1.00  0.00     0.000 C 
BRANCH  11  12
ATOM     12  C   UNL     1     -16.192   5.601  30.190  1.00  0.00    -0.000 C 
BRANCH  12  13
ATOM     13  C   UNL     1     -16.710   5.492  31.634  1.00  0.00    -0.000 C 
BRANCH  13  14
ATOM     14  C   UNL     1     -17.037   4.048  32.040  1.00  0.00    -0.000 C 
BRANCH  14  15
ATOM     15  C   UNL     1     -15.981   3.499  33.012  1.00  0.00    -0.000 C 
BRANCH  15  16
ATOM     16  C   UNL     1     -15.273   2.239  32.481  1.00  0.00    -0.000 C 
BRANCH  16  17
ATOM     17  C   UNL     1     -14.334   2.479  31.286  1.00  0.00    -0.003 C 
ATOM     18  C   UNL     1     -13.308   3.582  31.543  1.00  0.00     0.004 C 
ENDBRANCH  16  17
ENDBRANCH  15  16
ENDBRANCH  14  15
ENDBRANCH  13  14
ENDBRANCH  12  13
ENDBRANCH  11  12
ENDBRANCH   1  11
TORSDOF 14
ENDMDL
MODEL 7
REMARK VINA RESULT:    -4.106     20.318     22.864
REMARK INTER + INTRA:          -8.564
REMARK INTER:                  -6.500
REMARK INTRA:                  -2.064
REMARK UNBOUND:                -1.097
REMARK SMILES CCCCCCCCCCCCCCCC(=O)[O-]
REMARK SMILES IDX 9 1 10 2 11 3 12 4 13 5 14 6 15 7 16 8 17 9 18 10 8 11 7 12
REMARK SMILES IDX 6 13 5 14 4 15 3 16 2 17 1 18
REMARK H PARENT
REMARK Flexibility Score: inf
ROOT
ATOM      1  C   UNL     1       2.077  -9.020  21.302  1.00  0.00     0.000 C 
ENDROOT
BRANCH   1   2
ATOM      2  C   UNL     1       2.606  -8.111  22.421  1.00  0.00     0.000 C 
BRANCH   2   3
ATOM      3  C   UNL     1       3.121  -6.781  21.851  1.00  0.00     0.000 C 
BRANCH   3   4
ATOM      4  C   UNL     1       2.339  -5.560  22.369  1.00  0.00     0.000 C 
BRANCH   4   5
ATOM      5  C   UNL     1       2.565  -4.257  21.581  1.00  0.00     0.000 C 
BRANCH   5   6
ATOM      6  C   UNL     1       1.252  -3.563  21.181  1.00  0.00     0.006 C 
BRANCH   6   7
ATOM      7  C   UNL     1       1.262  -3.103  19.717  1.00  0.00     0.053 C 
BRANCH   7   8
ATOM      8  C   UNL     1       1.265  -1.610  19.602  1.00  0.00     0.041 C 
ATOM      9  O   UNL     1       0.492  -1.033  18.793  1.00  0.00    -0.550 OA
ATOM     10  O   UNL     1       2.103  -0.853  20.411  1.00  0.00    -0.550 OA
ENDBRANCH   7   8
ENDBRANCH   6   7
ENDBRANCH   5   6
ENDBRANCH   4   5
ENDBRANCH   3   4
ENDBRANCH   2   3
ENDBRANCH   1   2
BRANCH   1  11
ATOM     11  C   UNL     1       3.097  -9.225  20.170  1.00  0.00     0.000 C 
BRANCH  11  12
ATOM     12  C   UNL     1       2.750 -10.426  19.272  1.00  0.00    -0.000 C 
BRANCH  12  13
ATOM     13  C   UNL     1       1.940 -10.018  18.030  1.00  0.00    -0.000 C 
BRANCH  13  14
ATOM     14  C   UNL     1       0.424 -10.123  18.249  1.00  0.00    -0.000 C 
BRANCH  14  15
ATOM     15  C   UNL     1      -0.269  -8.787  17.941  1.00  0.00    -0.000 C 
BRANCH  15  16
ATOM     16  C   UNL     1       0.727  -7.633  17.715  1.00  0.00    -0.000 C 
BRANCH  16  17
ATOM     17  C   UNL     1       0.770  -6.585  18.840  1.00  0.00    -0.003 C 
ATOM     18  C   UNL     1      -0.400  -6.704  19.815  1.00  0.00     0.004 C 
ENDBRANCH  16  17
ENDBRANCH  15  16
ENDBRANCH  14  15
ENDBRANCH  13  14
ENDBRANCH  12  13
ENDBRANCH  11  12
ENDBRANCH   1  11
TORSDOF 14
ENDMDL
MODEL 8
REMARK VINA RESULT:    -4.094      2.373      5.889
REMARK INTER + INTRA:          -8.542
REMARK INTER:                  -7.315
REMARK INTRA:                  -1.227
REMARK UNBOUND:                -1.097
REMARK SMILES CCCCCCCCCCCCCCCC(=O)[O-]
REMARK SMILES IDX 9 1 10 2 11 3 12 4 13 5 14 6 15 7 16 8 17 9 18 10 8 11 7 12
REMARK SMILES IDX 6 13 5 14 4 15 3 16 2 17 1 18
REMARK H PARENT
REMARK Flexibility Score: inf
ROOT
ATOM      1  C   UNL     1     -14.268   5.618  28.963  1.00  0.00     0.000 C 
ENDROOT
BRANCH   1   2
ATOM      2  C   UNL     1     -14.845   6.829  29.710  1.00  0.00     0.000 C 
BRANCH   2   3
ATOM      3  C   UNL     1     -16.048   6.420  30.573  1.00  0.00     0.000 C 
BRANCH   3   4
ATOM      4  C   UNL     1     -16.371   4.917  30.482  1.00  0.00     0.000 C 
BRANCH   4   5
ATOM      5  C   UNL     1     -16.666   4.230  31.828  1.00  0.00     0.000 C 
BRANCH   5   6
ATOM      6  C   UNL     1     -15.466   3.436  32.371  1.00  0.00     0.006 C 
BRANCH   6   7
ATOM      7  C   UNL     1     -15.613   3.111  33.864  1.00  0.00     0.053 C 
BRANCH   7   8
ATOM      8  C   UNL     1     -15.957   1.671  34.089  1.00  0.00     0.041 C 
ATOM      9  O   UNL     1     -15.963   0.861  33.125  1.00  0.00    -0.550 OA
ATOM     10  O   UNL     1     -16.243   1.217  35.371  1.00  0.00    -0.550 OA
ENDBRANCH   7   8
ENDBRANCH   6   7
ENDBRANCH   5   6
ENDBRANCH   4   5
ENDBRANCH   3   4
ENDBRANCH   2   3
ENDBRANCH   1   2
BRANCH   1  11
ATOM     11  C   UNL     1     -12.733   5.645  28.882  1.00  0.00     0.000 C 
BRANCH  11  12
ATOM     12  C   UNL     1     -12.069   5.741  30.267  1.00  0.00    -0.000 C 
BRANCH  12  13
ATOM     13  C   UNL     1     -12.256   4.462  31.100  1.00  0.00    -0.000 C 
BRANCH  13  14
ATOM     14  C   UNL     1     -11.452   3.274  30.552  1.00  0.00    -0.000 C 
BRANCH  14  15
ATOM     15  C   UNL     1     -10.278   2.930  31.482  1.00  0.00    -0.000 C 
BRANCH  15  16
ATOM     16  C   UNL     1      -9.277   4.090  31.640  1.00  0.00    -0.000 C 
BRANCH  16  17
ATOM     17  C   UNL     1      -8.209   3.880  32.727  1.00  0.00    -0.003 C 
ATOM     18  C   UNL     1      -6.954   4.723  32.504  1.00  0.00     0.004 C 
ENDBRANCH  16  17
ENDBRANCH  15  16
ENDBRANCH  14  15
ENDBRANCH  13  14
ENDBRANCH  12  13
ENDBRANCH  11  12
ENDBRANCH   1  11
TORSDOF 14
ENDMDL
MODEL 9
REMARK VINA RESULT:    -4.087      1.980      3.665
REMARK INTER + INTRA:          -8.530
REMARK INTER:                  -7.164
REMARK INTRA:                  -1.366
REMARK UNBOUND:                -1.097
REMARK SMILES CCCCCCCCCCCCCCCC(=O)[O-]
REMARK SMILES IDX 9 1 10 2 11 3 12 4 13 5 14 6 15 7 16 8 17 9 18 10 8 11 7 12
REMARK SMILES IDX 6 13 5 14 4 15 3 16 2 17 1 18
REMARK H PARENT
REMARK Flexibility Score: inf
ROOT
ATOM      1  C   UNL     1     -12.155   6.198  29.318  1.00  0.00     0.000 C 
ENDROOT
BRANCH   1   2
ATOM      2  C   UNL     1     -12.526   4.745  29.647  1.00  0.00     0.000 C 
BRANCH   2   3
ATOM      3  C   UNL     1     -12.137   4.393  31.091  1.00  0.00     0.000 C 
BRANCH   3   4
ATOM      4  C   UNL     1     -11.582   2.964  31.235  1.00  0.00     0.000 C 
BRANCH   4   5
ATOM      5  C   UNL     1     -10.102   2.877  31.653  1.00  0.00     0.000 C 
BRANCH   5   6
ATOM      6  C   UNL     1      -9.423   4.253  31.746  1.00  0.00     0.006 C 
BRANCH   6   7
ATOM      7  C   UNL     1      -8.100   4.195  32.522  1.00  0.00     0.053 C 
BRANCH   7   8
ATOM      8  C   UNL     1      -6.919   4.382  31.621  1.00  0.00     0.041 C 
ATOM      9  O   UNL     1      -6.569   3.463  30.833  1.00  0.00    -0.550 OA
ATOM     10  O   UNL     1      -6.219   5.582  31.632  1.00  0.00    -0.550 OA
ENDBRANCH   7   8
ENDBRANCH   6   7
ENDBRANCH   5   6
ENDBRANCH   4   5
ENDBRANCH   3   4
ENDBRANCH   2   3
ENDBRANCH   1   2
BRANCH   1  11
ATOM     11  C   UNL     1     -13.382   7.067  28.996  1.00  0.00     0.000 C 
BRANCH  11  12
ATOM     12  C   UNL     1     -14.708   6.306  29.174  1.00  0.00    -0.000 C 
BRANCH  12  13
ATOM     13  C   UNL     1     -15.683   7.033  30.115  1.00  0.00    -0.000 C 
BRANCH  13  14
ATOM     14  C   UNL     1     -16.390   6.080  31.090  1.00  0.00    -0.000 C 
BRANCH  14  15
ATOM     15  C   UNL     1     -16.226   4.618  30.645  1.00  0.00    -0.000 C 
BRANCH  15  16
ATOM     16  C   UNL     1     -15.686   3.707  31.762  1.00  0.00    -0.000 C 
BRANCH  16  17
ATOM     17  C   UNL     1     -16.641   3.506  32.952  1.00  0.00    -0.003 C 
ATOM     18  C   UNL     1     -16.000   2.745  34.112  1.00  0.00     0.004 C 
ENDBRANCH  16  17
ENDBRANCH  15  16
ENDBRANCH  14  15
ENDBRANCH  13  14
ENDBRANCH  12  13
ENDBRANCH  11  12
ENDBRANCH   1  11
TORSDOF 14
ENDMDL
