MODEL 1
REMARK VINA RESULT:    -4.288      0.000      0.000
REMARK INTER + INTRA:          -7.654
REMARK INTER:                  -6.795
REMARK INTRA:                  -0.858
REMARK UNBOUND:                -0.858
REMARK SMILES CCCCCCCCCCCC(=O)[O-]
REMARK SMILES IDX 7 1 8 2 9 3 10 4 11 5 12 6 13 7 14 8 6 9 5 10 4 11 3 12 2 13
REMARK SMILES IDX 1 14
REMARK H PARENT
REMARK Flexibility Score: inf
ROOT
ATOM      1  C   UNL     1      37.825  20.938   3.954  1.00  0.00     0.000 C 
ENDROOT
BRANCH   1   2
ATOM      2  C   UNL     1      39.076  20.105   4.274  1.00  0.00     0.000 C 
BRANCH   2   3
ATOM      3  C   UNL     1      40.008  20.862   5.232  1.00  0.00     0.000 C 
BRANCH   3   4
ATOM      4  C   UNL     1      39.882  20.383   6.690  1.00  0.00     0.006 C 
BRANCH   4   5
ATOM      5  C   UNL     1      38.764  19.354   6.923  1.00  0.00     0.053 C 
BRANCH   5   6
ATOM      6  C   UNL     1      37.579  19.961   7.608  1.00  0.00     0.041 C 
ATOM      7  O   UNL     1      37.410  21.208   7.597  1.00  0.00    -0.550 OA
ATOM      8  O   UNL     1      36.678  19.150   8.287  1.00  0.00    -0.550 OA
ENDBRANCH   5   6
ENDBRANCH   4   5
ENDBRANCH   3   4
ENDBRANCH   2   3
ENDBRANCH   1   2
BRANCH   1   9
ATOM      9  C   UNL     1      38.153  22.405   3.621  1.00  0.00     0.000 C 
BRANCH   9  10
ATOM     10  C   UNL     1      37.447  22.961   2.368  1.00  0.00    -0.000 C 
BRANCH  10  11
ATOM     11  C   UNL     1      36.753  21.904   1.488  1.00  0.00    -0.000 C 
BRANCH  11  12
ATOM     12  C   UNL     1      35.224  22.066   1.357  1.00  0.00    -0.000 C 
BRANCH  12  13
ATOM     13  C   UNL     1      34.396  21.034   2.142  1.00  0.00    -0.003 C 
ATOM     14  C   UNL     1      35.008  19.634   2.113  1.00  0.00     0.004 C 
ENDBRANCH  12  13
ENDBRANCH  11  12
ENDBRANCH  10  11
ENDBRANCH   9  10
ENDBRANCH   1   9
TORSDOF 10
ENDMDL
MODEL 2
REMARK VINA RESULT:    -4.221      1.706      2.314
REMARK INTER + INTRA:          -7.547
REMARK INTER:                  -6.373
REMARK INTRA:                  -1.174
REMARK UNBOUND:                -0.858
REMARK SMILES CCCCCCCCCCCC(=O)[O-]
REMARK SMILES IDX 7 1 8 2 9 3 10 4 11 5 12 6 13 7 14 8 6 9 5 10 4 11 3 12 2 13
REMARK SMILES IDX 1 14
REMARK H PARENT
REMARK Flexibility Score: inf
ROOT
ATOM      1  C   UNL     1      38.400  20.120   4.147  1.00  0.00     0.000 C 
ENDROOT
BRANCH   1   2
ATOM      2  C   UNL     1      37.207  20.400   5.072  1.00  0.00     0.000 C 
BRANCH   2   3
ATOM      3  C   UNL     1      37.394  19.709   6.432  1.00  0.00     0.000 C 
BRANCH   3   4
ATOM      4  C   UNL     1      37.735  20.697   7.562  1.00  0.00     0.006 C 
BRANCH   4   5
ATOM      5  C   UNL     1      38.452  21.972   7.092  1.00  0.00     0.053 C 
BRANCH   5   6
ATOM      6  C   UNL     1      39.941  21.843   7.185  1.00  0.00     0.041 C 
ATOM      7  O   UNL     1      40.682  22.817   6.891  1.00  0.00    -0.550 OA
ATOM      8  O   UNL     1      40.512  20.636   7.568  1.00  0.00    -0.550 OA
ENDBRANCH   5   6
ENDBRANCH   4   5
ENDBRANCH   3   4
ENDBRANCH   2   3
ENDBRANCH   1   2
BRANCH   1   9
ATOM      9  C   UNL     1      38.861  21.367   3.371  1.00  0.00     0.000 C 
BRANCH   9  10
ATOM     10  C   UNL     1      37.860  22.540   3.372  1.00  0.00    -0.000 C 
BRANCH  10  11
ATOM     11  C   UNL     1      37.338  22.953   1.982  1.00  0.00    -0.000 C 
BRANCH  11  12
ATOM     12  C   UNL     1      36.446  21.907   1.283  1.00  0.00    -0.000 C 
BRANCH  12  13
ATOM     13  C   UNL     1      35.221  21.454   2.097  1.00  0.00    -0.003 C 
ATOM     14  C   UNL     1      35.074  19.934   2.153  1.00  0.00     0.004 C 
ENDBRANCH  12  13
ENDBRANCH  11  12
ENDBRANCH  10  11
ENDBRANCH   9  10
ENDBRANCH   1   9
TORSDOF 10
ENDMDL
MODEL 3
REMARK VINA RESULT:    -4.088      1.356      1.842
REMARK INTER + INTRA:          -7.337
REMARK INTER:                  -6.186
REMARK INTRA:                  -1.150
REMARK UNBOUND:                -0.858
REMARK SMILES CCCCCCCCCCCC(=O)[O-]
REMARK SMILES IDX 7 1 8 2 9 3 10 4 11 5 12 6 13 7 14 8 6 9 5 10 4 11 3 12 2 13
REMARK SMILES IDX 1 14
REMARK H PARENT
REMARK Flexibility Score: inf
ROOT
ATOM      1  C   UNL     1      40.426  20.660   3.155  1.00  0.00     0.000 C 
ENDROOT
BRANCH   1   2
ATOM      2  C   UNL     1      40.846  21.487   4.379  1.00  0.00     0.000 C 
BRANCH   2   3
ATOM      3  C   UNL     1      40.098  21.020   5.638  1.00  0.00     0.000 C 
BRANCH   3   4
ATOM      4  C   UNL     1      38.984  20.005   5.328  1.00  0.00     0.006 C 
BRANCH   4   5
ATOM      5  C   UNL     1      37.716  20.176   6.180  1.00  0.00     0.053 C 
BRANCH   5   6
ATOM      6  C   UNL     1      37.750  19.324   7.411  1.00  0.00     0.041 C 
ATOM      7  O   UNL     1      38.763  18.622   7.669  1.00  0.00    -0.550 OA
ATOM      8  O   UNL     1      36.649  19.280   8.257  1.00  0.00    -0.550 OA
ENDBRANCH   5   6
ENDBRANCH   4   5
ENDBRANCH   3   4
ENDBRANCH   2   3
ENDBRANCH   1   2
BRANCH   1   9
ATOM      9  C   UNL     1      39.799  21.517   2.041  1.00  0.00     0.000 C 
BRANCH   9  10
ATOM     10  C   UNL     1      39.054  22.775   2.529  1.00  0.00    -0.000 C 
BRANCH  10  11
ATOM     11  C   UNL     1      37.534  22.604   2.710  1.00  0.00    -0.000 C 
BRANCH  11  12
ATOM     12  C   UNL     1      36.949  21.302   2.126  1.00  0.00    -0.000 C 
BRANCH  12  13
ATOM     13  C   UNL     1      35.742  20.734   2.893  1.00  0.00    -0.003 C 
ATOM     14  C   UNL     1      34.402  21.169   2.299  1.00  0.00     0.004 C 
ENDBRANCH  12  13
ENDBRANCH  11  12
ENDBRANCH  10  11
ENDBRANCH   9  10
ENDBRANCH   1   9
TORSDOF 10
ENDMDL
MODEL 4
REMARK VINA RESULT:    -4.084      1.083      2.045
REMARK INTER + INTRA:          -7.330
REMARK INTER:                  -6.534
REMARK INTRA:                  -0.795
REMARK UNBOUND:                -0.858
REMARK SMILES CCCCCCCCCCCC(=O)[O-]
REMARK SMILES IDX 7 1 8 2 9 3 10 4 11 5 12 6 13 7 14 8 6 9 5 10 4 11 3 12 2 13
REMARK SMILES IDX 1 14
REMARK H PARENT
REMARK Flexibility Score: inf
ROOT
ATOM      1  C   UNL     1      40.833  21.494   4.880  1.00  0.00     0.000 C 
ENDROOT
BRANCH   1   2
ATOM      2  C   UNL     1      40.832  21.892   6.364  1.00  0.00     0.000 C 
BRANCH   2   3
ATOM      3  C   UNL     1      40.414  20.707   7.248  1.00  0.00     0.000 C 
BRANCH   3   4
ATOM      4  C   UNL     1      39.611  19.643   6.479  1.00  0.00     0.006 C 
BRANCH   4   5
ATOM      5  C   UNL     1      38.476  18.997   7.291  1.00  0.00     0.053 C 
BRANCH   5   6
ATOM      6  C   UNL     1      37.439  19.998   7.697  1.00  0.00     0.041 C 
ATOM      7  O   UNL     1      37.378  21.116   7.122  1.00  0.00    -0.550 OA
ATOM      8  O   UNL     1      36.560  19.708   8.732  1.00  0.00    -0.550 OA
ENDBRANCH   5   6
ENDBRANCH   4   5
ENDBRANCH   3   4
ENDBRANCH   2   3
ENDBRANCH   1   2
BRANCH   1   9
ATOM      9  C   UNL     1      39.996  22.445   4.006  1.00  0.00     0.000 C 
BRANCH   9  10
ATOM     10  C   UNL     1      38.475  22.198   4.047  1.00  0.00    -0.000 C 
BRANCH  10  11
ATOM     11  C   UNL     1      38.015  20.855   3.450  1.00  0.00    -0.000 C 
BRANCH  11  12
ATOM     12  C   UNL     1      36.610  20.394   3.885  1.00  0.00    -0.000 C 
BRANCH  12  13
ATOM     13  C   UNL     1      35.616  20.173   2.732  1.00  0.00    -0.003 C 
ATOM     14  C   UNL     1      35.112  21.481   2.121  1.00  0.00     0.004 C 
ENDBRANCH  12  13
ENDBRANCH  11  12
ENDBRANCH  10  11
ENDBRANCH   9  10
ENDBRANCH   1   9
TORSDOF 10
ENDMDL
MODEL 5
REMARK VINA RESULT:    -4.030      1.478      3.390
REMARK INTER + INTRA:          -7.245
REMARK INTER:                  -6.035
REMARK INTRA:                  -1.210
REMARK UNBOUND:                -0.858
REMARK SMILES CCCCCCCCCCCC(=O)[O-]
REMARK SMILES IDX 7 1 8 2 9 3 10 4 11 5 12 6 13 7 14 8 6 9 5 10 4 11 3 12 2 13
REMARK SMILES IDX 1 14
REMARK H PARENT
REMARK Flexibility Score: inf
ROOT
ATOM      1  C   UNL     1      34.777  21.091   2.468  1.00  0.00     0.000 C 
ENDROOT
BRANCH   1   2
ATOM      2  C   UNL     1      35.975  20.238   2.911  1.00  0.00     0.000 C 
BRANCH   2   3
ATOM      3  C   UNL     1      36.179  20.329   4.432  1.00  0.00     0.000 C 
BRANCH   3   4
ATOM      4  C   UNL     1      37.604  19.944   4.867  1.00  0.00     0.006 C 
BRANCH   4   5
ATOM      5  C   UNL     1      37.780  19.781   6.385  1.00  0.00     0.053 C 
BRANCH   5   6
ATOM      6  C   UNL     1      38.406  20.990   7.009  1.00  0.00     0.041 C 
ATOM      7  O   UNL     1      39.640  21.007   7.258  1.00  0.00    -0.550 OA
ATOM      8  O   UNL     1      37.621  22.085   7.344  1.00  0.00    -0.550 OA
ENDBRANCH   5   6
ENDBRANCH   4   5
ENDBRANCH   3   4
ENDBRANCH   2   3
ENDBRANCH   1   2
BRANCH   1   9
ATOM      9  C   UNL     1      35.086  21.961   1.235  1.00  0.00     0.000 C 
BRANCH   9  10
ATOM     10  C   UNL     1      36.584  22.223   0.983  1.00  0.00    -0.000 C 
BRANCH  10  11
ATOM     11  C   UNL     1      37.117  23.556   1.540  1.00  0.00    -0.000 C 
BRANCH  11  12
ATOM     12  C   UNL     1      37.954  23.437   2.830  1.00  0.00    -0.000 C 
BRANCH  12  13
ATOM     13  C   UNL     1      39.135  22.454   2.745  1.00  0.00    -0.003 C 
ATOM     14  C   UNL     1      40.027  22.486   3.985  1.00  0.00     0.004 C 
ENDBRANCH  12  13
ENDBRANCH  11  12
ENDBRANCH  10  11
ENDBRANCH   9  10
ENDBRANCH   1   9
TORSDOF 10
ENDMDL
MODEL 6
REMARK VINA RESULT:    -3.948      2.642      5.436
REMARK INTER + INTRA:          -7.115
REMARK INTER:                  -6.219
REMARK INTRA:                  -0.896
REMARK UNBOUND:                -0.858
REMARK SMILES CCCCCCCCCCCC(=O)[O-]
REMARK SMILES IDX 7 1 8 2 9 3 10 4 11 5 12 6 13 7 14 8 6 9 5 10 4 11 3 12 2 13
REMARK SMILES IDX 1 14
REMARK H PARENT
REMARK Flexibility Score: inf
ROOT
ATOM      1  C   UNL     1      40.093  22.015   3.619  1.00  0.00     0.000 C 
ENDROOT
BRANCH   1   2
ATOM      2  C   UNL     1      38.617  22.307   3.927  1.00  0.00     0.000 C 
BRANCH   2   3
ATOM      3  C   UNL     1      37.994  23.190   2.834  1.00  0.00     0.000 C 
BRANCH   3   4
ATOM      4  C   UNL     1      36.838  22.494   2.093  1.00  0.00     0.006 C 
BRANCH   4   5
ATOM      5  C   UNL     1      36.561  21.056   2.560  1.00  0.00     0.053 C 
BRANCH   5   6
ATOM      6  C   UNL     1      35.173  20.613   2.216  1.00  0.00     0.041 C 
ATOM      7  O   UNL     1      34.872  19.392   2.244  1.00  0.00    -0.550 OA
ATOM      8  O   UNL     1      34.219  21.549   1.835  1.00  0.00    -0.550 OA
ENDBRANCH   5   6
ENDBRANCH   4   5
ENDBRANCH   3   4
ENDBRANCH   2   3
ENDBRANCH   1   2
BRANCH   1   9
ATOM      9  C   UNL     1      40.878  21.535   4.854  1.00  0.00     0.000 C 
BRANCH   9  10
ATOM     10  C   UNL     1      40.178  21.779   6.205  1.00  0.00    -0.000 C 
BRANCH  10  11
ATOM     11  C   UNL     1      40.381  20.670   7.255  1.00  0.00    -0.000 C 
BRANCH  11  12
ATOM     12  C   UNL     1      39.421  19.470   7.130  1.00  0.00    -0.000 C 
BRANCH  12  13
ATOM     13  C   UNL     1      37.928  19.821   7.245  1.00  0.00    -0.003 C 
ATOM     14  C   UNL     1      37.182  19.695   5.917  1.00  0.00     0.004 C 
ENDBRANCH  12  13
ENDBRANCH  11  12
ENDBRANCH  10  11
ENDBRANCH   9  10
ENDBRANCH   1   9
TORSDOF 10
ENDMDL
MODEL 7
REMARK VINA RESULT:    -3.927      1.611      3.397
REMARK INTER + INTRA:          -7.081
REMARK INTER:                  -6.427
REMARK INTRA:                  -0.654
REMARK UNBOUND:                -0.858
REMARK SMILES CCCCCCCCCCCC(=O)[O-]
REMARK SMILES IDX 7 1 8 2 9 3 10 4 11 5 12 6 13 7 14 8 6 9 5 10 4 11 3 12 2 13
REMARK SMILES IDX 1 14
REMARK H PARENT
REMARK Flexibility Score: inf
ROOT
ATOM      1  C   UNL     1      35.422  20.523   2.901  1.00  0.00     0.000 C 
ENDROOT
BRANCH   1   2
ATOM      2  C   UNL     1      36.845  20.374   3.459  1.00  0.00     0.000 C 
BRANCH   2   3
ATOM      3  C   UNL     1      36.819  20.202   4.986  1.00  0.00     0.000 C 
BRANCH   3   4
ATOM      4  C   UNL     1      37.900  21.034   5.699  1.00  0.00     0.006 C 
BRANCH   4   5
ATOM      5  C   UNL     1      37.854  20.950   7.233  1.00  0.00     0.053 C 
BRANCH   5   6
ATOM      6  C   UNL     1      37.671  19.543   7.711  1.00  0.00     0.041 C 
ATOM      7  O   UNL     1      36.640  19.223   8.359  1.00  0.00    -0.550 OA
ATOM      8  O   UNL     1      38.654  18.593   7.469  1.00  0.00    -0.550 OA
ENDBRANCH   5   6
ENDBRANCH   4   5
ENDBRANCH   3   4
ENDBRANCH   2   3
ENDBRANCH   1   2
BRANCH   1   9
ATOM      9  C   UNL     1      35.338  21.531   1.740  1.00  0.00     0.000 C 
BRANCH   9  10
ATOM     10  C   UNL     1      36.697  21.991   1.178  1.00  0.00    -0.000 C 
BRANCH  10  11
ATOM     11  C   UNL     1      37.002  23.491   1.353  1.00  0.00    -0.000 C 
BRANCH  11  12
ATOM     12  C   UNL     1      37.914  23.836   2.547  1.00  0.00    -0.000 C 
BRANCH  12  13
ATOM     13  C   UNL     1      38.769  25.102   2.362  1.00  0.00    -0.003 C 
ATOM     14  C   UNL     1      37.930  26.363   2.163  1.00  0.00     0.004 C 
ENDBRANCH  12  13
ENDBRANCH  11  12
ENDBRANCH  10  11
ENDBRANCH   9  10
ENDBRANCH   1   9
TORSDOF 10
ENDMDL
MODEL 8
REMARK VINA RESULT:    -3.757      2.706      4.114
REMARK INTER + INTRA:          -6.812
REMARK INTER:                  -6.313
REMARK INTRA:                  -0.499
REMARK UNBOUND:                -0.858
REMARK SMILES CCCCCCCCCCCC(=O)[O-]
REMARK SMILES IDX 7 1 8 2 9 3 10 4 11 5 12 6 13 7 14 8 6 9 5 10 4 11 3 12 2 13
REMARK SMILES IDX 1 14
REMARK H PARENT
REMARK Flexibility Score: inf
ROOT
ATOM      1  C   UNL     1      38.082  22.400   3.599  1.00  0.00     0.000 C 
ENDROOT
BRANCH   1   2
ATOM      2  C   UNL     1      37.306  21.081   3.727  1.00  0.00     0.000 C 
BRANCH   2   3
ATOM      3  C   UNL     1      38.054  20.091   4.633  1.00  0.00     0.000 C 
BRANCH   3   4
ATOM      4  C   UNL     1      37.297  19.787   5.938  1.00  0.00     0.006 C 
BRANCH   4   5
ATOM      5  C   UNL     1      38.096  20.087   7.217  1.00  0.00     0.053 C 
BRANCH   5   6
ATOM      6  C   UNL     1      38.563  21.509   7.265  1.00  0.00     0.041 C 
ATOM      7  O   UNL     1      37.733  22.443   7.418  1.00  0.00    -0.550 OA
ATOM      8  O   UNL     1      39.911  21.804   7.109  1.00  0.00    -0.550 OA
ENDBRANCH   5   6
ENDBRANCH   4   5
ENDBRANCH   3   4
ENDBRANCH   2   3
ENDBRANCH   1   2
BRANCH   1   9
ATOM      9  C   UNL     1      37.748  23.169   2.308  1.00  0.00     0.000 C 
BRANCH   9  10
ATOM     10  C   UNL     1      38.537  24.477   2.105  1.00  0.00    -0.000 C 
BRANCH  10  11
ATOM     11  C   UNL     1      37.676  25.751   2.009  1.00  0.00    -0.000 C 
BRANCH  11  12
ATOM     12  C   UNL     1      38.324  27.023   2.592  1.00  0.00    -0.000 C 
BRANCH  12  13
ATOM     13  C   UNL     1      37.527  28.318   2.362  1.00  0.00    -0.003 C 
ATOM     14  C   UNL     1      36.033  28.070   2.162  1.00  0.00     0.004 C 
ENDBRANCH  12  13
ENDBRANCH  11  12
ENDBRANCH  10  11
ENDBRANCH   9  10
ENDBRANCH   1   9
TORSDOF 10
ENDMDL
MODEL 9
REMARK VINA RESULT:    -3.526     17.038     19.041
REMARK INTER + INTRA:          -6.446
REMARK INTER:                  -5.159
REMARK INTRA:                  -1.287
REMARK UNBOUND:                -0.858
REMARK SMILES CCCCCCCCCCCC(=O)[O-]
REMARK SMILES IDX 7 1 8 2 9 3 10 4 11 5 12 6 13 7 14 8 6 9 5 10 4 11 3 12 2 13
REMARK SMILES IDX 1 14
REMARK H PARENT
REMARK Flexibility Score: inf
ROOT
ATOM      1  C   UNL     1      25.020  22.997  14.112  1.00  0.00     0.000 C 
ENDROOT
BRANCH   1   2
ATOM      2  C   UNL     1      23.543  22.660  13.858  1.00  0.00     0.000 C 
BRANCH   2   3
ATOM      3  C   UNL     1      22.711  22.847  15.136  1.00  0.00     0.000 C 
BRANCH   3   4
ATOM      4  C   UNL     1      21.538  21.856  15.236  1.00  0.00     0.006 C 
BRANCH   4   5
ATOM      5  C   UNL     1      21.138  21.491  16.675  1.00  0.00     0.053 C 
BRANCH   5   6
ATOM      6  C   UNL     1      21.882  20.292  17.176  1.00  0.00     0.041 C 
ATOM      7  O   UNL     1      23.000  20.429  17.739  1.00  0.00    -0.550 OA
ATOM      8  O   UNL     1      21.355  19.020  16.992  1.00  0.00    -0.550 OA
ENDBRANCH   5   6
ENDBRANCH   4   5
ENDBRANCH   3   4
ENDBRANCH   2   3
ENDBRANCH   1   2
BRANCH   1   9
ATOM      9  C   UNL     1      25.428  22.823  15.587  1.00  0.00     0.000 C 
BRANCH   9  10
ATOM     10  C   UNL     1      26.026  24.079  16.250  1.00  0.00    -0.000 C 
BRANCH  10  11
ATOM     11  C   UNL     1      25.250  24.604  17.473  1.00  0.00    -0.000 C 
BRANCH  11  12
ATOM     12  C   UNL     1      24.540  23.520  18.309  1.00  0.00    -0.000 C 
BRANCH  12  13
ATOM     13  C   UNL     1      23.161  23.926  18.857  1.00  0.00    -0.003 C 
ATOM     14  C   UNL     1      22.495  25.030  18.035  1.00  0.00     0.004 C 
ENDBRANCH  12  13
ENDBRANCH  11  12
ENDBRANCH  10  11
ENDBRANCH   9  10
ENDBRANCH   1   9
TORSDOF 10
ENDMDL
