MODEL 1
REMARK VINA RESULT:    -3.827      0.000      0.000
REMARK INTER + INTRA:          -5.387
REMARK INTER:                  -5.170
REMARK INTRA:                  -0.217
REMARK UNBOUND:                -0.217
REMARK SMILES CCCCCCCC(=O)[O-]
REMARK SMILES IDX 5 1 6 2 7 3 8 4 9 5 10 6 4 7 3 8 2 9 1 10
REMARK H PARENT
REMARK Flexibility Score: inf
ROOT
ATOM      1  C   UNL     1      -0.788  -2.970   0.132  1.00  0.00     0.000 C 
ENDROOT
BRANCH   1   2
ATOM      2  C   UNL     1      -1.888  -2.139   0.802  1.00  0.00     0.006 C 
BRANCH   2   3
ATOM      3  C   UNL     1      -2.818  -3.027   1.635  1.00  0.00     0.053 C 
BRANCH   3   4
ATOM      4  C   UNL     1      -4.117  -2.330   1.890  1.00  0.00     0.041 C 
ATOM      5  O   UNL     1      -4.153  -1.306   2.622  1.00  0.00    -0.550 OA
ATOM      6  O   UNL     1      -5.280  -2.783   1.281  1.00  0.00    -0.550 OA
ENDBRANCH   3   4
ENDBRANCH   2   3
ENDBRANCH   1   2
BRANCH   1   7
ATOM      7  C   UNL     1       0.423  -3.131   1.060  1.00  0.00     0.000 C 
BRANCH   7   8
ATOM      8  C   UNL     1       0.618  -4.598   1.462  1.00  0.00    -0.000 C 
BRANCH   8   9
ATOM      9  C   UNL     1       2.065  -4.863   1.893  1.00  0.00    -0.003 C 
ATOM     10  C   UNL     1       2.890  -3.580   1.871  1.00  0.00     0.004 C 
ENDBRANCH   8   9
ENDBRANCH   7   8
ENDBRANCH   1   7
TORSDOF 6
ENDMDL
MODEL 2
REMARK VINA RESULT:    -3.784      2.621      3.498
REMARK INTER + INTRA:          -5.327
REMARK INTER:                  -4.909
REMARK INTRA:                  -0.418
REMARK UNBOUND:                -0.217
REMARK SMILES CCCCCCCC(=O)[O-]
REMARK SMILES IDX 5 1 6 2 7 3 8 4 9 5 10 6 4 7 3 8 2 9 1 10
REMARK H PARENT
REMARK Flexibility Score: inf
ROOT
ATOM      1  C   UNL     1      -2.915  -2.016   1.436  1.00  0.00     0.000 C 
ENDROOT
BRANCH   1   2
ATOM      2  C   UNL     1      -4.164  -2.713   1.986  1.00  0.00     0.006 C 
BRANCH   2   3
ATOM      3  C   UNL     1      -4.073  -4.231   1.799  1.00  0.00     0.053 C 
BRANCH   3   4
ATOM      4  C   UNL     1      -4.308  -4.934   3.099  1.00  0.00     0.041 C 
ATOM      5  O   UNL     1      -5.138  -5.877   3.168  1.00  0.00    -0.550 OA
ATOM      6  O   UNL     1      -3.574  -4.578   4.223  1.00  0.00    -0.550 OA
ENDBRANCH   3   4
ENDBRANCH   2   3
ENDBRANCH   1   2
BRANCH   1   7
ATOM      7  C   UNL     1      -1.706  -2.959   1.449  1.00  0.00     0.000 C 
BRANCH   7   8
ATOM      8  C   UNL     1      -0.616  -2.471   0.487  1.00  0.00    -0.000 C 
BRANCH   8   9
ATOM      9  C   UNL     1      -1.007  -2.743  -0.971  1.00  0.00    -0.003 C 
ATOM     10  C   UNL     1      -1.116  -4.240  -1.241  1.00  0.00     0.004 C 
ENDBRANCH   8   9
ENDBRANCH   7   8
ENDBRANCH   1   7
TORSDOF 6
ENDMDL
MODEL 3
REMARK VINA RESULT:    -3.756      3.341      5.566
REMARK INTER + INTRA:          -5.290
REMARK INTER:                  -5.022
REMARK INTRA:                  -0.268
REMARK UNBOUND:                -0.217
REMARK SMILES CCCCCCCC(=O)[O-]
REMARK SMILES IDX 5 1 6 2 7 3 8 4 9 5 10 6 4 7 3 8 2 9 1 10
REMARK H PARENT
REMARK Flexibility Score: inf
ROOT
ATOM      1  C   UNL     1      -1.612  -2.148   0.469  1.00  0.00     0.000 C 
ENDROOT
BRANCH   1   2
ATOM      2  C   UNL     1      -0.173  -2.677   0.498  1.00  0.00     0.006 C 
BRANCH   2   3
ATOM      3  C   UNL     1      -0.053  -3.890   1.424  1.00  0.00     0.053 C 
BRANCH   3   4
ATOM      4  C   UNL     1       1.309  -4.501   1.313  1.00  0.00     0.041 C 
ATOM      5  O   UNL     1       1.470  -5.579   0.684  1.00  0.00    -0.550 OA
ATOM      6  O   UNL     1       2.407  -3.852   1.863  1.00  0.00    -0.550 OA
ENDBRANCH   3   4
ENDBRANCH   2   3
ENDBRANCH   1   2
BRANCH   1   7
ATOM      7  C   UNL     1      -2.466  -2.816   1.553  1.00  0.00     0.000 C 
BRANCH   7   8
ATOM      8  C   UNL     1      -3.700  -1.966   1.882  1.00  0.00    -0.000 C 
BRANCH   8   9
ATOM      9  C   UNL     1      -4.992  -2.719   1.545  1.00  0.00    -0.003 C 
ATOM     10  C   UNL     1      -4.753  -4.224   1.485  1.00  0.00     0.004 C 
ENDBRANCH   8   9
ENDBRANCH   7   8
ENDBRANCH   1   7
TORSDOF 6
ENDMDL
MODEL 4
REMARK VINA RESULT:    -3.732      1.000      1.952
REMARK INTER + INTRA:          -5.258
REMARK INTER:                  -4.810
REMARK INTRA:                  -0.448
REMARK UNBOUND:                -0.217
REMARK SMILES CCCCCCCC(=O)[O-]
REMARK SMILES IDX 5 1 6 2 7 3 8 4 9 5 10 6 4 7 3 8 2 9 1 10
REMARK H PARENT
REMARK Flexibility Score: inf
ROOT
ATOM      1  C   UNL     1      -0.810  -2.636   0.218  1.00  0.00     0.000 C 
ENDROOT
BRANCH   1   2
ATOM      2  C   UNL     1      -1.928  -2.125   1.134  1.00  0.00     0.006 C 
BRANCH   2   3
ATOM      3  C   UNL     1      -3.079  -3.132   1.212  1.00  0.00     0.053 C 
BRANCH   3   4
ATOM      4  C   UNL     1      -4.335  -2.457   1.668  1.00  0.00     0.041 C 
ATOM      5  O   UNL     1      -5.456  -2.883   1.287  1.00  0.00    -0.550 OA
ATOM      6  O   UNL     1      -4.267  -1.389   2.552  1.00  0.00    -0.550 OA
ENDBRANCH   3   4
ENDBRANCH   2   3
ENDBRANCH   1   2
BRANCH   1   7
ATOM      7  C   UNL     1       0.447  -2.983   1.025  1.00  0.00     0.000 C 
BRANCH   7   8
ATOM      8  C   UNL     1       0.681  -4.499   1.056  1.00  0.00    -0.000 C 
BRANCH   8   9
ATOM      9  C   UNL     1      -0.024  -5.139   2.257  1.00  0.00    -0.003 C 
ATOM     10  C   UNL     1      -1.027  -6.196   1.808  1.00  0.00     0.004 C 
ENDBRANCH   8   9
ENDBRANCH   7   8
ENDBRANCH   1   7
TORSDOF 6
ENDMDL
MODEL 5
REMARK VINA RESULT:    -3.716      2.628      3.596
REMARK INTER + INTRA:          -5.236
REMARK INTER:                  -4.884
REMARK INTRA:                  -0.353
REMARK UNBOUND:                -0.217
REMARK SMILES CCCCCCCC(=O)[O-]
REMARK SMILES IDX 5 1 6 2 7 3 8 4 9 5 10 6 4 7 3 8 2 9 1 10
REMARK H PARENT
REMARK Flexibility Score: inf
ROOT
ATOM      1  C   UNL     1      -3.422  -2.260   1.796  1.00  0.00     0.000 C 
ENDROOT
BRANCH   1   2
ATOM      2  C   UNL     1      -4.849  -2.760   1.551  1.00  0.00     0.006 C 
BRANCH   2   3
ATOM      3  C   UNL     1      -4.870  -4.275   1.328  1.00  0.00     0.053 C 
BRANCH   3   4
ATOM      4  C   UNL     1      -6.269  -4.751   1.091  1.00  0.00     0.041 C 
ATOM      5  O   UNL     1      -6.736  -5.705   1.765  1.00  0.00    -0.550 OA
ATOM      6  O   UNL     1      -7.073  -4.106   0.160  1.00  0.00    -0.550 OA
ENDBRANCH   3   4
ENDBRANCH   2   3
ENDBRANCH   1   2
BRANCH   1   7
ATOM      7  C   UNL     1      -2.415  -3.416   1.739  1.00  0.00     0.000 C 
BRANCH   7   8
ATOM      8  C   UNL     1      -1.028  -2.918   1.314  1.00  0.00    -0.000 C 
BRANCH   8   9
ATOM      9  C   UNL     1      -1.070  -2.309  -0.093  1.00  0.00    -0.003 C 
ATOM     10  C   UNL     1      -1.079  -3.395  -1.163  1.00  0.00     0.004 C 
ENDBRANCH   8   9
ENDBRANCH   7   8
ENDBRANCH   1   7
TORSDOF 6
ENDMDL
MODEL 6
REMARK VINA RESULT:    -3.591      1.605      2.464
REMARK INTER + INTRA:          -5.068
REMARK INTER:                  -4.933
REMARK INTRA:                  -0.134
REMARK UNBOUND:                -0.217
REMARK SMILES CCCCCCCC(=O)[O-]
REMARK SMILES IDX 5 1 6 2 7 3 8 4 9 5 10 6 4 7 3 8 2 9 1 10
REMARK H PARENT
REMARK Flexibility Score: inf
ROOT
ATOM      1  C   UNL     1      -2.311  -2.948   1.466  1.00  0.00     0.000 C 
ENDROOT
BRANCH   1   2
ATOM      2  C   UNL     1      -3.569  -2.178   1.883  1.00  0.00     0.006 C 
BRANCH   2   3
ATOM      3  C   UNL     1      -4.836  -2.956   1.517  1.00  0.00     0.053 C 
BRANCH   3   4
ATOM      4  C   UNL     1      -4.667  -4.410   1.831  1.00  0.00     0.041 C 
ATOM      5  O   UNL     1      -4.557  -5.250   0.900  1.00  0.00    -0.550 OA
ATOM      6  O   UNL     1      -4.582  -4.829   3.152  1.00  0.00    -0.550 OA
ENDBRANCH   3   4
ENDBRANCH   2   3
ENDBRANCH   1   2
BRANCH   1   7
ATOM      7  C   UNL     1      -1.440  -2.110   0.523  1.00  0.00     0.000 C 
BRANCH   7   8
ATOM      8  C   UNL     1       0.035  -2.517   0.627  1.00  0.00    -0.000 C 
BRANCH   8   9
ATOM      9  C   UNL     1       0.182  -3.879   1.315  1.00  0.00    -0.003 C 
ATOM     10  C   UNL     1       1.646  -4.200   1.597  1.00  0.00     0.004 C 
ENDBRANCH   8   9
ENDBRANCH   7   8
ENDBRANCH   1   7
TORSDOF 6
ENDMDL
MODEL 7
REMARK VINA RESULT:    -3.589      3.255      5.555
REMARK INTER + INTRA:          -5.064
REMARK INTER:                  -4.751
REMARK INTRA:                  -0.313
REMARK UNBOUND:                -0.217
REMARK SMILES CCCCCCCC(=O)[O-]
REMARK SMILES IDX 5 1 6 2 7 3 8 4 9 5 10 6 4 7 3 8 2 9 1 10
REMARK H PARENT
REMARK Flexibility Score: inf
ROOT
ATOM      1  C   UNL     1      -3.750  -2.115   1.949  1.00  0.00     0.000 C 
ENDROOT
BRANCH   1   2
ATOM      2  C   UNL     1      -2.503  -2.978   1.725  1.00  0.00     0.006 C 
BRANCH   2   3
ATOM      3  C   UNL     1      -1.494  -2.262   0.822  1.00  0.00     0.053 C 
BRANCH   3   4
ATOM      4  C   UNL     1      -1.323  -3.006  -0.465  1.00  0.00     0.041 C 
ATOM      5  O   UNL     1      -1.089  -2.381  -1.532  1.00  0.00    -0.550 OA
ATOM      6  O   UNL     1      -1.374  -4.394  -0.477  1.00  0.00    -0.550 OA
ENDBRANCH   3   4
ENDBRANCH   2   3
ENDBRANCH   1   2
BRANCH   1   7
ATOM      7  C   UNL     1      -5.017  -2.850   1.495  1.00  0.00     0.000 C 
BRANCH   7   8
ATOM      8  C   UNL     1      -4.793  -4.367   1.463  1.00  0.00    -0.000 C 
BRANCH   8   9
ATOM      9  C   UNL     1      -6.110  -5.112   1.216  1.00  0.00    -0.003 C 
ATOM     10  C   UNL     1      -7.062  -4.281   0.363  1.00  0.00     0.004 C 
ENDBRANCH   8   9
ENDBRANCH   7   8
ENDBRANCH   1   7
TORSDOF 6
ENDMDL
MODEL 8
REMARK VINA RESULT:    -3.503      2.075      2.498
REMARK INTER + INTRA:          -4.949
REMARK INTER:                  -4.692
REMARK INTRA:                  -0.257
REMARK UNBOUND:                -0.217
REMARK SMILES CCCCCCCC(=O)[O-]
REMARK SMILES IDX 5 1 6 2 7 3 8 4 9 5 10 6 4 7 3 8 2 9 1 10
REMARK H PARENT
REMARK Flexibility Score: inf
ROOT
ATOM      1  C   UNL     1      -0.989  -2.548  -0.385  1.00  0.00     0.000 C 
ENDROOT
BRANCH   1   2
ATOM      2  C   UNL     1      -1.747  -2.065   0.857  1.00  0.00     0.006 C 
BRANCH   2   3
ATOM      3  C   UNL     1      -2.769  -3.109   1.317  1.00  0.00     0.053 C 
BRANCH   3   4
ATOM      4  C   UNL     1      -4.056  -2.449   1.700  1.00  0.00     0.041 C 
ATOM      5  O   UNL     1      -4.046  -1.374   2.354  1.00  0.00    -0.550 OA
ATOM      6  O   UNL     1      -5.265  -2.997   1.292  1.00  0.00    -0.550 OA
ENDBRANCH   3   4
ENDBRANCH   2   3
ENDBRANCH   1   2
BRANCH   1   7
ATOM      7  C   UNL     1      -0.890  -4.078  -0.411  1.00  0.00     0.000 C 
BRANCH   7   8
ATOM      8  C   UNL     1      -1.155  -4.624  -1.819  1.00  0.00    -0.000 C 
BRANCH   8   9
ATOM      9  C   UNL     1      -0.437  -5.961  -2.035  1.00  0.00    -0.003 C 
ATOM     10  C   UNL     1       0.633  -6.190  -0.972  1.00  0.00     0.004 C 
ENDBRANCH   8   9
ENDBRANCH   7   8
ENDBRANCH   1   7
TORSDOF 6
ENDMDL
MODEL 9
REMARK VINA RESULT:    -3.457      4.019      6.044
REMARK INTER + INTRA:          -4.887
REMARK INTER:                  -4.629
REMARK INTRA:                  -0.258
REMARK UNBOUND:                -0.217
REMARK SMILES CCCCCCCC(=O)[O-]
REMARK SMILES IDX 5 1 6 2 7 3 8 4 9 5 10 6 4 7 3 8 2 9 1 10
REMARK H PARENT
REMARK Flexibility Score: inf
ROOT
ATOM      1  C   UNL     1      -0.065  -4.029   1.476  1.00  0.00     0.000 C 
ENDROOT
BRANCH   1   2
ATOM      2  C   UNL     1       1.289  -4.742   1.386  1.00  0.00     0.006 C 
BRANCH   2   3
ATOM      3  C   UNL     1       2.434  -3.792   1.749  1.00  0.00     0.053 C 
BRANCH   3   4
ATOM      4  C   UNL     1       3.425  -4.482   2.633  1.00  0.00     0.041 C 
ATOM      5  O   UNL     1       3.030  -5.221   3.572  1.00  0.00    -0.550 OA
ATOM      6  O   UNL     1       4.786  -4.345   2.390  1.00  0.00    -0.550 OA
ENDBRANCH   3   4
ENDBRANCH   2   3
ENDBRANCH   1   2
BRANCH   1   7
ATOM      7  C   UNL     1      -0.073  -2.751   0.628  1.00  0.00     0.000 C 
BRANCH   7   8
ATOM      8  C   UNL     1      -1.485  -2.159   0.537  1.00  0.00    -0.000 C 
BRANCH   8   9
ATOM      9  C   UNL     1      -2.451  -2.895   1.471  1.00  0.00    -0.003 C 
ATOM     10  C   UNL     1      -3.664  -2.031   1.802  1.00  0.00     0.004 C 
ENDBRANCH   8   9
ENDBRANCH   7   8
ENDBRANCH   1   7
TORSDOF 6
ENDMDL
