MODEL 1
REMARK VINA RESULT:    -3.679      0.000      0.000
REMARK INTER + INTRA:          -5.735
REMARK INTER:                  -4.969
REMARK INTRA:                  -0.765
REMARK UNBOUND:                -0.765
REMARK SMILES O=C[C@H](O)[C@H](O)[C@H](O)CO
REMARK SMILES IDX 7 1 9 2 10 3 5 5 3 6 2 7 1 8 4 9 6 11 8 13
REMARK H PARENT 10 4 4 10 6 12 8 14
REMARK Flexibility Score: inf
ROOT
ATOM      1  C   UNL     1       8.409  -5.716  -0.219  1.00  0.00     0.171 C 
ENDROOT
BRANCH   1   2
ATOM      2  C   UNL     1       8.052  -6.705  -1.350  1.00  0.00     0.190 C 
BRANCH   2   3
ATOM      3  O   UNL     1       7.196  -7.705  -0.870  1.00  0.00    -0.394 OA
ATOM      4  H   UNL     1       6.579  -7.258  -0.235  1.00  0.00     0.210 HD
ENDBRANCH   2   3
ENDBRANCH   1   2
BRANCH   1   5
ATOM      5  C   UNL     1       7.196  -4.935   0.364  1.00  0.00     0.181 C 
BRANCH   5   6
ATOM      6  C   UNL     1       7.029  -5.028   1.904  1.00  0.00     0.209 C 
BRANCH   6   7
ATOM      7  C   UNL     1       6.884  -6.455   2.363  1.00  0.00     0.258 C 
ATOM      8  O   UNL     1       5.995  -7.170   1.929  1.00  0.00    -0.300 OA
ENDBRANCH   6   7
BRANCH   6   9
ATOM      9  O   UNL     1       5.942  -4.256   2.349  1.00  0.00    -0.383 OA
ATOM     10  H   UNL     1       5.171  -4.473   1.761  1.00  0.00     0.211 HD
ENDBRANCH   6   9
ENDBRANCH   5   6
BRANCH   5  11
ATOM     11  O   UNL     1       6.013  -5.348  -0.272  1.00  0.00    -0.387 OA
ATOM     12  H   UNL     1       6.269  -5.684  -1.171  1.00  0.00     0.211 HD
ENDBRANCH   5  11
ENDBRANCH   1   5
BRANCH   1  13
ATOM     13  O   UNL     1       9.382  -4.805  -0.671  1.00  0.00    -0.388 OA
ATOM     14  H   UNL     1      10.271  -5.150  -0.397  1.00  0.00     0.211 HD
ENDBRANCH   1  13
TORSDOF 8
ENDMDL
MODEL 2
REMARK VINA RESULT:    -3.608      7.094      9.055
REMARK INTER + INTRA:          -5.639
REMARK INTER:                  -5.010
REMARK INTRA:                  -0.629
REMARK UNBOUND:                -0.765
REMARK SMILES O=C[C@H](O)[C@H](O)[C@H](O)CO
REMARK SMILES IDX 7 1 9 2 10 3 5 5 3 6 2 7 1 8 4 9 6 11 8 13
REMARK H PARENT 10 4 4 10 6 12 8 14
REMARK Flexibility Score: inf
ROOT
ATOM      1  C   UNL     1      -0.600  -9.459   4.419  1.00  0.00     0.171 C 
ENDROOT
BRANCH   1   2
ATOM      2  C   UNL     1      -0.523  -9.652   5.949  1.00  0.00     0.190 C 
BRANCH   2   3
ATOM      3  O   UNL     1      -0.060  -8.481   6.564  1.00  0.00    -0.394 OA
ATOM      4  H   UNL     1      -0.394  -7.728   6.011  1.00  0.00     0.210 HD
ENDBRANCH   2   3
ENDBRANCH   1   2
BRANCH   1   5
ATOM      5  C   UNL     1       0.163  -8.212   3.885  1.00  0.00     0.181 C 
BRANCH   5   6
ATOM      6  C   UNL     1       0.126  -8.024   2.345  1.00  0.00     0.209 C 
BRANCH   6   7
ATOM      7  C   UNL     1       1.165  -7.039   1.880  1.00  0.00     0.258 C 
ATOM      8  O   UNL     1       2.356  -7.297   1.951  1.00  0.00    -0.300 OA
ENDBRANCH   6   7
BRANCH   6   9
ATOM      9  O   UNL     1      -1.151  -7.633   1.906  1.00  0.00    -0.383 OA
ATOM     10  H   UNL     1      -1.152  -6.641   1.860  1.00  0.00     0.211 HD
ENDBRANCH   6   9
ENDBRANCH   5   6
BRANCH   5  11
ATOM     11  O   UNL     1       1.495  -8.241   4.332  1.00  0.00    -0.387 OA
ATOM     12  H   UNL     1       1.947  -8.981   3.848  1.00  0.00     0.211 HD
ENDBRANCH   5  11
ENDBRANCH   1   5
BRANCH   1  13
ATOM     13  O   UNL     1      -1.947  -9.395   4.014  1.00  0.00    -0.388 OA
ATOM     14  H   UNL     1      -2.444 -10.100   4.504  1.00  0.00     0.211 HD
ENDBRANCH   1  13
TORSDOF 8
ENDMDL
MODEL 3
REMARK VINA RESULT:    -3.489     12.213     13.154
REMARK INTER + INTRA:          -5.478
REMARK INTER:                  -5.192
REMARK INTRA:                  -0.287
REMARK UNBOUND:                -0.765
REMARK SMILES O=C[C@H](O)[C@H](O)[C@H](O)CO
REMARK SMILES IDX 7 1 9 2 10 3 5 5 3 6 2 7 1 8 4 9 6 11 8 13
REMARK H PARENT 10 4 4 10 6 12 8 14
REMARK Flexibility Score: inf
ROOT
ATOM      1  C   UNL     1       6.451   4.735  -8.898  1.00  0.00     0.171 C 
ENDROOT
BRANCH   1   2
ATOM      2  C   UNL     1       7.588   4.350  -9.870  1.00  0.00     0.190 C 
BRANCH   2   3
ATOM      3  O   UNL     1       8.726   5.129  -9.620  1.00  0.00    -0.394 OA
ATOM      4  H   UNL     1       8.544   6.019 -10.019  1.00  0.00     0.210 HD
ENDBRANCH   2   3
ENDBRANCH   1   2
BRANCH   1   5
ATOM      5  C   UNL     1       5.483   3.570  -8.543  1.00  0.00     0.181 C 
BRANCH   5   6
ATOM      6  C   UNL     1       5.597   3.035  -7.090  1.00  0.00     0.209 C 
BRANCH   6   7
ATOM      7  C   UNL     1       4.515   2.035  -6.780  1.00  0.00     0.258 C 
ATOM      8  O   UNL     1       4.621   0.866  -7.115  1.00  0.00    -0.300 OA
ENDBRANCH   6   7
BRANCH   6   9
ATOM      9  O   UNL     1       5.580   4.084  -6.155  1.00  0.00    -0.383 OA
ATOM     10  H   UNL     1       4.627   4.273  -5.948  1.00  0.00     0.211 HD
ENDBRANCH   6   9
ENDBRANCH   5   6
BRANCH   5  11
ATOM     11  O   UNL     1       5.650   2.516  -9.456  1.00  0.00    -0.387 OA
ATOM     12  H   UNL     1       6.601   2.235  -9.404  1.00  0.00     0.211 HD
ENDBRANCH   5  11
ENDBRANCH   1   5
BRANCH   1  13
ATOM     13  O   UNL     1       5.716   5.813  -9.427  1.00  0.00    -0.388 OA
ATOM     14  H   UNL     1       6.352   6.407  -9.904  1.00  0.00     0.211 HD
ENDBRANCH   1  13
TORSDOF 8
ENDMDL
MODEL 4
REMARK VINA RESULT:    -3.466      1.219      2.264
REMARK INTER + INTRA:          -5.447
REMARK INTER:                  -5.024
REMARK INTRA:                  -0.423
REMARK UNBOUND:                -0.765
REMARK SMILES O=C[C@H](O)[C@H](O)[C@H](O)CO
REMARK SMILES IDX 7 1 9 2 10 3 5 5 3 6 2 7 1 8 4 9 6 11 8 13
REMARK H PARENT 10 4 4 10 6 12 8 14
REMARK Flexibility Score: inf
ROOT
ATOM      1  C   UNL     1       8.595  -6.435  -1.255  1.00  0.00     0.171 C 
ENDROOT
BRANCH   1   2
ATOM      2  C   UNL     1       8.319  -7.930  -0.986  1.00  0.00     0.190 C 
BRANCH   2   3
ATOM      3  O   UNL     1       7.015  -8.262  -1.377  1.00  0.00    -0.394 OA
ATOM      4  H   UNL     1       7.085  -9.121  -1.868  1.00  0.00     0.210 HD
ENDBRANCH   2   3
ENDBRANCH   1   2
BRANCH   1   5
ATOM      5  C   UNL     1       8.375  -5.504  -0.027  1.00  0.00     0.181 C 
BRANCH   5   6
ATOM      6  C   UNL     1       6.937  -4.943   0.128  1.00  0.00     0.209 C 
BRANCH   6   7
ATOM      7  C   UNL     1       6.803  -4.092   1.364  1.00  0.00     0.258 C 
ATOM      8  O   UNL     1       5.773  -4.091   2.019  1.00  0.00    -0.300 OA
ENDBRANCH   6   7
BRANCH   6   9
ATOM      9  O   UNL     1       5.982  -5.973   0.135  1.00  0.00    -0.383 OA
ATOM     10  H   UNL     1       6.477  -6.829   0.036  1.00  0.00     0.211 HD
ENDBRANCH   6   9
ENDBRANCH   5   6
BRANCH   5  11
ATOM     11  O   UNL     1       9.302  -4.448  -0.058  1.00  0.00    -0.387 OA
ATOM     12  H   UNL     1       9.532  -4.236   0.884  1.00  0.00     0.211 HD
ENDBRANCH   5  11
ENDBRANCH   1   5
BRANCH   1  13
ATOM     13  O   UNL     1       7.803  -5.989  -2.330  1.00  0.00    -0.388 OA
ATOM     14  H   UNL     1       7.933  -5.009  -2.416  1.00  0.00     0.211 HD
ENDBRANCH   1  13
TORSDOF 8
ENDMDL
MODEL 5
REMARK VINA RESULT:    -3.409      6.634      8.588
REMARK INTER + INTRA:          -5.371
REMARK INTER:                  -5.112
REMARK INTRA:                  -0.258
REMARK UNBOUND:                -0.765
REMARK SMILES O=C[C@H](O)[C@H](O)[C@H](O)CO
REMARK SMILES IDX 7 1 9 2 10 3 5 5 3 6 2 7 1 8 4 9 6 11 8 13
REMARK H PARENT 10 4 4 10 6 12 8 14
REMARK Flexibility Score: inf
ROOT
ATOM      1  C   UNL     1       0.279  -9.468   5.357  1.00  0.00     0.171 C 
ENDROOT
BRANCH   1   2
ATOM      2  C   UNL     1       1.780  -9.770   5.552  1.00  0.00     0.190 C 
BRANCH   2   3
ATOM      3  O   UNL     1       2.459  -8.616   5.966  1.00  0.00    -0.394 OA
ATOM      4  H   UNL     1       3.176  -8.923   6.579  1.00  0.00     0.210 HD
ENDBRANCH   2   3
ENDBRANCH   1   2
BRANCH   1   5
ATOM      5  C   UNL     1      -0.202  -9.509   3.877  1.00  0.00     0.181 C 
BRANCH   5   6
ATOM      6  C   UNL     1       0.557  -8.564   2.908  1.00  0.00     0.209 C 
BRANCH   6   7
ATOM      7  C   UNL     1       1.707  -9.264   2.234  1.00  0.00     0.258 C 
ATOM      8  O   UNL     1       2.844  -8.825   2.306  1.00  0.00    -0.300 OA
ENDBRANCH   6   7
BRANCH   6   9
ATOM      9  O   UNL     1       1.006  -7.407   3.568  1.00  0.00    -0.383 OA
ATOM     10  H   UNL     1       0.386  -7.245   4.327  1.00  0.00     0.211 HD
ENDBRANCH   6   9
ENDBRANCH   5   6
BRANCH   5  11
ATOM     11  O   UNL     1      -1.581  -9.250   3.816  1.00  0.00    -0.387 OA
ATOM     12  H   UNL     1      -1.955  -9.457   4.712  1.00  0.00     0.211 HD
ENDBRANCH   5  11
ENDBRANCH   1   5
BRANCH   1  13
ATOM     13  O   UNL     1      -0.033  -8.215   5.916  1.00  0.00    -0.388 OA
ATOM     14  H   UNL     1      -0.621  -7.735   5.277  1.00  0.00     0.211 HD
ENDBRANCH   1  13
TORSDOF 8
ENDMDL
MODEL 6
REMARK VINA RESULT:    -3.367      1.658      2.533
REMARK INTER + INTRA:          -5.313
REMARK INTER:                  -4.509
REMARK INTRA:                  -0.804
REMARK UNBOUND:                -0.765
REMARK SMILES O=C[C@H](O)[C@H](O)[C@H](O)CO
REMARK SMILES IDX 7 1 9 2 10 3 5 5 3 6 2 7 1 8 4 9 6 11 8 13
REMARK H PARENT 10 4 4 10 6 12 8 14
REMARK Flexibility Score: inf
ROOT
ATOM      1  C   UNL     1       8.121  -6.693   1.624  1.00  0.00     0.171 C 
ENDROOT
BRANCH   1   2
ATOM      2  C   UNL     1       7.231  -7.244   2.760  1.00  0.00     0.190 C 
BRANCH   2   3
ATOM      3  O   UNL     1       6.149  -7.958   2.228  1.00  0.00    -0.394 OA
ATOM      4  H   UNL     1       5.495  -8.058   2.968  1.00  0.00     0.210 HD
ENDBRANCH   2   3
ENDBRANCH   1   2
BRANCH   1   5
ATOM      5  C   UNL     1       7.404  -5.699   0.665  1.00  0.00     0.181 C 
BRANCH   5   6
ATOM      6  C   UNL     1       6.478  -4.664   1.357  1.00  0.00     0.209 C 
BRANCH   6   7
ATOM      7  C   UNL     1       5.041  -4.840   0.943  1.00  0.00     0.258 C 
ATOM      8  O   UNL     1       4.344  -5.711   1.436  1.00  0.00    -0.300 OA
ENDBRANCH   6   7
BRANCH   6   9
ATOM      9  O   UNL     1       6.904  -3.348   1.109  1.00  0.00    -0.383 OA
ATOM     10  H   UNL     1       7.534  -3.104   1.836  1.00  0.00     0.211 HD
ENDBRANCH   6   9
ENDBRANCH   5   6
BRANCH   5  11
ATOM     11  O   UNL     1       6.683  -6.412  -0.308  1.00  0.00    -0.387 OA
ATOM     12  H   UNL     1       6.503  -5.783  -1.054  1.00  0.00     0.211 HD
ENDBRANCH   5  11
ENDBRANCH   1   5
BRANCH   1  13
ATOM     13  O   UNL     1       8.659  -7.760   0.880  1.00  0.00    -0.388 OA
ATOM     14  H   UNL     1       8.039  -8.531   0.965  1.00  0.00     0.211 HD
ENDBRANCH   1  13
TORSDOF 8
ENDMDL
MODEL 7
REMARK VINA RESULT:    -3.343      7.457      8.786
REMARK INTER + INTRA:          -5.281
REMARK INTER:                  -4.608
REMARK INTRA:                  -0.673
REMARK UNBOUND:                -0.765
REMARK SMILES O=C[C@H](O)[C@H](O)[C@H](O)CO
REMARK SMILES IDX 7 1 9 2 10 3 5 5 3 6 2 7 1 8 4 9 6 11 8 13
REMARK H PARENT 10 4 4 10 6 12 8 14
REMARK Flexibility Score: inf
ROOT
ATOM      1  C   UNL     1       0.647  -9.284   5.420  1.00  0.00     0.171 C 
ENDROOT
BRANCH   1   2
ATOM      2  C   UNL     1       1.915  -9.714   6.189  1.00  0.00     0.190 C 
BRANCH   2   3
ATOM      3  O   UNL     1       2.731  -8.603   6.440  1.00  0.00    -0.394 OA
ATOM      4  H   UNL     1       3.454  -8.923   7.040  1.00  0.00     0.210 HD
ENDBRANCH   2   3
ENDBRANCH   1   2
BRANCH   1   5
ATOM      5  C   UNL     1       0.917  -8.686   4.009  1.00  0.00     0.181 C 
BRANCH   5   6
ATOM      6  C   UNL     1      -0.221  -8.894   2.974  1.00  0.00     0.209 C 
BRANCH   6   7
ATOM      7  C   UNL     1      -0.273  -7.771   1.972  1.00  0.00     0.258 C 
ATOM      8  O   UNL     1       0.735  -7.388   1.401  1.00  0.00    -0.300 OA
ENDBRANCH   6   7
BRANCH   6   9
ATOM      9  O   UNL     1      -1.467  -9.046   3.606  1.00  0.00    -0.383 OA
ATOM     10  H   UNL     1      -1.942  -8.177   3.525  1.00  0.00     0.211 HD
ENDBRANCH   6   9
ENDBRANCH   5   6
BRANCH   5  11
ATOM     11  O   UNL     1       2.125  -9.193   3.500  1.00  0.00    -0.387 OA
ATOM     12  H   UNL     1       1.917 -10.066   3.075  1.00  0.00     0.211 HD
ENDBRANCH   5  11
ENDBRANCH   1   5
BRANCH   1  13
ATOM     13  O   UNL     1      -0.087  -8.362   6.189  1.00  0.00    -0.388 OA
ATOM     14  H   UNL     1      -0.052  -7.485   5.724  1.00  0.00     0.211 HD
ENDBRANCH   1  13
TORSDOF 8
ENDMDL
MODEL 8
REMARK VINA RESULT:    -3.320      1.224      3.795
REMARK INTER + INTRA:          -5.250
REMARK INTER:                  -4.497
REMARK INTRA:                  -0.753
REMARK UNBOUND:                -0.765
REMARK SMILES O=C[C@H](O)[C@H](O)[C@H](O)CO
REMARK SMILES IDX 7 1 9 2 10 3 5 5 3 6 2 7 1 8 4 9 6 11 8 13
REMARK H PARENT 10 4 4 10 6 12 8 14
REMARK Flexibility Score: inf
ROOT
ATOM      1  C   UNL     1       7.343  -5.219   1.348  1.00  0.00     0.171 C 
ENDROOT
BRANCH   1   2
ATOM      2  C   UNL     1       5.880  -4.726   1.385  1.00  0.00     0.190 C 
BRANCH   2   3
ATOM      3  O   UNL     1       5.184  -5.184   0.258  1.00  0.00    -0.394 OA
ATOM      4  H   UNL     1       4.228  -5.220   0.522  1.00  0.00     0.210 HD
ENDBRANCH   2   3
ENDBRANCH   1   2
BRANCH   1   5
ATOM      5  C   UNL     1       7.973  -5.270  -0.074  1.00  0.00     0.181 C 
BRANCH   5   6
ATOM      6  C   UNL     1       8.182  -6.694  -0.654  1.00  0.00     0.209 C 
BRANCH   6   7
ATOM      7  C   UNL     1       8.855  -6.653  -2.001  1.00  0.00     0.258 C 
ATOM      8  O   UNL     1      10.046  -6.410  -2.104  1.00  0.00    -0.300 OA
ENDBRANCH   6   7
BRANCH   6   9
ATOM      9  O   UNL     1       6.969  -7.399  -0.732  1.00  0.00    -0.383 OA
ATOM     10  H   UNL     1       7.195  -8.367  -0.734  1.00  0.00     0.211 HD
ENDBRANCH   6   9
ENDBRANCH   5   6
BRANCH   5  11
ATOM     11  O   UNL     1       9.189  -4.566  -0.083  1.00  0.00    -0.387 OA
ATOM     12  H   UNL     1       9.831  -5.090   0.464  1.00  0.00     0.211 HD
ENDBRANCH   5  11
ENDBRANCH   1   5
BRANCH   1  13
ATOM     13  O   UNL     1       7.434  -6.488   1.948  1.00  0.00    -0.388 OA
ATOM     14  H   UNL     1       8.373  -6.799   1.858  1.00  0.00     0.211 HD
ENDBRANCH   1  13
TORSDOF 8
ENDMDL
MODEL 9
REMARK VINA RESULT:    -3.243      0.988      2.193
REMARK INTER + INTRA:          -5.147
REMARK INTER:                  -4.474
REMARK INTRA:                  -0.672
REMARK UNBOUND:                -0.765
REMARK SMILES O=C[C@H](O)[C@H](O)[C@H](O)CO
REMARK SMILES IDX 7 1 9 2 10 3 5 5 3 6 2 7 1 8 4 9 6 11 8 13
REMARK H PARENT 10 4 4 10 6 12 8 14
REMARK Flexibility Score: inf
ROOT
ATOM      1  C   UNL     1       7.999  -6.434  -1.090  1.00  0.00     0.171 C 
ENDROOT
BRANCH   1   2
ATOM      2  C   UNL     1       9.323  -6.966  -1.682  1.00  0.00     0.190 C 
BRANCH   2   3
ATOM      3  O   UNL     1      10.125  -5.902  -2.115  1.00  0.00    -0.394 OA
ATOM      4  H   UNL     1       9.639  -5.481  -2.871  1.00  0.00     0.210 HD
ENDBRANCH   2   3
ENDBRANCH   1   2
BRANCH   1   5
ATOM      5  C   UNL     1       8.163  -5.598   0.212  1.00  0.00     0.181 C 
BRANCH   5   6
ATOM      6  C   UNL     1       6.836  -5.152   0.882  1.00  0.00     0.209 C 
BRANCH   6   7
ATOM      7  C   UNL     1       6.492  -6.017   2.066  1.00  0.00     0.258 C 
ATOM      8  O   UNL     1       6.006  -7.126   1.916  1.00  0.00    -0.300 OA
ENDBRANCH   6   7
BRANCH   6   9
ATOM      9  O   UNL     1       5.776  -5.138  -0.040  1.00  0.00    -0.383 OA
ATOM     10  H   UNL     1       6.016  -5.768  -0.770  1.00  0.00     0.211 HD
ENDBRANCH   6   9
ENDBRANCH   5   6
BRANCH   5  11
ATOM     11  O   UNL     1       8.972  -4.477  -0.040  1.00  0.00    -0.387 OA
ATOM     12  H   UNL     1       9.171  -4.476  -1.013  1.00  0.00     0.211 HD
ENDBRANCH   5  11
ENDBRANCH   1   5
BRANCH   1  13
ATOM     13  O   UNL     1       7.118  -7.506  -0.853  1.00  0.00    -0.388 OA
ATOM     14  H   UNL     1       7.349  -7.897   0.030  1.00  0.00     0.211 HD
ENDBRANCH   1  13
TORSDOF 8
ENDMDL
