MODEL 1
REMARK VINA RESULT:    -5.794      0.000      0.000
REMARK INTER + INTRA:          -7.104
REMARK INTER:                  -6.979
REMARK INTRA:                  -0.124
REMARK UNBOUND:                -0.124
REMARK SMILES O=c1c(O)c(-c2ccc(O)c(O)c2)oc2cc(O)cc(O)c12
REMARK SMILES IDX 5 1 3 2 2 3 1 4 22 5 20 6 19 7 17 8 16 9 15 10 14 11 6 12
REMARK SMILES IDX 7 13 8 14 9 15 13 16 11 17 10 18 12 20 4 22 21 24 18 26
REMARK H PARENT 10 19 12 21 4 23 21 25 18 27
REMARK Flexibility Score: inf
ROOT
ATOM      1  C   UNL     1      31.126 -92.071  37.438  1.00  0.00     0.180 A 
ATOM      2  C   UNL     1      32.176 -92.933  37.796  1.00  0.00     0.208 A 
ATOM      3  C   UNL     1      31.905 -94.298  37.981  1.00  0.00     0.238 A 
ATOM      4  O   UNL     1      32.859 -95.073  38.250  1.00  0.00    -0.285 OA
ATOM      5  C   UNL     1      30.584 -94.781  37.821  1.00  0.00     0.111 A 
ATOM      6  C   UNL     1      30.188 -96.137  38.024  1.00  0.00     0.134 A 
ATOM      7  C   UNL     1      28.879 -96.528  37.710  1.00  0.00     0.093 A 
ATOM      8  C   UNL     1      27.938 -95.601  37.264  1.00  0.00     0.123 A 
ATOM      9  C   UNL     1      28.298 -94.261  37.120  1.00  0.00     0.094 A 
ATOM     10  C   UNL     1      29.606 -93.847  37.390  1.00  0.00     0.146 A 
ATOM     11  O   UNL     1      29.911 -92.566  37.230  1.00  0.00    -0.452 OA
ENDROOT
BRANCH   1  12
ATOM     12  C   UNL     1      31.329 -90.616  37.249  1.00  0.00     0.025 A 
ATOM     13  C   UNL     1      32.168 -90.164  36.219  1.00  0.00     0.016 A 
ATOM     14  C   UNL     1      32.359 -88.795  36.009  1.00  0.00     0.051 A 
ATOM     15  C   UNL     1      31.701 -87.860  36.815  1.00  0.00     0.157 A 
ATOM     16  C   UNL     1      30.654 -89.673  38.044  1.00  0.00     0.062 A 
ATOM     17  C   UNL     1      30.841 -88.299  37.834  1.00  0.00     0.158 A 
BRANCH  15  18
ATOM     18  O   UNL     1      31.913 -86.500  36.584  1.00  0.00    -0.504 OA
ATOM     19  H   UNL     1      32.774 -86.038  36.848  1.00  0.00     0.293 HD
ENDBRANCH  15  18
BRANCH  17  20
ATOM     20  O   UNL     1      30.172 -87.371  38.631  1.00  0.00    -0.504 OA
ATOM     21  H   UNL     1      29.951 -87.566  39.601  1.00  0.00     0.293 HD
ENDBRANCH  17  20
ENDBRANCH   1  12
BRANCH   2  22
ATOM     22  O   UNL     1      33.478 -92.438  37.928  1.00  0.00    -0.502 OA
ATOM     23  H   UNL     1      33.991 -92.043  37.149  1.00  0.00     0.293 HD
ENDBRANCH   2  22
BRANCH   6  24
ATOM     24  O   UNL     1      31.024 -97.125  38.552  1.00  0.00    -0.507 OA
ATOM     25  H   UNL     1      30.774 -97.745  39.307  1.00  0.00     0.293 HD
ENDBRANCH   6  24
BRANCH   8  26
ATOM     26  O   UNL     1      26.642 -96.023  36.976  1.00  0.00    -0.508 OA
ATOM     27  H   UNL     1      26.380 -97.001  37.019  1.00  0.00     0.293 HD
ENDBRANCH   8  26
TORSDOF 6
ENDMDL
MODEL 2
REMARK VINA RESULT:    -5.758      9.316     11.129
REMARK INTER + INTRA:          -7.061
REMARK INTER:                  -6.741
REMARK INTRA:                  -0.320
REMARK UNBOUND:                -0.124
REMARK SMILES O=c1c(O)c(-c2ccc(O)c(O)c2)oc2cc(O)cc(O)c12
REMARK SMILES IDX 5 1 3 2 2 3 1 4 22 5 20 6 19 7 17 8 16 9 15 10 14 11 6 12
REMARK SMILES IDX 7 13 8 14 9 15 13 16 11 17 10 18 12 20 4 22 21 24 18 26
REMARK H PARENT 10 19 12 21 4 23 21 25 18 27
REMARK Flexibility Score: inf
ROOT
ATOM      1  C   UNL     1      40.273 -95.489  35.932  1.00  0.00     0.180 A 
ATOM      2  C   UNL     1      41.486 -95.420  35.226  1.00  0.00     0.208 A 
ATOM      3  C   UNL     1      41.454 -95.287  33.828  1.00  0.00     0.238 A 
ATOM      4  O   UNL     1      42.542 -95.172  33.206  1.00  0.00    -0.285 OA
ATOM      5  C   UNL     1      40.210 -95.242  33.154  1.00  0.00     0.111 A 
ATOM      6  C   UNL     1      40.060 -95.150  31.737  1.00  0.00     0.134 A 
ATOM      7  C   UNL     1      38.782 -94.980  31.188  1.00  0.00     0.093 A 
ATOM      8  C   UNL     1      37.647 -94.965  31.997  1.00  0.00     0.123 A 
ATOM      9  C   UNL     1      37.777 -95.114  33.379  1.00  0.00     0.094 A 
ATOM     10  C   UNL     1      39.041 -95.248  33.959  1.00  0.00     0.146 A 
ATOM     11  O   UNL     1      39.123 -95.377  35.277  1.00  0.00    -0.452 OA
ENDROOT
BRANCH   1  12
ATOM     12  C   UNL     1      40.226 -95.654  37.403  1.00  0.00     0.025 A 
ATOM     13  C   UNL     1      40.305 -96.940  37.957  1.00  0.00     0.016 A 
ATOM     14  C   UNL     1      40.284 -97.118  39.343  1.00  0.00     0.051 A 
ATOM     15  C   UNL     1      40.200 -96.012  40.195  1.00  0.00     0.157 A 
ATOM     16  C   UNL     1      40.162 -94.542  38.263  1.00  0.00     0.062 A 
ATOM     17  C   UNL     1      40.143 -94.717  39.654  1.00  0.00     0.158 A 
BRANCH  15  18
ATOM     18  O   UNL     1      40.178 -96.219  41.574  1.00  0.00    -0.504 OA
ATOM     19  H   UNL     1      39.525 -95.737  42.180  1.00  0.00     0.293 HD
ENDBRANCH  15  18
BRANCH  17  20
ATOM     20  O   UNL     1      40.073 -93.610  40.498  1.00  0.00    -0.504 OA
ATOM     21  H   UNL     1      39.210 -93.095  40.629  1.00  0.00     0.293 HD
ENDBRANCH  17  20
ENDBRANCH   1  12
BRANCH   2  22
ATOM     22  O   UNL     1      42.703 -95.444  35.914  1.00  0.00    -0.502 OA
ATOM     23  H   UNL     1      43.596 -95.451  35.438  1.00  0.00     0.293 HD
ENDBRANCH   2  22
BRANCH   6  24
ATOM     24  O   UNL     1      41.120 -95.247  30.831  1.00  0.00    -0.507 OA
ATOM     25  H   UNL     1      41.763 -94.500  30.618  1.00  0.00     0.293 HD
ENDBRANCH   6  24
BRANCH   8  26
ATOM     26  O   UNL     1      36.390 -94.810  31.415  1.00  0.00    -0.508 OA
ATOM     27  H   UNL     1      35.857 -93.955  31.525  1.00  0.00     0.293 HD
ENDBRANCH   8  26
TORSDOF 6
ENDMDL
MODEL 3
REMARK VINA RESULT:    -5.642      9.405     11.189
REMARK INTER + INTRA:          -6.921
REMARK INTER:                  -6.733
REMARK INTRA:                  -0.188
REMARK UNBOUND:                -0.124
REMARK SMILES O=c1c(O)c(-c2ccc(O)c(O)c2)oc2cc(O)cc(O)c12
REMARK SMILES IDX 5 1 3 2 2 3 1 4 22 5 20 6 19 7 17 8 16 9 15 10 14 11 6 12
REMARK SMILES IDX 7 13 8 14 9 15 13 16 11 17 10 18 12 20 4 22 21 24 18 26
REMARK H PARENT 10 19 12 21 4 23 21 25 18 27
REMARK Flexibility Score: inf
ROOT
ATOM      1  C   UNL     1      36.179 -95.307  29.872  1.00  0.00     0.180 A 
ATOM      2  C   UNL     1      37.211 -95.692  29.000  1.00  0.00     0.208 A 
ATOM      3  C   UNL     1      38.539 -95.652  29.456  1.00  0.00     0.238 A 
ATOM      4  O   UNL     1      39.454 -96.048  28.689  1.00  0.00    -0.285 OA
ATOM      5  C   UNL     1      38.818 -95.213  30.773  1.00  0.00     0.111 A 
ATOM      6  C   UNL     1      40.128 -95.094  31.326  1.00  0.00     0.134 A 
ATOM      7  C   UNL     1      40.279 -94.774  32.682  1.00  0.00     0.093 A 
ATOM      8  C   UNL     1      39.172 -94.506  33.485  1.00  0.00     0.123 A 
ATOM      9  C   UNL     1      37.888 -94.560  32.940  1.00  0.00     0.094 A 
ATOM     10  C   UNL     1      37.704 -94.912  31.600  1.00  0.00     0.146 A 
ATOM     11  O   UNL     1      36.467 -94.963  31.122  1.00  0.00    -0.452 OA
ENDROOT
BRANCH   1  12
ATOM     12  C   UNL     1      34.757 -95.299  29.456  1.00  0.00     0.025 A 
ATOM     13  C   UNL     1      34.330 -94.393  28.473  1.00  0.00     0.016 A 
ATOM     14  C   UNL     1      32.999 -94.383  28.049  1.00  0.00     0.051 A 
ATOM     15  C   UNL     1      32.078 -95.286  28.591  1.00  0.00     0.157 A 
ATOM     16  C   UNL     1      33.834 -96.220  29.984  1.00  0.00     0.062 A 
ATOM     17  C   UNL     1      32.498 -96.213  29.559  1.00  0.00     0.158 A 
BRANCH  15  18
ATOM     18  O   UNL     1      30.755 -95.250  28.151  1.00  0.00    -0.504 OA
ATOM     19  H   UNL     1      30.472 -94.708  27.343  1.00  0.00     0.293 HD
ENDBRANCH  15  18
BRANCH  17  20
ATOM     20  O   UNL     1      31.589 -97.125  30.092  1.00  0.00    -0.504 OA
ATOM     21  H   UNL     1      30.626 -96.869  30.277  1.00  0.00     0.293 HD
ENDBRANCH  17  20
ENDBRANCH   1  12
BRANCH   2  22
ATOM     22  O   UNL     1      36.911 -96.143  27.711  1.00  0.00    -0.502 OA
ATOM     23  H   UNL     1      37.427 -95.839  26.895  1.00  0.00     0.293 HD
ENDBRANCH   2  22
BRANCH   6  24
ATOM     24  O   UNL     1      41.305 -95.251  30.588  1.00  0.00    -0.507 OA
ATOM     25  H   UNL     1      42.030 -95.919  30.798  1.00  0.00     0.293 HD
ENDBRANCH   6  24
BRANCH   8  26
ATOM     26  O   UNL     1      39.360 -94.176  34.826  1.00  0.00    -0.508 OA
ATOM     27  H   UNL     1      39.739 -94.843  35.488  1.00  0.00     0.293 HD
ENDBRANCH   8  26
TORSDOF 6
ENDMDL
MODEL 4
REMARK VINA RESULT:    -5.639      9.365     10.762
REMARK INTER + INTRA:          -6.917
REMARK INTER:                  -6.797
REMARK INTRA:                  -0.120
REMARK UNBOUND:                -0.124
REMARK SMILES O=c1c(O)c(-c2ccc(O)c(O)c2)oc2cc(O)cc(O)c12
REMARK SMILES IDX 5 1 3 2 2 3 1 4 22 5 20 6 19 7 17 8 16 9 15 10 14 11 6 12
REMARK SMILES IDX 7 13 8 14 9 15 13 16 11 17 10 18 12 20 4 22 21 24 18 26
REMARK H PARENT 10 19 12 21 4 23 21 25 18 27
REMARK Flexibility Score: inf
ROOT
ATOM      1  C   UNL     1      37.630 -95.363  31.008  1.00  0.00     0.180 A 
ATOM      2  C   UNL     1      38.299 -95.986  29.941  1.00  0.00     0.208 A 
ATOM      3  C   UNL     1      37.636 -96.129  28.711  1.00  0.00     0.238 A 
ATOM      4  O   UNL     1      38.258 -96.640  27.744  1.00  0.00    -0.285 OA
ATOM      5  C   UNL     1      36.307 -95.662  28.570  1.00  0.00     0.111 A 
ATOM      6  C   UNL     1      35.525 -95.791  27.383  1.00  0.00     0.134 A 
ATOM      7  C   UNL     1      34.269 -95.175  27.313  1.00  0.00     0.093 A 
ATOM      8  C   UNL     1      33.740 -94.493  28.408  1.00  0.00     0.123 A 
ATOM      9  C   UNL     1      34.470 -94.412  29.594  1.00  0.00     0.094 A 
ATOM     10  C   UNL     1      35.742 -94.985  29.682  1.00  0.00     0.146 A 
ATOM     11  O   UNL     1      36.408 -94.876  30.824  1.00  0.00    -0.452 OA
ENDROOT
BRANCH   1  12
ATOM     12  C   UNL     1      38.255 -95.198  32.341  1.00  0.00     0.025 A 
ATOM     13  C   UNL     1      39.402 -94.400  32.472  1.00  0.00     0.016 A 
ATOM     14  C   UNL     1      39.996 -94.213  33.723  1.00  0.00     0.051 A 
ATOM     15  C   UNL     1      39.444 -94.807  34.862  1.00  0.00     0.157 A 
ATOM     16  C   UNL     1      37.691 -95.778  33.491  1.00  0.00     0.062 A 
ATOM     17  C   UNL     1      38.283 -95.590  34.748  1.00  0.00     0.158 A 
BRANCH  15  18
ATOM     18  O   UNL     1      40.060 -94.605  36.097  1.00  0.00    -0.504 OA
ATOM     19  H   UNL     1      41.020 -94.877  36.270  1.00  0.00     0.293 HD
ENDBRANCH  15  18
BRANCH  17  20
ATOM     20  O   UNL     1      37.721 -96.174  35.882  1.00  0.00    -0.504 OA
ATOM     21  H   UNL     1      38.292 -96.628  36.585  1.00  0.00     0.293 HD
ENDBRANCH  17  20
ENDBRANCH   1  12
BRANCH   2  22
ATOM     22  O   UNL     1      39.619 -96.420  30.096  1.00  0.00    -0.502 OA
ATOM     23  H   UNL     1      39.955 -97.291  29.703  1.00  0.00     0.293 HD
ENDBRANCH   2  22
BRANCH   6  24
ATOM     24  O   UNL     1      35.921 -96.529  26.263  1.00  0.00    -0.507 OA
ATOM     25  H   UNL     1      36.490 -96.171  25.512  1.00  0.00     0.293 HD
ENDBRANCH   6  24
BRANCH   8  26
ATOM     26  O   UNL     1      32.479 -93.907  28.308  1.00  0.00    -0.508 OA
ATOM     27  H   UNL     1      31.705 -94.387  27.866  1.00  0.00     0.293 HD
ENDBRANCH   8  26
TORSDOF 6
ENDMDL
MODEL 5
REMARK VINA RESULT:    -5.430     15.182     16.473
REMARK INTER + INTRA:          -6.665
REMARK INTER:                  -6.514
REMARK INTRA:                  -0.151
REMARK UNBOUND:                -0.124
REMARK SMILES O=c1c(O)c(-c2ccc(O)c(O)c2)oc2cc(O)cc(O)c12
REMARK SMILES IDX 5 1 3 2 2 3 1 4 22 5 20 6 19 7 17 8 16 9 15 10 14 11 6 12
REMARK SMILES IDX 7 13 8 14 9 15 13 16 11 17 10 18 12 20 4 22 21 24 18 26
REMARK H PARENT 10 19 12 21 4 23 21 25 18 27
REMARK Flexibility Score: inf
ROOT
ATOM      1  C   UNL     1      37.437 -77.869  37.703  1.00  0.00     0.180 A 
ATOM      2  C   UNL     1      37.992 -77.750  36.418  1.00  0.00     0.208 A 
ATOM      3  C   UNL     1      37.133 -77.683  35.308  1.00  0.00     0.238 A 
ATOM      4  O   UNL     1      37.634 -77.523  34.165  1.00  0.00    -0.285 OA
ATOM      5  C   UNL     1      35.732 -77.752  35.498  1.00  0.00     0.111 A 
ATOM      6  C   UNL     1      34.771 -77.735  34.443  1.00  0.00     0.134 A 
ATOM      7  C   UNL     1      33.406 -77.677  34.754  1.00  0.00     0.093 A 
ATOM      8  C   UNL     1      32.967 -77.702  36.077  1.00  0.00     0.123 A 
ATOM      9  C   UNL     1      33.897 -77.780  37.115  1.00  0.00     0.094 A 
ATOM     10  C   UNL     1      35.266 -77.802  36.837  1.00  0.00     0.146 A 
ATOM     11  O   UNL     1      36.118 -77.865  37.853  1.00  0.00    -0.452 OA
ENDROOT
BRANCH   1  12
ATOM     12  C   UNL     1      38.278 -77.970  38.918  1.00  0.00     0.025 A 
ATOM     13  C   UNL     1      39.068 -76.876  39.304  1.00  0.00     0.016 A 
ATOM     14  C   UNL     1      39.853 -76.940  40.458  1.00  0.00     0.051 A 
ATOM     15  C   UNL     1      39.849 -78.092  41.251  1.00  0.00     0.157 A 
ATOM     16  C   UNL     1      38.260 -79.119  39.728  1.00  0.00     0.062 A 
ATOM     17  C   UNL     1      39.045 -79.186  40.888  1.00  0.00     0.158 A 
BRANCH  15  18
ATOM     18  O   UNL     1      40.644 -78.129  42.396  1.00  0.00    -0.504 OA
ATOM     19  H   UNL     1      41.607 -78.443  42.371  1.00  0.00     0.293 HD
ENDBRANCH  15  18
BRANCH  17  20
ATOM     20  O   UNL     1      39.026 -80.332  41.682  1.00  0.00    -0.504 OA
ATOM     21  H   UNL     1      39.657 -81.106  41.512  1.00  0.00     0.293 HD
ENDBRANCH  17  20
ENDBRANCH   1  12
BRANCH   2  22
ATOM     22  O   UNL     1      39.378 -77.661  36.255  1.00  0.00    -0.502 OA
ATOM     23  H   UNL     1      39.984 -77.265  36.963  1.00  0.00     0.293 HD
ENDBRANCH   2  22
BRANCH   6  24
ATOM     24  O   UNL     1      35.099 -77.801  33.085  1.00  0.00    -0.507 OA
ATOM     25  H   UNL     1      34.553 -78.278  32.385  1.00  0.00     0.293 HD
ENDBRANCH   6  24
BRANCH   8  26
ATOM     26  O   UNL     1      31.601 -77.659  36.349  1.00  0.00    -0.508 OA
ATOM     27  H   UNL     1      30.991 -78.435  36.122  1.00  0.00     0.293 HD
ENDBRANCH   8  26
TORSDOF 6
ENDMDL
MODEL 6
REMARK VINA RESULT:    -5.204      9.013     10.149
REMARK INTER + INTRA:          -6.393
REMARK INTER:                  -6.078
REMARK INTRA:                  -0.315
REMARK UNBOUND:                -0.124
REMARK SMILES O=c1c(O)c(-c2ccc(O)c(O)c2)oc2cc(O)cc(O)c12
REMARK SMILES IDX 5 1 3 2 2 3 1 4 22 5 20 6 19 7 17 8 16 9 15 10 14 11 6 12
REMARK SMILES IDX 7 13 8 14 9 15 13 16 11 17 10 18 12 20 4 22 21 24 18 26
REMARK H PARENT 10 19 12 21 4 23 21 25 18 27
REMARK Flexibility Score: inf
ROOT
ATOM      1  C   UNL     1      35.331 -95.734  30.004  1.00  0.00     0.180 A 
ATOM      2  C   UNL     1      35.154 -95.257  28.694  1.00  0.00     0.208 A 
ATOM      3  C   UNL     1      33.863 -95.243  28.143  1.00  0.00     0.238 A 
ATOM      4  O   UNL     1      33.703 -94.766  26.989  1.00  0.00    -0.285 OA
ATOM      5  C   UNL     1      32.768 -95.721  28.902  1.00  0.00     0.111 A 
ATOM      6  C   UNL     1      31.423 -95.791  28.429  1.00  0.00     0.134 A 
ATOM      7  C   UNL     1      30.398 -96.158  29.311  1.00  0.00     0.093 A 
ATOM      8  C   UNL     1      30.678 -96.519  30.628  1.00  0.00     0.123 A 
ATOM      9  C   UNL     1      31.997 -96.513  31.085  1.00  0.00     0.094 A 
ATOM     10  C   UNL     1      33.036 -96.116  30.239  1.00  0.00     0.146 A 
ATOM     11  O   UNL     1      34.275 -96.113  30.715  1.00  0.00    -0.452 OA
ENDROOT
BRANCH   1  12
ATOM     12  C   UNL     1      36.665 -95.802  30.645  1.00  0.00     0.025 A 
ATOM     13  C   UNL     1      37.493 -96.908  30.400  1.00  0.00     0.016 A 
ATOM     14  C   UNL     1      38.764 -96.984  30.976  1.00  0.00     0.051 A 
ATOM     15  C   UNL     1      39.231 -95.949  31.793  1.00  0.00     0.157 A 
ATOM     16  C   UNL     1      37.145 -94.754  31.450  1.00  0.00     0.062 A 
ATOM     17  C   UNL     1      38.420 -94.826  32.028  1.00  0.00     0.158 A 
BRANCH  15  18
ATOM     18  O   UNL     1      40.502 -96.053  32.357  1.00  0.00    -0.504 OA
ATOM     19  H   UNL     1      40.722 -96.747  33.062  1.00  0.00     0.293 HD
ENDBRANCH  15  18
BRANCH  17  20
ATOM     20  O   UNL     1      38.886 -93.785  32.830  1.00  0.00    -0.504 OA
ATOM     21  H   UNL     1      38.361 -92.925  32.942  1.00  0.00     0.293 HD
ENDBRANCH  17  20
ENDBRANCH   1  12
BRANCH   2  22
ATOM     22  O   UNL     1      36.246 -94.770  27.970  1.00  0.00    -0.502 OA
ATOM     23  H   UNL     1      36.641 -95.267  27.182  1.00  0.00     0.293 HD
ENDBRANCH   2  22
BRANCH   6  24
ATOM     24  O   UNL     1      31.046 -95.539  27.106  1.00  0.00    -0.507 OA
ATOM     25  H   UNL     1      30.411 -96.111  26.572  1.00  0.00     0.293 HD
ENDBRANCH   6  24
BRANCH   8  26
ATOM     26  O   UNL     1      29.636 -96.894  31.474  1.00  0.00    -0.508 OA
ATOM     27  H   UNL     1      29.246 -96.251  32.152  1.00  0.00     0.293 HD
ENDBRANCH   8  26
TORSDOF 6
ENDMDL
MODEL 7
REMARK VINA RESULT:    -5.077     15.564     17.086
REMARK INTER + INTRA:          -6.239
REMARK INTER:                  -5.923
REMARK INTRA:                  -0.316
REMARK UNBOUND:                -0.124
REMARK SMILES O=c1c(O)c(-c2ccc(O)c(O)c2)oc2cc(O)cc(O)c12
REMARK SMILES IDX 5 1 3 2 2 3 1 4 22 5 20 6 19 7 17 8 16 9 15 10 14 11 6 12
REMARK SMILES IDX 7 13 8 14 9 15 13 16 11 17 10 18 12 20 4 22 21 24 18 26
REMARK H PARENT 10 19 12 21 4 23 21 25 18 27
REMARK Flexibility Score: inf
ROOT
ATOM      1  C   UNL     1      37.630 -77.849  37.696  1.00  0.00     0.180 A 
ATOM      2  C   UNL     1      36.234 -77.992  37.768  1.00  0.00     0.208 A 
ATOM      3  C   UNL     1      35.472 -77.831  36.599  1.00  0.00     0.238 A 
ATOM      4  O   UNL     1      34.228 -78.013  36.659  1.00  0.00    -0.285 OA
ATOM      5  C   UNL     1      36.114 -77.513  35.379  1.00  0.00     0.111 A 
ATOM      6  C   UNL     1      35.436 -77.288  34.143  1.00  0.00     0.134 A 
ATOM      7  C   UNL     1      36.182 -77.109  32.970  1.00  0.00     0.093 A 
ATOM      8  C   UNL     1      37.575 -77.082  32.999  1.00  0.00     0.123 A 
ATOM      9  C   UNL     1      38.247 -77.241  34.212  1.00  0.00     0.094 A 
ATOM     10  C   UNL     1      37.531 -77.458  35.393  1.00  0.00     0.146 A 
ATOM     11  O   UNL     1      38.208 -77.616  36.523  1.00  0.00    -0.452 OA
ENDROOT
BRANCH   1  12
ATOM     12  C   UNL     1      38.498 -77.980  38.890  1.00  0.00     0.025 A 
ATOM     13  C   UNL     1      38.682 -76.875  39.735  1.00  0.00     0.016 A 
ATOM     14  C   UNL     1      39.479 -76.982  40.878  1.00  0.00     0.051 A 
ATOM     15  C   UNL     1      40.091 -78.197  41.200  1.00  0.00     0.157 A 
ATOM     16  C   UNL     1      39.098 -79.206  39.227  1.00  0.00     0.062 A 
ATOM     17  C   UNL     1      39.897 -79.317  40.374  1.00  0.00     0.158 A 
BRANCH  15  18
ATOM     18  O   UNL     1      40.884 -78.273  42.345  1.00  0.00    -0.504 OA
ATOM     19  H   UNL     1      41.869 -78.506  42.302  1.00  0.00     0.293 HD
ENDBRANCH  15  18
BRANCH  17  20
ATOM     20  O   UNL     1      40.494 -80.534  40.698  1.00  0.00    -0.504 OA
ATOM     21  H   UNL     1      41.425 -80.771  40.378  1.00  0.00     0.293 HD
ENDBRANCH  17  20
ENDBRANCH   1  12
BRANCH   2  22
ATOM     22  O   UNL     1      35.623 -78.328  38.980  1.00  0.00    -0.502 OA
ATOM     23  H   UNL     1      34.630 -78.512  39.056  1.00  0.00     0.293 HD
ENDBRANCH   2  22
BRANCH   6  24
ATOM     24  O   UNL     1      34.046 -77.203  34.017  1.00  0.00    -0.507 OA
ATOM     25  H   UNL     1      33.514 -76.350  34.094  1.00  0.00     0.293 HD
ENDBRANCH   6  24
BRANCH   8  26
ATOM     26  O   UNL     1      38.284 -76.886  31.815  1.00  0.00    -0.508 OA
ATOM     27  H   UNL     1      39.285 -77.032  31.767  1.00  0.00     0.293 HD
ENDBRANCH   8  26
TORSDOF 6
ENDMDL
MODEL 8
REMARK VINA RESULT:    -4.958     10.080     11.910
REMARK INTER + INTRA:          -6.097
REMARK INTER:                  -5.812
REMARK INTRA:                  -0.284
REMARK UNBOUND:                -0.124
REMARK SMILES O=c1c(O)c(-c2ccc(O)c(O)c2)oc2cc(O)cc(O)c12
REMARK SMILES IDX 5 1 3 2 2 3 1 4 22 5 20 6 19 7 17 8 16 9 15 10 14 11 6 12
REMARK SMILES IDX 7 13 8 14 9 15 13 16 11 17 10 18 12 20 4 22 21 24 18 26
REMARK H PARENT 10 19 12 21 4 23 21 25 18 27
REMARK Flexibility Score: inf
ROOT
ATOM      1  C   UNL     1      37.716 -95.583  30.924  1.00  0.00     0.180 A 
ATOM      2  C   UNL     1      38.101 -95.301  32.246  1.00  0.00     0.208 A 
ATOM      3  C   UNL     1      39.464 -95.332  32.581  1.00  0.00     0.238 A 
ATOM      4  O   UNL     1      39.806 -95.028  33.753  1.00  0.00    -0.285 OA
ATOM      5  C   UNL     1      40.424 -95.660  31.594  1.00  0.00     0.111 A 
ATOM      6  C   UNL     1      41.828 -95.761  31.831  1.00  0.00     0.134 A 
ATOM      7  C   UNL     1      42.698 -95.963  30.751  1.00  0.00     0.093 A 
ATOM      8  C   UNL     1      42.211 -96.133  29.457  1.00  0.00     0.123 A 
ATOM      9  C   UNL     1      40.835 -96.097  29.222  1.00  0.00     0.094 A 
ATOM     10  C   UNL     1      39.945 -95.860  30.273  1.00  0.00     0.146 A 
ATOM     11  O   UNL     1      38.646 -95.822  30.006  1.00  0.00    -0.452 OA
ENDROOT
BRANCH   1  12
ATOM     12  C   UNL     1      36.297 -95.593  30.501  1.00  0.00     0.025 A 
ATOM     13  C   UNL     1      35.489 -96.695  30.821  1.00  0.00     0.016 A 
ATOM     14  C   UNL     1      34.142 -96.718  30.451  1.00  0.00     0.051 A 
ATOM     15  C   UNL     1      33.579 -95.634  29.770  1.00  0.00     0.157 A 
ATOM     16  C   UNL     1      35.723 -94.496  29.835  1.00  0.00     0.062 A 
ATOM     17  C   UNL     1      34.371 -94.515  29.464  1.00  0.00     0.158 A 
BRANCH  15  18
ATOM     18  O   UNL     1      32.232 -95.685  29.410  1.00  0.00    -0.504 OA
ATOM     19  H   UNL     1      31.932 -95.640  28.444  1.00  0.00     0.293 HD
ENDBRANCH  15  18
BRANCH  17  20
ATOM     20  O   UNL     1      33.812 -93.425  28.798  1.00  0.00    -0.504 OA
ATOM     21  H   UNL     1      34.390 -92.704  28.381  1.00  0.00     0.293 HD
ENDBRANCH  17  20
ENDBRANCH   1  12
BRANCH   2  22
ATOM     22  O   UNL     1      37.138 -94.958  33.201  1.00  0.00    -0.502 OA
ATOM     23  H   UNL     1      37.095 -94.040  33.624  1.00  0.00     0.293 HD
ENDBRANCH   2  22
BRANCH   6  24
ATOM     24  O   UNL     1      42.412 -95.698  33.100  1.00  0.00    -0.507 OA
ATOM     25  H   UNL     1      43.284 -96.137  33.352  1.00  0.00     0.293 HD
ENDBRANCH   6  24
BRANCH   8  26
ATOM     26  O   UNL     1      43.104 -96.348  28.409  1.00  0.00    -0.508 OA
ATOM     27  H   UNL     1      44.089 -96.127  28.498  1.00  0.00     0.293 HD
ENDBRANCH   8  26
TORSDOF 6
ENDMDL
