MODEL 1
REMARK VINA RESULT:    -3.791      0.000      0.000
REMARK INTER + INTRA:          -5.995
REMARK INTER:                  -5.785
REMARK INTRA:                  -0.210
REMARK UNBOUND:                -0.210
REMARK SMILES CC1=CCC[C@H](C)C(=O)C[C@H](C(C)C)C(=O)C1
REMARK SMILES IDX 8 1 9 2 6 3 7 4 5 5 4 6 3 7 2 8 1 9 10 11 11 12 15 13 16 14
REMARK SMILES IDX 17 15 12 17 13 18 14 19
REMARK H PARENT
REMARK Flexibility Score: 70.00
ROOT
ATOM      1  C   UNL     1      19.968 205.278  14.752  1.00  0.00     0.136 C 
ATOM      2  O   UNL     1      21.163 205.175  14.995  1.00  0.00    -0.299 OA
ENDROOT
BRANCH   1   3
ATOM      3  C   UNL     1      18.994 205.261  15.913  1.00  0.00     0.053 C 
ATOM      4  C   UNL     1      18.769 203.817  16.375  1.00  0.00     0.016 C 
BRANCH   3   5
ATOM      5  C   UNL     1      19.422 206.146  17.106  1.00  0.00     0.015 C 
BRANCH   5   6
ATOM      6  C   UNL     1      19.535 207.646  16.759  1.00  0.00     0.028 C 
BRANCH   6   7
ATOM      7  C   UNL     1      20.975 208.085  16.618  1.00  0.00    -0.028 C 
ATOM      8  C   UNL     1      21.537 208.694  15.546  1.00  0.00    -0.070 CG0
ATOM      9  C   UNL     1      22.978 209.124  15.664  1.00  0.00     0.039 C 
ATOM     10  G   UNL     1      20.777 209.073  14.288  1.00  0.00     0.000 G0
ENDBRANCH   6   7
ENDBRANCH   5   6
ENDBRANCH   3   5
ENDBRANCH   1   3
BRANCH   1  11
ATOM     11  C   UNL     1      19.516 205.585  13.340  1.00  0.00     0.087 C 
BRANCH  11  12
ATOM     12  C   UNL     1      19.422 207.101  13.008  1.00  0.00     0.066 C 
BRANCH  12  13
ATOM     13  C   UNL     1      20.702 207.903  13.284  1.00  0.00     0.140 C 
ATOM     14  O   UNL     1      21.699 207.645  12.626  1.00  0.00    -0.299 OA
BRANCH  13  15
ATOM     15  C   UNL     1      20.799 209.066  14.252  1.00  0.00     0.106 CG0
ATOM     16  G   UNL     1      21.527 208.711  15.535  1.00  0.00     0.000 G0
ENDBRANCH  13  15
ENDBRANCH  12  13
BRANCH  12  17
ATOM     17  C   UNL     1      18.880 207.295  11.551  1.00  0.00    -0.006 C 
ATOM     18  C   UNL     1      17.847 206.226  11.152  1.00  0.00     0.008 C 
ATOM     19  C   UNL     1      18.317 208.700  11.291  1.00  0.00     0.008 C 
ENDBRANCH  12  17
ENDBRANCH  11  12
ENDBRANCH   1  11
TORSDOF 1
ENDMDL
MODEL 2
REMARK VINA RESULT:    -3.783      1.936      4.177
REMARK INTER + INTRA:          -5.983
REMARK INTER:                  -5.947
REMARK INTRA:                  -0.037
REMARK UNBOUND:                -0.210
REMARK SMILES CC1=CCC[C@H](C)C(=O)C[C@H](C(C)C)C(=O)C1
REMARK SMILES IDX 8 1 9 2 6 3 7 4 5 5 4 6 3 7 2 8 1 9 10 11 11 12 15 13 16 14
REMARK SMILES IDX 17 15 12 17 13 18 14 19
REMARK H PARENT
REMARK Flexibility Score: 70.00
ROOT
ATOM      1  C   UNL     1      22.071 206.654  15.687  1.00  0.00     0.136 C 
ATOM      2  O   UNL     1      22.035 206.564  16.906  1.00  0.00    -0.299 OA
ENDROOT
BRANCH   1   3
ATOM      3  C   UNL     1      22.806 207.830  15.074  1.00  0.00     0.053 C 
ATOM      4  C   UNL     1      23.589 207.361  13.843  1.00  0.00     0.016 C 
BRANCH   3   5
ATOM      5  C   UNL     1      21.891 209.021  14.708  1.00  0.00     0.015 C 
BRANCH   5   6
ATOM      6  C   UNL     1      20.414 208.816  15.104  1.00  0.00     0.028 C 
BRANCH   6   7
ATOM      7  C   UNL     1      19.474 209.124  13.960  1.00  0.00    -0.028 C 
ATOM      8  C   UNL     1      19.282 208.380  12.844  1.00  0.00    -0.070 CG0
ATOM      9  C   UNL     1      18.223 208.841  11.873  1.00  0.00     0.039 C 
ATOM     10  G   UNL     1      19.978 207.060  12.572  1.00  0.00     0.000 G0
ENDBRANCH   6   7
ENDBRANCH   5   6
ENDBRANCH   3   5
ENDBRANCH   1   3
BRANCH   1  11
ATOM     11  C   UNL     1      21.538 205.520  14.837  1.00  0.00     0.087 C 
BRANCH  11  12
ATOM     12  C   UNL     1      19.988 205.465  14.733  1.00  0.00     0.066 C 
BRANCH  12  13
ATOM     13  C   UNL     1      19.416 205.906  13.378  1.00  0.00     0.140 C 
ATOM     14  O   UNL     1      18.407 205.351  12.969  1.00  0.00    -0.299 OA
BRANCH  13  15
ATOM     15  C   UNL     1      19.955 207.053  12.546  1.00  0.00     0.106 CG0
ATOM     16  G   UNL     1      19.270 208.374  12.842  1.00  0.00     0.000 G0
ENDBRANCH  13  15
ENDBRANCH  12  13
BRANCH  12  17
ATOM     17  C   UNL     1      19.472 204.057  15.187  1.00  0.00    -0.006 C 
ATOM     18  C   UNL     1      20.461 202.926  14.857  1.00  0.00     0.008 C 
ATOM     19  C   UNL     1      19.076 204.000  16.670  1.00  0.00     0.008 C 
ENDBRANCH  12  17
ENDBRANCH  11  12
ENDBRANCH   1  11
TORSDOF 1
ENDMDL
MODEL 3
REMARK VINA RESULT:    -3.660      2.065      4.226
REMARK INTER + INTRA:          -5.796
REMARK INTER:                  -5.630
REMARK INTRA:                  -0.166
REMARK UNBOUND:                -0.210
REMARK SMILES CC1=CCC[C@H](C)C(=O)C[C@H](C(C)C)C(=O)C1
REMARK SMILES IDX 8 1 9 2 6 3 7 4 5 5 4 6 3 7 2 8 1 9 10 11 11 12 15 13 16 14
REMARK SMILES IDX 17 15 12 17 13 18 14 19
REMARK H PARENT
REMARK Flexibility Score: 70.00
ROOT
ATOM      1  C   UNL     1      21.415 207.021  13.449  1.00  0.00     0.136 C 
ATOM      2  O   UNL     1      20.967 207.960  12.806  1.00  0.00    -0.299 OA
ENDROOT
BRANCH   1   3
ATOM      3  C   UNL     1      22.793 207.161  14.063  1.00  0.00     0.053 C 
ATOM      4  C   UNL     1      23.861 206.939  12.986  1.00  0.00     0.016 C 
BRANCH   3   5
ATOM      5  C   UNL     1      23.027 208.510  14.781  1.00  0.00     0.015 C 
BRANCH   5   6
ATOM      6  C   UNL     1      22.436 208.567  16.206  1.00  0.00     0.028 C 
BRANCH   6   7
ATOM      7  C   UNL     1      20.998 209.036  16.203  1.00  0.00    -0.028 C 
ATOM      8  C   UNL     1      19.915 208.337  16.617  1.00  0.00    -0.070 CG0
ATOM      9  C   UNL     1      18.582 209.043  16.604  1.00  0.00     0.039 C 
ATOM     10  G   UNL     1      19.979 206.937  17.198  1.00  0.00     0.000 G0
ENDBRANCH   6   7
ENDBRANCH   5   6
ENDBRANCH   3   5
ENDBRANCH   1   3
BRANCH   1  11
ATOM     11  C   UNL     1      20.528 205.831  13.752  1.00  0.00     0.087 C 
BRANCH  11  12
ATOM     12  C   UNL     1      20.664 205.277  15.199  1.00  0.00     0.066 C 
BRANCH  12  13
ATOM     13  C   UNL     1      19.658 205.851  16.207  1.00  0.00     0.140 C 
ATOM     14  O   UNL     1      18.546 205.348  16.264  1.00  0.00    -0.299 OA
BRANCH  13  15
ATOM     15  C   UNL     1      19.973 206.940  17.215  1.00  0.00     0.106 CG0
ATOM     16  G   UNL     1      19.942 208.332  16.613  1.00  0.00     0.000 G0
ENDBRANCH  13  15
ENDBRANCH  12  13
BRANCH  12  17
ATOM     17  C   UNL     1      20.678 203.710  15.171  1.00  0.00    -0.006 C 
ATOM     18  C   UNL     1      19.467 203.117  14.430  1.00  0.00     0.008 C 
ATOM     19  C   UNL     1      21.982 203.121  14.614  1.00  0.00     0.008 C 
ENDBRANCH  12  17
ENDBRANCH  11  12
ENDBRANCH   1  11
TORSDOF 1
ENDMDL
MODEL 4
REMARK VINA RESULT:    -3.601      1.928      3.993
REMARK INTER + INTRA:          -5.705
REMARK INTER:                  -5.820
REMARK INTRA:                   0.114
REMARK UNBOUND:                -0.210
REMARK SMILES CC1=CCC[C@H](C)C(=O)C[C@H](C(C)C)C(=O)C1
REMARK SMILES IDX 8 1 9 2 6 3 7 4 5 5 4 6 3 7 2 8 1 9 10 11 11 12 15 13 16 14
REMARK SMILES IDX 17 15 12 17 13 18 14 19
REMARK H PARENT
REMARK Flexibility Score: 70.00
ROOT
ATOM      1  C   UNL     1      18.983 206.284  12.659  1.00  0.00     0.136 C 
ATOM      2  O   UNL     1      18.250 205.792  11.813  1.00  0.00    -0.299 OA
ENDROOT
BRANCH   1   3
ATOM      3  C   UNL     1      19.687 207.587  12.332  1.00  0.00     0.053 C 
ATOM      4  C   UNL     1      19.365 207.998  10.892  1.00  0.00     0.016 C 
BRANCH   3   5
ATOM      5  C   UNL     1      19.357 208.740  13.307  1.00  0.00     0.015 C 
BRANCH   5   6
ATOM      6  C   UNL     1      20.520 209.110  14.251  1.00  0.00     0.028 C 
BRANCH   6   7
ATOM      7  C   UNL     1      21.842 208.562  13.759  1.00  0.00    -0.028 C 
ATOM      8  C   UNL     1      22.631 207.658  14.387  1.00  0.00    -0.070 CG0
ATOM      9  C   UNL     1      23.868 207.189  13.662  1.00  0.00     0.039 C 
ATOM     10  G   UNL     1      22.287 207.007  15.713  1.00  0.00     0.000 G0
ENDBRANCH   6   7
ENDBRANCH   5   6
ENDBRANCH   3   5
ENDBRANCH   1   3
BRANCH   1  11
ATOM     11  C   UNL     1      19.034 205.680  14.047  1.00  0.00     0.087 C 
BRANCH  11  12
ATOM     12  C   UNL     1      20.467 205.369  14.563  1.00  0.00     0.066 C 
BRANCH  12  13
ATOM     13  C   UNL     1      20.961 206.288  15.690  1.00  0.00     0.140 C 
ATOM     14  O   UNL     1      20.271 206.396  16.692  1.00  0.00    -0.299 OA
BRANCH  13  15
ATOM     15  C   UNL     1      22.299 207.002  15.696  1.00  0.00     0.106 CG0
ATOM     16  G   UNL     1      22.627 207.661  14.369  1.00  0.00     0.000 G0
ENDBRANCH  13  15
ENDBRANCH  12  13
BRANCH  12  17
ATOM     17  C   UNL     1      20.588 203.847  14.916  1.00  0.00    -0.006 C 
ATOM     18  C   UNL     1      19.413 203.015  14.374  1.00  0.00     0.008 C 
ATOM     19  C   UNL     1      21.924 203.224  14.484  1.00  0.00     0.008 C 
ENDBRANCH  12  17
ENDBRANCH  11  12
ENDBRANCH   1  11
TORSDOF 1
ENDMDL
MODEL 5
REMARK VINA RESULT:    -3.409      2.292      3.204
REMARK INTER + INTRA:          -5.412
REMARK INTER:                  -5.828
REMARK INTRA:                   0.416
REMARK UNBOUND:                -0.210
REMARK SMILES CC1=CCC[C@H](C)C(=O)C[C@H](C(C)C)C(=O)C1
REMARK SMILES IDX 8 1 9 2 6 3 7 4 5 5 4 6 3 7 2 8 1 9 10 11 11 12 15 13 16 14
REMARK SMILES IDX 17 15 12 17 13 18 14 19
REMARK H PARENT
REMARK Flexibility Score: 70.00
ROOT
ATOM      1  C   UNL     1      21.044 203.958  14.884  1.00  0.00     0.136 C 
ATOM      2  O   UNL     1      21.365 203.000  15.572  1.00  0.00    -0.299 OA
ENDROOT
BRANCH   1   3
ATOM      3  C   UNL     1      19.577 204.147  14.553  1.00  0.00     0.053 C 
ATOM      4  C   UNL     1      19.122 203.051  13.584  1.00  0.00     0.016 C 
BRANCH   3   5
ATOM      5  C   UNL     1      18.654 204.186  15.793  1.00  0.00     0.015 C 
BRANCH   5   6
ATOM      6  C   UNL     1      19.169 205.100  16.924  1.00  0.00     0.028 C 
BRANCH   6   7
ATOM      7  C   UNL     1      18.839 206.554  16.669  1.00  0.00    -0.028 C 
ATOM      8  C   UNL     1      19.684 207.609  16.770  1.00  0.00    -0.070 CG0
ATOM      9  C   UNL     1      19.155 208.966  16.379  1.00  0.00     0.039 C 
ATOM     10  G   UNL     1      21.151 207.489  17.137  1.00  0.00     0.000 G0
ENDBRANCH   6   7
ENDBRANCH   5   6
ENDBRANCH   3   5
ENDBRANCH   1   3
BRANCH   1  11
ATOM     11  C   UNL     1      22.079 205.005  14.530  1.00  0.00     0.087 C 
BRANCH  11  12
ATOM     12  C   UNL     1      21.584 206.473  14.664  1.00  0.00     0.066 C 
BRANCH  12  13
ATOM     13  C   UNL     1      22.042 207.194  15.941  1.00  0.00     0.140 C 
ATOM     14  O   UNL     1      23.184 207.625  15.983  1.00  0.00    -0.299 OA
BRANCH  13  15
ATOM     15  C   UNL     1      21.146 207.501  17.126  1.00  0.00     0.106 CG0
ATOM     16  G   UNL     1      19.680 207.608  16.750  1.00  0.00     0.000 G0
ENDBRANCH  13  15
ENDBRANCH  12  13
BRANCH  12  17
ATOM     17  C   UNL     1      21.918 207.271  13.357  1.00  0.00    -0.006 C 
ATOM     18  C   UNL     1      21.413 208.723  13.400  1.00  0.00     0.008 C 
ATOM     19  C   UNL     1      23.407 207.237  12.985  1.00  0.00     0.008 C 
ENDBRANCH  12  17
ENDBRANCH  11  12
ENDBRANCH   1  11
TORSDOF 1
ENDMDL
MODEL 6
REMARK VINA RESULT:    -3.386      1.550      2.160
REMARK INTER + INTRA:          -5.377
REMARK INTER:                  -6.006
REMARK INTRA:                   0.629
REMARK UNBOUND:                -0.210
REMARK SMILES CC1=CCC[C@H](C)C(=O)C[C@H](C(C)C)C(=O)C1
REMARK SMILES IDX 8 1 9 2 6 3 7 4 5 5 4 6 3 7 2 8 1 9 10 11 11 12 15 13 16 14
REMARK SMILES IDX 17 15 12 17 13 18 14 19
REMARK H PARENT
REMARK Flexibility Score: 70.00
ROOT
ATOM      1  C   UNL     1      19.539 205.164  13.828  1.00  0.00     0.136 C 
ATOM      2  O   UNL     1      18.512 204.905  13.215  1.00  0.00    -0.299 OA
ENDROOT
BRANCH   1   3
ATOM      3  C   UNL     1      20.007 204.191  14.891  1.00  0.00     0.053 C 
ATOM      4  C   UNL     1      21.535 204.071  14.841  1.00  0.00     0.016 C 
BRANCH   3   5
ATOM      5  C   UNL     1      19.542 204.549  16.321  1.00  0.00     0.015 C 
BRANCH   5   6
ATOM      6  C   UNL     1      19.072 206.011  16.474  1.00  0.00     0.028 C 
BRANCH   6   7
ATOM      7  C   UNL     1      20.017 206.820  17.335  1.00  0.00    -0.028 C 
ATOM      8  C   UNL     1      20.390 208.108  17.143  1.00  0.00    -0.070 CG0
ATOM      9  C   UNL     1      21.278 208.740  18.186  1.00  0.00     0.039 C 
ATOM     10  G   UNL     1      19.876 208.982  16.014  1.00  0.00     0.000 G0
ENDBRANCH   6   7
ENDBRANCH   5   6
ENDBRANCH   3   5
ENDBRANCH   1   3
BRANCH   1  11
ATOM     11  C   UNL     1      20.389 206.341  13.399  1.00  0.00     0.087 C 
BRANCH  11  12
ATOM     12  C   UNL     1      19.735 207.731  13.638  1.00  0.00     0.066 C 
BRANCH  12  13
ATOM     13  C   UNL     1      20.456 208.616  14.665  1.00  0.00     0.140 C 
ATOM     14  O   UNL     1      21.523 209.119  14.346  1.00  0.00    -0.299 OA
BRANCH  13  15
ATOM     15  C   UNL     1      19.895 208.997  16.021  1.00  0.00     0.106 CG0
ATOM     16  G   UNL     1      20.380 208.093  17.139  1.00  0.00     0.000 G0
ENDBRANCH  13  15
ENDBRANCH  12  13
BRANCH  12  17
ATOM     17  C   UNL     1      19.498 208.452  12.267  1.00  0.00    -0.006 C 
ATOM     18  C   UNL     1      20.809 208.865  11.577  1.00  0.00     0.008 C 
ATOM     19  C   UNL     1      18.618 207.649  11.298  1.00  0.00     0.008 C 
ENDBRANCH  12  17
ENDBRANCH  11  12
ENDBRANCH   1  11
TORSDOF 1
ENDMDL
MODEL 7
REMARK VINA RESULT:    -3.310      1.759      3.950
REMARK INTER + INTRA:          -5.261
REMARK INTER:                  -6.084
REMARK INTRA:                   0.823
REMARK UNBOUND:                -0.210
REMARK SMILES CC1=CCC[C@H](C)C(=O)C[C@H](C(C)C)C(=O)C1
REMARK SMILES IDX 8 1 9 2 6 3 7 4 5 5 4 6 3 7 2 8 1 9 10 11 11 12 15 13 16 14
REMARK SMILES IDX 17 15 12 17 13 18 14 19
REMARK H PARENT
REMARK Flexibility Score: 70.00
ROOT
ATOM      1  C   UNL     1      20.128 207.345  16.567  1.00  0.00     0.136 C 
ATOM      2  O   UNL     1      18.975 207.687  16.787  1.00  0.00    -0.299 OA
ENDROOT
BRANCH   1   3
ATOM      3  C   UNL     1      21.226 208.379  16.717  1.00  0.00     0.053 C 
ATOM      4  C   UNL     1      21.289 208.855  18.173  1.00  0.00     0.016 C 
BRANCH   3   5
ATOM      5  C   UNL     1      22.617 207.890  16.251  1.00  0.00     0.015 C 
BRANCH   5   6
ATOM      6  C   UNL     1      23.092 208.532  14.931  1.00  0.00     0.028 C 
BRANCH   6   7
ATOM      7  C   UNL     1      21.931 208.948  14.056  1.00  0.00    -0.028 C 
ATOM      8  C   UNL     1      21.105 208.130  13.360  1.00  0.00    -0.070 CG0
ATOM      9  C   UNL     1      19.954 208.766  12.621  1.00  0.00     0.039 C 
ATOM     10  G   UNL     1      21.197 206.616  13.377  1.00  0.00     0.000 G0
ENDBRANCH   6   7
ENDBRANCH   5   6
ENDBRANCH   3   5
ENDBRANCH   1   3
BRANCH   1  11
ATOM     11  C   UNL     1      20.440 205.884  16.323  1.00  0.00     0.087 C 
BRANCH  11  12
ATOM     12  C   UNL     1      19.669 205.249  15.132  1.00  0.00     0.066 C 
BRANCH  12  13
ATOM     13  C   UNL     1      19.910 205.925  13.774  1.00  0.00     0.140 C 
ATOM     14  O   UNL     1      18.977 205.991  12.988  1.00  0.00    -0.299 OA
BRANCH  13  15
ATOM     15  C   UNL     1      21.201 206.610  13.369  1.00  0.00     0.106 CG0
ATOM     16  G   UNL     1      21.096 208.124  13.373  1.00  0.00     0.000 G0
ENDBRANCH  13  15
ENDBRANCH  12  13
BRANCH  12  17
ATOM     17  C   UNL     1      19.917 203.702  15.098  1.00  0.00    -0.006 C 
ATOM     18  C   UNL     1      19.705 203.035  16.469  1.00  0.00     0.008 C 
ATOM     19  C   UNL     1      19.099 202.975  14.021  1.00  0.00     0.008 C 
ENDBRANCH  12  17
ENDBRANCH  11  12
ENDBRANCH   1  11
TORSDOF 1
ENDMDL
MODEL 8
REMARK VINA RESULT:    -3.215      2.265      3.582
REMARK INTER + INTRA:          -5.116
REMARK INTER:                  -5.159
REMARK INTRA:                   0.043
REMARK UNBOUND:                -0.210
REMARK SMILES CC1=CCC[C@H](C)C(=O)C[C@H](C(C)C)C(=O)C1
REMARK SMILES IDX 8 1 9 2 6 3 7 4 5 5 4 6 3 7 2 8 1 9 10 11 11 12 15 13 16 14
REMARK SMILES IDX 17 15 12 17 13 18 14 19
REMARK H PARENT
REMARK Flexibility Score: 70.00
ROOT
ATOM      1  C   UNL     1      19.583 206.597  16.659  1.00  0.00     0.136 C 
ATOM      2  O   UNL     1      18.463 206.106  16.679  1.00  0.00    -0.299 OA
ENDROOT
BRANCH   1   3
ATOM      3  C   UNL     1      19.750 208.030  17.125  1.00  0.00     0.053 C 
ATOM      4  C   UNL     1      21.188 208.249  17.609  1.00  0.00     0.016 C 
BRANCH   3   5
ATOM      5  C   UNL     1      19.375 209.085  16.059  1.00  0.00     0.015 C 
BRANCH   5   6
ATOM      6  C   UNL     1      20.004 208.822  14.675  1.00  0.00     0.028 C 
BRANCH   6   7
ATOM      7  C   UNL     1      21.501 209.044  14.684  1.00  0.00    -0.028 C 
ATOM      8  C   UNL     1      22.440 208.272  14.086  1.00  0.00    -0.070 CG0
ATOM      9  C   UNL     1      23.873 208.739  14.155  1.00  0.00     0.039 C 
ATOM     10  G   UNL     1      22.126 207.040  13.258  1.00  0.00     0.000 G0
ENDBRANCH   6   7
ENDBRANCH   5   6
ENDBRANCH   3   5
ENDBRANCH   1   3
BRANCH   1  11
ATOM     11  C   UNL     1      20.777 205.722  16.339  1.00  0.00     0.087 C 
BRANCH  11  12
ATOM     12  C   UNL     1      20.858 205.259  14.857  1.00  0.00     0.066 C 
BRANCH  12  13
ATOM     13  C   UNL     1      22.092 205.758  14.091  1.00  0.00     0.140 C 
ATOM     14  O   UNL     1      23.090 205.053  14.080  1.00  0.00    -0.299 OA
BRANCH  13  15
ATOM     15  C   UNL     1      22.137 207.026  13.259  1.00  0.00     0.106 CG0
ATOM     16  G   UNL     1      22.450 208.263  14.079  1.00  0.00     0.000 G0
ENDBRANCH  13  15
ENDBRANCH  12  13
BRANCH  12  17
ATOM     17  C   UNL     1      20.672 203.705  14.773  1.00  0.00    -0.006 C 
ATOM     18  C   UNL     1      20.833 203.011  16.136  1.00  0.00     0.008 C 
ATOM     19  C   UNL     1      19.351 203.283  14.114  1.00  0.00     0.008 C 
ENDBRANCH  12  17
ENDBRANCH  11  12
ENDBRANCH   1  11
TORSDOF 1
ENDMDL
