MODEL 1
REMARK VINA RESULT:    -4.724      0.000      0.000
REMARK INTER + INTRA:         -15.111
REMARK INTER:                 -11.904
REMARK INTRA:                  -3.207
REMARK UNBOUND:                -3.207
REMARK SMILES CCCCCCCCCCCCCCCCCCCCCCCCCCCC(=O)[O-]
REMARK SMILES IDX 15 1 16 2 17 3 18 4 19 5 20 6 21 7 22 8 23 9 24 10 25 11
REMARK SMILES IDX 26 12 27 13 28 14 29 15 30 16 14 17 13 18 12 19 11 20 10 21
REMARK SMILES IDX 9 22 8 23 7 24 6 25 5 26 4 27 3 28 2 29 1 30
REMARK H PARENT
REMARK Flexibility Score: inf
ROOT
ATOM      1  C   UNL     1       3.143  -3.930 -37.093  1.00  0.00     0.000 C 
ENDROOT
BRANCH   1   2
ATOM      2  C   UNL     1       3.944  -2.797 -36.422  1.00  0.00     0.000 C 
BRANCH   2   3
ATOM      3  C   UNL     1       5.024  -2.152 -37.307  1.00  0.00     0.000 C 
BRANCH   3   4
ATOM      4  C   UNL     1       6.429  -2.227 -36.683  1.00  0.00     0.000 C 
BRANCH   4   5
ATOM      5  C   UNL     1       6.489  -3.165 -35.460  1.00  0.00     0.000 C 
BRANCH   5   6
ATOM      6  C   UNL     1       7.235  -2.572 -34.250  1.00  0.00     0.000 C 
BRANCH   6   7
ATOM      7  C   UNL     1       8.759  -2.795 -34.243  1.00  0.00     0.000 C 
BRANCH   7   8
ATOM      8  C   UNL     1       9.570  -1.812 -35.107  1.00  0.00     0.000 C 
BRANCH   8   9
ATOM      9  C   UNL     1      11.087  -1.983 -34.946  1.00  0.00     0.000 C 
BRANCH   9  10
ATOM     10  C   UNL     1      11.726  -0.710 -34.369  1.00  0.00     0.000 C 
BRANCH  10  11
ATOM     11  C   UNL     1      10.940  -0.129 -33.182  1.00  0.00     0.000 C 
BRANCH  11  12
ATOM     12  C   UNL     1      11.232   1.350 -32.862  1.00  0.00     0.006 C 
BRANCH  12  13
ATOM     13  C   UNL     1      10.400   1.917 -31.698  1.00  0.00     0.053 C 
BRANCH  13  14
ATOM     14  C   UNL     1       9.406   2.944 -32.146  1.00  0.00     0.041 C 
ATOM     15  O   UNL     1       8.246   2.959 -31.658  1.00  0.00    -0.550 OA
ATOM     16  O   UNL     1       9.772   3.913 -33.073  1.00  0.00    -0.550 OA
ENDBRANCH  13  14
ENDBRANCH  12  13
ENDBRANCH  11  12
ENDBRANCH  10  11
ENDBRANCH   9  10
ENDBRANCH   8   9
ENDBRANCH   7   8
ENDBRANCH   6   7
ENDBRANCH   5   6
ENDBRANCH   4   5
ENDBRANCH   3   4
ENDBRANCH   2   3
ENDBRANCH   1   2
BRANCH   1  17
ATOM     17  C   UNL     1       3.982  -5.122 -37.586  1.00  0.00     0.000 C 
BRANCH  17  18
ATOM     18  C   UNL     1       3.313  -6.478 -37.304  1.00  0.00     0.000 C 
BRANCH  18  19
ATOM     19  C   UNL     1       2.248  -6.403 -36.195  1.00  0.00     0.000 C 
BRANCH  19  20
ATOM     20  C   UNL     1       1.517  -7.727 -35.884  1.00  0.00     0.000 C 
BRANCH  20  21
ATOM     21  C   UNL     1       0.924  -7.839 -34.466  1.00  0.00     0.000 C 
BRANCH  21  22
ATOM     22  C   UNL     1       1.910  -8.442 -33.453  1.00  0.00    -0.000 C 
BRANCH  22  23
ATOM     23  C   UNL     1       2.975  -9.334 -34.115  1.00  0.00    -0.000 C 
BRANCH  23  24
ATOM     24  C   UNL     1       4.424  -8.858 -33.880  1.00  0.00    -0.000 C 
BRANCH  24  25
ATOM     25  C   UNL     1       5.194  -8.678 -35.201  1.00  0.00    -0.000 C 
BRANCH  25  26
ATOM     26  C   UNL     1       6.224  -7.541 -35.135  1.00  0.00    -0.000 C 
BRANCH  26  27
ATOM     27  C   UNL     1       5.912  -6.525 -34.022  1.00  0.00    -0.000 C 
BRANCH  27  28
ATOM     28  C   UNL     1       7.174  -6.043 -33.283  1.00  0.00    -0.000 C 
BRANCH  28  29
ATOM     29  C   UNL     1       6.983  -5.800 -31.776  1.00  0.00    -0.003 C 
ATOM     30  C   UNL     1       6.398  -7.008 -31.046  1.00  0.00     0.004 C 
ENDBRANCH  28  29
ENDBRANCH  27  28
ENDBRANCH  26  27
ENDBRANCH  25  26
ENDBRANCH  24  25
ENDBRANCH  23  24
ENDBRANCH  22  23
ENDBRANCH  21  22
ENDBRANCH  20  21
ENDBRANCH  19  20
ENDBRANCH  18  19
ENDBRANCH  17  18
ENDBRANCH   1  17
TORSDOF 26
ENDMDL
MODEL 2
REMARK VINA RESULT:    -4.688     11.207     14.167
REMARK INTER + INTRA:         -15.021
REMARK INTER:                 -11.806
REMARK INTRA:                  -3.215
REMARK UNBOUND:                -3.207
REMARK SMILES CCCCCCCCCCCCCCCCCCCCCCCCCCCC(=O)[O-]
REMARK SMILES IDX 15 1 16 2 17 3 18 4 19 5 20 6 21 7 22 8 23 9 24 10 25 11
REMARK SMILES IDX 26 12 27 13 28 14 29 15 30 16 14 17 13 18 12 19 11 20 10 21
REMARK SMILES IDX 9 22 8 23 7 24 6 25 5 26 4 27 3 28 2 29 1 30
REMARK H PARENT
REMARK Flexibility Score: inf
ROOT
ATOM      1  C   UNL     1       9.257 -11.343 -24.993  1.00  0.00     0.000 C 
ENDROOT
BRANCH   1   2
ATOM      2  C   UNL     1      10.733 -11.321 -25.439  1.00  0.00     0.000 C 
BRANCH   2   3
ATOM      3  C   UNL     1      10.961 -10.964 -26.918  1.00  0.00     0.000 C 
BRANCH   3   4
ATOM      4  C   UNL     1      10.641 -12.130 -27.869  1.00  0.00     0.000 C 
BRANCH   4   5
ATOM      5  C   UNL     1      11.303 -11.969 -29.253  1.00  0.00     0.000 C 
BRANCH   5   6
ATOM      6  C   UNL     1      11.871 -10.561 -29.517  1.00  0.00     0.000 C 
BRANCH   6   7
ATOM      7  C   UNL     1      13.093 -10.510 -30.452  1.00  0.00     0.000 C 
BRANCH   7   8
ATOM      8  C   UNL     1      13.269 -11.735 -31.369  1.00  0.00     0.000 C 
BRANCH   8   9
ATOM      9  C   UNL     1      14.697 -12.302 -31.344  1.00  0.00     0.000 C 
BRANCH   9  10
ATOM     10  C   UNL     1      14.967 -13.055 -30.033  1.00  0.00     0.000 C 
BRANCH  10  11
ATOM     11  C   UNL     1      16.164 -12.489 -29.251  1.00  0.00     0.000 C 
BRANCH  11  12
ATOM     12  C   UNL     1      15.890 -12.178 -27.766  1.00  0.00     0.006 C 
BRANCH  12  13
ATOM     13  C   UNL     1      14.424 -12.383 -27.343  1.00  0.00     0.053 C 
BRANCH  13  14
ATOM     14  C   UNL     1      14.257 -12.435 -25.855  1.00  0.00     0.041 C 
ATOM     15  O   UNL     1      13.665 -13.407 -25.316  1.00  0.00    -0.550 OA
ATOM     16  O   UNL     1      14.793 -11.432 -25.055  1.00  0.00    -0.550 OA
ENDBRANCH  13  14
ENDBRANCH  12  13
ENDBRANCH  11  12
ENDBRANCH  10  11
ENDBRANCH   9  10
ENDBRANCH   8   9
ENDBRANCH   7   8
ENDBRANCH   6   7
ENDBRANCH   5   6
ENDBRANCH   4   5
ENDBRANCH   3   4
ENDBRANCH   2   3
ENDBRANCH   1   2
BRANCH   1  17
ATOM     17  C   UNL     1       8.701 -12.732 -24.637  1.00  0.00     0.000 C 
BRANCH  17  18
ATOM     18  C   UNL     1       7.707 -12.693 -23.464  1.00  0.00     0.000 C 
BRANCH  18  19
ATOM     19  C   UNL     1       7.620 -14.030 -22.705  1.00  0.00     0.000 C 
BRANCH  19  20
ATOM     20  C   UNL     1       6.215 -14.415 -22.196  1.00  0.00     0.000 C 
BRANCH  20  21
ATOM     21  C   UNL     1       6.068 -14.513 -20.666  1.00  0.00     0.000 C 
BRANCH  21  22
ATOM     22  C   UNL     1       5.526 -13.221 -20.034  1.00  0.00    -0.000 C 
BRANCH  22  23
ATOM     23  C   UNL     1       4.822 -12.309 -21.054  1.00  0.00    -0.000 C 
BRANCH  23  24
ATOM     24  C   UNL     1       3.360 -11.974 -20.688  1.00  0.00    -0.000 C 
BRANCH  24  25
ATOM     25  C   UNL     1       2.410 -12.153 -21.886  1.00  0.00    -0.000 C 
BRANCH  25  26
ATOM     26  C   UNL     1       2.638 -13.477 -22.631  1.00  0.00    -0.000 C 
BRANCH  26  27
ATOM     27  C   UNL     1       2.626 -13.303 -24.160  1.00  0.00    -0.000 C 
BRANCH  27  28
ATOM     28  C   UNL     1       3.752 -14.087 -24.858  1.00  0.00    -0.000 C 
BRANCH  28  29
ATOM     29  C   UNL     1       4.748 -13.218 -25.646  1.00  0.00    -0.003 C 
ATOM     30  C   UNL     1       4.222 -12.802 -27.018  1.00  0.00     0.004 C 
ENDBRANCH  28  29
ENDBRANCH  27  28
ENDBRANCH  26  27
ENDBRANCH  25  26
ENDBRANCH  24  25
ENDBRANCH  23  24
ENDBRANCH  22  23
ENDBRANCH  21  22
ENDBRANCH  20  21
ENDBRANCH  19  20
ENDBRANCH  18  19
ENDBRANCH  17  18
ENDBRANCH   1  17
TORSDOF 26
ENDMDL
MODEL 3
REMARK VINA RESULT:    -4.680      4.079     10.693
REMARK INTER + INTRA:         -15.001
REMARK INTER:                 -11.766
REMARK INTRA:                  -3.235
REMARK UNBOUND:                -3.207
REMARK SMILES CCCCCCCCCCCCCCCCCCCCCCCCCCCC(=O)[O-]
REMARK SMILES IDX 15 1 16 2 17 3 18 4 19 5 20 6 21 7 22 8 23 9 24 10 25 11
REMARK SMILES IDX 26 12 27 13 28 14 29 15 30 16 14 17 13 18 12 19 11 20 10 21
REMARK SMILES IDX 9 22 8 23 7 24 6 25 5 26 4 27 3 28 2 29 1 30
REMARK H PARENT
REMARK Flexibility Score: inf
ROOT
ATOM      1  C   UNL     1      11.141   0.801 -33.399  1.00  0.00     0.000 C 
ENDROOT
BRANCH   1   2
ATOM      2  C   UNL     1      11.018  -0.731 -33.510  1.00  0.00     0.000 C 
BRANCH   2   3
ATOM      3  C   UNL     1      12.076  -1.406 -34.400  1.00  0.00     0.000 C 
BRANCH   3   4
ATOM      4  C   UNL     1      11.493  -1.945 -35.717  1.00  0.00     0.000 C 
BRANCH   4   5
ATOM      5  C   UNL     1       9.981  -1.670 -35.857  1.00  0.00     0.000 C 
BRANCH   5   6
ATOM      6  C   UNL     1       9.415  -1.972 -37.257  1.00  0.00     0.000 C 
BRANCH   6   7
ATOM      7  C   UNL     1       8.121  -2.808 -37.277  1.00  0.00     0.000 C 
BRANCH   7   8
ATOM      8  C   UNL     1       6.819  -1.998 -37.420  1.00  0.00     0.000 C 
BRANCH   8   9
ATOM      9  C   UNL     1       5.608  -2.693 -36.781  1.00  0.00     0.000 C 
BRANCH   9  10
ATOM     10  C   UNL     1       6.055  -3.719 -35.729  1.00  0.00     0.000 C 
BRANCH  10  11
ATOM     11  C   UNL     1       6.095  -3.140 -34.304  1.00  0.00     0.000 C 
BRANCH  11  12
ATOM     12  C   UNL     1       7.447  -3.280 -33.576  1.00  0.00     0.006 C 
BRANCH  12  13
ATOM     13  C   UNL     1       8.240  -4.541 -33.964  1.00  0.00     0.053 C 
BRANCH  13  14
ATOM     14  C   UNL     1       7.828  -5.745 -33.174  1.00  0.00     0.041 C 
ATOM     15  O   UNL     1       8.498  -6.105 -32.170  1.00  0.00    -0.550 OA
ATOM     16  O   UNL     1       6.678  -6.447 -33.517  1.00  0.00    -0.550 OA
ENDBRANCH  13  14
ENDBRANCH  12  13
ENDBRANCH  11  12
ENDBRANCH  10  11
ENDBRANCH   9  10
ENDBRANCH   8   9
ENDBRANCH   7   8
ENDBRANCH   6   7
ENDBRANCH   5   6
ENDBRANCH   4   5
ENDBRANCH   3   4
ENDBRANCH   2   3
ENDBRANCH   1   2
BRANCH   1  17
ATOM     17  C   UNL     1      11.222   1.349 -31.964  1.00  0.00     0.000 C 
BRANCH  17  18
ATOM     18  C   UNL     1      10.460   2.673 -31.788  1.00  0.00     0.000 C 
BRANCH  18  19
ATOM     19  C   UNL     1       8.933   2.484 -31.725  1.00  0.00     0.000 C 
BRANCH  19  20
ATOM     20  C   UNL     1       8.224   3.185 -30.546  1.00  0.00     0.000 C 
BRANCH  20  21
ATOM     21  C   UNL     1       9.128   4.060 -29.656  1.00  0.00     0.000 C 
BRANCH  21  22
ATOM     22  C   UNL     1       8.814   3.911 -28.158  1.00  0.00    -0.000 C 
BRANCH  22  23
ATOM     23  C   UNL     1       8.805   2.444 -27.694  1.00  0.00    -0.000 C 
BRANCH  23  24
ATOM     24  C   UNL     1       8.397   2.259 -26.217  1.00  0.00    -0.000 C 
BRANCH  24  25
ATOM     25  C   UNL     1       8.778   3.477 -25.356  1.00  0.00    -0.000 C 
BRANCH  25  26
ATOM     26  C   UNL     1      10.157   3.327 -24.695  1.00  0.00    -0.000 C 
BRANCH  26  27
ATOM     27  C   UNL     1      11.246   4.148 -25.407  1.00  0.00    -0.000 C 
BRANCH  27  28
ATOM     28  C   UNL     1      12.313   3.267 -26.081  1.00  0.00    -0.000 C 
BRANCH  28  29
ATOM     29  C   UNL     1      12.641   3.651 -27.534  1.00  0.00    -0.003 C 
ATOM     30  C   UNL     1      12.389   2.514 -28.523  1.00  0.00     0.004 C 
ENDBRANCH  28  29
ENDBRANCH  27  28
ENDBRANCH  26  27
ENDBRANCH  25  26
ENDBRANCH  24  25
ENDBRANCH  23  24
ENDBRANCH  22  23
ENDBRANCH  21  22
ENDBRANCH  20  21
ENDBRANCH  19  20
ENDBRANCH  18  19
ENDBRANCH  17  18
ENDBRANCH   1  17
TORSDOF 26
ENDMDL
MODEL 4
REMARK VINA RESULT:    -4.680     11.411     15.878
REMARK INTER + INTRA:         -15.001
REMARK INTER:                 -12.241
REMARK INTRA:                  -2.759
REMARK UNBOUND:                -3.207
REMARK SMILES CCCCCCCCCCCCCCCCCCCCCCCCCCCC(=O)[O-]
REMARK SMILES IDX 15 1 16 2 17 3 18 4 19 5 20 6 21 7 22 8 23 9 24 10 25 11
REMARK SMILES IDX 26 12 27 13 28 14 29 15 30 16 14 17 13 18 12 19 11 20 10 21
REMARK SMILES IDX 9 22 8 23 7 24 6 25 5 26 4 27 3 28 2 29 1 30
REMARK H PARENT
REMARK Flexibility Score: inf
ROOT
ATOM      1  C   UNL     1       7.989 -12.633 -23.467  1.00  0.00     0.000 C 
ENDROOT
BRANCH   1   2
ATOM      2  C   UNL     1       7.960 -14.153 -23.724  1.00  0.00     0.000 C 
BRANCH   2   3
ATOM      3  C   UNL     1       7.692 -15.017 -22.480  1.00  0.00     0.000 C 
BRANCH   3   4
ATOM      4  C   UNL     1       6.230 -14.943 -22.006  1.00  0.00     0.000 C 
BRANCH   4   5
ATOM      5  C   UNL     1       6.107 -14.762 -20.479  1.00  0.00     0.000 C 
BRANCH   5   6
ATOM      6  C   UNL     1       5.574 -13.380 -20.052  1.00  0.00     0.000 C 
BRANCH   6   7
ATOM      7  C   UNL     1       5.011 -12.512 -21.193  1.00  0.00     0.000 C 
BRANCH   7   8
ATOM      8  C   UNL     1       3.655 -11.845 -20.901  1.00  0.00     0.000 C 
BRANCH   8   9
ATOM      9  C   UNL     1       2.564 -12.241 -21.907  1.00  0.00     0.000 C 
BRANCH   9  10
ATOM     10  C   UNL     1       2.390 -13.767 -21.957  1.00  0.00     0.000 C 
BRANCH  10  11
ATOM     11  C   UNL     1       2.666 -14.357 -23.350  1.00  0.00     0.000 C 
BRANCH  11  12
ATOM     12  C   UNL     1       3.058 -13.332 -24.432  1.00  0.00     0.006 C 
BRANCH  12  13
ATOM     13  C   UNL     1       4.560 -13.318 -24.769  1.00  0.00     0.053 C 
BRANCH  13  14
ATOM     14  C   UNL     1       4.819 -13.213 -26.240  1.00  0.00     0.041 C 
ATOM     15  O   UNL     1       5.826 -13.771 -26.749  1.00  0.00    -0.550 OA
ATOM     16  O   UNL     1       3.925 -12.535 -27.061  1.00  0.00    -0.550 OA
ENDBRANCH  13  14
ENDBRANCH  12  13
ENDBRANCH  11  12
ENDBRANCH  10  11
ENDBRANCH   9  10
ENDBRANCH   8   9
ENDBRANCH   7   8
ENDBRANCH   6   7
ENDBRANCH   5   6
ENDBRANCH   4   5
ENDBRANCH   3   4
ENDBRANCH   2   3
ENDBRANCH   1   2
BRANCH   1  17
ATOM     17  C   UNL     1       8.384 -11.772 -24.680  1.00  0.00     0.000 C 
BRANCH  17  18
ATOM     18  C   UNL     1       9.421 -12.458 -25.584  1.00  0.00     0.000 C 
BRANCH  18  19
ATOM     19  C   UNL     1      10.771 -11.718 -25.619  1.00  0.00     0.000 C 
BRANCH  19  20
ATOM     20  C   UNL     1      11.093 -10.985 -26.939  1.00  0.00     0.000 C 
BRANCH  20  21
ATOM     21  C   UNL     1      10.932 -11.825 -28.220  1.00  0.00     0.000 C 
BRANCH  21  22
ATOM     22  C   UNL     1      11.157 -11.007 -29.502  1.00  0.00    -0.000 C 
BRANCH  22  23
ATOM     23  C   UNL     1      12.637 -10.948 -29.920  1.00  0.00    -0.000 C 
BRANCH  23  24
ATOM     24  C   UNL     1      13.115 -12.189 -30.703  1.00  0.00    -0.000 C 
BRANCH  24  25
ATOM     25  C   UNL     1      14.266 -11.854 -31.669  1.00  0.00    -0.000 C 
BRANCH  25  26
ATOM     26  C   UNL     1      15.647 -12.181 -31.080  1.00  0.00    -0.000 C 
BRANCH  26  27
ATOM     27  C   UNL     1      16.554 -12.920 -32.079  1.00  0.00    -0.000 C 
BRANCH  27  28
ATOM     28  C   UNL     1      16.235 -12.574 -33.545  1.00  0.00    -0.000 C 
BRANCH  28  29
ATOM     29  C   UNL     1      17.271 -11.669 -34.233  1.00  0.00    -0.003 C 
ATOM     30  C   UNL     1      18.556 -11.509 -33.422  1.00  0.00     0.004 C 
ENDBRANCH  28  29
ENDBRANCH  27  28
ENDBRANCH  26  27
ENDBRANCH  25  26
ENDBRANCH  24  25
ENDBRANCH  23  24
ENDBRANCH  22  23
ENDBRANCH  21  22
ENDBRANCH  20  21
ENDBRANCH  19  20
ENDBRANCH  18  19
ENDBRANCH  17  18
ENDBRANCH   1  17
TORSDOF 26
ENDMDL
MODEL 5
REMARK VINA RESULT:    -4.619     11.301     14.000
REMARK INTER + INTRA:         -14.847
REMARK INTER:                 -12.468
REMARK INTRA:                  -2.379
REMARK UNBOUND:                -3.207
REMARK SMILES CCCCCCCCCCCCCCCCCCCCCCCCCCCC(=O)[O-]
REMARK SMILES IDX 15 1 16 2 17 3 18 4 19 5 20 6 21 7 22 8 23 9 24 10 25 11
REMARK SMILES IDX 26 12 27 13 28 14 29 15 30 16 14 17 13 18 12 19 11 20 10 21
REMARK SMILES IDX 9 22 8 23 7 24 6 25 5 26 4 27 3 28 2 29 1 30
REMARK H PARENT
REMARK Flexibility Score: inf
ROOT
ATOM      1  C   UNL     1       9.019 -11.275 -25.013  1.00  0.00     0.000 C 
ENDROOT
BRANCH   1   2
ATOM      2  C   UNL     1      10.152 -11.980 -25.785  1.00  0.00     0.000 C 
BRANCH   2   3
ATOM      3  C   UNL     1      10.998 -11.059 -26.681  1.00  0.00     0.000 C 
BRANCH   3   4
ATOM      4  C   UNL     1      11.302 -11.679 -28.056  1.00  0.00     0.000 C 
BRANCH   4   5
ATOM      5  C   UNL     1      11.368 -10.627 -29.183  1.00  0.00     0.000 C 
BRANCH   5   6
ATOM      6  C   UNL     1      12.481 -10.884 -30.216  1.00  0.00     0.000 C 
BRANCH   6   7
ATOM      7  C   UNL     1      13.330 -12.145 -29.968  1.00  0.00     0.000 C 
BRANCH   7   8
ATOM      8  C   UNL     1      14.801 -11.883 -29.598  1.00  0.00     0.000 C 
BRANCH   8   9
ATOM      9  C   UNL     1      15.767 -12.130 -30.767  1.00  0.00     0.000 C 
BRANCH   9  10
ATOM     10  C   UNL     1      14.997 -12.440 -32.060  1.00  0.00     0.000 C 
BRANCH  10  11
ATOM     11  C   UNL     1      15.896 -12.996 -33.176  1.00  0.00     0.000 C 
BRANCH  11  12
ATOM     12  C   UNL     1      16.925 -12.001 -33.747  1.00  0.00     0.006 C 
BRANCH  12  13
ATOM     13  C   UNL     1      18.387 -12.465 -33.613  1.00  0.00     0.053 C 
BRANCH  13  14
ATOM     14  C   UNL     1      19.169 -11.632 -32.644  1.00  0.00     0.041 C 
ATOM     15  O   UNL     1      19.193 -11.935 -31.422  1.00  0.00    -0.550 OA
ATOM     16  O   UNL     1      19.909 -10.546 -33.094  1.00  0.00    -0.550 OA
ENDBRANCH  13  14
ENDBRANCH  12  13
ENDBRANCH  11  12
ENDBRANCH  10  11
ENDBRANCH   9  10
ENDBRANCH   8   9
ENDBRANCH   7   8
ENDBRANCH   6   7
ENDBRANCH   5   6
ENDBRANCH   4   5
ENDBRANCH   3   4
ENDBRANCH   2   3
ENDBRANCH   1   2
BRANCH   1  17
ATOM     17  C   UNL     1       7.745 -12.114 -24.810  1.00  0.00     0.000 C 
BRANCH  17  18
ATOM     18  C   UNL     1       7.740 -12.873 -23.472  1.00  0.00     0.000 C 
BRANCH  18  19
ATOM     19  C   UNL     1       6.378 -12.816 -22.755  1.00  0.00     0.000 C 
BRANCH  19  20
ATOM     20  C   UNL     1       6.207 -13.797 -21.574  1.00  0.00     0.000 C 
BRANCH  20  21
ATOM     21  C   UNL     1       5.261 -13.325 -20.453  1.00  0.00     0.000 C 
BRANCH  21  22
ATOM     22  C   UNL     1       4.638 -11.949 -20.738  1.00  0.00    -0.000 C 
BRANCH  22  23
ATOM     23  C   UNL     1       3.101 -11.960 -20.648  1.00  0.00    -0.000 C 
BRANCH  23  24
ATOM     24  C   UNL     1       2.395 -11.760 -22.006  1.00  0.00    -0.000 C 
BRANCH  24  25
ATOM     25  C   UNL     1       2.152 -13.095 -22.732  1.00  0.00    -0.000 C 
BRANCH  25  26
ATOM     26  C   UNL     1       2.781 -13.130 -24.133  1.00  0.00    -0.000 C 
BRANCH  26  27
ATOM     27  C   UNL     1       3.389 -14.502 -24.473  1.00  0.00    -0.000 C 
BRANCH  27  28
ATOM     28  C   UNL     1       4.648 -14.396 -25.352  1.00  0.00    -0.000 C 
BRANCH  28  29
ATOM     29  C   UNL     1       4.627 -13.243 -26.370  1.00  0.00    -0.003 C 
ATOM     30  C   UNL     1       5.440 -13.542 -27.629  1.00  0.00     0.004 C 
ENDBRANCH  28  29
ENDBRANCH  27  28
ENDBRANCH  26  27
ENDBRANCH  25  26
ENDBRANCH  24  25
ENDBRANCH  23  24
ENDBRANCH  22  23
ENDBRANCH  21  22
ENDBRANCH  20  21
ENDBRANCH  19  20
ENDBRANCH  18  19
ENDBRANCH  17  18
ENDBRANCH   1  17
TORSDOF 26
ENDMDL
MODEL 6
REMARK VINA RESULT:    -4.617      1.509      3.753
REMARK INTER + INTRA:         -14.842
REMARK INTER:                 -11.081
REMARK INTRA:                  -3.761
REMARK UNBOUND:                -3.207
REMARK SMILES CCCCCCCCCCCCCCCCCCCCCCCCCCCC(=O)[O-]
REMARK SMILES IDX 15 1 16 2 17 3 18 4 19 5 20 6 21 7 22 8 23 9 24 10 25 11
REMARK SMILES IDX 26 12 27 13 28 14 29 15 30 16 14 17 13 18 12 19 11 20 10 21
REMARK SMILES IDX 9 22 8 23 7 24 6 25 5 26 4 27 3 28 2 29 1 30
REMARK H PARENT
REMARK Flexibility Score: inf
ROOT
ATOM      1  C   UNL     1       6.871  -5.489 -33.927  1.00  0.00     0.000 C 
ENDROOT
BRANCH   1   2
ATOM      2  C   UNL     1       7.313  -4.230 -33.155  1.00  0.00     0.000 C 
BRANCH   2   3
ATOM      3  C   UNL     1       6.767  -2.903 -33.709  1.00  0.00     0.000 C 
BRANCH   3   4
ATOM      4  C   UNL     1       5.756  -3.104 -34.851  1.00  0.00     0.000 C 
BRANCH   4   5
ATOM      5  C   UNL     1       6.322  -2.696 -36.228  1.00  0.00     0.000 C 
BRANCH   5   6
ATOM      6  C   UNL     1       7.826  -2.362 -36.214  1.00  0.00     0.000 C 
BRANCH   6   7
ATOM      7  C   UNL     1       8.589  -2.713 -37.504  1.00  0.00     0.000 C 
BRANCH   7   8
ATOM      8  C   UNL     1       9.965  -2.039 -37.656  1.00  0.00     0.000 C 
BRANCH   8   9
ATOM      9  C   UNL     1      10.379  -1.236 -36.414  1.00  0.00     0.000 C 
BRANCH   9  10
ATOM     10  C   UNL     1      11.774  -1.655 -35.928  1.00  0.00     0.000 C 
BRANCH  10  11
ATOM     11  C   UNL     1      11.957  -1.491 -34.410  1.00  0.00     0.000 C 
BRANCH  11  12
ATOM     12  C   UNL     1      10.961  -0.531 -33.729  1.00  0.00     0.006 C 
BRANCH  12  13
ATOM     13  C   UNL     1      11.427  -0.015 -32.356  1.00  0.00     0.053 C 
BRANCH  13  14
ATOM     14  C   UNL     1      10.960   1.381 -32.077  1.00  0.00     0.041 C 
ATOM     15  O   UNL     1      11.761   2.237 -31.617  1.00  0.00    -0.550 OA
ATOM     16  O   UNL     1       9.652   1.752 -32.366  1.00  0.00    -0.550 OA
ENDBRANCH  13  14
ENDBRANCH  12  13
ENDBRANCH  11  12
ENDBRANCH  10  11
ENDBRANCH   9  10
ENDBRANCH   8   9
ENDBRANCH   7   8
ENDBRANCH   6   7
ENDBRANCH   5   6
ENDBRANCH   4   5
ENDBRANCH   3   4
ENDBRANCH   2   3
ENDBRANCH   1   2
BRANCH   1  17
ATOM     17  C   UNL     1       8.004  -6.260 -34.626  1.00  0.00     0.000 C 
BRANCH  17  18
ATOM     18  C   UNL     1       7.497  -7.160 -35.765  1.00  0.00     0.000 C 
BRANCH  18  19
ATOM     19  C   UNL     1       6.857  -6.365 -36.918  1.00  0.00     0.000 C 
BRANCH  19  20
ATOM     20  C   UNL     1       5.394  -6.733 -37.248  1.00  0.00     0.000 C 
BRANCH  20  21
ATOM     21  C   UNL     1       4.449  -5.539 -37.484  1.00  0.00     0.000 C 
BRANCH  21  22
ATOM     22  C   UNL     1       3.139  -5.648 -36.687  1.00  0.00    -0.000 C 
BRANCH  22  23
ATOM     23  C   UNL     1       2.571  -7.078 -36.667  1.00  0.00    -0.000 C 
BRANCH  23  24
ATOM     24  C   UNL     1       1.487  -7.304 -35.592  1.00  0.00    -0.000 C 
BRANCH  24  25
ATOM     25  C   UNL     1       0.892  -8.723 -35.662  1.00  0.00    -0.000 C 
BRANCH  25  26
ATOM     26  C   UNL     1       1.932  -9.816 -35.373  1.00  0.00    -0.000 C 
BRANCH  26  27
ATOM     27  C   UNL     1       2.330  -9.875 -33.888  1.00  0.00    -0.000 C 
BRANCH  27  28
ATOM     28  C   UNL     1       3.812 -10.238 -33.681  1.00  0.00    -0.000 C 
BRANCH  28  29
ATOM     29  C   UNL     1       4.801  -9.097 -33.975  1.00  0.00    -0.003 C 
ATOM     30  C   UNL     1       4.332  -7.747 -33.436  1.00  0.00     0.004 C 
ENDBRANCH  28  29
ENDBRANCH  27  28
ENDBRANCH  26  27
ENDBRANCH  25  26
ENDBRANCH  24  25
ENDBRANCH  23  24
ENDBRANCH  22  23
ENDBRANCH  21  22
ENDBRANCH  20  21
ENDBRANCH  19  20
ENDBRANCH  18  19
ENDBRANCH  17  18
ENDBRANCH   1  17
TORSDOF 26
ENDMDL
MODEL 7
REMARK VINA RESULT:    -4.607     11.156     13.978
REMARK INTER + INTRA:         -14.816
REMARK INTER:                 -12.436
REMARK INTRA:                  -2.380
REMARK UNBOUND:                -3.207
REMARK SMILES CCCCCCCCCCCCCCCCCCCCCCCCCCCC(=O)[O-]
REMARK SMILES IDX 15 1 16 2 17 3 18 4 19 5 20 6 21 7 22 8 23 9 24 10 25 11
REMARK SMILES IDX 26 12 27 13 28 14 29 15 30 16 14 17 13 18 12 19 11 20 10 21
REMARK SMILES IDX 9 22 8 23 7 24 6 25 5 26 4 27 3 28 2 29 1 30
REMARK H PARENT
REMARK Flexibility Score: inf
ROOT
ATOM      1  C   UNL     1       7.835 -12.872 -23.426  1.00  0.00     0.000 C 
ENDROOT
BRANCH   1   2
ATOM      2  C   UNL     1       7.966 -12.261 -24.835  1.00  0.00     0.000 C 
BRANCH   2   3
ATOM      3  C   UNL     1       9.118 -11.255 -25.003  1.00  0.00     0.000 C 
BRANCH   3   4
ATOM      4  C   UNL     1      10.362 -11.876 -25.661  1.00  0.00     0.000 C 
BRANCH   4   5
ATOM      5  C   UNL     1      10.991 -10.959 -26.731  1.00  0.00     0.000 C 
BRANCH   5   6
ATOM      6  C   UNL     1      11.121 -11.614 -28.120  1.00  0.00     0.000 C 
BRANCH   6   7
ATOM      7  C   UNL     1      11.367 -10.638 -29.286  1.00  0.00     0.000 C 
BRANCH   7   8
ATOM      8  C   UNL     1      12.580 -10.972 -30.175  1.00  0.00     0.000 C 
BRANCH   8   9
ATOM      9  C   UNL     1      13.314 -12.246 -29.732  1.00  0.00     0.000 C 
BRANCH   9  10
ATOM     10  C   UNL     1      14.791 -11.953 -29.430  1.00  0.00     0.000 C 
BRANCH  10  11
ATOM     11  C   UNL     1      15.752 -12.945 -30.107  1.00  0.00     0.000 C 
BRANCH  11  12
ATOM     12  C   UNL     1      16.628 -12.350 -31.227  1.00  0.00     0.006 C 
BRANCH  12  13
ATOM     13  C   UNL     1      15.958 -12.348 -32.613  1.00  0.00     0.053 C 
BRANCH  13  14
ATOM     14  C   UNL     1      16.916 -12.010 -33.715  1.00  0.00     0.041 C 
ATOM     15  O   UNL     1      18.023 -11.472 -33.450  1.00  0.00    -0.550 OA
ATOM     16  O   UNL     1      16.607 -12.328 -35.032  1.00  0.00    -0.550 OA
ENDBRANCH  13  14
ENDBRANCH  12  13
ENDBRANCH  11  12
ENDBRANCH  10  11
ENDBRANCH   9  10
ENDBRANCH   8   9
ENDBRANCH   7   8
ENDBRANCH   6   7
ENDBRANCH   5   6
ENDBRANCH   4   5
ENDBRANCH   3   4
ENDBRANCH   2   3
ENDBRANCH   1   2
BRANCH   1  17
ATOM     17  C   UNL     1       6.396 -12.984 -22.892  1.00  0.00     0.000 C 
BRANCH  17  18
ATOM     18  C   UNL     1       6.277 -13.947 -21.699  1.00  0.00     0.000 C 
BRANCH  18  19
ATOM     19  C   UNL     1       5.408 -13.387 -20.559  1.00  0.00     0.000 C 
BRANCH  19  20
ATOM     20  C   UNL     1       4.687 -12.056 -20.865  1.00  0.00     0.000 C 
BRANCH  20  21
ATOM     21  C   UNL     1       3.154 -12.083 -20.708  1.00  0.00     0.000 C 
BRANCH  21  22
ATOM     22  C   UNL     1       2.415 -11.706 -22.003  1.00  0.00    -0.000 C 
BRANCH  22  23
ATOM     23  C   UNL     1       2.725 -12.665 -23.166  1.00  0.00    -0.000 C 
BRANCH  23  24
ATOM     24  C   UNL     1       2.039 -14.043 -23.039  1.00  0.00    -0.000 C 
BRANCH  24  25
ATOM     25  C   UNL     1       1.277 -14.427 -24.320  1.00  0.00    -0.000 C 
BRANCH  25  26
ATOM     26  C   UNL     1       1.443 -13.391 -25.442  1.00  0.00    -0.000 C 
BRANCH  26  27
ATOM     27  C   UNL     1       1.591 -14.042 -26.829  1.00  0.00    -0.000 C 
BRANCH  27  28
ATOM     28  C   UNL     1       2.784 -13.483 -27.626  1.00  0.00    -0.000 C 
BRANCH  28  29
ATOM     29  C   UNL     1       3.928 -12.923 -26.764  1.00  0.00    -0.003 C 
ATOM     30  C   UNL     1       4.822 -14.014 -26.177  1.00  0.00     0.004 C 
ENDBRANCH  28  29
ENDBRANCH  27  28
ENDBRANCH  26  27
ENDBRANCH  25  26
ENDBRANCH  24  25
ENDBRANCH  23  24
ENDBRANCH  22  23
ENDBRANCH  21  22
ENDBRANCH  20  21
ENDBRANCH  19  20
ENDBRANCH  18  19
ENDBRANCH  17  18
ENDBRANCH   1  17
TORSDOF 26
ENDMDL
MODEL 8
REMARK VINA RESULT:    -4.604      2.287      3.280
REMARK INTER + INTRA:         -14.809
REMARK INTER:                 -11.528
REMARK INTRA:                  -3.280
REMARK UNBOUND:                -3.207
REMARK SMILES CCCCCCCCCCCCCCCCCCCCCCCCCCCC(=O)[O-]
REMARK SMILES IDX 15 1 16 2 17 3 18 4 19 5 20 6 21 7 22 8 23 9 24 10 25 11
REMARK SMILES IDX 26 12 27 13 28 14 29 15 30 16 14 17 13 18 12 19 11 20 10 21
REMARK SMILES IDX 9 22 8 23 7 24 6 25 5 26 4 27 3 28 2 29 1 30
REMARK H PARENT
REMARK Flexibility Score: inf
ROOT
ATOM      1  C   UNL     1       5.009  -3.270 -35.133  1.00  0.00     0.000 C 
ENDROOT
BRANCH   1   2
ATOM      2  C   UNL     1       6.453  -2.741 -35.021  1.00  0.00     0.000 C 
BRANCH   2   3
ATOM      3  C   UNL     1       7.334  -2.989 -36.258  1.00  0.00     0.000 C 
BRANCH   3   4
ATOM      4  C   UNL     1       8.695  -2.277 -36.173  1.00  0.00     0.000 C 
BRANCH   4   5
ATOM      5  C   UNL     1       9.429  -2.549 -34.844  1.00  0.00     0.000 C 
BRANCH   5   6
ATOM      6  C   UNL     1       9.808  -1.276 -34.064  1.00  0.00     0.000 C 
BRANCH   6   7
ATOM      7  C   UNL     1      11.292  -0.870 -34.149  1.00  0.00     0.000 C 
BRANCH   7   8
ATOM      8  C   UNL     1      11.594   0.592 -33.771  1.00  0.00     0.000 C 
BRANCH   8   9
ATOM      9  C   UNL     1      10.958   1.009 -32.437  1.00  0.00     0.000 C 
BRANCH   9  10
ATOM     10  C   UNL     1      11.167   2.508 -32.173  1.00  0.00     0.000 C 
BRANCH  10  11
ATOM     11  C   UNL     1      10.976   2.890 -30.696  1.00  0.00     0.000 C 
BRANCH  11  12
ATOM     12  C   UNL     1      12.279   3.082 -29.894  1.00  0.00     0.006 C 
BRANCH  12  13
ATOM     13  C   UNL     1      12.251   2.447 -28.492  1.00  0.00     0.053 C 
BRANCH  13  14
ATOM     14  C   UNL     1      12.220   3.470 -27.397  1.00  0.00     0.041 C 
ATOM     15  O   UNL     1      12.415   3.126 -26.202  1.00  0.00    -0.550 OA
ATOM     16  O   UNL     1      12.021   4.811 -27.699  1.00  0.00    -0.550 OA
ENDBRANCH  13  14
ENDBRANCH  12  13
ENDBRANCH  11  12
ENDBRANCH  10  11
ENDBRANCH   9  10
ENDBRANCH   8   9
ENDBRANCH   7   8
ENDBRANCH   6   7
ENDBRANCH   5   6
ENDBRANCH   4   5
ENDBRANCH   3   4
ENDBRANCH   2   3
ENDBRANCH   1   2
BRANCH   1  17
ATOM     17  C   UNL     1       4.162  -2.630 -36.246  1.00  0.00     0.000 C 
BRANCH  17  18
ATOM     18  C   UNL     1       3.745  -3.638 -37.330  1.00  0.00     0.000 C 
BRANCH  18  19
ATOM     19  C   UNL     1       4.056  -5.096 -36.947  1.00  0.00     0.000 C 
BRANCH  19  20
ATOM     20  C   UNL     1       2.856  -6.066 -36.990  1.00  0.00     0.000 C 
BRANCH  20  21
ATOM     21  C   UNL     1       3.162  -7.517 -36.573  1.00  0.00     0.000 C 
BRANCH  21  22
ATOM     22  C   UNL     1       3.335  -7.678 -35.054  1.00  0.00    -0.000 C 
BRANCH  22  23
ATOM     23  C   UNL     1       4.800  -7.911 -34.642  1.00  0.00    -0.000 C 
BRANCH  23  24
ATOM     24  C   UNL     1       5.706  -8.384 -35.799  1.00  0.00    -0.000 C 
BRANCH  24  25
ATOM     25  C   UNL     1       6.985  -7.535 -35.914  1.00  0.00    -0.000 C 
BRANCH  25  26
ATOM     26  C   UNL     1       7.006  -6.359 -34.926  1.00  0.00    -0.000 C 
BRANCH  26  27
ATOM     27  C   UNL     1       8.393  -6.141 -34.297  1.00  0.00    -0.000 C 
BRANCH  27  28
ATOM     28  C   UNL     1       8.320  -5.754 -32.808  1.00  0.00    -0.000 C 
BRANCH  28  29
ATOM     29  C   UNL     1       6.894  -5.626 -32.246  1.00  0.00    -0.003 C 
ATOM     30  C   UNL     1       6.505  -6.789 -31.333  1.00  0.00     0.004 C 
ENDBRANCH  28  29
ENDBRANCH  27  28
ENDBRANCH  26  27
ENDBRANCH  25  26
ENDBRANCH  24  25
ENDBRANCH  23  24
ENDBRANCH  22  23
ENDBRANCH  21  22
ENDBRANCH  20  21
ENDBRANCH  19  20
ENDBRANCH  18  19
ENDBRANCH  17  18
ENDBRANCH   1  17
TORSDOF 26
ENDMDL
MODEL 9
REMARK VINA RESULT:    -4.588      4.825      9.751
REMARK INTER + INTRA:         -14.767
REMARK INTER:                 -10.723
REMARK INTRA:                  -4.044
REMARK UNBOUND:                -3.207
REMARK SMILES CCCCCCCCCCCCCCCCCCCCCCCCCCCC(=O)[O-]
REMARK SMILES IDX 15 1 16 2 17 3 18 4 19 5 20 6 21 7 22 8 23 9 24 10 25 11
REMARK SMILES IDX 26 12 27 13 28 14 29 15 30 16 14 17 13 18 12 19 11 20 10 21
REMARK SMILES IDX 9 22 8 23 7 24 6 25 5 26 4 27 3 28 2 29 1 30
REMARK H PARENT
REMARK Flexibility Score: inf
ROOT
ATOM      1  C   UNL     1       3.469  -6.765 -36.324  1.00  0.00     0.000 C 
ENDROOT
BRANCH   1   2
ATOM      2  C   UNL     1       1.955  -7.044 -36.258  1.00  0.00     0.000 C 
BRANCH   2   3
ATOM      3  C   UNL     1       1.450  -7.576 -34.906  1.00  0.00     0.000 C 
BRANCH   3   4
ATOM      4  C   UNL     1       0.889  -9.005 -34.999  1.00  0.00     0.000 C 
BRANCH   4   5
ATOM      5  C   UNL     1       1.953 -10.084 -34.708  1.00  0.00     0.000 C 
BRANCH   5   6
ATOM      6  C   UNL     1       2.248 -11.012 -35.902  1.00  0.00     0.000 C 
BRANCH   6   7
ATOM      7  C   UNL     1       3.153 -12.218 -35.589  1.00  0.00     0.000 C 
BRANCH   7   8
ATOM      8  C   UNL     1       2.416 -13.490 -35.133  1.00  0.00     0.000 C 
BRANCH   8   9
ATOM      9  C   UNL     1       2.904 -14.010 -33.772  1.00  0.00     0.000 C 
BRANCH   9  10
ATOM     10  C   UNL     1       2.030 -13.467 -32.631  1.00  0.00     0.000 C 
BRANCH  10  11
ATOM     11  C   UNL     1       2.851 -12.842 -31.491  1.00  0.00     0.000 C 
BRANCH  11  12
ATOM     12  C   UNL     1       3.239 -11.364 -31.696  1.00  0.00     0.006 C 
BRANCH  12  13
ATOM     13  C   UNL     1       4.631 -11.162 -32.321  1.00  0.00     0.053 C 
BRANCH  13  14
ATOM     14  C   UNL     1       5.741 -11.395 -31.342  1.00  0.00     0.041 C 
ATOM     15  O   UNL     1       6.820 -11.922 -31.720  1.00  0.00    -0.550 OA
ATOM     16  O   UNL     1       5.603 -10.991 -30.019  1.00  0.00    -0.550 OA
ENDBRANCH  13  14
ENDBRANCH  12  13
ENDBRANCH  11  12
ENDBRANCH  10  11
ENDBRANCH   9  10
ENDBRANCH   8   9
ENDBRANCH   7   8
ENDBRANCH   6   7
ENDBRANCH   5   6
ENDBRANCH   4   5
ENDBRANCH   3   4
ENDBRANCH   2   3
ENDBRANCH   1   2
BRANCH   1  17
ATOM     17  C   UNL     1       4.355  -8.005 -36.537  1.00  0.00     0.000 C 
BRANCH  17  18
ATOM     18  C   UNL     1       5.217  -8.338 -35.308  1.00  0.00     0.000 C 
BRANCH  18  19
ATOM     19  C   UNL     1       5.513  -7.108 -34.430  1.00  0.00     0.000 C 
BRANCH  19  20
ATOM     20  C   UNL     1       5.022  -7.200 -32.969  1.00  0.00     0.000 C 
BRANCH  20  21
ATOM     21  C   UNL     1       6.127  -7.382 -31.910  1.00  0.00     0.000 C 
BRANCH  21  22
ATOM     22  C   UNL     1       6.969  -6.113 -31.702  1.00  0.00    -0.000 C 
BRANCH  22  23
ATOM     23  C   UNL     1       8.171  -6.032 -32.660  1.00  0.00    -0.000 C 
BRANCH  23  24
ATOM     24  C   UNL     1       8.227  -4.726 -33.481  1.00  0.00    -0.000 C 
BRANCH  24  25
ATOM     25  C   UNL     1       7.303  -3.640 -32.902  1.00  0.00    -0.000 C 
BRANCH  25  26
ATOM     26  C   UNL     1       6.353  -3.047 -33.953  1.00  0.00    -0.000 C 
BRANCH  26  27
ATOM     27  C   UNL     1       6.662  -3.547 -35.376  1.00  0.00    -0.000 C 
BRANCH  27  28
ATOM     28  C   UNL     1       5.996  -2.689 -36.467  1.00  0.00    -0.000 C 
BRANCH  28  29
ATOM     29  C   UNL     1       4.718  -3.295 -37.073  1.00  0.00    -0.003 C 
ATOM     30  C   UNL     1       3.507  -2.371 -36.959  1.00  0.00     0.004 C 
ENDBRANCH  28  29
ENDBRANCH  27  28
ENDBRANCH  26  27
ENDBRANCH  25  26
ENDBRANCH  24  25
ENDBRANCH  23  24
ENDBRANCH  22  23
ENDBRANCH  21  22
ENDBRANCH  20  21
ENDBRANCH  19  20
ENDBRANCH  18  19
ENDBRANCH  17  18
ENDBRANCH   1  17
TORSDOF 26
ENDMDL
