MODEL 1
REMARK VINA RESULT:    -4.110      0.000      0.000
REMARK INTER + INTRA:          -4.230
REMARK INTER:                  -4.230
REMARK INTRA:                   0.000
REMARK UNBOUND:                 0.000
REMARK SMILES Nc1ncnc2nc[nH]c12
REMARK SMILES IDX 8 1 7 2 6 3 5 4 4 5 3 6 2 7 10 8 9 9 1 11
REMARK H PARENT 9 10 1 12 1 13
REMARK Flexibility Score: inf
ROOT
ATOM      1  C   UNL     1      14.387 -10.126  15.167  1.00  0.00     0.199 A 
ATOM      2  N   UNL     1      14.998 -10.753  16.210  1.00  0.00    -0.217 NA
ATOM      3  C   UNL     1      14.874  -9.850  17.197  1.00  0.00     0.182 A 
ATOM      4  N   UNL     1      15.320  -9.978  18.469  1.00  0.00    -0.215 NA
ATOM      5  C   UNL     1      15.100  -8.945  19.338  1.00  0.00     0.226 A 
ATOM      6  N   UNL     1      14.443  -7.815  18.922  1.00  0.00    -0.217 NA
ATOM      7  C   UNL     1      13.992  -7.684  17.639  1.00  0.00     0.152 A 
ATOM      8  C   UNL     1      14.225  -8.744  16.767  1.00  0.00     0.127 A 
ATOM      9  N   UNL     1      13.904  -8.896  15.476  1.00  0.00    -0.340 N 
ATOM     10  H   UNL     1      13.402  -8.233  14.846  1.00  0.00     0.168 HD
ENDROOT
BRANCH   7  11
ATOM     11  N   UNL     1      13.311  -6.498  17.229  1.00  0.00    -0.382 N 
ATOM     12  H   UNL     1      12.628  -6.018  17.856  1.00  0.00     0.158 HD
ATOM     13  H   UNL     1      13.491  -6.091  16.284  1.00  0.00     0.158 HD
ENDBRANCH   7  11
TORSDOF 1
ENDMDL
MODEL 2
REMARK VINA RESULT:    -4.031      1.410      3.344
REMARK INTER + INTRA:          -4.149
REMARK INTER:                  -4.149
REMARK INTRA:                   0.000
REMARK UNBOUND:                 0.000
REMARK SMILES Nc1ncnc2nc[nH]c12
REMARK SMILES IDX 8 1 7 2 6 3 5 4 4 5 3 6 2 7 10 8 9 9 1 11
REMARK H PARENT 9 10 1 12 1 13
REMARK Flexibility Score: inf
ROOT
ATOM      1  C   UNL     1      13.961  -7.727  16.938  1.00  0.00     0.199 A 
ATOM      2  N   UNL     1      14.706  -8.552  17.725  1.00  0.00    -0.217 NA
ATOM      3  C   UNL     1      14.868  -9.628  16.937  1.00  0.00     0.182 A 
ATOM      4  N   UNL     1      15.545 -10.758  17.246  1.00  0.00    -0.215 NA
ATOM      5  C   UNL     1      15.602 -11.753  16.308  1.00  0.00     0.226 A 
ATOM      6  N   UNL     1      14.987 -11.598  15.092  1.00  0.00    -0.217 NA
ATOM      7  C   UNL     1      14.303 -10.457  14.780  1.00  0.00     0.152 A 
ATOM      8  C   UNL     1      14.254  -9.455  15.745  1.00  0.00     0.127 A 
ATOM      9  N   UNL     1      13.669  -8.251  15.721  1.00  0.00    -0.340 N 
ATOM     10  H   UNL     1      13.116  -7.809  14.954  1.00  0.00     0.168 HD
ENDROOT
BRANCH   7  11
ATOM     11  N   UNL     1      13.670 -10.318  13.507  1.00  0.00    -0.382 N 
ATOM     12  H   UNL     1      14.039 -10.803  12.660  1.00  0.00     0.158 HD
ATOM     13  H   UNL     1      12.819  -9.721  13.409  1.00  0.00     0.158 HD
ENDBRANCH   7  11
TORSDOF 1
ENDMDL
MODEL 3
REMARK VINA RESULT:    -3.991      3.085      5.338
REMARK INTER + INTRA:          -4.107
REMARK INTER:                  -4.107
REMARK INTRA:                   0.000
REMARK UNBOUND:                 0.000
REMARK SMILES Nc1ncnc2nc[nH]c12
REMARK SMILES IDX 8 1 7 2 6 3 5 4 4 5 3 6 2 7 10 8 9 9 1 11
REMARK H PARENT 9 10 1 12 1 13
REMARK Flexibility Score: inf
ROOT
ATOM      1  C   UNL     1      13.951  -9.993  15.148  1.00  0.00     0.199 A 
ATOM      2  N   UNL     1      14.801 -10.810  15.829  1.00  0.00    -0.217 NA
ATOM      3  C   UNL     1      15.104 -11.738  14.907  1.00  0.00     0.182 A 
ATOM      4  N   UNL     1      15.927 -12.801  15.071  1.00  0.00    -0.215 NA
ATOM      5  C   UNL     1      16.113 -13.643  14.009  1.00  0.00     0.226 A 
ATOM      6  N   UNL     1      15.480 -13.408  12.815  1.00  0.00    -0.217 NA
ATOM      7  C   UNL     1      14.649 -12.336  12.648  1.00  0.00     0.152 A 
ATOM      8  C   UNL     1      14.469 -11.490  13.738  1.00  0.00     0.127 A 
ATOM      9  N   UNL     1      13.728 -10.381  13.868  1.00  0.00    -0.340 N 
ATOM     10  H   UNL     1      13.119  -9.917  13.159  1.00  0.00     0.168 HD
ENDROOT
BRANCH   7  11
ATOM     11  N   UNL     1      14.000 -12.112  11.396  1.00  0.00    -0.382 N 
ATOM     12  H   UNL     1      14.399 -12.476  10.503  1.00  0.00     0.158 HD
ATOM     13  H   UNL     1      13.106 -11.573  11.360  1.00  0.00     0.158 HD
ENDBRANCH   7  11
TORSDOF 1
ENDMDL
MODEL 4
REMARK VINA RESULT:    -3.936      1.487      2.013
REMARK INTER + INTRA:          -4.051
REMARK INTER:                  -4.051
REMARK INTRA:                   0.000
REMARK UNBOUND:                 0.000
REMARK SMILES Nc1ncnc2nc[nH]c12
REMARK SMILES IDX 8 1 7 2 6 3 5 4 4 5 3 6 2 7 10 8 9 9 1 11
REMARK H PARENT 9 10 1 12 1 13
REMARK Flexibility Score: inf
ROOT
ATOM      1  C   UNL     1      14.372 -11.253  13.573  1.00  0.00     0.199 A 
ATOM      2  N   UNL     1      15.061 -11.951  14.518  1.00  0.00    -0.217 NA
ATOM      3  C   UNL     1      15.069 -11.095  15.554  1.00  0.00     0.182 A 
ATOM      4  N   UNL     1      15.635 -11.301  16.766  1.00  0.00    -0.215 NA
ATOM      5  C   UNL     1      15.539 -10.306  17.700  1.00  0.00     0.226 A 
ATOM      6  N   UNL     1      14.886  -9.137  17.407  1.00  0.00    -0.217 NA
ATOM      7  C   UNL     1      14.314  -8.928  16.183  1.00  0.00     0.152 A 
ATOM      8  C   UNL     1      14.420  -9.949  15.244  1.00  0.00     0.127 A 
ATOM      9  N   UNL     1      13.967 -10.026  13.986  1.00  0.00    -0.340 N 
ATOM     10  H   UNL     1      13.429  -9.317  13.442  1.00  0.00     0.168 HD
ENDROOT
BRANCH   7  11
ATOM     11  N   UNL     1      13.638  -7.702  15.901  1.00  0.00    -0.382 N 
ATOM     12  H   UNL     1      12.598  -7.630  15.948  1.00  0.00     0.158 HD
ATOM     13  H   UNL     1      14.186  -6.852  15.639  1.00  0.00     0.158 HD
ENDBRANCH   7  11
TORSDOF 1
ENDMDL
MODEL 5
REMARK VINA RESULT:    -3.717     16.659     18.535
REMARK INTER + INTRA:          -3.825
REMARK INTER:                  -3.825
REMARK INTRA:                   0.000
REMARK UNBOUND:                 0.000
REMARK SMILES Nc1ncnc2nc[nH]c12
REMARK SMILES IDX 8 1 7 2 6 3 5 4 4 5 3 6 2 7 10 8 9 9 1 11
REMARK H PARENT 9 10 1 12 1 13
REMARK Flexibility Score: inf
ROOT
ATOM      1  C   UNL     1       4.802 -17.664   7.371  1.00  0.00     0.199 A 
ATOM      2  N   UNL     1       3.567 -18.026   6.924  1.00  0.00    -0.217 NA
ATOM      3  C   UNL     1       3.740 -19.327   6.637  1.00  0.00     0.182 A 
ATOM      4  N   UNL     1       2.805 -20.176   6.150  1.00  0.00    -0.215 NA
ATOM      5  C   UNL     1       3.169 -21.474   5.919  1.00  0.00     0.226 A 
ATOM      6  N   UNL     1       4.450 -21.894   6.177  1.00  0.00    -0.217 NA
ATOM      7  C   UNL     1       5.394 -21.037   6.669  1.00  0.00     0.152 A 
ATOM      8  C   UNL     1       5.007 -19.720   6.899  1.00  0.00     0.127 A 
ATOM      9  N   UNL     1       5.703 -18.677   7.368  1.00  0.00    -0.340 N 
ATOM     10  H   UNL     1       6.703 -18.640   7.664  1.00  0.00     0.168 HD
ENDROOT
BRANCH   7  11
ATOM     11  N   UNL     1       6.721 -21.497   6.931  1.00  0.00    -0.382 N 
ATOM     12  H   UNL     1       7.431 -20.880   7.383  1.00  0.00     0.158 HD
ATOM     13  H   UNL     1       6.999 -22.469   6.669  1.00  0.00     0.158 HD
ENDBRANCH   7  11
TORSDOF 1
ENDMDL
MODEL 6
REMARK VINA RESULT:    -3.715     13.310     14.718
REMARK INTER + INTRA:          -3.824
REMARK INTER:                  -3.824
REMARK INTRA:                   0.000
REMARK UNBOUND:                 0.000
REMARK SMILES Nc1ncnc2nc[nH]c12
REMARK SMILES IDX 8 1 7 2 6 3 5 4 4 5 3 6 2 7 10 8 9 9 1 11
REMARK H PARENT 9 10 1 12 1 13
REMARK Flexibility Score: inf
ROOT
ATOM      1  C   UNL     1      15.051 -25.761  15.889  1.00  0.00     0.199 A 
ATOM      2  N   UNL     1      16.057 -25.091  16.517  1.00  0.00    -0.217 NA
ATOM      3  C   UNL     1      15.473 -23.920  16.821  1.00  0.00     0.182 A 
ATOM      4  N   UNL     1      16.047 -22.875  17.462  1.00  0.00    -0.215 NA
ATOM      5  C   UNL     1      15.288 -21.759  17.684  1.00  0.00     0.226 A 
ATOM      6  N   UNL     1      13.983 -21.710  17.264  1.00  0.00    -0.217 NA
ATOM      7  C   UNL     1      13.403 -22.764  16.616  1.00  0.00     0.152 A 
ATOM      8  C   UNL     1      14.189 -23.892  16.398  1.00  0.00     0.127 A 
ATOM      9  N   UNL     1      13.896 -25.055  15.802  1.00  0.00    -0.340 N 
ATOM     10  H   UNL     1      12.997 -25.358  15.368  1.00  0.00     0.168 HD
ENDROOT
BRANCH   7  11
ATOM     11  N   UNL     1      12.042 -22.690  16.188  1.00  0.00    -0.382 N 
ATOM     12  H   UNL     1      11.358 -23.443  16.421  1.00  0.00     0.158 HD
ATOM     13  H   UNL     1      11.714 -21.871  15.630  1.00  0.00     0.158 HD
ENDBRANCH   7  11
TORSDOF 1
ENDMDL
MODEL 7
REMARK VINA RESULT:    -3.700     11.391     13.269
REMARK INTER + INTRA:          -3.809
REMARK INTER:                  -3.809
REMARK INTRA:                   0.000
REMARK UNBOUND:                 0.000
REMARK SMILES Nc1ncnc2nc[nH]c12
REMARK SMILES IDX 8 1 7 2 6 3 5 4 4 5 3 6 2 7 10 8 9 9 1 11
REMARK H PARENT 9 10 1 12 1 13
REMARK Flexibility Score: inf
ROOT
ATOM      1  C   UNL     1       8.598  -6.538   3.965  1.00  0.00     0.199 A 
ATOM      2  N   UNL     1       9.467  -7.118   3.092  1.00  0.00    -0.217 NA
ATOM      3  C   UNL     1      10.486  -7.468   3.894  1.00  0.00     0.182 A 
ATOM      4  N   UNL     1      11.629  -8.091   3.522  1.00  0.00    -0.215 NA
ATOM      5  C   UNL     1      12.558  -8.366   4.488  1.00  0.00     0.226 A 
ATOM      6  N   UNL     1      12.327  -8.017   5.795  1.00  0.00    -0.217 NA
ATOM      7  C   UNL     1      11.174  -7.389   6.171  1.00  0.00     0.152 A 
ATOM      8  C   UNL     1      10.239  -7.115   5.177  1.00  0.00     0.127 A 
ATOM      9  N   UNL     1       9.041  -6.521   5.247  1.00  0.00    -0.340 N 
ATOM     10  H   UNL     1       8.554  -6.132   6.083  1.00  0.00     0.168 HD
ENDROOT
BRANCH   7  11
ATOM     11  N   UNL     1      10.955  -7.035   7.538  1.00  0.00    -0.382 N 
ATOM     12  H   UNL     1      11.435  -6.216   7.971  1.00  0.00     0.158 HD
ATOM     13  H   UNL     1      10.304  -7.601   8.126  1.00  0.00     0.158 HD
ENDBRANCH   7  11
TORSDOF 1
ENDMDL
MODEL 8
REMARK VINA RESULT:    -3.683     13.342     14.949
REMARK INTER + INTRA:          -3.790
REMARK INTER:                  -3.790
REMARK INTRA:                   0.000
REMARK UNBOUND:                 0.000
REMARK SMILES Nc1ncnc2nc[nH]c12
REMARK SMILES IDX 8 1 7 2 6 3 5 4 4 5 3 6 2 7 10 8 9 9 1 11
REMARK H PARENT 9 10 1 12 1 13
REMARK Flexibility Score: inf
ROOT
ATOM      1  C   UNL     1      12.629 -22.289  16.738  1.00  0.00     0.199 A 
ATOM      2  N   UNL     1      13.665 -21.813  17.483  1.00  0.00    -0.217 NA
ATOM      3  C   UNL     1      14.628 -22.718  17.243  1.00  0.00     0.182 A 
ATOM      4  N   UNL     1      15.883 -22.714  17.749  1.00  0.00    -0.215 NA
ATOM      5  C   UNL     1      16.728 -23.727  17.387  1.00  0.00     0.226 A 
ATOM      6  N   UNL     1      16.306 -24.715  16.534  1.00  0.00    -0.217 NA
ATOM      7  C   UNL     1      15.039 -24.720  16.023  1.00  0.00     0.152 A 
ATOM      8  C   UNL     1      14.191 -23.683  16.401  1.00  0.00     0.127 A 
ATOM      9  N   UNL     1      12.920 -23.430  16.065  1.00  0.00    -0.340 N 
ATOM     10  H   UNL     1      12.291 -23.975  15.435  1.00  0.00     0.168 HD
ENDROOT
BRANCH   7  11
ATOM     11  N   UNL     1      14.621 -25.759  15.136  1.00  0.00    -0.382 N 
ATOM     12  H   UNL     1      14.483 -26.737  15.470  1.00  0.00     0.158 HD
ATOM     13  H   UNL     1      14.446 -25.546  14.128  1.00  0.00     0.158 HD
ENDBRANCH   7  11
TORSDOF 1
ENDMDL
MODEL 9
REMARK VINA RESULT:    -3.662     15.042     16.772
REMARK INTER + INTRA:          -3.770
REMARK INTER:                  -3.770
REMARK INTRA:                   0.000
REMARK UNBOUND:                 0.000
REMARK SMILES Nc1ncnc2nc[nH]c12
REMARK SMILES IDX 8 1 7 2 6 3 5 4 4 5 3 6 2 7 10 8 9 9 1 11
REMARK H PARENT 9 10 1 12 1 13
REMARK Flexibility Score: inf
ROOT
ATOM      1  C   UNL     1       4.897 -20.283   7.907  1.00  0.00     0.199 A 
ATOM      2  N   UNL     1       4.555 -20.097   6.602  1.00  0.00    -0.217 NA
ATOM      3  C   UNL     1       4.779 -18.783   6.434  1.00  0.00     0.182 A 
ATOM      4  N   UNL     1       4.595 -18.072   5.296  1.00  0.00    -0.215 NA
ATOM      5  C   UNL     1       4.878 -16.734   5.318  1.00  0.00     0.226 A 
ATOM      6  N   UNL     1       5.336 -16.139   6.465  1.00  0.00    -0.217 NA
ATOM      7  C   UNL     1       5.522 -16.855   7.614  1.00  0.00     0.152 A 
ATOM      8  C   UNL     1       5.229 -18.215   7.575  1.00  0.00     0.127 A 
ATOM      9  N   UNL     1       5.313 -19.151   8.529  1.00  0.00    -0.340 N 
ATOM     10  H   UNL     1       5.623 -19.048   9.520  1.00  0.00     0.168 HD
ENDROOT
BRANCH   7  11
ATOM     11  N   UNL     1       6.001 -16.213   8.797  1.00  0.00    -0.382 N 
ATOM     12  H   UNL     1       5.554 -16.382   9.726  1.00  0.00     0.158 HD
ATOM     13  H   UNL     1       6.813 -15.560   8.745  1.00  0.00     0.158 HD
ENDBRANCH   7  11
TORSDOF 1
ENDMDL
