MODEL 1
REMARK VINA RESULT:    -6.107      0.000      0.000
REMARK INTER + INTRA:          -6.107
REMARK INTER:                  -6.107
REMARK INTRA:                   0.000
REMARK UNBOUND:                 0.000
REMARK SMILES CC(C)=C1CC[C@H](C)CC1=O
REMARK SMILES IDX 8 1 7 2 6 3 5 4 4 5 2 6 1 7 3 8 10 9 11 10 9 11
REMARK H PARENT
REMARK Flexibility Score: inf
ROOT
ATOM      1  C   UNL     1      -8.204  35.125  42.326  1.00  0.00     0.008 C 
ATOM      2  C   UNL     1      -8.619  33.663  42.133  1.00  0.00    -0.006 C 
ATOM      3  C   UNL     1      -7.906  33.055  40.913  1.00  0.00     0.008 C 
ATOM      4  C   UNL     1      -8.386  31.624  40.643  1.00  0.00     0.039 C 
ATOM      5  C   UNL     1      -8.294  30.734  41.877  1.00  0.00    -0.006 C 
ATOM      6  C   UNL     1      -8.040  29.397  41.770  1.00  0.00    -0.070 C 
ATOM      7  C   UNL     1      -7.858  28.738  40.420  1.00  0.00     0.039 C 
ATOM      8  C   UNL     1      -7.890  28.516  42.988  1.00  0.00     0.039 C 
ATOM      9  C   UNL     1      -8.610  31.389  43.181  1.00  0.00     0.159 C 
ATOM     10  O   UNL     1      -9.148  30.745  44.123  1.00  0.00    -0.295 OA
ATOM     11  C   UNL     1      -8.297  32.842  43.390  1.00  0.00     0.084 C 
ENDROOT
TORSDOF 0
ENDMDL
MODEL 2
REMARK VINA RESULT:    -6.082      1.514      2.375
REMARK INTER + INTRA:          -6.082
REMARK INTER:                  -6.082
REMARK INTRA:                   0.000
REMARK UNBOUND:                 0.000
REMARK SMILES CC(C)=C1CC[C@H](C)CC1=O
REMARK SMILES IDX 8 1 7 2 6 3 5 4 4 5 2 6 1 7 3 8 10 9 11 10 9 11
REMARK H PARENT
REMARK Flexibility Score: inf
ROOT
ATOM      1  C   UNL     1      -9.168  35.125  42.119  1.00  0.00     0.008 C 
ATOM      2  C   UNL     1      -8.491  33.754  42.019  1.00  0.00    -0.006 C 
ATOM      3  C   UNL     1      -8.658  32.971  43.332  1.00  0.00     0.008 C 
ATOM      4  C   UNL     1      -7.899  31.639  43.287  1.00  0.00     0.039 C 
ATOM      5  C   UNL     1      -8.253  30.806  42.061  1.00  0.00    -0.006 C 
ATOM      6  C   UNL     1      -8.247  29.442  42.104  1.00  0.00    -0.070 C 
ATOM      7  C   UNL     1      -7.868  28.699  43.366  1.00  0.00     0.039 C 
ATOM      8  C   UNL     1      -8.651  28.606  40.912  1.00  0.00     0.039 C 
ATOM      9  C   UNL     1      -8.491  31.568  40.799  1.00  0.00     0.159 C 
ATOM     10  O   UNL     1      -8.201  31.076  39.674  1.00  0.00    -0.295 OA
ATOM     11  C   UNL     1      -9.078  32.948  40.851  1.00  0.00     0.084 C 
ENDROOT
TORSDOF 0
ENDMDL
MODEL 3
REMARK VINA RESULT:    -6.077      1.603      4.577
REMARK INTER + INTRA:          -6.077
REMARK INTER:                  -6.077
REMARK INTRA:                   0.000
REMARK UNBOUND:                 0.000
REMARK SMILES CC(C)=C1CC[C@H](C)CC1=O
REMARK SMILES IDX 8 1 7 2 6 3 5 4 4 5 2 6 1 7 3 8 10 9 11 10 9 11
REMARK H PARENT
REMARK Flexibility Score: inf
ROOT
ATOM      1  C   UNL     1      -7.812  28.559  43.373  1.00  0.00     0.008 C 
ATOM      2  C   UNL     1      -8.541  29.871  43.070  1.00  0.00    -0.006 C 
ATOM      3  C   UNL     1      -8.004  31.007  43.956  1.00  0.00     0.008 C 
ATOM      4  C   UNL     1      -8.792  32.305  43.739  1.00  0.00     0.039 C 
ATOM      5  C   UNL     1      -8.874  32.699  42.269  1.00  0.00    -0.006 C 
ATOM      6  C   UNL     1      -8.922  34.009  41.888  1.00  0.00    -0.070 C 
ATOM      7  C   UNL     1      -8.916  35.125  42.910  1.00  0.00     0.039 C 
ATOM      8  C   UNL     1      -8.946  34.414  40.432  1.00  0.00     0.039 C 
ATOM      9  C   UNL     1      -9.013  31.575  41.296  1.00  0.00     0.159 C 
ATOM     10  O   UNL     1      -9.661  31.715  40.223  1.00  0.00    -0.295 OA
ATOM     11  C   UNL     1      -8.384  30.244  41.588  1.00  0.00     0.084 C 
ENDROOT
TORSDOF 0
ENDMDL
MODEL 4
REMARK VINA RESULT:    -5.769      1.376      2.227
REMARK INTER + INTRA:          -5.769
REMARK INTER:                  -5.769
REMARK INTRA:                   0.000
REMARK UNBOUND:                 0.000
REMARK SMILES CC(C)=C1CC[C@H](C)CC1=O
REMARK SMILES IDX 8 1 7 2 6 3 5 4 4 5 2 6 1 7 3 8 10 9 11 10 9 11
REMARK H PARENT
REMARK Flexibility Score: inf
ROOT
ATOM      1  C   UNL     1      -8.663  33.705  38.963  1.00  0.00     0.008 C 
ATOM      2  C   UNL     1      -8.963  32.771  40.139  1.00  0.00    -0.006 C 
ATOM      3  C   UNL     1      -8.317  31.393  39.916  1.00  0.00     0.008 C 
ATOM      4  C   UNL     1      -8.693  30.413  41.034  1.00  0.00     0.039 C 
ATOM      5  C   UNL     1      -8.408  30.974  42.422  1.00  0.00    -0.006 C 
ATOM      6  C   UNL     1      -8.048  30.159  43.456  1.00  0.00    -0.070 C 
ATOM      7  C   UNL     1      -7.936  28.661  43.273  1.00  0.00     0.039 C 
ATOM      8  C   UNL     1      -7.708  30.708  44.822  1.00  0.00     0.039 C 
ATOM      9  C   UNL     1      -8.657  32.435  42.602  1.00  0.00     0.159 C 
ATOM     10  O   UNL     1      -9.046  32.901  43.707  1.00  0.00    -0.295 OA
ATOM     11  C   UNL     1      -8.454  33.380  41.454  1.00  0.00     0.084 C 
ENDROOT
TORSDOF 0
ENDMDL
MODEL 5
REMARK VINA RESULT:    -5.729      1.852      3.548
REMARK INTER + INTRA:          -5.729
REMARK INTER:                  -5.729
REMARK INTRA:                   0.000
REMARK UNBOUND:                 0.000
REMARK SMILES CC(C)=C1CC[C@H](C)CC1=O
REMARK SMILES IDX 8 1 7 2 6 3 5 4 4 5 2 6 1 7 3 8 10 9 11 10 9 11
REMARK H PARENT
REMARK Flexibility Score: inf
ROOT
ATOM      1  C   UNL     1      -7.523  30.220  45.191  1.00  0.00     0.008 C 
ATOM      2  C   UNL     1      -8.245  30.444  43.859  1.00  0.00    -0.006 C 
ATOM      3  C   UNL     1      -7.888  31.821  43.274  1.00  0.00     0.008 C 
ATOM      4  C   UNL     1      -8.682  32.105  41.992  1.00  0.00     0.039 C 
ATOM      5  C   UNL     1      -8.556  30.984  40.967  1.00  0.00    -0.006 C 
ATOM      6  C   UNL     1      -8.594  31.241  39.627  1.00  0.00    -0.070 C 
ATOM      7  C   UNL     1      -8.782  32.647  39.102  1.00  0.00     0.039 C 
ATOM      8  C   UNL     1      -8.414  30.146  38.601  1.00  0.00     0.039 C 
ATOM      9  C   UNL     1      -8.507  29.597  41.517  1.00  0.00     0.159 C 
ATOM     10  O   UNL     1      -8.991  28.623  40.878  1.00  0.00    -0.295 OA
ATOM     11  C   UNL     1      -7.880  29.339  42.856  1.00  0.00     0.084 C 
ENDROOT
TORSDOF 0
ENDMDL
MODEL 6
REMARK VINA RESULT:    -5.708      1.370      4.056
REMARK INTER + INTRA:          -5.708
REMARK INTER:                  -5.708
REMARK INTRA:                   0.000
REMARK UNBOUND:                 0.000
REMARK SMILES CC(C)=C1CC[C@H](C)CC1=O
REMARK SMILES IDX 8 1 7 2 6 3 5 4 4 5 2 6 1 7 3 8 10 9 11 10 9 11
REMARK H PARENT
REMARK Flexibility Score: inf
ROOT
ATOM      1  C   UNL     1      -8.923  28.009  38.915  1.00  0.00     0.008 C 
ATOM      2  C   UNL     1      -8.245  28.873  39.983  1.00  0.00    -0.006 C 
ATOM      3  C   UNL     1      -8.703  30.336  39.867  1.00  0.00     0.008 C 
ATOM      4  C   UNL     1      -7.957  31.235  40.861  1.00  0.00     0.039 C 
ATOM      5  C   UNL     1      -8.030  30.711  42.290  1.00  0.00    -0.006 C 
ATOM      6  C   UNL     1      -8.037  31.562  43.358  1.00  0.00    -0.070 C 
ATOM      7  C   UNL     1      -7.953  33.060  43.168  1.00  0.00     0.039 C 
ATOM      8  C   UNL     1      -8.167  31.057  44.776  1.00  0.00     0.039 C 
ATOM      9  C   UNL     1      -7.977  29.227  42.447  1.00  0.00     0.159 C 
ATOM     10  O   UNL     1      -7.444  28.695  43.459  1.00  0.00    -0.295 OA
ATOM     11  C   UNL     1      -8.557  28.336  41.387  1.00  0.00     0.084 C 
ENDROOT
TORSDOF 0
ENDMDL
MODEL 7
REMARK VINA RESULT:    -5.693      1.610      4.345
REMARK INTER + INTRA:          -5.693
REMARK INTER:                  -5.693
REMARK INTRA:                   0.000
REMARK UNBOUND:                 0.000
REMARK SMILES CC(C)=C1CC[C@H](C)CC1=O
REMARK SMILES IDX 8 1 7 2 6 3 5 4 4 5 2 6 1 7 3 8 10 9 11 10 9 11
REMARK H PARENT
REMARK Flexibility Score: inf
ROOT
ATOM      1  C   UNL     1      -8.683  28.008  39.063  1.00  0.00     0.008 C 
ATOM      2  C   UNL     1      -8.978  28.806  40.336  1.00  0.00    -0.006 C 
ATOM      3  C   UNL     1      -7.958  28.468  41.436  1.00  0.00     0.008 C 
ATOM      4  C   UNL     1      -8.299  29.181  42.751  1.00  0.00     0.039 C 
ATOM      5  C   UNL     1      -8.487  30.682  42.570  1.00  0.00    -0.006 C 
ATOM      6  C   UNL     1      -8.163  31.563  43.561  1.00  0.00    -0.070 C 
ATOM      7  C   UNL     1      -7.621  31.083  44.890  1.00  0.00     0.039 C 
ATOM      8  C   UNL     1      -8.291  33.056  43.373  1.00  0.00     0.039 C 
ATOM      9  C   UNL     1      -9.147  31.111  41.301  1.00  0.00     0.159 C 
ATOM     10  O   UNL     1      -9.880  32.137  41.259  1.00  0.00    -0.295 OA
ATOM     11  C   UNL     1      -8.953  30.314  40.044  1.00  0.00     0.084 C 
ENDROOT
TORSDOF 0
ENDMDL
MODEL 8
REMARK VINA RESULT:    -5.419      2.050      4.870
REMARK INTER + INTRA:          -5.419
REMARK INTER:                  -5.419
REMARK INTRA:                   0.000
REMARK UNBOUND:                 0.000
REMARK SMILES CC(C)=C1CC[C@H](C)CC1=O
REMARK SMILES IDX 8 1 7 2 6 3 5 4 4 5 2 6 1 7 3 8 10 9 11 10 9 11
REMARK H PARENT
REMARK Flexibility Score: inf
ROOT
ATOM      1  C   UNL     1      -8.859  27.387  40.042  1.00  0.00     0.008 C 
ATOM      2  C   UNL     1      -8.993  28.859  40.445  1.00  0.00    -0.006 C 
ATOM      3  C   UNL     1      -7.854  29.267  41.394  1.00  0.00     0.008 C 
ATOM      4  C   UNL     1      -8.029  30.708  41.889  1.00  0.00     0.039 C 
ATOM      5  C   UNL     1      -8.220  31.698  40.746  1.00  0.00    -0.006 C 
ATOM      6  C   UNL     1      -7.771  32.984  40.839  1.00  0.00    -0.070 C 
ATOM      7  C   UNL     1      -7.081  33.486  42.089  1.00  0.00     0.039 C 
ATOM      8  C   UNL     1      -7.904  33.958  39.692  1.00  0.00     0.039 C 
ATOM      9  C   UNL     1      -9.021  31.210  39.584  1.00  0.00     0.159 C 
ATOM     10  O   UNL     1      -9.742  31.996  38.911  1.00  0.00    -0.295 OA
ATOM     11  C   UNL     1      -8.985  29.760  39.201  1.00  0.00     0.084 C 
ENDROOT
TORSDOF 0
ENDMDL
MODEL 9
REMARK VINA RESULT:    -5.380      1.570      4.113
REMARK INTER + INTRA:          -5.380
REMARK INTER:                  -5.380
REMARK INTRA:                   0.000
REMARK UNBOUND:                 0.000
REMARK SMILES CC(C)=C1CC[C@H](C)CC1=O
REMARK SMILES IDX 8 1 7 2 6 3 5 4 4 5 2 6 1 7 3 8 10 9 11 10 9 11
REMARK H PARENT
REMARK Flexibility Score: inf
ROOT
ATOM      1  C   UNL     1      -8.027  28.768  43.033  1.00  0.00     0.008 C 
ATOM      2  C   UNL     1      -7.855  30.088  42.276  1.00  0.00    -0.006 C 
ATOM      3  C   UNL     1      -8.751  30.116  41.026  1.00  0.00     0.008 C 
ATOM      4  C   UNL     1      -8.516  31.387  40.200  1.00  0.00     0.039 C 
ATOM      5  C   UNL     1      -8.637  32.656  41.035  1.00  0.00    -0.006 C 
ATOM      6  C   UNL     1      -9.098  33.821  40.492  1.00  0.00    -0.070 C 
ATOM      7  C   UNL     1      -9.490  33.906  39.033  1.00  0.00     0.039 C 
ATOM      8  C   UNL     1      -9.276  35.071  41.322  1.00  0.00     0.039 C 
ATOM      9  C   UNL     1      -8.118  32.574  42.432  1.00  0.00     0.159 C 
ATOM     10  O   UNL     1      -7.606  33.577  43.000  1.00  0.00    -0.295 OA
ATOM     11  C   UNL     1      -8.190  31.278  43.187  1.00  0.00     0.084 C 
ENDROOT
TORSDOF 0
ENDMDL
