MODEL 1
REMARK VINA RESULT:    -2.442      0.000      0.000
REMARK INTER + INTRA:          -2.442
REMARK INTER:                  -2.442
REMARK INTRA:                   0.000
REMARK UNBOUND:                 0.000
REMARK SMILES CC(=O)[O-]
REMARK SMILES IDX 1 1 2 2 3 3 4 4
REMARK H PARENT
REMARK Flexibility Score: inf
ROOT
ATOM      1  C   UNL     1     -20.226   8.339  38.381  1.00  0.00     0.063 C 
ATOM      2  C   UNL     1     -20.600   8.977  37.086  1.00  0.00     0.038 C 
ATOM      3  O   UNL     1     -21.765   9.421  36.914  1.00  0.00    -0.550 OA
ATOM      4  O   UNL     1     -19.680   9.035  36.047  1.00  0.00    -0.550 OA
ENDROOT
TORSDOF 0
ENDMDL
MODEL 2
REMARK VINA RESULT:    -2.441      1.597      2.277
REMARK INTER + INTRA:          -2.441
REMARK INTER:                  -2.441
REMARK INTRA:                   0.000
REMARK UNBOUND:                 0.000
REMARK SMILES CC(=O)[O-]
REMARK SMILES IDX 1 1 2 2 3 3 4 4
REMARK H PARENT
REMARK Flexibility Score: inf
ROOT
ATOM      1  C   UNL     1     -21.392   9.389  37.037  1.00  0.00     0.063 C 
ATOM      2  C   UNL     1     -20.155   8.727  37.543  1.00  0.00     0.038 C 
ATOM      3  O   UNL     1     -19.070   8.854  36.918  1.00  0.00    -0.550 OA
ATOM      4  O   UNL     1     -20.208   7.923  38.674  1.00  0.00    -0.550 OA
ENDROOT
TORSDOF 0
ENDMDL
MODEL 3
REMARK VINA RESULT:    -2.394      7.571      8.102
REMARK INTER + INTRA:          -2.394
REMARK INTER:                  -2.394
REMARK INTRA:                   0.000
REMARK UNBOUND:                 0.000
REMARK SMILES CC(=O)[O-]
REMARK SMILES IDX 1 1 2 2 3 3 4 4
REMARK H PARENT
REMARK Flexibility Score: inf
ROOT
ATOM      1  C   UNL     1     -15.752   3.345  33.928  1.00  0.00     0.063 C 
ATOM      2  C   UNL     1     -14.983   4.568  33.555  1.00  0.00     0.038 C 
ATOM      3  O   UNL     1     -13.729   4.581  33.659  1.00  0.00    -0.550 OA
ATOM      4  O   UNL     1     -15.653   5.712  33.143  1.00  0.00    -0.550 OA
ENDROOT
TORSDOF 0
ENDMDL
MODEL 4
REMARK VINA RESULT:    -2.366     12.306     12.690
REMARK INTER + INTRA:          -2.366
REMARK INTER:                  -2.366
REMARK INTRA:                   0.000
REMARK UNBOUND:                 0.000
REMARK SMILES CC(=O)[O-]
REMARK SMILES IDX 1 1 2 2 3 3 4 4
REMARK H PARENT
REMARK Flexibility Score: inf
ROOT
ATOM      1  C   UNL     1      -6.643   9.173  36.014  1.00  0.00     0.063 C 
ATOM      2  C   UNL     1      -8.044   8.967  36.483  1.00  0.00     0.038 C 
ATOM      3  O   UNL     1      -8.639   9.880  37.113  1.00  0.00    -0.550 OA
ATOM      4  O   UNL     1      -8.676   7.749  36.273  1.00  0.00    -0.550 OA
ENDROOT
TORSDOF 0
ENDMDL
MODEL 5
REMARK VINA RESULT:    -2.348     12.898     13.231
REMARK INTER + INTRA:          -2.348
REMARK INTER:                  -2.348
REMARK INTRA:                   0.000
REMARK UNBOUND:                 0.000
REMARK SMILES CC(=O)[O-]
REMARK SMILES IDX 1 1 2 2 3 3 4 4
REMARK H PARENT
REMARK Flexibility Score: inf
ROOT
ATOM      1  C   UNL     1     -10.786  16.920  33.507  1.00  0.00     0.063 C 
ATOM      2  C   UNL     1      -9.966  15.680  33.382  1.00  0.00     0.038 C 
ATOM      3  O   UNL     1      -9.902  14.865  34.339  1.00  0.00    -0.550 OA
ATOM      4  O   UNL     1      -9.227  15.449  32.229  1.00  0.00    -0.550 OA
ENDROOT
TORSDOF 0
ENDMDL
MODEL 6
REMARK VINA RESULT:    -2.283      7.511      7.999
REMARK INTER + INTRA:          -2.283
REMARK INTER:                  -2.283
REMARK INTRA:                   0.000
REMARK UNBOUND:                 0.000
REMARK SMILES CC(=O)[O-]
REMARK SMILES IDX 1 1 2 2 3 3 4 4
REMARK H PARENT
REMARK Flexibility Score: inf
ROOT
ATOM      1  C   UNL     1     -13.676   4.631  33.901  1.00  0.00     0.063 C 
ATOM      2  C   UNL     1     -15.117   4.605  33.517  1.00  0.00     0.038 C 
ATOM      3  O   UNL     1     -15.751   3.517  33.515  1.00  0.00    -0.550 OA
ATOM      4  O   UNL     1     -15.750   5.772  33.109  1.00  0.00    -0.550 OA
ENDROOT
TORSDOF 0
ENDMDL
MODEL 7
REMARK VINA RESULT:    -2.273     11.105     11.685
REMARK INTER + INTRA:          -2.273
REMARK INTER:                  -2.273
REMARK INTRA:                   0.000
REMARK UNBOUND:                 0.000
REMARK SMILES CC(=O)[O-]
REMARK SMILES IDX 1 1 2 2 3 3 4 4
REMARK H PARENT
REMARK Flexibility Score: inf
ROOT
ATOM      1  C   UNL     1      -9.692  10.642  37.283  1.00  0.00     0.063 C 
ATOM      2  C   UNL     1      -9.004   9.451  36.704  1.00  0.00     0.038 C 
ATOM      3  O   UNL     1      -9.542   8.804  35.769  1.00  0.00    -0.550 OA
ATOM      4  O   UNL     1      -7.794   9.022  37.232  1.00  0.00    -0.550 OA
ENDROOT
TORSDOF 0
ENDMDL
MODEL 8
REMARK VINA RESULT:    -2.272     12.139     12.784
REMARK INTER + INTRA:          -2.272
REMARK INTER:                  -2.272
REMARK INTRA:                   0.000
REMARK UNBOUND:                 0.000
REMARK SMILES CC(=O)[O-]
REMARK SMILES IDX 1 1 2 2 3 3 4 4
REMARK H PARENT
REMARK Flexibility Score: inf
ROOT
ATOM      1  C   UNL     1      -8.590   7.837  35.801  1.00  0.00     0.063 C 
ATOM      2  C   UNL     1      -7.932   9.003  36.457  1.00  0.00     0.038 C 
ATOM      3  O   UNL     1      -6.679   9.119  36.430  1.00  0.00    -0.550 OA
ATOM      4  O   UNL     1      -8.696   9.937  37.145  1.00  0.00    -0.550 OA
ENDROOT
TORSDOF 0
ENDMDL
MODEL 9
REMARK VINA RESULT:    -2.204      7.155      7.379
REMARK INTER + INTRA:          -2.204
REMARK INTER:                  -2.204
REMARK INTRA:                   0.000
REMARK UNBOUND:                 0.000
REMARK SMILES CC(=O)[O-]
REMARK SMILES IDX 1 1 2 2 3 3 4 4
REMARK H PARENT
REMARK Flexibility Score: inf
ROOT
ATOM      1  C   UNL     1     -15.808   7.219  33.114  1.00  0.00     0.063 C 
ATOM      2  C   UNL     1     -14.606   6.805  33.895  1.00  0.00     0.038 C 
ATOM      3  O   UNL     1     -13.759   7.664  34.254  1.00  0.00    -0.550 OA
ATOM      4  O   UNL     1     -14.391   5.464  34.183  1.00  0.00    -0.550 OA
ENDROOT
TORSDOF 0
ENDMDL
