MODEL 1
REMARK VINA RESULT:     6.199      0.000      0.000
REMARK INTER + INTRA:           6.643
REMARK INTER:                   6.743
REMARK INTRA:                  -0.100
REMARK UNBOUND:                -0.100
REMARK SMILES Cc1ccc(C(C)C)cc1O
REMARK SMILES IDX 1 1 2 2 10 3 9 4 5 5 4 6 3 7 11 8 6 10 7 11 8 12
REMARK H PARENT 11 9
REMARK Flexibility Score: inf
ROOT
ATOM      1  C   UNL     1      15.129  50.612  58.748  1.00  0.00     0.048 C 
ATOM      2  C   UNL     1      15.228  51.773  59.696  1.00  0.00    -0.009 A 
ATOM      3  C   UNL     1      15.414  51.551  61.072  1.00  0.00     0.118 A 
ATOM      4  C   UNL     1      15.504  52.640  61.950  1.00  0.00     0.050 A 
ATOM      5  C   UNL     1      15.413  53.958  61.472  1.00  0.00    -0.042 A 
ATOM      6  C   UNL     1      15.227  54.170  60.094  1.00  0.00     0.004 A 
ATOM      7  C   UNL     1      15.137  53.089  59.216  1.00  0.00     0.007 A 
ENDROOT
BRANCH   3   8
ATOM      8  O   UNL     1      15.506  50.249  61.562  1.00  0.00    -0.508 OA
ATOM      9  H   UNL     1      15.777  50.059  62.519  1.00  0.00     0.293 HD
ENDBRANCH   3   8
BRANCH   5  10
ATOM     10  C   UNL     1      15.514  55.125  62.438  1.00  0.00     0.013 C 
ATOM     11  C   UNL     1      14.352  55.117  63.437  1.00  0.00     0.012 C 
ATOM     12  C   UNL     1      16.865  55.125  63.163  1.00  0.00     0.012 C 
ENDBRANCH   5  10
TORSDOF 2
ENDMDL
MODEL 2
REMARK VINA RESULT:     6.229      2.013      4.457
REMARK INTER + INTRA:           6.676
REMARK INTER:                   6.788
REMARK INTRA:                  -0.112
REMARK UNBOUND:                -0.100
REMARK SMILES Cc1ccc(C(C)C)cc1O
REMARK SMILES IDX 1 1 2 2 10 3 9 4 5 5 4 6 3 7 11 8 6 10 7 11 8 12
REMARK H PARENT 11 9
REMARK Flexibility Score: inf
ROOT
ATOM      1  C   UNL     1      14.599  55.125  64.229  1.00  0.00     0.048 C 
ATOM      2  C   UNL     1      14.918  54.073  63.205  1.00  0.00    -0.009 A 
ATOM      3  C   UNL     1      16.138  54.110  62.508  1.00  0.00     0.118 A 
ATOM      4  C   UNL     1      16.429  53.125  61.553  1.00  0.00     0.050 A 
ATOM      5  C   UNL     1      15.511  52.095  61.282  1.00  0.00    -0.042 A 
ATOM      6  C   UNL     1      14.293  52.067  61.984  1.00  0.00     0.004 A 
ATOM      7  C   UNL     1      14.001  53.046  62.936  1.00  0.00     0.007 A 
ENDROOT
BRANCH   3   8
ATOM      8  O   UNL     1      17.058  55.125  62.766  1.00  0.00    -0.508 OA
ATOM      9  H   UNL     1      17.776  55.374  62.096  1.00  0.00     0.293 HD
ENDBRANCH   3   8
BRANCH   5  10
ATOM     10  C   UNL     1      15.843  51.037  60.246  1.00  0.00     0.013 C 
ATOM     11  C   UNL     1      14.986  51.209  58.987  1.00  0.00     0.012 C 
ATOM     12  C   UNL     1      17.337  51.051  59.901  1.00  0.00     0.012 C 
ENDBRANCH   5  10
TORSDOF 2
ENDMDL
MODEL 3
REMARK VINA RESULT:     6.882      1.732      2.163
REMARK INTER + INTRA:           7.386
REMARK INTER:                   7.511
REMARK INTRA:                  -0.125
REMARK UNBOUND:                -0.100
REMARK SMILES Cc1ccc(C(C)C)cc1O
REMARK SMILES IDX 1 1 2 2 10 3 9 4 5 5 4 6 3 7 11 8 6 10 7 11 8 12
REMARK H PARENT 11 9
REMARK Flexibility Score: inf
ROOT
ATOM      1  C   UNL     1      17.729  50.841  59.755  1.00  0.00     0.048 C 
ATOM      2  C   UNL     1      17.065  51.942  60.531  1.00  0.00    -0.009 A 
ATOM      3  C   UNL     1      15.791  52.404  60.158  1.00  0.00     0.118 A 
ATOM      4  C   UNL     1      15.179  53.434  60.887  1.00  0.00     0.050 A 
ATOM      5  C   UNL     1      15.824  54.012  61.993  1.00  0.00    -0.042 A 
ATOM      6  C   UNL     1      17.098  53.543  62.359  1.00  0.00     0.004 A 
ATOM      7  C   UNL     1      17.712  52.519  61.635  1.00  0.00     0.007 A 
ENDROOT
BRANCH   3   8
ATOM      8  O   UNL     1      15.138  51.841  59.063  1.00  0.00    -0.508 OA
ATOM      9  H   UNL     1      15.114  50.839  58.916  1.00  0.00     0.293 HD
ENDBRANCH   3   8
BRANCH   5  10
ATOM     10  C   UNL     1      15.145  55.124  62.772  1.00  0.00     0.013 C 
ATOM     11  C   UNL     1      13.631  55.119  62.535  1.00  0.00     0.012 C 
ATOM     12  C   UNL     1      15.470  55.029  64.267  1.00  0.00     0.012 C 
ENDBRANCH   5  10
TORSDOF 2
ENDMDL
MODEL 4
REMARK VINA RESULT:     6.942      1.653      1.892
REMARK INTER + INTRA:           7.451
REMARK INTER:                   7.577
REMARK INTRA:                  -0.126
REMARK UNBOUND:                -0.100
REMARK SMILES Cc1ccc(C(C)C)cc1O
REMARK SMILES IDX 1 1 2 2 10 3 9 4 5 5 4 6 3 7 11 8 6 10 7 11 8 12
REMARK H PARENT 11 9
REMARK Flexibility Score: inf
ROOT
ATOM      1  C   UNL     1      15.868  49.426  60.416  1.00  0.00     0.048 C 
ATOM      2  C   UNL     1      15.711  50.822  60.948  1.00  0.00    -0.009 A 
ATOM      3  C   UNL     1      16.741  51.764  60.781  1.00  0.00     0.118 A 
ATOM      4  C   UNL     1      16.587  53.065  61.282  1.00  0.00     0.050 A 
ATOM      5  C   UNL     1      15.410  53.442  61.950  1.00  0.00    -0.042 A 
ATOM      6  C   UNL     1      14.385  52.493  62.112  1.00  0.00     0.004 A 
ATOM      7  C   UNL     1      14.535  51.197  61.615  1.00  0.00     0.007 A 
ENDROOT
BRANCH   3   8
ATOM      8  O   UNL     1      17.914  51.405  60.120  1.00  0.00    -0.508 OA
ATOM      9  H   UNL     1      18.065  50.464  59.776  1.00  0.00     0.293 HD
ENDBRANCH   3   8
BRANCH   5  10
ATOM     10  C   UNL     1      15.260  54.855  62.484  1.00  0.00     0.013 C 
ATOM     11  C   UNL     1      13.822  55.125  62.939  1.00  0.00     0.012 C 
ATOM     12  C   UNL     1      16.257  55.125  63.618  1.00  0.00     0.012 C 
ENDBRANCH   5  10
TORSDOF 2
ENDMDL
