MODEL 1
REMARK VINA RESULT:     0.057      0.000      0.000
REMARK INTER + INTRA:          12.344
REMARK INTER:                   0.086
REMARK INTRA:                  12.257
REMARK UNBOUND:                12.257
REMARK SMILES CC1=CCC[C@@H](C)C(=O)C[C@H](C(C)C)C(=O)C1
REMARK SMILES IDX 8 1 9 2 6 3 7 4 5 5 4 6 3 7 2 8 1 9 10 11 11 12 15 13 16 14
REMARK SMILES IDX 17 15 12 17 13 18 14 19
REMARK H PARENT
REMARK Flexibility Score: 70.00
ROOT
ATOM      1  C   UNL     1      27.609  12.755  24.452  1.00  0.00     0.136 C 
ATOM      2  O   UNL     1      26.912  13.756  24.358  1.00  0.00    -0.299 OA
ENDROOT
BRANCH   1   3
ATOM      3  C   UNL     1      28.975  12.845  25.104  1.00  0.00     0.053 C 
ATOM      4  C   UNL     1      28.993  14.017  26.090  1.00  0.00     0.016 C 
BRANCH   3   5
ATOM      5  C   UNL     1      30.111  13.001  24.070  1.00  0.00     0.015 C 
BRANCH   5   6
ATOM      6  C   UNL     1      29.822  14.006  22.941  1.00  0.00     0.028 C 
BRANCH   6   7
ATOM      7  C   UNL     1      29.918  13.420  21.551  1.00  0.00    -0.028 C 
ATOM      8  C   UNL     1      29.944  12.109  21.191  1.00  0.00    -0.070 CG0
ATOM      9  C   UNL     1      29.924  11.814  19.709  1.00  0.00     0.039 C 
ATOM     10  G   UNL     1      30.095  10.924  22.141  1.00  0.00     0.000 G0
ENDBRANCH   6   7
ENDBRANCH   5   6
ENDBRANCH   3   5
ENDBRANCH   1   3
BRANCH   1  11
ATOM     11  C   UNL     1      27.067  11.435  23.966  1.00  0.00     0.087 C 
BRANCH  11  12
ATOM     12  C   UNL     1      28.161  10.342  23.809  1.00  0.00     0.066 C 
BRANCH  12  13
ATOM     13  C   UNL     1      29.527  10.938  23.485  1.00  0.00     0.140 C 
ATOM     14  O   UNL     1      30.093  11.614  24.332  1.00  0.00    -0.299 OA
BRANCH  13  15
ATOM     15  C   UNL     1      30.106  10.873  22.093  1.00  0.00     0.106 CG0
ATOM     16  G   UNL     1      29.924  12.128  21.243  1.00  0.00     0.000 G0
ENDBRANCH  13  15
ENDBRANCH  12  13
BRANCH  12  17
ATOM     17  C   UNL     1      28.255   9.431  25.075  1.00  0.00    -0.006 C 
ATOM     18  C   UNL     1      26.973   8.608  25.300  1.00  0.00     0.008 C 
ATOM     19  C   UNL     1      29.453   8.466  24.989  1.00  0.00     0.008 C 
ENDBRANCH  12  17
ENDBRANCH  11  12
ENDBRANCH   1  11
TORSDOF 1
ENDMDL
MODEL 2
REMARK VINA RESULT:     1.926      1.841      3.638
REMARK INTER + INTRA:          15.196
REMARK INTER:                   6.692
REMARK INTRA:                   8.505
REMARK UNBOUND:                12.257
REMARK SMILES CC1=CCC[C@@H](C)C(=O)C[C@H](C(C)C)C(=O)C1
REMARK SMILES IDX 8 1 9 2 6 3 7 4 5 5 4 6 3 7 2 8 1 9 10 11 11 12 15 13 16 14
REMARK SMILES IDX 17 15 12 17 13 18 14 19
REMARK H PARENT
REMARK Flexibility Score: 70.00
ROOT
ATOM      1  C   UNL     1      28.505  10.923  21.466  1.00  0.00     0.136 C 
ATOM      2  O   UNL     1      29.324  10.058  21.743  1.00  0.00    -0.299 OA
ENDROOT
BRANCH   1   3
ATOM      3  C   UNL     1      28.766  11.865  20.306  1.00  0.00     0.053 C 
ATOM      4  C   UNL     1      30.025  11.416  19.557  1.00  0.00     0.016 C 
BRANCH   3   5
ATOM      5  C   UNL     1      28.911  13.333  20.762  1.00  0.00     0.015 C 
BRANCH   5   6
ATOM      6  C   UNL     1      30.123  13.609  21.669  1.00  0.00     0.028 C 
BRANCH   6   7
ATOM      7  C   UNL     1      29.787  13.696  23.141  1.00  0.00    -0.028 C 
ATOM      8  C   UNL     1      29.762  12.693  24.059  1.00  0.00    -0.070 CG0
ATOM      9  C   UNL     1      29.505  13.095  25.493  1.00  0.00     0.039 C 
ATOM     10  G   UNL     1      29.867  11.202  23.756  1.00  0.00     0.000 G0
ENDBRANCH   6   7
ENDBRANCH   5   6
ENDBRANCH   3   5
ENDBRANCH   1   3
BRANCH   1  11
ATOM     11  C   UNL     1      27.221  10.998  22.252  1.00  0.00     0.087 C 
BRANCH  11  12
ATOM     12  C   UNL     1      27.360  10.471  23.707  1.00  0.00     0.066 C 
BRANCH  12  13
ATOM     13  C   UNL     1      28.814  10.215  24.090  1.00  0.00     0.140 C 
ATOM     14  O   UNL     1      29.072   9.280  24.836  1.00  0.00    -0.299 OA
BRANCH  13  15
ATOM     15  C   UNL     1      29.908  11.189  23.732  1.00  0.00     0.106 CG0
ATOM     16  G   UNL     1      29.593  12.660  23.986  1.00  0.00     0.000 G0
ENDBRANCH  13  15
ENDBRANCH  12  13
BRANCH  12  17
ATOM     17  C   UNL     1      26.691  11.435  24.739  1.00  0.00    -0.006 C 
ATOM     18  C   UNL     1      27.723  12.306  25.479  1.00  0.00     0.008 C 
ATOM     19  C   UNL     1      25.657  12.357  24.065  1.00  0.00     0.008 C 
ENDBRANCH  12  17
ENDBRANCH  11  12
ENDBRANCH   1  11
TORSDOF 1
ENDMDL
MODEL 3
REMARK VINA RESULT:     2.186      1.800      4.081
REMARK INTER + INTRA:          15.593
REMARK INTER:                   6.537
REMARK INTRA:                   9.057
REMARK UNBOUND:                12.257
REMARK SMILES CC1=CCC[C@@H](C)C(=O)C[C@H](C(C)C)C(=O)C1
REMARK SMILES IDX 8 1 9 2 6 3 7 4 5 5 4 6 3 7 2 8 1 9 10 11 11 12 15 13 16 14
REMARK SMILES IDX 17 15 12 17 13 18 14 19
REMARK H PARENT
REMARK Flexibility Score: 70.00
ROOT
ATOM      1  C   UNL     1      27.111  12.952  22.216  1.00  0.00     0.136 C 
ATOM      2  O   UNL     1      26.682  12.614  21.122  1.00  0.00    -0.299 OA
ENDROOT
BRANCH   1   3
ATOM      3  C   UNL     1      26.597  12.273  23.471  1.00  0.00     0.053 C 
ATOM      4  C   UNL     1      25.166  11.779  23.234  1.00  0.00     0.016 C 
BRANCH   3   5
ATOM      5  C   UNL     1      26.643  13.202  24.704  1.00  0.00     0.015 C 
BRANCH   5   6
ATOM      6  C   UNL     1      27.946  13.125  25.520  1.00  0.00     0.028 C 
BRANCH   6   7
ATOM      7  C   UNL     1      28.357  11.720  25.898  1.00  0.00    -0.028 C 
ATOM      8  C   UNL     1      29.388  10.984  25.405  1.00  0.00    -0.070 CG0
ATOM      9  C   UNL     1      29.637   9.644  26.059  1.00  0.00     0.039 C 
ATOM     10  G   UNL     1      30.241  11.342  24.191  1.00  0.00     0.000 G0
ENDBRANCH   6   7
ENDBRANCH   5   6
ENDBRANCH   3   5
ENDBRANCH   1   3
BRANCH   1  11
ATOM     11  C   UNL     1      28.190  14.002  22.290  1.00  0.00     0.087 C 
BRANCH  11  12
ATOM     12  C   UNL     1      29.600  13.416  22.573  1.00  0.00     0.066 C 
BRANCH  12  13
ATOM     13  C   UNL     1      29.723  12.871  23.993  1.00  0.00     0.140 C 
ATOM     14  O   UNL     1      29.646  13.650  24.933  1.00  0.00    -0.299 OA
BRANCH  13  15
ATOM     15  C   UNL     1      30.124  11.441  24.258  1.00  0.00     0.106 CG0
ATOM     16  G   UNL     1      29.633  10.851  25.577  1.00  0.00     0.000 G0
ENDBRANCH  13  15
ENDBRANCH  12  13
BRANCH  12  17
ATOM     17  C   UNL     1      29.989  12.313  21.536  1.00  0.00    -0.006 C 
ATOM     18  C   UNL     1      29.379  10.942  21.885  1.00  0.00     0.008 C 
ATOM     19  C   UNL     1      29.555  12.699  20.109  1.00  0.00     0.008 C 
ENDBRANCH  12  17
ENDBRANCH  11  12
ENDBRANCH   1  11
TORSDOF 1
ENDMDL
MODEL 4
REMARK VINA RESULT:     2.205      1.787      4.125
REMARK INTER + INTRA:          15.622
REMARK INTER:                   8.896
REMARK INTRA:                   6.726
REMARK UNBOUND:                12.257
REMARK SMILES CC1=CCC[C@@H](C)C(=O)C[C@H](C(C)C)C(=O)C1
REMARK SMILES IDX 8 1 9 2 6 3 7 4 5 5 4 6 3 7 2 8 1 9 10 11 11 12 15 13 16 14
REMARK SMILES IDX 17 15 12 17 13 18 14 19
REMARK H PARENT
REMARK Flexibility Score: 70.00
ROOT
ATOM      1  C   UNL     1      26.584  12.475  23.736  1.00  0.00     0.136 C 
ATOM      2  O   UNL     1      25.913  11.511  23.396  1.00  0.00    -0.299 OA
ENDROOT
BRANCH   1   3
ATOM      3  C   UNL     1      26.630  12.886  25.196  1.00  0.00     0.053 C 
ATOM      4  C   UNL     1      26.030  14.287  25.350  1.00  0.00     0.016 C 
BRANCH   3   5
ATOM      5  C   UNL     1      28.062  12.852  25.771  1.00  0.00     0.015 C 
BRANCH   5   6
ATOM      6  C   UNL     1      28.637  11.440  25.985  1.00  0.00     0.028 C 
BRANCH   6   7
ATOM      7  C   UNL     1      27.710  10.324  25.561  1.00  0.00    -0.028 C 
ATOM      8  C   UNL     1      27.399   9.922  24.300  1.00  0.00    -0.070 CG0
ATOM      9  C   UNL     1      26.529   8.692  24.178  1.00  0.00     0.039 C 
ATOM     10  G   UNL     1      27.760  10.657  23.013  1.00  0.00     0.000 G0
ENDBRANCH   6   7
ENDBRANCH   5   6
ENDBRANCH   3   5
ENDBRANCH   1   3
BRANCH   1  11
ATOM     11  C   UNL     1      27.400  13.205  22.699  1.00  0.00     0.087 C 
BRANCH  11  12
ATOM     12  C   UNL     1      28.851  12.665  22.569  1.00  0.00     0.066 C 
BRANCH  12  13
ATOM     13  C   UNL     1      28.917  11.148  22.710  1.00  0.00     0.140 C 
ATOM     14  O   UNL     1      29.969  10.577  22.460  1.00  0.00    -0.299 OA
BRANCH  13  15
ATOM     15  C   UNL     1      27.678  10.324  22.961  1.00  0.00     0.106 CG0
ATOM     16  G   UNL     1      27.398   9.982  24.422  1.00  0.00     0.000 G0
ENDBRANCH  13  15
ENDBRANCH  12  13
BRANCH  12  17
ATOM     17  C   UNL     1      29.518  13.113  21.229  1.00  0.00    -0.006 C 
ATOM     18  C   UNL     1      28.575  12.947  20.023  1.00  0.00     0.008 C 
ATOM     19  C   UNL     1      29.989  14.578  21.292  1.00  0.00     0.008 C 
ENDBRANCH  12  17
ENDBRANCH  11  12
ENDBRANCH   1  11
TORSDOF 1
ENDMDL
MODEL 5
REMARK VINA RESULT:     2.527      1.680      3.434
REMARK INTER + INTRA:          16.114
REMARK INTER:                  13.774
REMARK INTRA:                   2.339
REMARK UNBOUND:                12.257
REMARK SMILES CC1=CCC[C@@H](C)C(=O)C[C@H](C(C)C)C(=O)C1
REMARK SMILES IDX 8 1 9 2 6 3 7 4 5 5 4 6 3 7 2 8 1 9 10 11 11 12 15 13 16 14
REMARK SMILES IDX 17 15 12 17 13 18 14 19
REMARK H PARENT
REMARK Flexibility Score: 70.00
ROOT
ATOM      1  C   UNL     1      27.291  10.018  22.681  1.00  0.00     0.136 C 
ATOM      2  O   UNL     1      27.159   9.498  21.582  1.00  0.00    -0.299 OA
ENDROOT
BRANCH   1   3
ATOM      3  C   UNL     1      28.322   9.476  23.654  1.00  0.00     0.053 C 
ATOM      4  C   UNL     1      27.655   8.460  24.587  1.00  0.00     0.016 C 
BRANCH   3   5
ATOM      5  C   UNL     1      28.999  10.593  24.477  1.00  0.00     0.015 C 
BRANCH   5   6
ATOM      6  C   UNL     1      30.123  11.344  23.741  1.00  0.00     0.028 C 
BRANCH   6   7
ATOM      7  C   UNL     1      30.051  11.243  22.234  1.00  0.00    -0.028 C 
ATOM      8  C   UNL     1      29.668  12.197  21.345  1.00  0.00    -0.070 CG0
ATOM      9  C   UNL     1      29.809  11.852  19.880  1.00  0.00     0.039 C 
ATOM     10  G   UNL     1      29.016  13.532  21.692  1.00  0.00     0.000 G0
ENDBRANCH   6   7
ENDBRANCH   5   6
ENDBRANCH   3   5
ENDBRANCH   1   3
BRANCH   1  11
ATOM     11  C   UNL     1      26.463  11.230  23.025  1.00  0.00     0.087 C 
BRANCH  11  12
ATOM     12  C   UNL     1      27.304  12.409  23.589  1.00  0.00     0.066 C 
BRANCH  12  13
ATOM     13  C   UNL     1      27.684  13.415  22.507  1.00  0.00     0.140 C 
ATOM     14  O   UNL     1      26.797  14.056  21.959  1.00  0.00    -0.299 OA
BRANCH  13  15
ATOM     15  C   UNL     1      29.090  13.502  21.968  1.00  0.00     0.106 CG0
ATOM     16  G   UNL     1      29.647  12.215  21.367  1.00  0.00     0.000 G0
ENDBRANCH  13  15
ENDBRANCH  12  13
BRANCH  12  17
ATOM     17  C   UNL     1      26.573  13.131  24.766  1.00  0.00    -0.006 C 
ATOM     18  C   UNL     1      25.085  12.746  24.854  1.00  0.00     0.008 C 
ATOM     19  C   UNL     1      27.244  12.830  26.119  1.00  0.00     0.008 C 
ENDBRANCH  12  17
ENDBRANCH  11  12
ENDBRANCH   1  11
TORSDOF 1
ENDMDL
