MODEL 1
REMARK VINA RESULT:     4.081      0.000      0.000
REMARK INTER + INTRA:           4.201
REMARK INTER:                   4.201
REMARK INTRA:                   0.000
REMARK UNBOUND:                 0.000
REMARK SMILES C=C1[C@H](O)C[C@]23C[C@H]1C(C)(C)[C@H]2CC[C@H]3C
REMARK SMILES IDX 16 1 15 2 14 3 13 4 12 5 6 6 7 7 8 8 9 9 10 10 11 11 2 12
REMARK SMILES IDX 1 13 3 14 5 15 4 16
REMARK H PARENT 4 17
REMARK Flexibility Score: inf
ROOT
ATOM      1  C   UNL     1     -38.123  24.286   5.057  1.00  0.00     0.008 C 
ATOM      2  C   UNL     1     -37.216  23.113   4.649  1.00  0.00    -0.008 C 
ATOM      3  C   UNL     1     -38.034  21.954   4.067  1.00  0.00     0.004 C 
ATOM      4  C   UNL     1     -38.125  20.918   5.171  1.00  0.00     0.005 C 
ATOM      5  C   UNL     1     -36.779  21.010   5.903  1.00  0.00     0.002 C 
ATOM      6  C   UNL     1     -36.357  22.491   5.799  1.00  0.00    -0.020 C 
ATOM      7  C   UNL     1     -36.584  23.038   7.216  1.00  0.00     0.016 C 
ATOM      8  C   UNL     1     -36.071  21.891   8.072  1.00  0.00     0.023 C 
ATOM      9  C   UNL     1     -36.733  20.636   7.427  1.00  0.00    -0.025 C 
ATOM     10  C   UNL     1     -38.125  20.410   8.078  1.00  0.00     0.012 C 
ATOM     11  C   UNL     1     -35.925  19.333   7.651  1.00  0.00     0.012 C 
ATOM     12  C   UNL     1     -34.550  21.874   7.947  1.00  0.00    -0.045 C 
ATOM     13  C   UNL     1     -33.801  21.561   9.017  1.00  0.00     0.011 C 
ATOM     14  C   UNL     1     -33.893  22.036   6.578  1.00  0.00     0.140 C 
ATOM     15  C   UNL     1     -34.838  22.629   5.490  1.00  0.00     0.044 C 
ENDROOT
BRANCH  14  16
ATOM     16  O   UNL     1     -32.756  22.855   6.701  1.00  0.00    -0.389 OA
ATOM     17  H   UNL     1     -32.616  23.007   7.672  1.00  0.00     0.211 HD
ENDBRANCH  14  16
TORSDOF 1
ENDMDL
