MODEL 1
REMARK VINA RESULT:    12.501      0.000      0.000
REMARK INTER + INTRA:          13.649
REMARK INTER:                  13.597
REMARK INTRA:                   0.052
REMARK UNBOUND:                 0.052
REMARK SMILES CC1(C)CC[C@@]2(C(=O)[O-])CC[C@@]3(C)C(=CC[C@H]4[C@@]5(C)CC[C@H](O)C(C)(C)[C@@H]5CC[C@@]43C)[C@H]2C1
REMARK SMILES IDX 6 1 5 2 10 3 32 4 4 5 11 6 14 7 33 8 2 9 12 10 15 11 1 12
REMARK SMILES IDX 3 13 13 14 30 15 16 16 17 17 29 18 31 19 18 20 28 21 27 22
REMARK SMILES IDX 20 23 19 24 24 25 21 26 22 27 25 28 26 29 7 30 8 31 9 32
REMARK SMILES IDX 23 33
REMARK H PARENT 23 34
REMARK Flexibility Score: inf
ROOT
ATOM      1  C   UNL     1       6.069 -54.301 576.893  1.00  0.00     0.017 C 
ATOM      2  C   UNL     1       5.615 -53.042 577.683  1.00  0.00     0.014 C 
ATOM      3  C   UNL     1       4.853 -54.663 575.982  1.00  0.00     0.014 C 
ATOM      4  C   UNL     1       7.440 -53.966 576.127  1.00  0.00     0.028 C 
ATOM      5  C   UNL     1       6.670 -52.555 578.698  1.00  0.00     0.007 C 
ATOM      6  C   UNL     1       5.200 -55.275 574.631  1.00  0.00     0.013 C 
ATOM      7  C   UNL     1       7.467 -54.109 574.606  1.00  0.00    -0.064 C 
ATOM      8  C   UNL     1       8.047 -52.569 576.538  1.00  0.00     0.015 C 
ATOM      9  C   UNL     1       8.082 -52.327 578.073  1.00  0.00    -0.035 C 
ATOM     10  C   UNL     1       6.195 -54.425 573.787  1.00  0.00    -0.006 C 
ATOM     11  C   UNL     1       8.680 -53.999 573.970  1.00  0.00    -0.027 C 
ATOM     12  C   UNL     1       9.123 -53.246 578.750  1.00  0.00     0.011 C 
ATOM     13  C   UNL     1       8.533 -50.866 578.321  1.00  0.00     0.011 C 
ATOM     14  C   UNL     1       5.524 -53.047 573.456  1.00  0.00     0.017 C 
ATOM     15  C   UNL     1       6.644 -55.266 572.495  1.00  0.00    -0.020 C 
ATOM     16  C   UNL     1       8.939 -54.168 572.468  1.00  0.00     0.032 C 
ATOM     17  C   UNL     1       7.635 -54.336 571.675  1.00  0.00     0.006 C 
ATOM     18  C   UNL     1       5.456 -55.691 571.580  1.00  0.00     0.008 C 
ATOM     19  C   UNL     1       7.351 -56.599 572.997  1.00  0.00     0.012 C 
ATOM     20  C   UNL     1       7.694 -54.592 570.089  1.00  0.00    -0.025 C 
ATOM     21  C   UNL     1       5.881 -56.392 570.253  1.00  0.00     0.005 C 
ATOM     22  C   UNL     1       7.340 -56.082 569.821  1.00  0.00     0.003 C 
ATOM     23  C   UNL     1       9.092 -54.335 569.496  1.00  0.00     0.010 C 
ATOM     24  C   UNL     1       6.657 -53.620 569.402  1.00  0.00     0.012 C 
ATOM     25  C   UNL     1       7.867 -56.708 568.439  1.00  0.00    -0.006 C 
ATOM     26  C   UNL     1       9.124 -54.469 567.959  1.00  0.00     0.033 C 
ATOM     27  C   UNL     1       8.286 -55.629 567.380  1.00  0.00     0.120 C 
ATOM     28  C   UNL     1       9.125 -57.591 568.689  1.00  0.00     0.014 C 
ATOM     29  C   UNL     1       6.810 -57.651 567.791  1.00  0.00     0.014 C 
ENDROOT
BRANCH   1  30
ATOM     30  C   UNL     1       6.243 -55.436 577.902  1.00  0.00     0.048 C 
ATOM     31  O   UNL     1       5.642 -55.364 579.010  1.00  0.00    -0.550 OA
ATOM     32  O   UNL     1       7.066 -56.526 577.654  1.00  0.00    -0.550 OA
ENDBRANCH   1  30
BRANCH  27  33
ATOM     33  O   UNL     1       7.148 -55.118 566.721  1.00  0.00    -0.393 OA
ATOM     34  H   UNL     1       7.331 -54.169 566.488  1.00  0.00     0.210 HD
ENDBRANCH  27  33
TORSDOF 2
ENDMDL
MODEL 2
REMARK VINA RESULT:    12.787      1.326      8.421
REMARK INTER + INTRA:          13.960
REMARK INTER:                  13.373
REMARK INTRA:                   0.588
REMARK UNBOUND:                 0.052
REMARK SMILES CC1(C)CC[C@@]2(C(=O)[O-])CC[C@@]3(C)C(=CC[C@H]4[C@@]5(C)CC[C@H](O)C(C)(C)[C@@H]5CC[C@@]43C)[C@H]2C1
REMARK SMILES IDX 6 1 5 2 10 3 32 4 4 5 11 6 14 7 33 8 2 9 12 10 15 11 1 12
REMARK SMILES IDX 3 13 13 14 30 15 16 16 17 17 29 18 31 19 18 20 28 21 27 22
REMARK SMILES IDX 20 23 19 24 24 25 21 26 22 27 25 28 26 29 7 30 8 31 9 32
REMARK SMILES IDX 23 33
REMARK H PARENT 23 34
REMARK Flexibility Score: inf
ROOT
ATOM      1  C   UNL     1       7.288 -54.489 569.015  1.00  0.00     0.017 C 
ATOM      2  C   UNL     1       6.355 -55.063 567.913  1.00  0.00     0.014 C 
ATOM      3  C   UNL     1       6.466 -53.339 569.678  1.00  0.00     0.014 C 
ATOM      4  C   UNL     1       7.731 -55.685 569.993  1.00  0.00     0.028 C 
ATOM      5  C   UNL     1       7.017 -56.188 567.090  1.00  0.00     0.007 C 
ATOM      6  C   UNL     1       6.713 -53.123 571.166  1.00  0.00     0.013 C 
ATOM      7  C   UNL     1       7.393 -55.560 571.479  1.00  0.00    -0.064 C 
ATOM      8  C   UNL     1       7.289 -57.104 569.467  1.00  0.00     0.015 C 
ATOM      9  C   UNL     1       7.602 -57.341 567.963  1.00  0.00    -0.035 C 
ATOM     10  C   UNL     1       6.530 -54.404 572.031  1.00  0.00    -0.006 C 
ATOM     11  C   UNL     1       7.926 -56.489 572.340  1.00  0.00    -0.027 C 
ATOM     12  C   UNL     1       9.125 -57.469 567.734  1.00  0.00     0.011 C 
ATOM     13  C   UNL     1       6.964 -58.690 567.544  1.00  0.00     0.011 C 
ATOM     14  C   UNL     1       5.037 -54.872 571.926  1.00  0.00     0.017 C 
ATOM     15  C   UNL     1       7.021 -54.104 573.530  1.00  0.00    -0.020 C 
ATOM     16  C   UNL     1       7.765 -56.514 573.865  1.00  0.00     0.032 C 
ATOM     17  C   UNL     1       6.786 -55.438 574.357  1.00  0.00     0.006 C 
ATOM     18  C   UNL     1       6.259 -52.929 574.215  1.00  0.00     0.008 C 
ATOM     19  C   UNL     1       8.557 -53.697 573.472  1.00  0.00     0.012 C 
ATOM     20  C   UNL     1       6.528 -55.256 575.933  1.00  0.00    -0.025 C 
ATOM     21  C   UNL     1       6.627 -52.707 575.715  1.00  0.00     0.005 C 
ATOM     22  C   UNL     1       7.245 -53.957 576.399  1.00  0.00     0.003 C 
ATOM     23  C   UNL     1       7.094 -56.421 576.767  1.00  0.00     0.010 C 
ATOM     24  C   UNL     1       4.969 -55.169 576.163  1.00  0.00     0.012 C 
ATOM     25  C   UNL     1       7.612 -53.859 577.960  1.00  0.00    -0.006 C 
ATOM     26  C   UNL     1       6.749 -56.306 578.267  1.00  0.00     0.033 C 
ATOM     27  C   UNL     1       6.826 -54.880 578.854  1.00  0.00     0.120 C 
ATOM     28  C   UNL     1       9.125 -54.154 578.180  1.00  0.00     0.014 C 
ATOM     29  C   UNL     1       7.373 -52.426 578.521  1.00  0.00     0.014 C 
ENDROOT
BRANCH   1  30
ATOM     30  C   UNL     1       8.488 -53.854 568.314  1.00  0.00     0.048 C 
ATOM     31  O   UNL     1       9.124 -52.936 568.906  1.00  0.00    -0.550 OA
ATOM     32  O   UNL     1       8.884 -54.228 567.038  1.00  0.00    -0.550 OA
ENDBRANCH   1  30
BRANCH  27  33
ATOM     33  O   UNL     1       5.527 -54.401 579.124  1.00  0.00    -0.393 OA
ATOM     34  H   UNL     1       4.905 -54.822 578.473  1.00  0.00     0.210 HD
ENDBRANCH  27  33
TORSDOF 2
ENDMDL
MODEL 3
REMARK VINA RESULT:    12.938      1.554      2.574
REMARK INTER + INTRA:          14.125
REMARK INTER:                  14.325
REMARK INTRA:                  -0.200
REMARK UNBOUND:                 0.052
REMARK SMILES CC1(C)CC[C@@]2(C(=O)[O-])CC[C@@]3(C)C(=CC[C@H]4[C@@]5(C)CC[C@H](O)C(C)(C)[C@@H]5CC[C@@]43C)[C@H]2C1
REMARK SMILES IDX 6 1 5 2 10 3 32 4 4 5 11 6 14 7 33 8 2 9 12 10 15 11 1 12
REMARK SMILES IDX 3 13 13 14 30 15 16 16 17 17 29 18 31 19 18 20 28 21 27 22
REMARK SMILES IDX 20 23 19 24 24 25 21 26 22 27 25 28 26 29 7 30 8 31 9 32
REMARK SMILES IDX 23 33
REMARK H PARENT 23 34
REMARK Flexibility Score: inf
ROOT
ATOM      1  C   UNL     1       7.289 -54.594 577.291  1.00  0.00     0.017 C 
ATOM      2  C   UNL     1       6.188 -54.707 578.382  1.00  0.00     0.014 C 
ATOM      3  C   UNL     1       7.547 -56.064 576.829  1.00  0.00     0.014 C 
ATOM      4  C   UNL     1       6.785 -53.582 576.150  1.00  0.00     0.028 C 
ATOM      5  C   UNL     1       5.829 -53.348 579.017  1.00  0.00     0.007 C 
ATOM      6  C   UNL     1       7.924 -56.239 575.364  1.00  0.00     0.013 C 
ATOM      7  C   UNL     1       6.684 -54.106 574.717  1.00  0.00    -0.064 C 
ATOM      8  C   UNL     1       5.449 -52.838 576.536  1.00  0.00     0.015 C 
ATOM      9  C   UNL     1       5.452 -52.250 577.975  1.00  0.00    -0.035 C 
ATOM     10  C   UNL     1       6.914 -55.594 574.369  1.00  0.00    -0.006 C 
ATOM     11  C   UNL     1       6.429 -53.200 573.716  1.00  0.00    -0.027 C 
ATOM     12  C   UNL     1       6.426 -51.055 578.076  1.00  0.00     0.011 C 
ATOM     13  C   UNL     1       4.032 -51.707 578.277  1.00  0.00     0.011 C 
ATOM     14  C   UNL     1       5.527 -56.309 574.526  1.00  0.00     0.017 C 
ATOM     15  C   UNL     1       7.522 -55.657 572.884  1.00  0.00    -0.020 C 
ATOM     16  C   UNL     1       6.348 -53.501 572.215  1.00  0.00     0.032 C 
ATOM     17  C   UNL     1       6.438 -55.007 571.925  1.00  0.00     0.006 C 
ATOM     18  C   UNL     1       7.842 -57.104 572.399  1.00  0.00     0.008 C 
ATOM     19  C   UNL     1       8.890 -54.847 572.878  1.00  0.00     0.012 C 
ATOM     20  C   UNL     1       6.437 -55.526 570.404  1.00  0.00    -0.025 C 
ATOM     21  C   UNL     1       8.308 -57.199 570.913  1.00  0.00     0.005 C 
ATOM     22  C   UNL     1       7.879 -55.986 570.043  1.00  0.00     0.003 C 
ATOM     23  C   UNL     1       6.037 -54.429 569.400  1.00  0.00     0.010 C 
ATOM     24  C   UNL     1       5.409 -56.720 570.300  1.00  0.00     0.012 C 
ATOM     25  C   UNL     1       8.258 -56.003 568.483  1.00  0.00    -0.006 C 
ATOM     26  C   UNL     1       5.925 -54.954 567.953  1.00  0.00     0.033 C 
ATOM     27  C   UNL     1       7.009 -55.969 567.534  1.00  0.00     0.120 C 
ATOM     28  C   UNL     1       9.121 -54.760 568.121  1.00  0.00     0.014 C 
ATOM     29  C   UNL     1       9.125 -57.243 568.113  1.00  0.00     0.014 C 
ENDROOT
BRANCH   1  30
ATOM     30  C   UNL     1       8.561 -54.094 577.973  1.00  0.00     0.048 C 
ATOM     31  O   UNL     1       9.102 -54.816 578.858  1.00  0.00    -0.550 OA
ATOM     32  O   UNL     1       9.124 -52.861 577.677  1.00  0.00    -0.550 OA
ENDBRANCH   1  30
BRANCH  27  33
ATOM     33  O   UNL     1       6.444 -57.257 567.417  1.00  0.00    -0.393 OA
ATOM     34  H   UNL     1       5.488 -57.148 567.167  1.00  0.00     0.210 HD
ENDBRANCH  27  33
TORSDOF 2
ENDMDL
MODEL 4
REMARK VINA RESULT:    13.341      1.809      8.266
REMARK INTER + INTRA:          14.563
REMARK INTER:                  13.772
REMARK INTRA:                   0.792
REMARK UNBOUND:                 0.052
REMARK SMILES CC1(C)CC[C@@]2(C(=O)[O-])CC[C@@]3(C)C(=CC[C@H]4[C@@]5(C)CC[C@H](O)C(C)(C)[C@@H]5CC[C@@]43C)[C@H]2C1
REMARK SMILES IDX 6 1 5 2 10 3 32 4 4 5 11 6 14 7 33 8 2 9 12 10 15 11 1 12
REMARK SMILES IDX 3 13 13 14 30 15 16 16 17 17 29 18 31 19 18 20 28 21 27 22
REMARK SMILES IDX 20 23 19 24 24 25 21 26 22 27 25 28 26 29 7 30 8 31 9 32
REMARK SMILES IDX 23 33
REMARK H PARENT 23 34
REMARK Flexibility Score: inf
ROOT
ATOM      1  C   UNL     1       8.145 -56.738 569.722  1.00  0.00     0.017 C 
ATOM      2  C   UNL     1       9.051 -56.220 568.570  1.00  0.00     0.014 C 
ATOM      3  C   UNL     1       9.125 -57.035 570.901  1.00  0.00     0.014 C 
ATOM      4  C   UNL     1       7.007 -55.643 570.018  1.00  0.00     0.028 C 
ATOM      5  C   UNL     1       8.268 -55.923 567.275  1.00  0.00     0.007 C 
ATOM      6  C   UNL     1       8.566 -56.801 572.299  1.00  0.00     0.013 C 
ATOM      7  C   UNL     1       6.924 -55.056 571.427  1.00  0.00    -0.064 C 
ATOM      8  C   UNL     1       6.987 -54.476 568.957  1.00  0.00     0.015 C 
ATOM      9  C   UNL     1       7.052 -54.967 567.483  1.00  0.00    -0.035 C 
ATOM     10  C   UNL     1       7.974 -55.377 572.514  1.00  0.00    -0.006 C 
ATOM     11  C   UNL     1       5.846 -54.260 571.730  1.00  0.00    -0.027 C 
ATOM     12  C   UNL     1       5.738 -55.674 567.083  1.00  0.00     0.011 C 
ATOM     13  C   UNL     1       7.200 -53.726 566.568  1.00  0.00     0.011 C 
ATOM     14  C   UNL     1       9.125 -54.324 572.349  1.00  0.00     0.017 C 
ATOM     15  C   UNL     1       7.233 -55.324 573.937  1.00  0.00    -0.020 C 
ATOM     16  C   UNL     1       5.539 -53.624 573.091  1.00  0.00     0.032 C 
ATOM     17  C   UNL     1       6.676 -53.846 574.100  1.00  0.00     0.006 C 
ATOM     18  C   UNL     1       8.163 -55.662 575.142  1.00  0.00     0.008 C 
ATOM     19  C   UNL     1       6.068 -56.406 573.926  1.00  0.00     0.012 C 
ATOM     20  C   UNL     1       6.519 -53.312 575.607  1.00  0.00    -0.025 C 
ATOM     21  C   UNL     1       7.498 -55.485 576.542  1.00  0.00     0.005 C 
ATOM     22  C   UNL     1       6.270 -54.534 576.536  1.00  0.00     0.003 C 
ATOM     23  C   UNL     1       5.327 -52.351 575.778  1.00  0.00     0.010 C 
ATOM     24  C   UNL     1       7.850 -52.555 575.994  1.00  0.00     0.012 C 
ATOM     25  C   UNL     1       5.539 -54.236 577.935  1.00  0.00    -0.006 C 
ATOM     26  C   UNL     1       5.243 -51.749 577.196  1.00  0.00     0.033 C 
ATOM     27  C   UNL     1       5.568 -52.723 578.348  1.00  0.00     0.120 C 
ATOM     28  C   UNL     1       4.039 -54.645 577.860  1.00  0.00     0.014 C 
ATOM     29  C   UNL     1       6.150 -55.076 579.096  1.00  0.00     0.014 C 
ENDROOT
BRANCH   1  30
ATOM     30  C   UNL     1       7.548 -58.071 569.271  1.00  0.00     0.048 C 
ATOM     31  O   UNL     1       7.468 -59.016 570.105  1.00  0.00    -0.550 OA
ATOM     32  O   UNL     1       7.121 -58.287 567.968  1.00  0.00    -0.550 OA
ENDBRANCH   1  30
BRANCH  27  33
ATOM     33  O   UNL     1       6.813 -52.392 578.922  1.00  0.00    -0.393 OA
ATOM     34  H   UNL     1       7.071 -53.129 579.536  1.00  0.00     0.210 HD
ENDBRANCH  27  33
TORSDOF 2
ENDMDL
MODEL 5
REMARK VINA RESULT:    14.178      1.562      8.199
REMARK INTER + INTRA:          15.474
REMARK INTER:                  15.594
REMARK INTRA:                  -0.120
REMARK UNBOUND:                 0.052
REMARK SMILES CC1(C)CC[C@@]2(C(=O)[O-])CC[C@@]3(C)C(=CC[C@H]4[C@@]5(C)CC[C@H](O)C(C)(C)[C@@H]5CC[C@@]43C)[C@H]2C1
REMARK SMILES IDX 6 1 5 2 10 3 32 4 4 5 11 6 14 7 33 8 2 9 12 10 15 11 1 12
REMARK SMILES IDX 3 13 13 14 30 15 16 16 17 17 29 18 31 19 18 20 28 21 27 22
REMARK SMILES IDX 20 23 19 24 24 25 21 26 22 27 25 28 26 29 7 30 8 31 9 32
REMARK SMILES IDX 23 33
REMARK H PARENT 23 34
REMARK Flexibility Score: inf
ROOT
ATOM      1  C   UNL     1       7.044 -56.414 569.380  1.00  0.00     0.017 C 
ATOM      2  C   UNL     1       8.177 -56.683 568.352  1.00  0.00     0.014 C 
ATOM      3  C   UNL     1       7.293 -57.440 570.531  1.00  0.00     0.014 C 
ATOM      4  C   UNL     1       7.087 -54.865 569.804  1.00  0.00     0.028 C 
ATOM      5  C   UNL     1       8.072 -55.798 567.093  1.00  0.00     0.007 C 
ATOM      6  C   UNL     1       6.914 -56.970 571.929  1.00  0.00     0.013 C 
ATOM      7  C   UNL     1       7.279 -54.530 571.284  1.00  0.00    -0.064 C 
ATOM      8  C   UNL     1       8.094 -54.018 568.936  1.00  0.00     0.015 C 
ATOM      9  C   UNL     1       7.972 -54.273 567.407  1.00  0.00    -0.035 C 
ATOM     10  C   UNL     1       7.568 -55.618 572.342  1.00  0.00    -0.006 C 
ATOM     11  C   UNL     1       7.135 -53.220 571.671  1.00  0.00    -0.027 C 
ATOM     12  C   UNL     1       6.647 -53.697 566.860  1.00  0.00     0.011 C 
ATOM     13  C   UNL     1       9.124 -53.517 566.699  1.00  0.00     0.011 C 
ATOM     14  C   UNL     1       9.125 -55.804 572.378  1.00  0.00     0.017 C 
ATOM     15  C   UNL     1       6.931 -55.127 573.732  1.00  0.00    -0.020 C 
ATOM     16  C   UNL     1       7.225 -52.679 573.103  1.00  0.00     0.032 C 
ATOM     17  C   UNL     1       7.656 -53.763 574.102  1.00  0.00     0.006 C 
ATOM     18  C   UNL     1       7.114 -56.144 574.899  1.00  0.00     0.008 C 
ATOM     19  C   UNL     1       5.368 -54.935 573.516  1.00  0.00     0.012 C 
ATOM     20  C   UNL     1       7.747 -53.414 575.667  1.00  0.00    -0.025 C 
ATOM     21  C   UNL     1       6.623 -55.629 576.288  1.00  0.00     0.005 C 
ATOM     22  C   UNL     1       6.541 -54.082 576.389  1.00  0.00     0.003 C 
ATOM     23  C   UNL     1       7.671 -51.901 575.946  1.00  0.00     0.010 C 
ATOM     24  C   UNL     1       9.122 -53.969 576.209  1.00  0.00     0.012 C 
ATOM     25  C   UNL     1       6.098 -53.439 577.792  1.00  0.00    -0.006 C 
ATOM     26  C   UNL     1       7.873 -51.556 577.436  1.00  0.00     0.033 C 
ATOM     27  C   UNL     1       7.194 -52.518 578.434  1.00  0.00     0.120 C 
ATOM     28  C   UNL     1       4.831 -52.554 577.607  1.00  0.00     0.014 C 
ATOM     29  C   UNL     1       5.704 -54.532 578.830  1.00  0.00     0.014 C 
ENDROOT
BRANCH   1  30
ATOM     30  C   UNL     1       5.721 -56.783 568.711  1.00  0.00     0.048 C 
ATOM     31  O   UNL     1       4.662 -56.210 569.095  1.00  0.00    -0.550 OA
ATOM     32  O   UNL     1       5.638 -57.750 567.718  1.00  0.00    -0.550 OA
ENDBRANCH   1  30
BRANCH  27  33
ATOM     33  O   UNL     1       8.169 -53.296 579.092  1.00  0.00    -0.393 OA
ATOM     34  H   UNL     1       9.046 -52.842 578.982  1.00  0.00     0.210 HD
ENDBRANCH  27  33
TORSDOF 2
ENDMDL
