MODEL 1
REMARK VINA RESULT:    -5.950      0.000      0.000
REMARK INTER + INTRA:          -6.124
REMARK INTER:                  -6.124
REMARK INTRA:                   0.000
REMARK UNBOUND:                 0.000
REMARK SMILES C[C@H]1CC[C@]2(OC1)O[C@H]1C[C@H]3[C@@H]4CC=C5C[C@@H](O)CC[C@@]5(C)[C@H]4CC[C@@]3(C)[C@@H]1[C@H]2C
REMARK SMILES IDX 1 1 2 2 3 3 4 4 5 5 29 6 28 7 9 8 8 9 10 10 11 11 26 12
REMARK SMILES IDX 25 13 24 14 23 15 12 16 13 17 14 18 15 19 21 20 20 21 19 22
REMARK SMILES IDX 17 23 16 24 22 25 27 26 30 27 6 28 7 29 18 30
REMARK H PARENT 18 31
REMARK Flexibility Score: inf
ROOT
ATOM      1  C   UNL     1      12.134  16.054  18.821  1.00  0.00     0.010 C 
ATOM      2  C   UNL     1      12.844  17.009  17.856  1.00  0.00     0.012 C 
ATOM      3  C   UNL     1      13.907  16.268  17.037  1.00  0.00     0.011 C 
ATOM      4  C   UNL     1      14.513  17.205  15.994  1.00  0.00     0.066 C 
ATOM      5  C   UNL     1      13.406  17.894  15.160  1.00  0.00     0.171 C 
ATOM      6  C   UNL     1      14.058  18.930  14.168  1.00  0.00     0.052 C 
ATOM      7  C   UNL     1      13.225  18.647  12.948  1.00  0.00     0.033 C 
ATOM      8  C   UNL     1      13.137  17.172  13.063  1.00  0.00     0.126 C 
ATOM      9  O   UNL     1      12.704  16.921  14.370  1.00  0.00    -0.346 OA
ATOM     10  C   UNL     1      12.254  16.803  11.897  1.00  0.00     0.037 C 
ATOM     11  C   UNL     1      12.888  17.658  10.766  1.00  0.00     0.002 C 
ATOM     12  C   UNL     1      13.586  18.891  11.467  1.00  0.00    -0.024 C 
ATOM     13  C   UNL     1      12.998  20.257  10.997  1.00  0.00     0.008 C 
ATOM     14  C   UNL     1      12.872  20.413   9.463  1.00  0.00     0.005 C 
ATOM     15  C   UNL     1      12.576  19.082   8.705  1.00  0.00     0.003 C 
ATOM     16  C   UNL     1      11.880  18.071   9.662  1.00  0.00     0.000 C 
ATOM     17  C   UNL     1      11.370  16.854   8.881  1.00  0.00     0.031 C 
ATOM     18  C   UNL     1      10.356  17.324   7.888  1.00  0.00    -0.027 C 
ATOM     19  C   UNL     1      10.567  18.440   7.164  1.00  0.00    -0.065 C 
ATOM     20  C   UNL     1      11.905  19.195   7.248  1.00  0.00    -0.008 C 
ATOM     21  C   UNL     1      11.641  20.668   6.809  1.00  0.00     0.014 C 
ATOM     22  C   UNL     1      11.000  20.807   5.413  1.00  0.00     0.033 C 
ATOM     23  C   UNL     1       9.920  19.739   5.101  1.00  0.00     0.118 C 
ATOM     24  C   UNL     1       9.419  19.011   6.354  1.00  0.00     0.063 C 
ATOM     25  C   UNL     1      12.878  18.544   6.225  1.00  0.00     0.016 C 
ATOM     26  C   UNL     1      15.116  18.881  11.234  1.00  0.00     0.012 C 
ATOM     27  C   UNL     1      13.981  20.397  14.611  1.00  0.00     0.014 C 
ATOM     28  O   UNL     1      12.488  18.569  16.016  1.00  0.00    -0.349 OA
ATOM     29  C   UNL     1      11.838  17.675  16.903  1.00  0.00     0.167 C 
ENDROOT
BRANCH  23  30
ATOM     30  O   UNL     1       8.825  20.335   4.455  1.00  0.00    -0.393 OA
ATOM     31  H   UNL     1       8.600  19.756   3.679  1.00  0.00     0.210 HD
ENDBRANCH  23  30
TORSDOF 1
ENDMDL
MODEL 2
REMARK VINA RESULT:    -5.940     15.785     16.864
REMARK INTER + INTRA:          -6.114
REMARK INTER:                  -6.114
REMARK INTRA:                   0.000
REMARK UNBOUND:                 0.000
REMARK SMILES C[C@H]1CC[C@]2(OC1)O[C@H]1C[C@H]3[C@@H]4CC=C5C[C@@H](O)CC[C@@]5(C)[C@H]4CC[C@@]3(C)[C@@H]1[C@H]2C
REMARK SMILES IDX 1 1 2 2 3 3 4 4 5 5 29 6 28 7 9 8 8 9 10 10 11 11 26 12
REMARK SMILES IDX 25 13 24 14 23 15 12 16 13 17 14 18 15 19 21 20 20 21 19 22
REMARK SMILES IDX 17 23 16 24 22 25 27 26 30 27 6 28 7 29 18 30
REMARK H PARENT 18 31
REMARK Flexibility Score: inf
ROOT
ATOM      1  C   UNL     1      -2.526  21.057  19.515  1.00  0.00     0.010 C 
ATOM      2  C   UNL     1      -1.243  21.803  19.134  1.00  0.00     0.012 C 
ATOM      3  C   UNL     1      -0.972  21.690  17.630  1.00  0.00     0.011 C 
ATOM      4  C   UNL     1       0.236  22.543  17.249  1.00  0.00     0.066 C 
ATOM      5  C   UNL     1       0.082  23.989  17.779  1.00  0.00     0.171 C 
ATOM      6  C   UNL     1       1.387  24.812  17.463  1.00  0.00     0.052 C 
ATOM      7  C   UNL     1       0.755  26.107  17.037  1.00  0.00     0.033 C 
ATOM      8  C   UNL     1      -0.392  25.565  16.270  1.00  0.00     0.126 C 
ATOM      9  O   UNL     1      -1.013  24.644  17.121  1.00  0.00    -0.346 OA
ATOM     10  C   UNL     1      -1.128  26.813  15.851  1.00  0.00     0.037 C 
ATOM     11  C   UNL     1       0.050  27.697  15.355  1.00  0.00     0.002 C 
ATOM     12  C   UNL     1       1.342  27.202  16.120  1.00  0.00    -0.024 C 
ATOM     13  C   UNL     1       1.990  28.326  16.985  1.00  0.00     0.008 C 
ATOM     14  C   UNL     1       2.190  29.672  16.251  1.00  0.00     0.005 C 
ATOM     15  C   UNL     1       1.105  29.982  15.174  1.00  0.00     0.003 C 
ATOM     16  C   UNL     1      -0.209  29.218  15.509  1.00  0.00     0.000 C 
ATOM     17  C   UNL     1      -1.353  29.690  14.604  1.00  0.00     0.031 C 
ATOM     18  C   UNL     1      -1.586  31.145  14.860  1.00  0.00    -0.027 C 
ATOM     19  C   UNL     1      -0.549  31.995  14.989  1.00  0.00    -0.065 C 
ATOM     20  C   UNL     1       0.896  31.521  14.757  1.00  0.00    -0.008 C 
ATOM     21  C   UNL     1       1.839  32.497  15.527  1.00  0.00     0.014 C 
ATOM     22  C   UNL     1       1.661  33.981  15.146  1.00  0.00     0.033 C 
ATOM     23  C   UNL     1       0.188  34.406  14.916  1.00  0.00     0.118 C 
ATOM     24  C   UNL     1      -0.820  33.402  15.487  1.00  0.00     0.063 C 
ATOM     25  C   UNL     1       1.194  31.647  13.237  1.00  0.00     0.016 C 
ATOM     26  C   UNL     1       2.394  26.633  15.140  1.00  0.00     0.012 C 
ATOM     27  C   UNL     1       2.354  24.984  18.642  1.00  0.00     0.014 C 
ATOM     28  O   UNL     1      -0.142  23.978  19.187  1.00  0.00    -0.349 OA
ATOM     29  C   UNL     1      -1.332  23.286  19.527  1.00  0.00     0.167 C 
ENDROOT
BRANCH  23  30
ATOM     30  O   UNL     1      -0.047  35.664  15.495  1.00  0.00    -0.393 OA
ATOM     31  H   UNL     1       0.115  35.565  16.471  1.00  0.00     0.210 HD
ENDBRANCH  23  30
TORSDOF 1
ENDMDL
MODEL 3
REMARK VINA RESULT:    -5.894      1.686      2.575
REMARK INTER + INTRA:          -6.066
REMARK INTER:                  -6.066
REMARK INTRA:                   0.000
REMARK UNBOUND:                 0.000
REMARK SMILES C[C@H]1CC[C@]2(OC1)O[C@H]1C[C@H]3[C@@H]4CC=C5C[C@@H](O)CC[C@@]5(C)[C@H]4CC[C@@]3(C)[C@@H]1[C@H]2C
REMARK SMILES IDX 1 1 2 2 3 3 4 4 5 5 29 6 28 7 9 8 8 9 10 10 11 11 26 12
REMARK SMILES IDX 25 13 24 14 23 15 12 16 13 17 14 18 15 19 21 20 20 21 19 22
REMARK SMILES IDX 17 23 16 24 22 25 27 26 30 27 6 28 7 29 18 30
REMARK H PARENT 18 31
REMARK Flexibility Score: inf
ROOT
ATOM      1  C   UNL     1      11.739  17.223  16.704  1.00  0.00     0.010 C 
ATOM      2  C   UNL     1      12.313  18.137  15.617  1.00  0.00     0.012 C 
ATOM      3  C   UNL     1      13.493  17.465  14.905  1.00  0.00     0.011 C 
ATOM      4  C   UNL     1      13.969  18.335  13.743  1.00  0.00     0.066 C 
ATOM      5  C   UNL     1      12.787  18.727  12.824  1.00  0.00     0.171 C 
ATOM      6  C   UNL     1      13.292  19.708  11.700  1.00  0.00     0.052 C 
ATOM      7  C   UNL     1      12.537  19.139  10.531  1.00  0.00     0.033 C 
ATOM      8  C   UNL     1      12.672  17.697  10.846  1.00  0.00     0.126 C 
ATOM      9  O   UNL     1      12.257  17.560  12.175  1.00  0.00    -0.346 OA
ATOM     10  C   UNL     1      11.879  17.043   9.742  1.00  0.00     0.037 C 
ATOM     11  C   UNL     1      12.397  17.826   8.504  1.00  0.00     0.002 C 
ATOM     12  C   UNL     1      12.885  19.235   9.030  1.00  0.00    -0.024 C 
ATOM     13  C   UNL     1      12.104  20.418   8.379  1.00  0.00     0.008 C 
ATOM     14  C   UNL     1      11.987  20.344   6.839  1.00  0.00     0.005 C 
ATOM     15  C   UNL     1      11.912  18.894   6.270  1.00  0.00     0.003 C 
ATOM     16  C   UNL     1      11.360  17.926   7.356  1.00  0.00     0.000 C 
ATOM     17  C   UNL     1      11.056  16.551   6.748  1.00  0.00     0.031 C 
ATOM     18  C   UNL     1      10.003  16.721   5.701  1.00  0.00    -0.027 C 
ATOM     19  C   UNL     1      10.056  17.749   4.833  1.00  0.00    -0.065 C 
ATOM     20  C   UNL     1      11.260  18.705   4.812  1.00  0.00    -0.008 C 
ATOM     21  C   UNL     1      10.784  20.048   4.176  1.00  0.00     0.014 C 
ATOM     22  C   UNL     1      10.156  19.897   2.775  1.00  0.00     0.033 C 
ATOM     23  C   UNL     1       9.258  18.644   2.613  1.00  0.00     0.118 C 
ATOM     24  C   UNL     1       8.849  18.023   3.954  1.00  0.00     0.063 C 
ATOM     25  C   UNL     1      12.341  18.080   3.885  1.00  0.00     0.016 C 
ATOM     26  C   UNL     1      14.402  19.428   8.799  1.00  0.00     0.012 C 
ATOM     27  C   UNL     1      12.983  21.192  11.939  1.00  0.00     0.014 C 
ATOM     28  O   UNL     1      11.760  19.362  13.582  1.00  0.00    -0.349 OA
ATOM     29  C   UNL     1      11.237  18.506  14.583  1.00  0.00     0.167 C 
ENDROOT
BRANCH  23  30
ATOM     30  O   UNL     1       8.097  18.972   1.893  1.00  0.00    -0.393 OA
ATOM     31  H   UNL     1       8.111  18.425   1.064  1.00  0.00     0.210 HD
ENDBRANCH  23  30
TORSDOF 1
ENDMDL
MODEL 4
REMARK VINA RESULT:    -5.861     15.826     17.111
REMARK INTER + INTRA:          -6.032
REMARK INTER:                  -6.032
REMARK INTRA:                   0.000
REMARK UNBOUND:                 0.000
REMARK SMILES C[C@H]1CC[C@]2(OC1)O[C@H]1C[C@H]3[C@@H]4CC=C5C[C@@H](O)CC[C@@]5(C)[C@H]4CC[C@@]3(C)[C@@H]1[C@H]2C
REMARK SMILES IDX 1 1 2 2 3 3 4 4 5 5 29 6 28 7 9 8 8 9 10 10 11 11 26 12
REMARK SMILES IDX 25 13 24 14 23 15 12 16 13 17 14 18 15 19 21 20 20 21 19 22
REMARK SMILES IDX 17 23 16 24 22 25 27 26 30 27 6 28 7 29 18 30
REMARK H PARENT 18 31
REMARK Flexibility Score: inf
ROOT
ATOM      1  C   UNL     1       0.123  19.856  19.004  1.00  0.00     0.010 C 
ATOM      2  C   UNL     1      -0.839  20.858  18.357  1.00  0.00     0.012 C 
ATOM      3  C   UNL     1      -1.389  21.838  19.399  1.00  0.00     0.011 C 
ATOM      4  C   UNL     1      -2.243  22.905  18.716  1.00  0.00     0.066 C 
ATOM      5  C   UNL     1      -1.475  23.560  17.543  1.00  0.00     0.171 C 
ATOM      6  C   UNL     1      -2.417  24.577  16.795  1.00  0.00     0.052 C 
ATOM      7  C   UNL     1      -1.435  25.694  16.575  1.00  0.00     0.033 C 
ATOM      8  C   UNL     1      -0.722  25.637  17.873  1.00  0.00     0.126 C 
ATOM      9  O   UNL     1      -0.348  24.299  18.039  1.00  0.00    -0.346 OA
ATOM     10  C   UNL     1       0.338  26.698  17.714  1.00  0.00     0.037 C 
ATOM     11  C   UNL     1      -0.497  27.859  17.107  1.00  0.00     0.002 C 
ATOM     12  C   UNL     1      -1.726  27.196  16.367  1.00  0.00    -0.024 C 
ATOM     13  C   UNL     1      -1.752  27.524  14.842  1.00  0.00     0.008 C 
ATOM     14  C   UNL     1      -1.564  29.021  14.501  1.00  0.00     0.005 C 
ATOM     15  C   UNL     1      -0.646  29.796  15.496  1.00  0.00     0.003 C 
ATOM     16  C   UNL     1       0.329  28.806  16.199  1.00  0.00     0.000 C 
ATOM     17  C   UNL     1       1.390  29.572  16.997  1.00  0.00     0.031 C 
ATOM     18  C   UNL     1       2.185  30.407  16.045  1.00  0.00    -0.027 C 
ATOM     19  C   UNL     1       1.576  31.099  15.063  1.00  0.00    -0.065 C 
ATOM     20  C   UNL     1       0.042  31.149  14.966  1.00  0.00    -0.008 C 
ATOM     21  C   UNL     1      -0.325  31.483  13.488  1.00  0.00     0.014 C 
ATOM     22  C   UNL     1       0.320  32.779  12.953  1.00  0.00     0.033 C 
ATOM     23  C   UNL     1       1.782  33.001  13.419  1.00  0.00     0.118 C 
ATOM     24  C   UNL     1       2.430  31.729  13.980  1.00  0.00     0.063 C 
ATOM     25  C   UNL     1      -0.448  32.316  15.869  1.00  0.00     0.016 C 
ATOM     26  C   UNL     1      -3.067  27.621  17.009  1.00  0.00     0.012 C 
ATOM     27  C   UNL     1      -3.031  24.061  15.487  1.00  0.00     0.014 C 
ATOM     28  O   UNL     1      -1.029  22.564  16.625  1.00  0.00    -0.349 OA
ATOM     29  C   UNL     1      -0.140  21.644  17.236  1.00  0.00     0.167 C 
ENDROOT
BRANCH  23  30
ATOM     30  O   UNL     1       2.561  33.475  12.352  1.00  0.00    -0.393 OA
ATOM     31  H   UNL     1       2.730  32.700  11.754  1.00  0.00     0.210 HD
ENDBRANCH  23  30
TORSDOF 1
ENDMDL
MODEL 5
REMARK VINA RESULT:    -5.825      1.926      3.073
REMARK INTER + INTRA:          -5.995
REMARK INTER:                  -5.995
REMARK INTRA:                   0.000
REMARK UNBOUND:                 0.000
REMARK SMILES C[C@H]1CC[C@]2(OC1)O[C@H]1C[C@H]3[C@@H]4CC=C5C[C@@H](O)CC[C@@]5(C)[C@H]4CC[C@@]3(C)[C@@H]1[C@H]2C
REMARK SMILES IDX 1 1 2 2 3 3 4 4 5 5 29 6 28 7 9 8 8 9 10 10 11 11 26 12
REMARK SMILES IDX 25 13 24 14 23 15 12 16 13 17 14 18 15 19 21 20 20 21 19 22
REMARK SMILES IDX 17 23 16 24 22 25 27 26 30 27 6 28 7 29 18 30
REMARK H PARENT 18 31
REMARK Flexibility Score: inf
ROOT
ATOM      1  C   UNL     1      12.444  19.262  18.159  1.00  0.00     0.010 C 
ATOM      2  C   UNL     1      12.813  18.451  16.913  1.00  0.00     0.012 C 
ATOM      3  C   UNL     1      11.571  17.786  16.307  1.00  0.00     0.011 C 
ATOM      4  C   UNL     1      11.936  17.089  14.997  1.00  0.00     0.066 C 
ATOM      5  C   UNL     1      12.691  18.053  14.050  1.00  0.00     0.171 C 
ATOM      6  C   UNL     1      13.145  17.277  12.757  1.00  0.00     0.052 C 
ATOM      7  C   UNL     1      12.826  18.324  11.726  1.00  0.00     0.033 C 
ATOM      8  C   UNL     1      11.551  18.827  12.292  1.00  0.00     0.126 C 
ATOM      9  O   UNL     1      11.823  19.119  13.633  1.00  0.00    -0.346 OA
ATOM     10  C   UNL     1      11.185  19.940  11.342  1.00  0.00     0.037 C 
ATOM     11  C   UNL     1      11.443  19.254   9.972  1.00  0.00     0.002 C 
ATOM     12  C   UNL     1      12.524  18.128  10.225  1.00  0.00    -0.024 C 
ATOM     13  C   UNL     1      13.822  18.349   9.390  1.00  0.00     0.008 C 
ATOM     14  C   UNL     1      13.584  18.645   7.891  1.00  0.00     0.005 C 
ATOM     15  C   UNL     1      12.269  19.429   7.593  1.00  0.00     0.003 C 
ATOM     16  C   UNL     1      11.842  20.245   8.849  1.00  0.00     0.000 C 
ATOM     17  C   UNL     1      10.693  21.201   8.505  1.00  0.00     0.031 C 
ATOM     18  C   UNL     1      11.176  22.164   7.469  1.00  0.00    -0.027 C 
ATOM     19  C   UNL     1      11.919  21.740   6.428  1.00  0.00    -0.065 C 
ATOM     20  C   UNL     1      12.190  20.242   6.208  1.00  0.00    -0.008 C 
ATOM     21  C   UNL     1      13.488  20.120   5.353  1.00  0.00     0.014 C 
ATOM     22  C   UNL     1      13.440  20.889   4.016  1.00  0.00     0.033 C 
ATOM     23  C   UNL     1      12.741  22.270   4.102  1.00  0.00     0.118 C 
ATOM     24  C   UNL     1      12.588  22.774   5.542  1.00  0.00     0.063 C 
ATOM     25  C   UNL     1      11.004  19.666   5.385  1.00  0.00     0.016 C 
ATOM     26  C   UNL     1      11.952  16.721   9.928  1.00  0.00     0.012 C 
ATOM     27  C   UNL     1      14.619  16.852  12.732  1.00  0.00     0.014 C 
ATOM     28  O   UNL     1      13.836  18.595  14.704  1.00  0.00    -0.349 OA
ATOM     29  C   UNL     1      13.481  19.343  15.855  1.00  0.00     0.167 C 
ENDROOT
BRANCH  23  30
ATOM     30  O   UNL     1      13.459  23.222   3.362  1.00  0.00    -0.393 OA
ATOM     31  H   UNL     1      14.371  22.850   3.226  1.00  0.00     0.210 HD
ENDBRANCH  23  30
TORSDOF 1
ENDMDL
MODEL 6
REMARK VINA RESULT:    -5.821      7.107     10.727
REMARK INTER + INTRA:          -5.991
REMARK INTER:                  -5.991
REMARK INTRA:                   0.000
REMARK UNBOUND:                 0.000
REMARK SMILES C[C@H]1CC[C@]2(OC1)O[C@H]1C[C@H]3[C@@H]4CC=C5C[C@@H](O)CC[C@@]5(C)[C@H]4CC[C@@]3(C)[C@@H]1[C@H]2C
REMARK SMILES IDX 1 1 2 2 3 3 4 4 5 5 29 6 28 7 9 8 8 9 10 10 11 11 26 12
REMARK SMILES IDX 25 13 24 14 23 15 12 16 13 17 14 18 15 19 21 20 20 21 19 22
REMARK SMILES IDX 17 23 16 24 22 25 27 26 30 27 6 28 7 29 18 30
REMARK H PARENT 18 31
REMARK Flexibility Score: inf
ROOT
ATOM      1  C   UNL     1       8.080  18.111   2.075  1.00  0.00     0.010 C 
ATOM      2  C   UNL     1       9.404  18.215   2.840  1.00  0.00     0.012 C 
ATOM      3  C   UNL     1      10.575  18.433   1.877  1.00  0.00     0.011 C 
ATOM      4  C   UNL     1      11.865  18.662   2.663  1.00  0.00     0.066 C 
ATOM      5  C   UNL     1      11.676  19.771   3.726  1.00  0.00     0.171 C 
ATOM      6  C   UNL     1      12.987  19.909   4.588  1.00  0.00     0.052 C 
ATOM      7  C   UNL     1      13.057  21.408   4.676  1.00  0.00     0.033 C 
ATOM      8  C   UNL     1      12.632  21.744   3.296  1.00  0.00     0.126 C 
ATOM      9  O   UNL     1      11.444  21.036   3.085  1.00  0.00    -0.346 OA
ATOM     10  C   UNL     1      12.614  23.251   3.314  1.00  0.00     0.037 C 
ATOM     11  C   UNL     1      13.963  23.554   4.022  1.00  0.00     0.002 C 
ATOM     12  C   UNL     1      14.298  22.295   4.918  1.00  0.00    -0.024 C 
ATOM     13  C   UNL     1      14.407  22.652   6.432  1.00  0.00     0.008 C 
ATOM     14  C   UNL     1      15.294  23.880   6.744  1.00  0.00     0.005 C 
ATOM     15  C   UNL     1      15.281  24.978   5.637  1.00  0.00     0.003 C 
ATOM     16  C   UNL     1      13.962  24.887   4.815  1.00  0.00     0.000 C 
ATOM     17  C   UNL     1      13.824  26.096   3.883  1.00  0.00     0.031 C 
ATOM     18  C   UNL     1      13.761  27.332   4.722  1.00  0.00    -0.027 C 
ATOM     19  C   UNL     1      14.587  27.492   5.774  1.00  0.00    -0.065 C 
ATOM     20  C   UNL     1      15.697  26.470   6.070  1.00  0.00    -0.008 C 
ATOM     21  C   UNL     1      16.055  26.589   7.583  1.00  0.00     0.014 C 
ATOM     22  C   UNL     1      16.461  28.010   8.027  1.00  0.00     0.033 C 
ATOM     23  C   UNL     1      15.627  29.142   7.374  1.00  0.00     0.118 C 
ATOM     24  C   UNL     1      14.328  28.636   6.736  1.00  0.00     0.063 C 
ATOM     25  C   UNL     1      16.945  26.876   5.237  1.00  0.00     0.016 C 
ATOM     26  C   UNL     1      15.602  21.604   4.455  1.00  0.00     0.012 C 
ATOM     27  C   UNL     1      12.938  19.236   5.966  1.00  0.00     0.014 C 
ATOM     28  O   UNL     1      10.578  19.458   4.579  1.00  0.00    -0.349 OA
ATOM     29  C   UNL     1       9.360  19.365   3.859  1.00  0.00     0.167 C 
ENDROOT
BRANCH  23  30
ATOM     30  O   UNL     1      15.312  30.121   8.330  1.00  0.00    -0.393 OA
ATOM     31  H   UNL     1      14.431  30.502   8.070  1.00  0.00     0.210 HD
ENDBRANCH  23  30
TORSDOF 1
ENDMDL
MODEL 7
REMARK VINA RESULT:    -5.777      2.418      9.294
REMARK INTER + INTRA:          -5.946
REMARK INTER:                  -5.946
REMARK INTRA:                   0.000
REMARK UNBOUND:                 0.000
REMARK SMILES C[C@H]1CC[C@]2(OC1)O[C@H]1C[C@H]3[C@@H]4CC=C5C[C@@H](O)CC[C@@]5(C)[C@H]4CC[C@@]3(C)[C@@H]1[C@H]2C
REMARK SMILES IDX 1 1 2 2 3 3 4 4 5 5 29 6 28 7 9 8 8 9 10 10 11 11 26 12
REMARK SMILES IDX 25 13 24 14 23 15 12 16 13 17 14 18 15 19 21 20 20 21 19 22
REMARK SMILES IDX 17 23 16 24 22 25 27 26 30 27 6 28 7 29 18 30
REMARK H PARENT 18 31
REMARK Flexibility Score: inf
ROOT
ATOM      1  C   UNL     1       7.673  18.119   1.875  1.00  0.00     0.010 C 
ATOM      2  C   UNL     1       9.109  18.347   2.359  1.00  0.00     0.012 C 
ATOM      3  C   UNL     1       9.399  19.844   2.519  1.00  0.00     0.011 C 
ATOM      4  C   UNL     1      10.789  20.046   3.122  1.00  0.00     0.066 C 
ATOM      5  C   UNL     1      10.961  19.204   4.409  1.00  0.00     0.171 C 
ATOM      6  C   UNL     1      12.434  19.352   4.946  1.00  0.00     0.052 C 
ATOM      7  C   UNL     1      12.142  19.468   6.416  1.00  0.00     0.033 C 
ATOM      8  C   UNL     1      10.928  20.316   6.346  1.00  0.00     0.126 C 
ATOM      9  O   UNL     1      10.076  19.681   5.435  1.00  0.00    -0.346 OA
ATOM     10  C   UNL     1      10.524  20.433   7.794  1.00  0.00     0.037 C 
ATOM     11  C   UNL     1      11.894  20.741   8.458  1.00  0.00     0.002 C 
ATOM     12  C   UNL     1      13.004  20.128   7.513  1.00  0.00    -0.024 C 
ATOM     13  C   UNL     1      13.868  19.046   8.231  1.00  0.00     0.008 C 
ATOM     14  C   UNL     1      14.406  19.466   9.619  1.00  0.00     0.005 C 
ATOM     15  C   UNL     1      13.465  20.427  10.408  1.00  0.00     0.003 C 
ATOM     16  C   UNL     1      11.997  20.247   9.924  1.00  0.00     0.000 C 
ATOM     17  C   UNL     1      11.030  21.004  10.843  1.00  0.00     0.031 C 
ATOM     18  C   UNL     1      11.139  20.426  12.218  1.00  0.00    -0.027 C 
ATOM     19  C   UNL     1      12.341  20.129  12.747  1.00  0.00    -0.065 C 
ATOM     20  C   UNL     1      13.641  20.486  12.006  1.00  0.00    -0.008 C 
ATOM     21  C   UNL     1      14.759  19.536  12.534  1.00  0.00     0.014 C 
ATOM     22  C   UNL     1      14.952  19.573  14.064  1.00  0.00     0.033 C 
ATOM     23  C   UNL     1      13.630  19.676  14.868  1.00  0.00     0.118 C 
ATOM     24  C   UNL     1      12.393  19.326  14.033  1.00  0.00     0.063 C 
ATOM     25  C   UNL     1      14.015  21.945  12.389  1.00  0.00     0.016 C 
ATOM     26  C   UNL     1      13.927  21.229   6.940  1.00  0.00     0.012 C 
ATOM     27  C   UNL     1      13.371  18.182   4.618  1.00  0.00     0.014 C 
ATOM     28  O   UNL     1      10.690  17.830   4.142  1.00  0.00    -0.349 OA
ATOM     29  C   UNL     1       9.358  17.633   3.696  1.00  0.00     0.167 C 
ENDROOT
BRANCH  23  30
ATOM     30  O   UNL     1      13.678  18.828  15.986  1.00  0.00    -0.393 OA
ATOM     31  H   UNL     1      12.740  18.571  16.191  1.00  0.00     0.210 HD
ENDBRANCH  23  30
TORSDOF 1
ENDMDL
MODEL 8
REMARK VINA RESULT:    -5.730     14.682     17.389
REMARK INTER + INTRA:          -5.897
REMARK INTER:                  -5.897
REMARK INTRA:                   0.000
REMARK UNBOUND:                 0.000
REMARK SMILES C[C@H]1CC[C@]2(OC1)O[C@H]1C[C@H]3[C@@H]4CC=C5C[C@@H](O)CC[C@@]5(C)[C@H]4CC[C@@]3(C)[C@@H]1[C@H]2C
REMARK SMILES IDX 1 1 2 2 3 3 4 4 5 5 29 6 28 7 9 8 8 9 10 10 11 11 26 12
REMARK SMILES IDX 25 13 24 14 23 15 12 16 13 17 14 18 15 19 21 20 20 21 19 22
REMARK SMILES IDX 17 23 16 24 22 25 27 26 30 27 6 28 7 29 18 30
REMARK H PARENT 18 31
REMARK Flexibility Score: inf
ROOT
ATOM      1  C   UNL     1       1.010  35.151  16.598  1.00  0.00     0.010 C 
ATOM      2  C   UNL     1       0.807  33.801  15.903  1.00  0.00     0.012 C 
ATOM      3  C   UNL     1       2.148  33.217  15.444  1.00  0.00     0.011 C 
ATOM      4  C   UNL     1       1.940  31.816  14.870  1.00  0.00     0.066 C 
ATOM      5  C   UNL     1       1.142  30.927  15.855  1.00  0.00     0.171 C 
ATOM      6  C   UNL     1       0.854  29.528  15.192  1.00  0.00     0.052 C 
ATOM      7  C   UNL     1       1.118  28.644  16.379  1.00  0.00     0.033 C 
ATOM      8  C   UNL     1       2.293  29.351  16.940  1.00  0.00     0.126 C 
ATOM      9  O   UNL     1       1.912  30.693  17.045  1.00  0.00    -0.346 OA
ATOM     10  C   UNL     1       2.592  28.557  18.187  1.00  0.00     0.037 C 
ATOM     11  C   UNL     1       2.492  27.105  17.642  1.00  0.00     0.002 C 
ATOM     12  C   UNL     1       1.528  27.155  16.390  1.00  0.00    -0.024 C 
ATOM     13  C   UNL     1       0.266  26.259  16.573  1.00  0.00     0.008 C 
ATOM     14  C   UNL     1       0.559  24.822  17.065  1.00  0.00     0.005 C 
ATOM     15  C   UNL     1       1.796  24.707  18.008  1.00  0.00     0.003 C 
ATOM     16  C   UNL     1       2.055  26.071  18.712  1.00  0.00     0.000 C 
ATOM     17  C   UNL     1       3.111  25.917  19.813  1.00  0.00     0.031 C 
ATOM     18  C   UNL     1       2.589  24.960  20.836  1.00  0.00    -0.027 C 
ATOM     19  C   UNL     1       1.960  23.829  20.462  1.00  0.00    -0.065 C 
ATOM     20  C   UNL     1       1.868  23.428  18.980  1.00  0.00    -0.008 C 
ATOM     21  C   UNL     1       0.644  22.474  18.826  1.00  0.00     0.014 C 
ATOM     22  C   UNL     1       0.687  21.236  19.746  1.00  0.00     0.033 C 
ATOM     23  C   UNL     1       1.226  21.522  21.171  1.00  0.00     0.118 C 
ATOM     24  C   UNL     1       1.236  23.016  21.518  1.00  0.00     0.063 C 
ATOM     25  C   UNL     1       3.157  22.634  18.627  1.00  0.00     0.016 C 
ATOM     26  C   UNL     1       2.267  26.749  15.093  1.00  0.00     0.012 C 
ATOM     27  C   UNL     1      -0.560  29.352  14.625  1.00  0.00     0.014 C 
ATOM     28  O   UNL     1      -0.092  31.553  16.198  1.00  0.00    -0.349 OA
ATOM     29  C   UNL     1       0.109  32.801  16.840  1.00  0.00     0.167 C 
ENDROOT
BRANCH  23  30
ATOM     30  O   UNL     1       0.453  20.840  22.125  1.00  0.00    -0.393 OA
ATOM     31  H   UNL     1       0.832  19.925  22.200  1.00  0.00     0.210 HD
ENDBRANCH  23  30
TORSDOF 1
ENDMDL
MODEL 9
REMARK VINA RESULT:    -5.584      2.175      8.941
REMARK INTER + INTRA:          -5.747
REMARK INTER:                  -5.747
REMARK INTRA:                   0.000
REMARK UNBOUND:                 0.000
REMARK SMILES C[C@H]1CC[C@]2(OC1)O[C@H]1C[C@H]3[C@@H]4CC=C5C[C@@H](O)CC[C@@]5(C)[C@H]4CC[C@@]3(C)[C@@H]1[C@H]2C
REMARK SMILES IDX 1 1 2 2 3 3 4 4 5 5 29 6 28 7 9 8 8 9 10 10 11 11 26 12
REMARK SMILES IDX 25 13 24 14 23 15 12 16 13 17 14 18 15 19 21 20 20 21 19 22
REMARK SMILES IDX 17 23 16 24 22 25 27 26 30 27 6 28 7 29 18 30
REMARK H PARENT 18 31
REMARK Flexibility Score: inf
ROOT
ATOM      1  C   UNL     1      10.234  17.850   2.316  1.00  0.00     0.010 C 
ATOM      2  C   UNL     1      10.453  18.934   3.377  1.00  0.00     0.012 C 
ATOM      3  C   UNL     1       9.266  18.997   4.345  1.00  0.00     0.011 C 
ATOM      4  C   UNL     1       9.557  19.992   5.467  1.00  0.00     0.066 C 
ATOM      5  C   UNL     1      10.925  19.696   6.127  1.00  0.00     0.171 C 
ATOM      6  C   UNL     1      11.243  20.800   7.205  1.00  0.00     0.052 C 
ATOM      7  C   UNL     1      11.806  19.920   8.287  1.00  0.00     0.033 C 
ATOM      8  C   UNL     1      10.878  18.771   8.159  1.00  0.00     0.126 C 
ATOM      9  O   UNL     1      10.885  18.429   6.803  1.00  0.00    -0.346 OA
ATOM     10  C   UNL     1      11.414  17.799   9.180  1.00  0.00     0.037 C 
ATOM     11  C   UNL     1      11.641  18.743  10.394  1.00  0.00     0.002 C 
ATOM     12  C   UNL     1      11.867  20.193   9.806  1.00  0.00    -0.024 C 
ATOM     13  C   UNL     1      13.261  20.779  10.183  1.00  0.00     0.008 C 
ATOM     14  C   UNL     1      13.628  20.660  11.681  1.00  0.00     0.005 C 
ATOM     15  C   UNL     1      13.048  19.396  12.385  1.00  0.00     0.003 C 
ATOM     16  C   UNL     1      12.783  18.278  11.335  1.00  0.00     0.000 C 
ATOM     17  C   UNL     1      12.438  16.956  12.030  1.00  0.00     0.031 C 
ATOM     18  C   UNL     1      13.610  16.542  12.862  1.00  0.00    -0.027 C 
ATOM     19  C   UNL     1      14.276  17.443  13.609  1.00  0.00    -0.065 C 
ATOM     20  C   UNL     1      13.780  18.894  13.726  1.00  0.00    -0.008 C 
ATOM     21  C   UNL     1      15.003  19.778  14.121  1.00  0.00     0.014 C 
ATOM     22  C   UNL     1      15.725  19.321  15.406  1.00  0.00     0.033 C 
ATOM     23  C   UNL     1      15.848  17.782  15.553  1.00  0.00     0.118 C 
ATOM     24  C   UNL     1      15.594  17.034  14.238  1.00  0.00     0.063 C 
ATOM     25  C   UNL     1      12.743  18.945  14.883  1.00  0.00     0.016 C 
ATOM     26  C   UNL     1      10.756  21.166  10.264  1.00  0.00     0.012 C 
ATOM     27  C   UNL     1      12.226  21.889   6.757  1.00  0.00     0.014 C 
ATOM     28  O   UNL     1      11.957  19.683   5.144  1.00  0.00    -0.349 OA
ATOM     29  C   UNL     1      11.744  18.676   4.169  1.00  0.00     0.167 C 
ENDROOT
BRANCH  23  30
ATOM     30  O   UNL     1      17.125  17.444  16.028  1.00  0.00    -0.393 OA
ATOM     31  H   UNL     1      17.778  17.781  15.360  1.00  0.00     0.210 HD
ENDBRANCH  23  30
TORSDOF 1
ENDMDL
