MODEL 1
REMARK VINA RESULT:    -5.070      0.000      0.000
REMARK INTER + INTRA:          -5.461
REMARK INTER:                  -5.366
REMARK INTRA:                  -0.095
REMARK UNBOUND:                -0.095
REMARK SMILES C=C(C)[C@@H]1CC=C(C)C(=O)C1
REMARK SMILES IDX 8 1 7 2 6 3 5 4 4 5 11 6 9 7 10 8 2 9 1 10 3 11
REMARK H PARENT
REMARK Flexibility Score: inf
ROOT
ATOM      1  C   UNL     1     -14.565  14.911 -31.249  1.00  0.00     0.048 C 
ATOM      2  C   UNL     1     -15.696  14.065 -30.731  1.00  0.00    -0.012 C 
ATOM      3  C   UNL     1     -15.652  13.570 -29.482  1.00  0.00    -0.019 C 
ATOM      4  C   UNL     1     -16.794  12.786 -28.893  1.00  0.00     0.036 C 
ATOM      5  C   UNL     1     -17.559  12.012 -29.984  1.00  0.00     0.025 C 
ATOM      6  C   UNL     1     -18.023  12.972 -31.096  1.00  0.00     0.089 C 
ATOM      7  C   UNL     1     -16.870  13.798 -31.598  1.00  0.00     0.158 C 
ATOM      8  O   UNL     1     -16.933  14.302 -32.752  1.00  0.00    -0.295 OA
ENDROOT
BRANCH   5   9
ATOM      9  C   UNL     1     -18.725  11.224 -29.401  1.00  0.00    -0.077 C 
ATOM     10  C   UNL     1     -19.992  11.658 -29.518  1.00  0.00     0.008 C 
ATOM     11  C   UNL     1     -18.473   9.927 -28.675  1.00  0.00     0.039 C 
ENDBRANCH   5   9
TORSDOF 1
ENDMDL
MODEL 2
REMARK VINA RESULT:    -4.939      6.647      8.724
REMARK INTER + INTRA:          -5.323
REMARK INTER:                  -5.230
REMARK INTRA:                  -0.093
REMARK UNBOUND:                -0.095
REMARK SMILES C=C(C)[C@@H]1CC=C(C)C(=O)C1
REMARK SMILES IDX 8 1 7 2 6 3 5 4 4 5 11 6 9 7 10 8 2 9 1 10 3 11
REMARK H PARENT
REMARK Flexibility Score: inf
ROOT
ATOM      1  C   UNL     1     -22.422  14.003 -30.506  1.00  0.00     0.048 C 
ATOM      2  C   UNL     1     -23.831  13.605 -30.163  1.00  0.00    -0.012 C 
ATOM      3  C   UNL     1     -24.081  12.398 -29.626  1.00  0.00    -0.019 C 
ATOM      4  C   UNL     1     -25.463  11.987 -29.192  1.00  0.00     0.036 C 
ATOM      5  C   UNL     1     -26.543  12.665 -30.059  1.00  0.00     0.025 C 
ATOM      6  C   UNL     1     -26.358  14.194 -30.046  1.00  0.00     0.089 C 
ATOM      7  C   UNL     1     -24.942  14.560 -30.399  1.00  0.00     0.158 C 
ATOM      8  O   UNL     1     -24.702  15.710 -30.858  1.00  0.00    -0.295 OA
ENDROOT
BRANCH   5   9
ATOM      9  C   UNL     1     -27.946  12.265 -29.623  1.00  0.00    -0.077 C 
ATOM     10  C   UNL     1     -28.414  12.575 -28.401  1.00  0.00     0.008 C 
ATOM     11  C   UNL     1     -28.844  11.507 -30.566  1.00  0.00     0.039 C 
ENDBRANCH   5   9
TORSDOF 1
ENDMDL
MODEL 3
REMARK VINA RESULT:    -4.907     10.543     12.124
REMARK INTER + INTRA:          -5.289
REMARK INTER:                  -5.201
REMARK INTRA:                  -0.088
REMARK UNBOUND:                -0.095
REMARK SMILES C=C(C)[C@@H]1CC=C(C)C(=O)C1
REMARK SMILES IDX 8 1 7 2 6 3 5 4 4 5 11 6 9 7 10 8 2 9 1 10 3 11
REMARK H PARENT
REMARK Flexibility Score: inf
ROOT
ATOM      1  C   UNL     1     -29.226  18.918 -33.112  1.00  0.00     0.048 C 
ATOM      2  C   UNL     1     -27.769  19.287 -33.160  1.00  0.00    -0.012 C 
ATOM      3  C   UNL     1     -27.361  20.335 -33.896  1.00  0.00    -0.019 C 
ATOM      4  C   UNL     1     -25.926  20.791 -33.911  1.00  0.00     0.036 C 
ATOM      5  C   UNL     1     -24.964  19.608 -33.686  1.00  0.00     0.025 C 
ATOM      6  C   UNL     1     -25.326  18.863 -32.387  1.00  0.00     0.089 C 
ATOM      7  C   UNL     1     -26.786  18.502 -32.373  1.00  0.00     0.158 C 
ATOM      8  O   UNL     1     -27.175  17.548 -31.645  1.00  0.00    -0.295 OA
ENDROOT
BRANCH   5   9
ATOM      9  C   UNL     1     -23.509  20.058 -33.688  1.00  0.00    -0.077 C 
ATOM     10  C   UNL     1     -22.643  19.625 -34.621  1.00  0.00     0.008 C 
ATOM     11  C   UNL     1     -23.011  21.009 -32.630  1.00  0.00     0.039 C 
ENDBRANCH   5   9
TORSDOF 1
ENDMDL
MODEL 4
REMARK VINA RESULT:    -4.812      1.745      4.654
REMARK INTER + INTRA:          -5.189
REMARK INTER:                  -5.092
REMARK INTRA:                  -0.097
REMARK UNBOUND:                -0.095
REMARK SMILES C=C(C)[C@@H]1CC=C(C)C(=O)C1
REMARK SMILES IDX 8 1 7 2 6 3 5 4 4 5 11 6 9 7 10 8 2 9 1 10 3 11
REMARK H PARENT
REMARK Flexibility Score: inf
ROOT
ATOM      1  C   UNL     1     -18.369  12.876 -30.490  1.00  0.00     0.048 C 
ATOM      2  C   UNL     1     -16.879  13.084 -30.513  1.00  0.00    -0.012 C 
ATOM      3  C   UNL     1     -16.117  12.621 -29.507  1.00  0.00    -0.019 C 
ATOM      4  C   UNL     1     -14.616  12.733 -29.525  1.00  0.00     0.036 C 
ATOM      5  C   UNL     1     -14.162  13.986 -30.300  1.00  0.00     0.025 C 
ATOM      6  C   UNL     1     -14.763  13.984 -31.719  1.00  0.00     0.089 C 
ATOM      7  C   UNL     1     -16.253  13.782 -31.662  1.00  0.00     0.158 C 
ATOM      8  O   UNL     1     -16.962  14.174 -32.628  1.00  0.00    -0.295 OA
ENDROOT
BRANCH   5   9
ATOM      9  C   UNL     1     -12.643  14.105 -30.335  1.00  0.00    -0.077 C 
ATOM     10  C   UNL     1     -11.973  14.175 -31.498  1.00  0.00     0.008 C 
ATOM     11  C   UNL     1     -11.859  14.146 -29.049  1.00  0.00     0.039 C 
ENDBRANCH   5   9
TORSDOF 1
ENDMDL
MODEL 5
REMARK VINA RESULT:    -4.674      8.379     11.189
REMARK INTER + INTRA:          -5.042
REMARK INTER:                  -4.954
REMARK INTRA:                  -0.088
REMARK UNBOUND:                -0.095
REMARK SMILES C=C(C)[C@@H]1CC=C(C)C(=O)C1
REMARK SMILES IDX 8 1 7 2 6 3 5 4 4 5 11 6 9 7 10 8 2 9 1 10 3 11
REMARK H PARENT
REMARK Flexibility Score: inf
ROOT
ATOM      1  C   UNL     1     -29.941   9.875 -31.457  1.00  0.00     0.048 C 
ATOM      2  C   UNL     1     -28.833  10.847 -31.158  1.00  0.00    -0.012 C 
ATOM      3  C   UNL     1     -27.801  10.978 -32.009  1.00  0.00    -0.019 C 
ATOM      4  C   UNL     1     -26.711  11.995 -31.794  1.00  0.00     0.036 C 
ATOM      5  C   UNL     1     -26.488  12.262 -30.293  1.00  0.00     0.025 C 
ATOM      6  C   UNL     1     -27.812  12.674 -29.621  1.00  0.00     0.089 C 
ATOM      7  C   UNL     1     -28.897  11.679 -29.931  1.00  0.00     0.158 C 
ATOM      8  O   UNL     1     -29.888  11.592 -29.157  1.00  0.00    -0.295 OA
ENDROOT
BRANCH   5   9
ATOM      9  C   UNL     1     -25.396  13.298 -30.062  1.00  0.00    -0.077 C 
ATOM     10  C   UNL     1     -24.152  12.935 -29.703  1.00  0.00     0.008 C 
ATOM     11  C   UNL     1     -25.695  14.764 -30.235  1.00  0.00     0.039 C 
ENDBRANCH   5   9
TORSDOF 1
ENDMDL
MODEL 6
REMARK VINA RESULT:    -4.665      2.684      5.683
REMARK INTER + INTRA:          -5.032
REMARK INTER:                  -4.937
REMARK INTRA:                  -0.095
REMARK UNBOUND:                -0.095
REMARK SMILES C=C(C)[C@@H]1CC=C(C)C(=O)C1
REMARK SMILES IDX 8 1 7 2 6 3 5 4 4 5 11 6 9 7 10 8 2 9 1 10 3 11
REMARK H PARENT
REMARK Flexibility Score: inf
ROOT
ATOM      1  C   UNL     1     -17.272  13.542 -31.540  1.00  0.00     0.048 C 
ATOM      2  C   UNL     1     -15.783  13.750 -31.582  1.00  0.00    -0.012 C 
ATOM      3  C   UNL     1     -15.048  13.184 -32.554  1.00  0.00    -0.019 C 
ATOM      4  C   UNL     1     -13.569  13.430 -32.685  1.00  0.00     0.036 C 
ATOM      5  C   UNL     1     -12.925  13.691 -31.308  1.00  0.00     0.025 C 
ATOM      6  C   UNL     1     -13.648  14.847 -30.591  1.00  0.00     0.089 C 
ATOM      7  C   UNL     1     -15.132  14.605 -30.558  1.00  0.00     0.158 C 
ATOM      8  O   UNL     1     -15.828  15.176 -29.674  1.00  0.00    -0.295 OA
ENDROOT
BRANCH   5   9
ATOM      9  C   UNL     1     -11.430  13.952 -31.428  1.00  0.00    -0.077 C 
ATOM     10  C   UNL     1     -10.874  14.319 -32.596  1.00  0.00     0.008 C 
ATOM     11  C   UNL     1     -10.537  13.802 -30.223  1.00  0.00     0.039 C 
ENDBRANCH   5   9
TORSDOF 1
ENDMDL
MODEL 7
REMARK VINA RESULT:    -4.649      7.514      9.856
REMARK INTER + INTRA:          -5.016
REMARK INTER:                  -4.923
REMARK INTRA:                  -0.093
REMARK UNBOUND:                -0.095
REMARK SMILES C=C(C)[C@@H]1CC=C(C)C(=O)C1
REMARK SMILES IDX 8 1 7 2 6 3 5 4 4 5 11 6 9 7 10 8 2 9 1 10 3 11
REMARK H PARENT
REMARK Flexibility Score: inf
ROOT
ATOM      1  C   UNL     1     -23.331  10.159 -27.455  1.00  0.00     0.048 C 
ATOM      2  C   UNL     1     -24.704  10.634 -27.843  1.00  0.00    -0.012 C 
ATOM      3  C   UNL     1     -25.780  10.232 -27.145  1.00  0.00    -0.019 C 
ATOM      4  C   UNL     1     -27.164  10.743 -27.445  1.00  0.00     0.036 C 
ATOM      5  C   UNL     1     -27.320  11.083 -28.940  1.00  0.00     0.025 C 
ATOM      6  C   UNL     1     -26.224  12.073 -29.380  1.00  0.00     0.089 C 
ATOM      7  C   UNL     1     -24.863  11.567 -28.985  1.00  0.00     0.158 C 
ATOM      8  O   UNL     1     -23.850  11.982 -29.610  1.00  0.00    -0.295 OA
ENDROOT
BRANCH   5   9
ATOM      9  C   UNL     1     -28.713  11.613 -29.254  1.00  0.00    -0.077 C 
ATOM     10  C   UNL     1     -29.244  12.638 -28.564  1.00  0.00     0.008 C 
ATOM     11  C   UNL     1     -29.528  10.989 -30.357  1.00  0.00     0.039 C 
ENDBRANCH   5   9
TORSDOF 1
ENDMDL
MODEL 8
REMARK VINA RESULT:    -4.636      6.653      8.957
REMARK INTER + INTRA:          -5.002
REMARK INTER:                  -4.904
REMARK INTRA:                  -0.098
REMARK UNBOUND:                -0.095
REMARK SMILES C=C(C)[C@@H]1CC=C(C)C(=O)C1
REMARK SMILES IDX 8 1 7 2 6 3 5 4 4 5 11 6 9 7 10 8 2 9 1 10 3 11
REMARK H PARENT
REMARK Flexibility Score: inf
ROOT
ATOM      1  C   UNL     1     -23.110  14.026 -30.497  1.00  0.00     0.048 C 
ATOM      2  C   UNL     1     -24.335  13.314 -29.992  1.00  0.00    -0.012 C 
ATOM      3  C   UNL     1     -25.536  13.916 -30.046  1.00  0.00    -0.019 C 
ATOM      4  C   UNL     1     -26.801  13.214 -29.628  1.00  0.00     0.036 C 
ATOM      5  C   UNL     1     -26.524  12.182 -28.517  1.00  0.00     0.025 C 
ATOM      6  C   UNL     1     -25.429  11.195 -28.965  1.00  0.00     0.089 C 
ATOM      7  C   UNL     1     -24.216  11.936 -29.456  1.00  0.00     0.158 C 
ATOM      8  O   UNL     1     -23.097  11.354 -29.450  1.00  0.00    -0.295 OA
ENDROOT
BRANCH   5   9
ATOM      9  C   UNL     1     -27.794  11.457 -28.094  1.00  0.00    -0.077 C 
ATOM     10  C   UNL     1     -27.746  10.300 -27.410  1.00  0.00     0.008 C 
ATOM     11  C   UNL     1     -29.144  12.033 -28.438  1.00  0.00     0.039 C 
ENDBRANCH   5   9
TORSDOF 1
ENDMDL
MODEL 9
REMARK VINA RESULT:    -4.595      7.029      9.852
REMARK INTER + INTRA:          -4.959
REMARK INTER:                  -4.863
REMARK INTRA:                  -0.096
REMARK UNBOUND:                -0.095
REMARK SMILES C=C(C)[C@@H]1CC=C(C)C(=O)C1
REMARK SMILES IDX 8 1 7 2 6 3 5 4 4 5 11 6 9 7 10 8 2 9 1 10 3 11
REMARK H PARENT
REMARK Flexibility Score: inf
ROOT
ATOM      1  C   UNL     1     -29.408  12.497 -29.191  1.00  0.00     0.048 C 
ATOM      2  C   UNL     1     -28.048  11.887 -28.987  1.00  0.00    -0.012 C 
ATOM      3  C   UNL     1     -27.713  11.367 -27.794  1.00  0.00    -0.019 C 
ATOM      4  C   UNL     1     -26.396  10.674 -27.565  1.00  0.00     0.036 C 
ATOM      5  C   UNL     1     -25.294  11.264 -28.466  1.00  0.00     0.025 C 
ATOM      6  C   UNL     1     -25.729  11.217 -29.943  1.00  0.00     0.089 C 
ATOM      7  C   UNL     1     -27.086  11.841 -30.116  1.00  0.00     0.158 C 
ATOM      8  O   UNL     1     -27.418  12.285 -31.249  1.00  0.00    -0.295 OA
ENDROOT
BRANCH   5   9
ATOM      9  C   UNL     1     -23.958  10.564 -28.252  1.00  0.00    -0.077 C 
ATOM     10  C   UNL     1     -23.701   9.875 -27.126  1.00  0.00     0.008 C 
ATOM     11  C   UNL     1     -22.890  10.633 -29.313  1.00  0.00     0.039 C 
ENDBRANCH   5   9
TORSDOF 1
ENDMDL
