MODEL 1
REMARK VINA RESULT:    -5.614      0.000      0.000
REMARK INTER + INTRA:          -5.614
REMARK INTER:                  -5.614
REMARK INTRA:                   0.000
REMARK UNBOUND:                 0.000
REMARK SMILES C=C1[C@@H]2CC[C@@H](C2)C1(C)C
REMARK SMILES IDX 9 1 8 2 6 3 5 4 4 5 3 6 7 7 2 8 1 9 10 10
REMARK H PARENT
REMARK Flexibility Score: inf
ROOT
ATOM      1  C   UNL     1     136.374 150.763 123.755  1.00  0.00     0.016 C 
ATOM      2  C   UNL     1     136.103 152.190 123.224  1.00  0.00    -0.012 C 
ATOM      3  C   UNL     1     134.876 152.897 123.898  1.00  0.00    -0.001 C 
ATOM      4  C   UNL     1     134.943 152.783 125.440  1.00  0.00     0.005 C 
ATOM      5  C   UNL     1     136.157 153.668 125.797  1.00  0.00     0.008 C 
ATOM      6  C   UNL     1     136.562 154.262 124.437  1.00  0.00     0.015 C 
ATOM      7  C   UNL     1     135.222 154.375 123.747  1.00  0.00     0.012 C 
ATOM      8  C   UNL     1     137.190 153.157 123.631  1.00  0.00    -0.068 C 
ATOM      9  C   UNL     1     138.498 153.037 123.375  1.00  0.00     0.008 C 
ATOM     10  C   UNL     1     135.944 152.133 121.688  1.00  0.00     0.016 C 
ENDROOT
TORSDOF 0
ENDMDL
MODEL 2
REMARK VINA RESULT:    -5.598     15.749     16.974
REMARK INTER + INTRA:          -5.598
REMARK INTER:                  -5.598
REMARK INTRA:                   0.000
REMARK UNBOUND:                 0.000
REMARK SMILES C=C1[C@@H]2CC[C@@H](C2)C1(C)C
REMARK SMILES IDX 9 1 8 2 6 3 5 4 4 5 3 6 7 7 2 8 1 9 10 10
REMARK H PARENT
REMARK Flexibility Score: inf
ROOT
ATOM      1  C   UNL     1     138.054 134.962 121.881  1.00  0.00     0.016 C 
ATOM      2  C   UNL     1     137.835 136.232 122.734  1.00  0.00    -0.012 C 
ATOM      3  C   UNL     1     136.508 136.217 123.570  1.00  0.00    -0.001 C 
ATOM      4  C   UNL     1     136.351 134.886 124.343  1.00  0.00     0.005 C 
ATOM      5  C   UNL     1     137.481 134.961 125.392  1.00  0.00     0.008 C 
ATOM      6  C   UNL     1     138.070 136.364 125.164  1.00  0.00     0.015 C 
ATOM      7  C   UNL     1     136.843 137.139 124.738  1.00  0.00     0.012 C 
ATOM      8  C   UNL     1     138.831 136.328 123.865  1.00  0.00    -0.068 C 
ATOM      9  C   UNL     1     140.165 136.325 123.754  1.00  0.00     0.008 C 
ATOM     10  C   UNL     1     137.905 137.473 121.815  1.00  0.00     0.016 C 
ENDROOT
TORSDOF 0
ENDMDL
MODEL 3
REMARK VINA RESULT:    -4.973     14.643     16.614
REMARK INTER + INTRA:          -4.973
REMARK INTER:                  -4.973
REMARK INTRA:                   0.000
REMARK UNBOUND:                 0.000
REMARK SMILES C=C1[C@@H]2CC[C@@H](C2)C1(C)C
REMARK SMILES IDX 9 1 8 2 6 3 5 4 4 5 3 6 7 7 2 8 1 9 10 10
REMARK H PARENT
REMARK Flexibility Score: inf
ROOT
ATOM      1  C   UNL     1     138.273 138.553 123.542  1.00  0.00     0.016 C 
ATOM      2  C   UNL     1     137.686 137.234 122.987  1.00  0.00    -0.012 C 
ATOM      3  C   UNL     1     138.446 135.948 123.467  1.00  0.00    -0.001 C 
ATOM      4  C   UNL     1     138.661 135.966 124.999  1.00  0.00     0.005 C 
ATOM      5  C   UNL     1     137.228 135.809 125.550  1.00  0.00     0.008 C 
ATOM      6  C   UNL     1     136.389 135.611 124.275  1.00  0.00     0.015 C 
ATOM      7  C   UNL     1     137.365 134.875 123.384  1.00  0.00     0.012 C 
ATOM      8  C   UNL     1     136.324 136.938 123.568  1.00  0.00    -0.068 C 
ATOM      9  C   UNL     1     135.248 137.732 123.519  1.00  0.00     0.008 C 
ATOM     10  C   UNL     1     137.638 137.314 121.445  1.00  0.00     0.016 C 
ENDROOT
TORSDOF 0
ENDMDL
MODEL 4
REMARK VINA RESULT:    -4.951     14.771     16.805
REMARK INTER + INTRA:          -4.951
REMARK INTER:                  -4.951
REMARK INTRA:                   0.000
REMARK UNBOUND:                 0.000
REMARK SMILES C=C1[C@@H]2CC[C@@H](C2)C1(C)C
REMARK SMILES IDX 9 1 8 2 6 3 5 4 4 5 3 6 7 7 2 8 1 9 10 10
REMARK H PARENT
REMARK Flexibility Score: inf
ROOT
ATOM      1  C   UNL     1     139.766 136.808 124.493  1.00  0.00     0.016 C 
ATOM      2  C   UNL     1     138.413 136.082 124.312  1.00  0.00    -0.012 C 
ATOM      3  C   UNL     1     137.162 137.012 124.490  1.00  0.00    -0.001 C 
ATOM      4  C   UNL     1     137.313 138.313 123.667  1.00  0.00     0.005 C 
ATOM      5  C   UNL     1     137.228 137.810 122.209  1.00  0.00     0.008 C 
ATOM      6  C   UNL     1     136.932 136.310 122.380  1.00  0.00     0.015 C 
ATOM      7  C   UNL     1     136.105 136.309 123.646  1.00  0.00     0.012 C 
ATOM      8  C   UNL     1     138.192 135.655 122.880  1.00  0.00    -0.068 C 
ATOM      9  C   UNL     1     138.997 134.875 122.149  1.00  0.00     0.008 C 
ATOM     10  C   UNL     1     138.357 134.875 125.276  1.00  0.00     0.016 C 
ENDROOT
TORSDOF 0
ENDMDL
MODEL 5
REMARK VINA RESULT:    -4.946      1.137      2.081
REMARK INTER + INTRA:          -4.946
REMARK INTER:                  -4.946
REMARK INTRA:                   0.000
REMARK UNBOUND:                 0.000
REMARK SMILES C=C1[C@@H]2CC[C@@H](C2)C1(C)C
REMARK SMILES IDX 9 1 8 2 6 3 5 4 4 5 3 6 7 7 2 8 1 9 10 10
REMARK H PARENT
REMARK Flexibility Score: inf
ROOT
ATOM      1  C   UNL     1     134.890 152.774 121.980  1.00  0.00     0.016 C 
ATOM      2  C   UNL     1     136.179 152.974 122.809  1.00  0.00    -0.012 C 
ATOM      3  C   UNL     1     136.189 154.289 123.664  1.00  0.00    -0.001 C 
ATOM      4  C   UNL     1     134.875 154.443 124.466  1.00  0.00     0.005 C 
ATOM      5  C   UNL     1     134.965 153.298 125.497  1.00  0.00     0.008 C 
ATOM      6  C   UNL     1     136.359 152.704 125.231  1.00  0.00     0.015 C 
ATOM      7  C   UNL     1     137.134 153.933 124.807  1.00  0.00     0.012 C 
ATOM      8  C   UNL     1     136.292 151.962 123.924  1.00  0.00    -0.068 C 
ATOM      9  C   UNL     1     136.279 150.630 123.795  1.00  0.00     0.008 C 
ATOM     10  C   UNL     1     137.400 152.910 121.863  1.00  0.00     0.016 C 
ENDROOT
TORSDOF 0
ENDMDL
MODEL 6
REMARK VINA RESULT:    -4.881      1.091      2.723
REMARK INTER + INTRA:          -4.881
REMARK INTER:                  -4.881
REMARK INTRA:                   0.000
REMARK UNBOUND:                 0.000
REMARK SMILES C=C1[C@@H]2CC[C@@H](C2)C1(C)C
REMARK SMILES IDX 9 1 8 2 6 3 5 4 4 5 3 6 7 7 2 8 1 9 10 10
REMARK H PARENT
REMARK Flexibility Score: inf
ROOT
ATOM      1  C   UNL     1     136.980 150.761 124.426  1.00  0.00     0.016 C 
ATOM      2  C   UNL     1     136.049 151.994 124.363  1.00  0.00    -0.012 C 
ATOM      3  C   UNL     1     136.781 153.358 124.617  1.00  0.00    -0.001 C 
ATOM      4  C   UNL     1     138.063 153.471 123.757  1.00  0.00     0.005 C 
ATOM      5  C   UNL     1     137.506 153.580 122.321  1.00  0.00     0.008 C 
ATOM      6  C   UNL     1     135.985 153.627 122.545  1.00  0.00     0.015 C 
ATOM      7  C   UNL     1     135.897 154.351 123.870  1.00  0.00     0.012 C 
ATOM      8  C   UNL     1     135.547 152.248 122.962  1.00  0.00    -0.068 C 
ATOM      9  C   UNL     1     134.877 151.386 122.188  1.00  0.00     0.008 C 
ATOM     10  C   UNL     1     134.880 151.792 125.354  1.00  0.00     0.016 C 
ENDROOT
TORSDOF 0
ENDMDL
MODEL 7
REMARK VINA RESULT:    -4.871     14.598     16.255
REMARK INTER + INTRA:          -4.871
REMARK INTER:                  -4.871
REMARK INTRA:                   0.000
REMARK UNBOUND:                 0.000
REMARK SMILES C=C1[C@@H]2CC[C@@H](C2)C1(C)C
REMARK SMILES IDX 9 1 8 2 6 3 5 4 4 5 3 6 7 7 2 8 1 9 10 10
REMARK H PARENT
REMARK Flexibility Score: inf
ROOT
ATOM      1  C   UNL     1     136.728 134.903 124.364  1.00  0.00     0.016 C 
ATOM      2  C   UNL     1     137.326 135.787 123.245  1.00  0.00    -0.012 C 
ATOM      3  C   UNL     1     136.313 136.822 122.642  1.00  0.00    -0.001 C 
ATOM      4  C   UNL     1     135.580 137.602 123.760  1.00  0.00     0.005 C 
ATOM      5  C   UNL     1     136.707 138.460 124.376  1.00  0.00     0.008 C 
ATOM      6  C   UNL     1     137.910 138.149 123.469  1.00  0.00     0.015 C 
ATOM      7  C   UNL     1     137.233 137.928 122.135  1.00  0.00     0.012 C 
ATOM      8  C   UNL     1     138.360 136.747 123.781  1.00  0.00    -0.068 C 
ATOM      9  C   UNL     1     139.464 136.427 124.467  1.00  0.00     0.008 C 
ATOM     10  C   UNL     1     137.917 134.875 122.146  1.00  0.00     0.016 C 
ENDROOT
TORSDOF 0
ENDMDL
MODEL 8
REMARK VINA RESULT:    -4.759     14.675     16.986
REMARK INTER + INTRA:          -4.759
REMARK INTER:                  -4.759
REMARK INTRA:                   0.000
REMARK UNBOUND:                 0.000
REMARK SMILES C=C1[C@@H]2CC[C@@H](C2)C1(C)C
REMARK SMILES IDX 9 1 8 2 6 3 5 4 4 5 3 6 7 7 2 8 1 9 10 10
REMARK H PARENT
REMARK Flexibility Score: inf
ROOT
ATOM      1  C   UNL     1     137.877 138.470 123.456  1.00  0.00     0.016 C 
ATOM      2  C   UNL     1     137.106 137.134 123.347  1.00  0.00    -0.012 C 
ATOM      3  C   UNL     1     137.448 136.305 122.061  1.00  0.00    -0.001 C 
ATOM      4  C   UNL     1     138.978 136.186 121.864  1.00  0.00     0.005 C 
ATOM      5  C   UNL     1     139.408 135.286 123.043  1.00  0.00     0.008 C 
ATOM      6  C   UNL     1     138.067 134.914 123.698  1.00  0.00     0.015 C 
ATOM      7  C   UNL     1     137.146 134.875 122.499  1.00  0.00     0.012 C 
ATOM      8  C   UNL     1     137.550 136.143 124.397  1.00  0.00    -0.068 C 
ATOM      9  C   UNL     1     137.544 136.331 125.722  1.00  0.00     0.008 C 
ATOM     10  C   UNL     1     135.590 137.419 123.445  1.00  0.00     0.016 C 
ENDROOT
TORSDOF 0
ENDMDL
