MODEL 1
REMARK VINA RESULT:    -3.350      0.000      0.000
REMARK INTER + INTRA:          -3.748
REMARK INTER:                  -3.742
REMARK INTRA:                  -0.006
REMARK UNBOUND:                -0.006
REMARK SMILES CCCC(=O)[O-]
REMARK SMILES IDX 3 1 4 2 5 3 6 4 2 5 1 6
REMARK H PARENT
REMARK Flexibility Score: inf
ROOT
ATOM      1  C   UNL     1     -10.421  23.219 -24.322  1.00  0.00     0.052 C 
ENDROOT
BRANCH   1   2
ATOM      2  C   UNL     1      -9.979  22.948 -25.726  1.00  0.00     0.041 C 
ATOM      3  O   UNL     1      -9.998  21.774 -26.180  1.00  0.00    -0.550 OA
ATOM      4  O   UNL     1      -9.500  23.985 -26.517  1.00  0.00    -0.550 OA
ENDBRANCH   1   2
BRANCH   1   5
ATOM      5  C   UNL     1      -9.295  22.899 -23.336  1.00  0.00     0.003 C 
ATOM      6  C   UNL     1      -9.809  22.884 -21.898  1.00  0.00     0.004 C 
ENDBRANCH   1   5
TORSDOF 2
ENDMDL
MODEL 2
REMARK VINA RESULT:    -3.227      3.437      4.291
REMARK INTER + INTRA:          -3.611
REMARK INTER:                  -3.603
REMARK INTRA:                  -0.008
REMARK UNBOUND:                -0.006
REMARK SMILES CCCC(=O)[O-]
REMARK SMILES IDX 3 1 4 2 5 3 6 4 2 5 1 6
REMARK H PARENT
REMARK Flexibility Score: inf
ROOT
ATOM      1  C   UNL     1     -10.116  23.220 -22.443  1.00  0.00     0.052 C 
ENDROOT
BRANCH   1   2
ATOM      2  C   UNL     1      -9.544  22.787 -21.129  1.00  0.00     0.041 C 
ATOM      3  O   UNL     1      -8.360  23.087 -20.825  1.00  0.00    -0.550 OA
ATOM      4  O   UNL     1     -10.303  22.011 -20.262  1.00  0.00    -0.550 OA
ENDBRANCH   1   2
BRANCH   1   5
ATOM      5  C   UNL     1      -9.198  22.792 -23.592  1.00  0.00     0.003 C 
ATOM      6  C   UNL     1     -10.007  22.260 -24.773  1.00  0.00     0.004 C 
ENDBRANCH   1   5
TORSDOF 2
ENDMDL
MODEL 3
REMARK VINA RESULT:    -3.052      1.147      1.627
REMARK INTER + INTRA:          -3.415
REMARK INTER:                  -3.407
REMARK INTRA:                  -0.008
REMARK UNBOUND:                -0.006
REMARK SMILES CCCC(=O)[O-]
REMARK SMILES IDX 3 1 4 2 5 3 6 4 2 5 1 6
REMARK H PARENT
REMARK Flexibility Score: inf
ROOT
ATOM      1  C   UNL     1      -9.067  22.874 -23.026  1.00  0.00     0.052 C 
ENDROOT
BRANCH   1   2
ATOM      2  C   UNL     1      -9.857  23.016 -24.288  1.00  0.00     0.041 C 
ATOM      3  O   UNL     1     -10.691  22.131 -24.616  1.00  0.00    -0.550 OA
ATOM      4  O   UNL     1      -9.639  24.101 -25.127  1.00  0.00    -0.550 OA
ENDBRANCH   1   2
BRANCH   1   5
ATOM      5  C   UNL     1      -9.997  22.874 -21.810  1.00  0.00     0.003 C 
ATOM      6  C   UNL     1      -9.234  22.534 -20.532  1.00  0.00     0.004 C 
ENDBRANCH   1   5
TORSDOF 2
ENDMDL
MODEL 4
REMARK VINA RESULT:    -3.027      9.047      9.739
REMARK INTER + INTRA:          -3.387
REMARK INTER:                  -3.347
REMARK INTRA:                  -0.040
REMARK UNBOUND:                -0.006
REMARK SMILES CCCC(=O)[O-]
REMARK SMILES IDX 3 1 4 2 5 3 6 4 2 5 1 6
REMARK H PARENT
REMARK Flexibility Score: inf
ROOT
ATOM      1  C   UNL     1      -3.443  27.686 -20.608  1.00  0.00     0.052 C 
ENDROOT
BRANCH   1   2
ATOM      2  C   UNL     1      -2.834  28.373 -19.426  1.00  0.00     0.041 C 
ATOM      3  O   UNL     1      -2.810  27.801 -18.305  1.00  0.00    -0.550 OA
ATOM      4  O   UNL     1      -2.336  29.663 -19.552  1.00  0.00    -0.550 OA
ENDBRANCH   1   2
BRANCH   1   5
ATOM      5  C   UNL     1      -4.394  26.577 -20.150  1.00  0.00     0.003 C 
ATOM      6  C   UNL     1      -5.833  27.081 -20.077  1.00  0.00     0.004 C 
ENDBRANCH   1   5
TORSDOF 2
ENDMDL
MODEL 5
REMARK VINA RESULT:    -3.016      4.632      5.857
REMARK INTER + INTRA:          -3.375
REMARK INTER:                  -3.338
REMARK INTRA:                  -0.038
REMARK UNBOUND:                -0.006
REMARK SMILES CCCC(=O)[O-]
REMARK SMILES IDX 3 1 4 2 5 3 6 4 2 5 1 6
REMARK H PARENT
REMARK Flexibility Score: inf
ROOT
ATOM      1  C   UNL     1      -7.260  26.041 -28.039  1.00  0.00     0.052 C 
ENDROOT
BRANCH   1   2
ATOM      2  C   UNL     1      -6.841  27.388 -27.541  1.00  0.00     0.041 C 
ATOM      3  O   UNL     1      -6.203  28.171 -28.293  1.00  0.00    -0.550 OA
ATOM      4  O   UNL     1      -7.113  27.762 -26.231  1.00  0.00    -0.550 OA
ENDBRANCH   1   2
BRANCH   1   5
ATOM      5  C   UNL     1      -8.785  25.909 -28.005  1.00  0.00     0.003 C 
ATOM      6  C   UNL     1      -9.224  24.845 -27.001  1.00  0.00     0.004 C 
ENDBRANCH   1   5
TORSDOF 2
ENDMDL
MODEL 6
REMARK VINA RESULT:    -2.972      7.890      8.594
REMARK INTER + INTRA:          -3.326
REMARK INTER:                  -3.265
REMARK INTRA:                  -0.061
REMARK UNBOUND:                -0.006
REMARK SMILES CCCC(=O)[O-]
REMARK SMILES IDX 3 1 4 2 5 3 6 4 2 5 1 6
REMARK H PARENT
REMARK Flexibility Score: inf
ROOT
ATOM      1  C   UNL     1      -4.453  26.726 -20.133  1.00  0.00     0.052 C 
ENDROOT
BRANCH   1   2
ATOM      2  C   UNL     1      -5.740  27.486 -20.206  1.00  0.00     0.041 C 
ATOM      3  O   UNL     1      -6.175  27.888 -21.317  1.00  0.00    -0.550 OA
ATOM      4  O   UNL     1      -6.434  27.791 -19.042  1.00  0.00    -0.550 OA
ENDBRANCH   1   2
BRANCH   1   5
ATOM      5  C   UNL     1      -3.274  27.636 -20.489  1.00  0.00     0.003 C 
ATOM      6  C   UNL     1      -2.879  28.515 -19.305  1.00  0.00     0.004 C 
ENDBRANCH   1   5
TORSDOF 2
ENDMDL
MODEL 7
REMARK VINA RESULT:    -2.879      7.708      8.369
REMARK INTER + INTRA:          -3.222
REMARK INTER:                  -3.185
REMARK INTRA:                  -0.037
REMARK UNBOUND:                -0.006
REMARK SMILES CCCC(=O)[O-]
REMARK SMILES IDX 3 1 4 2 5 3 6 4 2 5 1 6
REMARK H PARENT
REMARK Flexibility Score: inf
ROOT
ATOM      1  C   UNL     1      -5.881  27.512 -20.369  1.00  0.00     0.052 C 
ENDROOT
BRANCH   1   2
ATOM      2  C   UNL     1      -4.541  26.851 -20.283  1.00  0.00     0.041 C 
ATOM      3  O   UNL     1      -4.460  25.599 -20.168  1.00  0.00    -0.550 OA
ATOM      4  O   UNL     1      -3.385  27.619 -20.283  1.00  0.00    -0.550 OA
ENDBRANCH   1   2
BRANCH   1   5
ATOM      5  C   UNL     1      -6.293  28.064 -19.002  1.00  0.00     0.003 C 
ATOM      6  C   UNL     1      -6.283  29.590 -18.998  1.00  0.00     0.004 C 
ENDBRANCH   1   5
TORSDOF 2
ENDMDL
MODEL 8
REMARK VINA RESULT:    -2.862      8.170      8.529
REMARK INTER + INTRA:          -3.203
REMARK INTER:                  -3.163
REMARK INTRA:                  -0.040
REMARK UNBOUND:                -0.006
REMARK SMILES CCCC(=O)[O-]
REMARK SMILES IDX 3 1 4 2 5 3 6 4 2 5 1 6
REMARK H PARENT
REMARK Flexibility Score: inf
ROOT
ATOM      1  C   UNL     1      -5.839  27.702 -20.692  1.00  0.00     0.052 C 
ENDROOT
BRANCH   1   2
ATOM      2  C   UNL     1      -6.258  28.642 -19.606  1.00  0.00     0.041 C 
ATOM      3  O   UNL     1      -6.380  28.228 -18.422  1.00  0.00    -0.550 OA
ATOM      4  O   UNL     1      -6.561  29.964 -19.907  1.00  0.00    -0.550 OA
ENDBRANCH   1   2
BRANCH   1   5
ATOM      5  C   UNL     1      -5.155  26.469 -20.097  1.00  0.00     0.003 C 
ATOM      6  C   UNL     1      -3.635  26.611 -20.135  1.00  0.00     0.004 C 
ENDBRANCH   1   5
TORSDOF 2
ENDMDL
MODEL 9
REMARK VINA RESULT:    -2.798      7.576      8.272
REMARK INTER + INTRA:          -3.131
REMARK INTER:                  -3.093
REMARK INTRA:                  -0.038
REMARK UNBOUND:                -0.006
REMARK SMILES CCCC(=O)[O-]
REMARK SMILES IDX 3 1 4 2 5 3 6 4 2 5 1 6
REMARK H PARENT
REMARK Flexibility Score: inf
ROOT
ATOM      1  C   UNL     1      -6.231  29.208 -20.686  1.00  0.00     0.052 C 
ENDROOT
BRANCH   1   2
ATOM      2  C   UNL     1      -6.223  28.075 -19.708  1.00  0.00     0.041 C 
ATOM      3  O   UNL     1      -5.931  26.911 -20.091  1.00  0.00    -0.550 OA
ATOM      4  O   UNL     1      -6.583  28.296 -18.385  1.00  0.00    -0.550 OA
ENDBRANCH   1   2
BRANCH   1   5
ATOM      5  C   UNL     1      -5.652  28.759 -22.030  1.00  0.00     0.003 C 
ATOM      6  C   UNL     1      -6.734  28.705 -23.106  1.00  0.00     0.004 C 
ENDBRANCH   1   5
TORSDOF 2
ENDMDL
