MODEL 1
REMARK VINA RESULT:    -5.236      0.000      0.000
REMARK INTER + INTRA:          -5.962
REMARK INTER:                  -5.542
REMARK INTRA:                  -0.420
REMARK UNBOUND:                -0.420
REMARK SMILES CC1=CC[C@@H]2[C@H]3[C@@H](C(C)C)CC[C@]2(C)[C@@H]13
REMARK SMILES IDX 1 1 2 2 3 3 4 4 5 5 6 6 15 7 13 8 12 9 11 10 7 11 14 12 8 13
REMARK SMILES IDX 9 14 10 15
REMARK H PARENT
REMARK Flexibility Score: inf
ROOT
ATOM      1  C   UNL     1      31.400  29.258   9.268  1.00  0.00     0.039 C 
ATOM      2  C   UNL     1      31.266  28.365  10.466  1.00  0.00    -0.073 C 
ATOM      3  C   UNL     1      32.125  28.462  11.516  1.00  0.00    -0.027 C 
ATOM      4  C   UNL     1      31.922  27.539  12.724  1.00  0.00     0.031 C 
ATOM      5  C   UNL     1      30.709  26.583  12.483  1.00  0.00     0.003 C 
ATOM      6  C   UNL     1      30.853  26.002  11.055  1.00  0.00     0.004 C 
ATOM      7  C   UNL     1      30.172  27.297  10.557  1.00  0.00     0.024 C 
ATOM      8  C   UNL     1      29.479  27.358  11.936  1.00  0.00    -0.022 C 
ATOM      9  C   UNL     1      28.220  26.445  11.897  1.00  0.00     0.008 C 
ATOM     10  C   UNL     1      28.570  24.964  11.606  1.00  0.00     0.005 C 
ATOM     11  C   UNL     1      29.912  24.776  10.823  1.00  0.00    -0.005 C 
ATOM     12  C   UNL     1      29.136  28.743  12.532  1.00  0.00     0.012 C 
ENDROOT
BRANCH  11  13
ATOM     13  C   UNL     1      30.595  23.417  11.182  1.00  0.00    -0.014 C 
ATOM     14  C   UNL     1      30.292  22.969  12.625  1.00  0.00     0.007 C 
ATOM     15  C   UNL     1      32.125  23.497  11.004  1.00  0.00     0.007 C 
ENDBRANCH  11  13
TORSDOF 1
ENDMDL
MODEL 2
REMARK VINA RESULT:    -5.104      2.467      4.539
REMARK INTER + INTRA:          -5.823
REMARK INTER:                  -5.607
REMARK INTRA:                  -0.216
REMARK UNBOUND:                -0.420
REMARK SMILES CC1=CC[C@@H]2[C@H]3[C@@H](C(C)C)CC[C@]2(C)[C@@H]13
REMARK SMILES IDX 1 1 2 2 3 3 4 4 5 5 6 6 15 7 13 8 12 9 11 10 7 11 14 12 8 13
REMARK SMILES IDX 9 14 10 15
REMARK H PARENT
REMARK Flexibility Score: inf
ROOT
ATOM      1  C   UNL     1      27.734  25.358  12.248  1.00  0.00     0.039 C 
ATOM      2  C   UNL     1      28.983  24.571  11.987  1.00  0.00    -0.073 C 
ATOM      3  C   UNL     1      29.488  24.444  10.731  1.00  0.00    -0.027 C 
ATOM      4  C   UNL     1      30.782  23.647  10.531  1.00  0.00     0.031 C 
ATOM      5  C   UNL     1      31.285  23.071  11.894  1.00  0.00     0.003 C 
ATOM      6  C   UNL     1      30.066  22.438  12.607  1.00  0.00     0.004 C 
ATOM      7  C   UNL     1      29.739  23.861  13.116  1.00  0.00     0.024 C 
ATOM      8  C   UNL     1      31.252  24.150  13.011  1.00  0.00    -0.022 C 
ATOM      9  C   UNL     1      31.946  23.633  14.303  1.00  0.00     0.008 C 
ATOM     10  C   UNL     1      31.766  22.107  14.503  1.00  0.00     0.005 C 
ATOM     11  C   UNL     1      30.493  21.526  13.802  1.00  0.00    -0.005 C 
ATOM     12  C   UNL     1      31.710  25.590  12.679  1.00  0.00     0.012 C 
ENDROOT
BRANCH  11  13
ATOM     13  C   UNL     1      30.708  20.037  13.375  1.00  0.00    -0.014 C 
ATOM     14  C   UNL     1      30.490  19.054  14.541  1.00  0.00     0.007 C 
ATOM     15  C   UNL     1      32.125  19.820  12.807  1.00  0.00     0.007 C 
ENDBRANCH  11  13
TORSDOF 1
ENDMDL
MODEL 3
REMARK VINA RESULT:    -4.938      1.182      4.347
REMARK INTER + INTRA:          -5.647
REMARK INTER:                  -5.374
REMARK INTRA:                  -0.274
REMARK UNBOUND:                -0.420
REMARK SMILES CC1=CC[C@@H]2[C@H]3[C@@H](C(C)C)CC[C@]2(C)[C@@H]13
REMARK SMILES IDX 1 1 2 2 3 3 4 4 5 5 6 6 15 7 13 8 12 9 11 10 7 11 14 12 8 13
REMARK SMILES IDX 9 14 10 15
REMARK H PARENT
REMARK Flexibility Score: inf
ROOT
ATOM      1  C   UNL     1      31.725  24.042  14.133  1.00  0.00     0.039 C 
ATOM      2  C   UNL     1      31.117  24.400  12.810  1.00  0.00    -0.073 C 
ATOM      3  C   UNL     1      31.275  23.601  11.721  1.00  0.00    -0.027 C 
ATOM      4  C   UNL     1      30.608  24.008  10.402  1.00  0.00     0.031 C 
ATOM      5  C   UNL     1      29.854  25.367  10.568  1.00  0.00     0.003 C 
ATOM      6  C   UNL     1      30.807  26.338  11.308  1.00  0.00     0.004 C 
ATOM      7  C   UNL     1      30.306  25.686  12.618  1.00  0.00     0.024 C 
ATOM      8  C   UNL     1      28.994  25.383  11.861  1.00  0.00    -0.022 C 
ATOM      9  C   UNL     1      28.090  26.647  11.911  1.00  0.00     0.008 C 
ATOM     10  C   UNL     1      28.752  27.877  11.240  1.00  0.00     0.005 C 
ATOM     11  C   UNL     1      30.317  27.819  11.224  1.00  0.00    -0.005 C 
ATOM     12  C   UNL     1      28.193  24.117  12.246  1.00  0.00     0.012 C 
ENDROOT
BRANCH  11  13
ATOM     13  C   UNL     1      30.901  28.577   9.988  1.00  0.00    -0.014 C 
ATOM     14  C   UNL     1      32.125  27.862   9.384  1.00  0.00     0.007 C 
ATOM     15  C   UNL     1      31.306  30.018  10.357  1.00  0.00     0.007 C 
ENDBRANCH  11  13
TORSDOF 1
ENDMDL
MODEL 4
REMARK VINA RESULT:    -4.915      1.277      4.734
REMARK INTER + INTRA:          -5.622
REMARK INTER:                  -5.373
REMARK INTRA:                  -0.249
REMARK UNBOUND:                -0.420
REMARK SMILES CC1=CC[C@@H]2[C@H]3[C@@H](C(C)C)CC[C@]2(C)[C@@H]13
REMARK SMILES IDX 1 1 2 2 3 3 4 4 5 5 6 6 15 7 13 8 12 9 11 10 7 11 14 12 8 13
REMARK SMILES IDX 9 14 10 15
REMARK H PARENT
REMARK Flexibility Score: inf
ROOT
ATOM      1  C   UNL     1      27.254  23.419  11.480  1.00  0.00     0.039 C 
ATOM      2  C   UNL     1      28.586  23.947  11.924  1.00  0.00    -0.073 C 
ATOM      3  C   UNL     1      29.072  23.678  13.165  1.00  0.00    -0.027 C 
ATOM      4  C   UNL     1      30.451  24.225  13.552  1.00  0.00     0.031 C 
ATOM      5  C   UNL     1      31.054  25.066  12.382  1.00  0.00     0.003 C 
ATOM      6  C   UNL     1      29.941  26.012  11.870  1.00  0.00     0.004 C 
ATOM      7  C   UNL     1      29.450  24.823  11.012  1.00  0.00     0.024 C 
ATOM      8  C   UNL     1      30.913  24.327  11.022  1.00  0.00    -0.022 C 
ATOM      9  C   UNL     1      31.696  25.070   9.902  1.00  0.00     0.008 C 
ATOM     10  C   UNL     1      31.713  26.605  10.109  1.00  0.00     0.005 C 
ATOM     11  C   UNL     1      30.506  27.142  10.950  1.00  0.00    -0.005 C 
ATOM     12  C   UNL     1      31.178  22.805  10.963  1.00  0.00     0.012 C 
ENDROOT
BRANCH  11  13
ATOM     13  C   UNL     1      30.896  28.428  11.747  1.00  0.00    -0.014 C 
ATOM     14  C   UNL     1      29.758  28.922  12.660  1.00  0.00     0.007 C 
ATOM     15  C   UNL     1      31.294  29.574  10.795  1.00  0.00     0.007 C 
ENDBRANCH  11  13
TORSDOF 1
ENDMDL
MODEL 5
REMARK VINA RESULT:    -4.618      1.155      4.697
REMARK INTER + INTRA:          -5.309
REMARK INTER:                  -5.055
REMARK INTRA:                  -0.253
REMARK UNBOUND:                -0.420
REMARK SMILES CC1=CC[C@@H]2[C@H]3[C@@H](C(C)C)CC[C@]2(C)[C@@H]13
REMARK SMILES IDX 1 1 2 2 3 3 4 4 5 5 6 6 15 7 13 8 12 9 11 10 7 11 14 12 8 13
REMARK SMILES IDX 9 14 10 15
REMARK H PARENT
REMARK Flexibility Score: inf
ROOT
ATOM      1  C   UNL     1      32.094  22.927   9.845  1.00  0.00     0.039 C 
ATOM      2  C   UNL     1      31.243  23.913  10.588  1.00  0.00    -0.073 C 
ATOM      3  C   UNL     1      29.901  23.732  10.715  1.00  0.00    -0.027 C 
ATOM      4  C   UNL     1      29.088  24.763  11.507  1.00  0.00     0.031 C 
ATOM      5  C   UNL     1      30.014  25.911  12.021  1.00  0.00     0.003 C 
ATOM      6  C   UNL     1      30.910  26.349  10.837  1.00  0.00     0.004 C 
ATOM      7  C   UNL     1      31.838  25.174  11.223  1.00  0.00     0.024 C 
ATOM      8  C   UNL     1      31.311  25.348  12.664  1.00  0.00    -0.022 C 
ATOM      9  C   UNL     1      32.125  26.478  13.357  1.00  0.00     0.008 C 
ATOM     10  C   UNL     1      31.983  27.840  12.631  1.00  0.00     0.005 C 
ATOM     11  C   UNL     1      31.625  27.711  11.113  1.00  0.00    -0.005 C 
ATOM     12  C   UNL     1      31.218  24.100  13.574  1.00  0.00     0.012 C 
ENDROOT
BRANCH  11  13
ATOM     13  C   UNL     1      30.792  28.938  10.619  1.00  0.00    -0.014 C 
ATOM     14  C   UNL     1      31.683  30.095  10.129  1.00  0.00     0.007 C 
ATOM     15  C   UNL     1      29.866  29.468  11.733  1.00  0.00     0.007 C 
ENDBRANCH  11  13
TORSDOF 1
ENDMDL
MODEL 6
REMARK VINA RESULT:    -4.518      2.657      5.077
REMARK INTER + INTRA:          -5.203
REMARK INTER:                  -4.920
REMARK INTRA:                  -0.283
REMARK UNBOUND:                -0.420
REMARK SMILES CC1=CC[C@@H]2[C@H]3[C@@H](C(C)C)CC[C@]2(C)[C@@H]13
REMARK SMILES IDX 1 1 2 2 3 3 4 4 5 5 6 6 15 7 13 8 12 9 11 10 7 11 14 12 8 13
REMARK SMILES IDX 9 14 10 15
REMARK H PARENT
REMARK Flexibility Score: inf
ROOT
ATOM      1  C   UNL     1      32.101  26.131  13.243  1.00  0.00     0.039 C 
ATOM      2  C   UNL     1      31.265  24.907  13.013  1.00  0.00    -0.073 C 
ATOM      3  C   UNL     1      29.909  24.983  12.941  1.00  0.00    -0.027 C 
ATOM      4  C   UNL     1      29.110  23.701  12.679  1.00  0.00     0.031 C 
ATOM      5  C   UNL     1      30.069  22.472  12.570  1.00  0.00     0.003 C 
ATOM      6  C   UNL     1      31.068  22.558  13.750  1.00  0.00     0.004 C 
ATOM      7  C   UNL     1      31.894  23.518  12.864  1.00  0.00     0.024 C 
ATOM      8  C   UNL     1      31.283  22.782  11.651  1.00  0.00    -0.022 C 
ATOM      9  C   UNL     1      32.117  21.497  11.381  1.00  0.00     0.008 C 
ATOM     10  C   UNL     1      32.108  20.520  12.584  1.00  0.00     0.005 C 
ATOM     11  C   UNL     1      31.845  21.218  13.960  1.00  0.00    -0.005 C 
ATOM     12  C   UNL     1      31.053  23.574  10.343  1.00  0.00     0.012 C 
ENDROOT
BRANCH  11  13
ATOM     13  C   UNL     1      31.124  20.254  14.958  1.00  0.00    -0.014 C 
ATOM     14  C   UNL     1      32.101  19.596  15.949  1.00  0.00     0.007 C 
ATOM     15  C   UNL     1      30.362  19.143  14.207  1.00  0.00     0.007 C 
ENDBRANCH  11  13
TORSDOF 1
ENDMDL
MODEL 7
REMARK VINA RESULT:    -4.317      1.420      2.844
REMARK INTER + INTRA:          -4.990
REMARK INTER:                  -4.715
REMARK INTRA:                  -0.275
REMARK UNBOUND:                -0.420
REMARK SMILES CC1=CC[C@@H]2[C@H]3[C@@H](C(C)C)CC[C@]2(C)[C@@H]13
REMARK SMILES IDX 1 1 2 2 3 3 4 4 5 5 6 6 15 7 13 8 12 9 11 10 7 11 14 12 8 13
REMARK SMILES IDX 9 14 10 15
REMARK H PARENT
REMARK Flexibility Score: inf
ROOT
ATOM      1  C   UNL     1      28.110  28.112  11.872  1.00  0.00     0.039 C 
ATOM      2  C   UNL     1      29.281  27.228  11.561  1.00  0.00    -0.073 C 
ATOM      3  C   UNL     1      29.779  27.136  10.299  1.00  0.00    -0.027 C 
ATOM      4  C   UNL     1      30.994  26.234  10.048  1.00  0.00     0.031 C 
ATOM      5  C   UNL     1      31.430  25.525  11.371  1.00  0.00     0.003 C 
ATOM      6  C   UNL     1      30.151  24.966  12.041  1.00  0.00     0.004 C 
ATOM      7  C   UNL     1      29.958  26.377  12.641  1.00  0.00     0.024 C 
ATOM      8  C   UNL     1      31.492  26.527  12.556  1.00  0.00    -0.022 C 
ATOM      9  C   UNL     1      32.125  25.863  13.813  1.00  0.00     0.008 C 
ATOM     10  C   UNL     1      31.800  24.351  13.911  1.00  0.00     0.005 C 
ATOM     11  C   UNL     1      30.482  23.941  13.173  1.00  0.00    -0.005 C 
ATOM     12  C   UNL     1      32.087  27.935  12.320  1.00  0.00     0.012 C 
ENDROOT
BRANCH  11  13
ATOM     13  C   UNL     1      30.557  22.470  12.650  1.00  0.00    -0.014 C 
ATOM     14  C   UNL     1      29.943  21.461  13.639  1.00  0.00     0.007 C 
ATOM     15  C   UNL     1      32.015  22.054  12.366  1.00  0.00     0.007 C 
ENDBRANCH  11  13
TORSDOF 1
ENDMDL
