MODEL 1
REMARK VINA RESULT:    -4.007      0.000      0.000
REMARK INTER + INTRA:          -4.658
REMARK INTER:                  -4.593
REMARK INTRA:                  -0.065
REMARK UNBOUND:                -0.065
REMARK SMILES CC(C)[C@@H]([NH3+])C(=O)[O-]
REMARK SMILES IDX 4 1 5 2 6 6 7 7 8 8 2 9 1 10 3 11
REMARK H PARENT 5 3 5 4 5 5
REMARK Flexibility Score: inf
ROOT
ATOM      1  C   UNL     1       3.425  45.167  11.794  1.00  0.00     0.230 C 
ENDROOT
BRANCH   1   2
ATOM      2  N   UNL     1       4.622  44.807  12.570  1.00  0.00    -0.350 N 
ATOM      3  H   UNL     1       4.626  43.793  12.819  1.00  0.00     0.345 HD
ATOM      4  H   UNL     1       4.677  45.380  13.442  1.00  0.00     0.345 HD
ATOM      5  H   UNL     1       5.477  45.013  12.003  1.00  0.00     0.345 HD
ENDBRANCH   1   2
BRANCH   1   6
ATOM      6  C   UNL     1       3.726  46.297  10.840  1.00  0.00     0.099 C 
ATOM      7  O   UNL     1       2.797  46.810  10.161  1.00  0.00    -0.544 OA
ATOM      8  O   UNL     1       5.028  46.751  10.665  1.00  0.00    -0.544 OA
ENDBRANCH   1   6
BRANCH   1   9
ATOM      9  C   UNL     1       2.802  43.954  11.036  1.00  0.00     0.047 C 
ATOM     10  C   UNL     1       3.843  43.068  10.331  1.00  0.00     0.014 C 
ATOM     11  C   UNL     1       1.916  43.101  11.955  1.00  0.00     0.014 C 
ENDBRANCH   1   9
TORSDOF 3
ENDMDL
MODEL 2
REMARK VINA RESULT:    -4.003      0.093      1.145
REMARK INTER + INTRA:          -4.652
REMARK INTER:                  -4.596
REMARK INTRA:                  -0.057
REMARK UNBOUND:                -0.065
REMARK SMILES CC(C)[C@@H]([NH3+])C(=O)[O-]
REMARK SMILES IDX 4 1 5 2 6 6 7 7 8 8 2 9 1 10 3 11
REMARK H PARENT 5 3 5 4 5 5
REMARK Flexibility Score: inf
ROOT
ATOM      1  C   UNL     1       3.441  45.185  11.727  1.00  0.00     0.230 C 
ENDROOT
BRANCH   1   2
ATOM      2  N   UNL     1       4.619  44.840  12.539  1.00  0.00    -0.350 N 
ATOM      3  H   UNL     1       5.191  45.686  12.761  1.00  0.00     0.345 HD
ATOM      4  H   UNL     1       5.213  44.139  12.042  1.00  0.00     0.345 HD
ATOM      5  H   UNL     1       4.306  44.406  13.438  1.00  0.00     0.345 HD
ENDBRANCH   1   2
BRANCH   1   6
ATOM      6  C   UNL     1       3.766  46.298  10.761  1.00  0.00     0.099 C 
ATOM      7  O   UNL     1       4.948  46.723  10.667  1.00  0.00    -0.544 OA
ATOM      8  O   UNL     1       2.766  46.896  10.003  1.00  0.00    -0.544 OA
ENDBRANCH   1   6
BRANCH   1   9
ATOM      9  C   UNL     1       2.837  43.959  10.978  1.00  0.00     0.047 C 
ATOM     10  C   UNL     1       3.896  43.051  10.329  1.00  0.00     0.014 C 
ATOM     11  C   UNL     1       1.915  43.131  11.886  1.00  0.00     0.014 C 
ENDBRANCH   1   9
TORSDOF 3
ENDMDL
MODEL 3
REMARK VINA RESULT:    -3.854      1.864      2.148
REMARK INTER + INTRA:          -4.482
REMARK INTER:                  -4.435
REMARK INTRA:                  -0.046
REMARK UNBOUND:                -0.065
REMARK SMILES CC(C)[C@@H]([NH3+])C(=O)[O-]
REMARK SMILES IDX 4 1 5 2 6 6 7 7 8 8 2 9 1 10 3 11
REMARK H PARENT 5 3 5 4 5 5
REMARK Flexibility Score: inf
ROOT
ATOM      1  C   UNL     1       4.171  45.122  10.102  1.00  0.00     0.230 C 
ENDROOT
BRANCH   1   2
ATOM      2  N   UNL     1       3.736  44.161   9.076  1.00  0.00    -0.350 N 
ATOM      3  H   UNL     1       4.448  43.411   8.928  1.00  0.00     0.345 HD
ATOM      4  H   UNL     1       3.551  44.650   8.172  1.00  0.00     0.345 HD
ATOM      5  H   UNL     1       2.840  43.712   9.380  1.00  0.00     0.345 HD
ENDBRANCH   1   2
BRANCH   1   6
ATOM      6  C   UNL     1       4.292  46.508   9.517  1.00  0.00     0.099 C 
ATOM      7  O   UNL     1       3.349  46.984   8.830  1.00  0.00    -0.544 OA
ATOM      8  O   UNL     1       5.453  47.252   9.687  1.00  0.00    -0.544 OA
ENDBRANCH   1   6
BRANCH   1   9
ATOM      9  C   UNL     1       3.252  45.129  11.361  1.00  0.00     0.047 C 
ATOM     10  C   UNL     1       1.828  44.615  11.087  1.00  0.00     0.014 C 
ATOM     11  C   UNL     1       3.878  44.354  12.530  1.00  0.00     0.014 C 
ENDBRANCH   1   9
TORSDOF 3
ENDMDL
MODEL 4
REMARK VINA RESULT:    -3.844      1.684      1.817
REMARK INTER + INTRA:          -4.470
REMARK INTER:                  -4.399
REMARK INTRA:                  -0.071
REMARK UNBOUND:                -0.065
REMARK SMILES CC(C)[C@@H]([NH3+])C(=O)[O-]
REMARK SMILES IDX 4 1 5 2 6 6 7 7 8 8 2 9 1 10 3 11
REMARK H PARENT 5 3 5 4 5 5
REMARK Flexibility Score: inf
ROOT
ATOM      1  C   UNL     1       3.089  46.136  10.885  1.00  0.00     0.230 C 
ENDROOT
BRANCH   1   2
ATOM      2  N   UNL     1       4.355  46.804  11.224  1.00  0.00    -0.350 N 
ATOM      3  H   UNL     1       4.592  47.549  10.531  1.00  0.00     0.345 HD
ATOM      4  H   UNL     1       5.133  46.110  11.270  1.00  0.00     0.345 HD
ATOM      5  H   UNL     1       4.271  47.246  12.169  1.00  0.00     0.345 HD
ENDBRANCH   1   2
BRANCH   1   6
ATOM      6  C   UNL     1       2.639  46.518   9.495  1.00  0.00     0.099 C 
ATOM      7  O   UNL     1       1.482  46.211   9.103  1.00  0.00    -0.544 OA
ATOM      8  O   UNL     1       3.505  47.164   8.620  1.00  0.00    -0.544 OA
ENDBRANCH   1   6
BRANCH   1   9
ATOM      9  C   UNL     1       3.156  44.586  11.039  1.00  0.00     0.047 C 
ATOM     10  C   UNL     1       4.001  43.896   9.955  1.00  0.00     0.014 C 
ATOM     11  C   UNL     1       3.645  44.172  12.435  1.00  0.00     0.014 C 
ENDBRANCH   1   9
TORSDOF 3
ENDMDL
MODEL 5
REMARK VINA RESULT:    -3.825     14.775     15.695
REMARK INTER + INTRA:          -4.449
REMARK INTER:                  -4.415
REMARK INTRA:                  -0.034
REMARK UNBOUND:                -0.065
REMARK SMILES CC(C)[C@@H]([NH3+])C(=O)[O-]
REMARK SMILES IDX 4 1 5 2 6 6 7 7 8 8 2 9 1 10 3 11
REMARK H PARENT 5 3 5 4 5 5
REMARK Flexibility Score: inf
ROOT
ATOM      1  C   UNL     1      14.735  34.014  14.026  1.00  0.00     0.230 C 
ENDROOT
BRANCH   1   2
ATOM      2  N   UNL     1      16.083  34.535  14.302  1.00  0.00    -0.350 N 
ATOM      3  H   UNL     1      16.046  35.396  14.894  1.00  0.00     0.345 HD
ATOM      4  H   UNL     1      16.582  34.747  13.410  1.00  0.00     0.345 HD
ATOM      5  H   UNL     1      16.639  33.808  14.810  1.00  0.00     0.345 HD
ENDBRANCH   1   2
BRANCH   1   6
ATOM      6  C   UNL     1      13.803  35.130  13.622  1.00  0.00     0.099 C 
ATOM      7  O   UNL     1      12.758  35.349  14.290  1.00  0.00    -0.544 OA
ATOM      8  O   UNL     1      14.058  35.894  12.488  1.00  0.00    -0.544 OA
ENDBRANCH   1   6
BRANCH   1   9
ATOM      9  C   UNL     1      14.728  32.873  12.964  1.00  0.00     0.047 C 
ATOM     10  C   UNL     1      15.554  31.643  13.375  1.00  0.00     0.014 C 
ATOM     11  C   UNL     1      13.299  32.450  12.589  1.00  0.00     0.014 C 
ENDBRANCH   1   9
TORSDOF 3
ENDMDL
MODEL 6
REMARK VINA RESULT:    -3.733      2.272      3.417
REMARK INTER + INTRA:          -4.344
REMARK INTER:                  -4.267
REMARK INTRA:                  -0.077
REMARK UNBOUND:                -0.065
REMARK SMILES CC(C)[C@@H]([NH3+])C(=O)[O-]
REMARK SMILES IDX 4 1 5 2 6 6 7 7 8 8 2 9 1 10 3 11
REMARK H PARENT 5 3 5 4 5 5
REMARK Flexibility Score: inf
ROOT
ATOM      1  C   UNL     1       4.180  44.696  10.768  1.00  0.00     0.230 C 
ENDROOT
BRANCH   1   2
ATOM      2  N   UNL     1       4.531  45.112  12.134  1.00  0.00    -0.350 N 
ATOM      3  H   UNL     1       3.682  45.208  12.735  1.00  0.00     0.345 HD
ATOM      4  H   UNL     1       5.050  46.018  12.118  1.00  0.00     0.345 HD
ATOM      5  H   UNL     1       5.162  44.395  12.564  1.00  0.00     0.345 HD
ENDBRANCH   1   2
BRANCH   1   6
ATOM      6  C   UNL     1       3.046  43.700  10.788  1.00  0.00     0.099 C 
ATOM      7  O   UNL     1       2.467  43.429  11.874  1.00  0.00    -0.544 OA
ATOM      8  O   UNL     1       2.661  43.038   9.628  1.00  0.00    -0.544 OA
ENDBRANCH   1   6
BRANCH   1   9
ATOM      9  C   UNL     1       3.847  45.896   9.831  1.00  0.00     0.047 C 
ATOM     10  C   UNL     1       2.503  46.572  10.150  1.00  0.00     0.014 C 
ATOM     11  C   UNL     1       4.974  46.940   9.816  1.00  0.00     0.014 C 
ENDBRANCH   1   9
TORSDOF 3
ENDMDL
MODEL 7
REMARK VINA RESULT:    -3.699      1.727      2.013
REMARK INTER + INTRA:          -4.304
REMARK INTER:                  -4.321
REMARK INTRA:                   0.017
REMARK UNBOUND:                -0.065
REMARK SMILES CC(C)[C@@H]([NH3+])C(=O)[O-]
REMARK SMILES IDX 4 1 5 2 6 6 7 7 8 8 2 9 1 10 3 11
REMARK H PARENT 5 3 5 4 5 5
REMARK Flexibility Score: inf
ROOT
ATOM      1  C   UNL     1       3.805  44.133   9.972  1.00  0.00     0.230 C 
ENDROOT
BRANCH   1   2
ATOM      2  N   UNL     1       2.966  43.536   8.921  1.00  0.00    -0.350 N 
ATOM      3  H   UNL     1       1.961  43.796   9.040  1.00  0.00     0.345 HD
ATOM      4  H   UNL     1       3.059  42.496   8.925  1.00  0.00     0.345 HD
ATOM      5  H   UNL     1       3.287  43.877   7.985  1.00  0.00     0.345 HD
ENDBRANCH   1   2
BRANCH   1   6
ATOM      6  C   UNL     1       3.706  45.639   9.943  1.00  0.00     0.099 C 
ATOM      7  O   UNL     1       2.575  46.193   9.940  1.00  0.00    -0.544 OA
ATOM      8  O   UNL     1       4.850  46.425   9.870  1.00  0.00    -0.544 OA
ENDBRANCH   1   6
BRANCH   1   9
ATOM      9  C   UNL     1       3.484  43.583  11.395  1.00  0.00     0.047 C 
ATOM     10  C   UNL     1       4.066  44.440  12.532  1.00  0.00     0.014 C 
ATOM     11  C   UNL     1       1.975  43.383  11.603  1.00  0.00     0.014 C 
ENDBRANCH   1   9
TORSDOF 3
ENDMDL
MODEL 8
REMARK VINA RESULT:    -3.677      3.821      4.814
REMARK INTER + INTRA:          -4.279
REMARK INTER:                  -4.243
REMARK INTRA:                  -0.036
REMARK UNBOUND:                -0.065
REMARK SMILES CC(C)[C@@H]([NH3+])C(=O)[O-]
REMARK SMILES IDX 4 1 5 2 6 6 7 7 8 8 2 9 1 10 3 11
REMARK H PARENT 5 3 5 4 5 5
REMARK Flexibility Score: inf
ROOT
ATOM      1  C   UNL     1       4.100  47.863   8.239  1.00  0.00     0.230 C 
ENDROOT
BRANCH   1   2
ATOM      2  N   UNL     1       5.068  48.953   8.041  1.00  0.00    -0.350 N 
ATOM      3  H   UNL     1       5.486  48.925   7.084  1.00  0.00     0.345 HD
ATOM      4  H   UNL     1       5.828  48.900   8.755  1.00  0.00     0.345 HD
ATOM      5  H   UNL     1       4.584  49.873   8.165  1.00  0.00     0.345 HD
ENDBRANCH   1   2
BRANCH   1   6
ATOM      6  C   UNL     1       4.578  46.911   9.308  1.00  0.00     0.099 C 
ATOM      7  O   UNL     1       5.330  47.328  10.228  1.00  0.00    -0.544 OA
ATOM      8  O   UNL     1       4.238  45.564   9.264  1.00  0.00    -0.544 OA
ENDBRANCH   1   6
BRANCH   1   9
ATOM      9  C   UNL     1       2.662  48.375   8.555  1.00  0.00     0.047 C 
ATOM     10  C   UNL     1       2.404  49.817   8.088  1.00  0.00     0.014 C 
ATOM     11  C   UNL     1       1.584  47.436   7.992  1.00  0.00     0.014 C 
ENDBRANCH   1   9
TORSDOF 3
ENDMDL
MODEL 9
REMARK VINA RESULT:    -3.533      2.952      4.241
REMARK INTER + INTRA:          -4.115
REMARK INTER:                  -4.061
REMARK INTRA:                  -0.054
REMARK UNBOUND:                -0.065
REMARK SMILES CC(C)[C@@H]([NH3+])C(=O)[O-]
REMARK SMILES IDX 4 1 5 2 6 6 7 7 8 8 2 9 1 10 3 11
REMARK H PARENT 5 3 5 4 5 5
REMARK Flexibility Score: inf
ROOT
ATOM      1  C   UNL     1       3.204  46.701   9.397  1.00  0.00     0.230 C 
ENDROOT
BRANCH   1   2
ATOM      2  N   UNL     1       1.998  46.448   8.593  1.00  0.00    -0.350 N 
ATOM      3  H   UNL     1       1.932  45.446   8.307  1.00  0.00     0.345 HD
ATOM      4  H   UNL     1       1.992  47.054   7.742  1.00  0.00     0.345 HD
ATOM      5  H   UNL     1       1.149  46.688   9.156  1.00  0.00     0.345 HD
ENDBRANCH   1   2
BRANCH   1   6
ATOM      6  C   UNL     1       3.652  45.442  10.097  1.00  0.00     0.099 C 
ATOM      7  O   UNL     1       3.640  45.385  11.355  1.00  0.00    -0.544 OA
ATOM      8  O   UNL     1       4.127  44.355   9.371  1.00  0.00    -0.544 OA
ENDBRANCH   1   6
BRANCH   1   9
ATOM      9  C   UNL     1       4.370  47.320   8.568  1.00  0.00     0.047 C 
ATOM     10  C   UNL     1       4.003  48.649   7.886  1.00  0.00     0.014 C 
ATOM     11  C   UNL     1       5.642  47.493   9.412  1.00  0.00     0.014 C 
ENDBRANCH   1   9
TORSDOF 3
ENDMDL
