MODEL 1
REMARK VINA RESULT:    -5.113      0.000      0.000
REMARK INTER + INTRA:          -5.412
REMARK INTER:                  -5.412
REMARK INTRA:                   0.000
REMARK UNBOUND:                 0.000
REMARK SMILES O=c1ccc2cc(O)c(O)cc2o1
REMARK SMILES IDX 4 1 3 2 2 3 1 4 13 5 12 6 11 7 9 8 7 9 6 10 5 11 8 12 10 14
REMARK H PARENT 8 13 10 15
REMARK Flexibility Score: inf
ROOT
ATOM      1  C   UNL     1      21.064   7.891  17.866  1.00  0.00     0.019 A 
ATOM      2  C   UNL     1      19.745   8.292  17.657  1.00  0.00     0.094 A 
ATOM      3  C   UNL     1      19.087   9.009  18.662  1.00  0.00     0.336 A 
ATOM      4  O   UNL     1      17.897   9.380  18.493  1.00  0.00    -0.246 OA
ATOM      5  O   UNL     1      19.714   9.302  19.800  1.00  0.00    -0.423 OA
ATOM      6  C   UNL     1      20.971   8.939  20.039  1.00  0.00     0.142 A 
ATOM      7  C   UNL     1      21.577   9.274  21.253  1.00  0.00     0.098 A 
ATOM      8  C   UNL     1      22.899   8.896  21.513  1.00  0.00     0.161 A 
ATOM      9  C   UNL     1      23.625   8.172  20.548  1.00  0.00     0.158 A 
ATOM     10  C   UNL     1      23.021   7.833  19.328  1.00  0.00     0.062 A 
ATOM     11  C   UNL     1      21.697   8.212  19.070  1.00  0.00     0.022 A 
ENDROOT
BRANCH   9  12
ATOM     12  O   UNL     1      24.942   7.794  20.806  1.00  0.00    -0.504 OA
ATOM     13  H   UNL     1      25.621   7.698  20.060  1.00  0.00     0.293 HD
ENDBRANCH   9  12
BRANCH   8  14
ATOM     14  O   UNL     1      23.476   9.247  22.734  1.00  0.00    -0.504 OA
ATOM     15  H   UNL     1      22.958   9.208  23.603  1.00  0.00     0.293 HD
ENDBRANCH   8  14
TORSDOF 2
ENDMDL
MODEL 2
REMARK VINA RESULT:    -4.823     15.555     16.151
REMARK INTER + INTRA:          -5.105
REMARK INTER:                  -5.105
REMARK INTRA:                   0.000
REMARK UNBOUND:                 0.000
REMARK SMILES O=c1ccc2cc(O)c(O)cc2o1
REMARK SMILES IDX 4 1 3 2 2 3 1 4 13 5 12 6 11 7 9 8 7 9 6 10 5 11 8 12 10 14
REMARK H PARENT 8 13 10 15
REMARK Flexibility Score: inf
ROOT
ATOM      1  C   UNL     1      18.901  -7.511  17.541  1.00  0.00     0.019 A 
ATOM      2  C   UNL     1      18.132  -6.398  17.881  1.00  0.00     0.094 A 
ATOM      3  C   UNL     1      18.598  -5.531  18.874  1.00  0.00     0.336 A 
ATOM      4  O   UNL     1      17.919  -4.521  19.195  1.00  0.00    -0.246 OA
ATOM      5  O   UNL     1      19.757  -5.765  19.484  1.00  0.00    -0.423 OA
ATOM      6  C   UNL     1      20.522  -6.814  19.190  1.00  0.00     0.142 A 
ATOM      7  C   UNL     1      21.730  -7.010  19.864  1.00  0.00     0.098 A 
ATOM      8  C   UNL     1      22.540  -8.111  19.561  1.00  0.00     0.161 A 
ATOM      9  C   UNL     1      22.137  -9.028  18.572  1.00  0.00     0.158 A 
ATOM     10  C   UNL     1      20.924  -8.835  17.892  1.00  0.00     0.062 A 
ATOM     11  C   UNL     1      20.115  -7.733  18.198  1.00  0.00     0.022 A 
ENDROOT
BRANCH   9  12
ATOM     12  O   UNL     1      22.942 -10.125  18.269  1.00  0.00    -0.504 OA
ATOM     13  H   UNL     1      23.198 -10.805  18.975  1.00  0.00     0.293 HD
ENDBRANCH   9  12
BRANCH   8  14
ATOM     14  O   UNL     1      23.740  -8.278  20.251  1.00  0.00    -0.504 OA
ATOM     15  H   UNL     1      23.913  -7.835  21.145  1.00  0.00     0.293 HD
ENDBRANCH   8  14
TORSDOF 2
ENDMDL
MODEL 3
REMARK VINA RESULT:    -4.756      5.204      7.553
REMARK INTER + INTRA:          -5.034
REMARK INTER:                  -5.034
REMARK INTRA:                   0.000
REMARK UNBOUND:                 0.000
REMARK SMILES O=c1ccc2cc(O)c(O)cc2o1
REMARK SMILES IDX 4 1 3 2 2 3 1 4 13 5 12 6 11 7 9 8 7 9 6 10 5 11 8 12 10 14
REMARK H PARENT 8 13 10 15
REMARK Flexibility Score: inf
ROOT
ATOM      1  C   UNL     1      26.874   3.266  18.242  1.00  0.00     0.019 A 
ATOM      2  C   UNL     1      27.597   2.728  19.306  1.00  0.00     0.094 A 
ATOM      3  C   UNL     1      26.972   2.593  20.550  1.00  0.00     0.336 A 
ATOM      4  O   UNL     1      27.607   2.109  21.523  1.00  0.00    -0.246 OA
ATOM      5  O   UNL     1      25.707   2.973  20.713  1.00  0.00    -0.423 OA
ATOM      6  C   UNL     1      24.982   3.491  19.725  1.00  0.00     0.142 A 
ATOM      7  C   UNL     1      23.657   3.873  19.955  1.00  0.00     0.098 A 
ATOM      8  C   UNL     1      22.887   4.418  18.921  1.00  0.00     0.161 A 
ATOM      9  C   UNL     1      23.449   4.585  17.640  1.00  0.00     0.158 A 
ATOM     10  C   UNL     1      24.779   4.203  17.405  1.00  0.00     0.062 A 
ATOM     11  C   UNL     1      25.547   3.657  18.441  1.00  0.00     0.022 A 
ENDROOT
BRANCH   9  12
ATOM     12  O   UNL     1      22.684   5.129  16.610  1.00  0.00    -0.504 OA
ATOM     13  H   UNL     1      22.353   4.560  15.839  1.00  0.00     0.293 HD
ENDBRANCH   9  12
BRANCH   8  14
ATOM     14  O   UNL     1      21.569   4.790  19.182  1.00  0.00    -0.504 OA
ATOM     15  H   UNL     1      20.876   4.124  19.501  1.00  0.00     0.293 HD
ENDBRANCH   8  14
TORSDOF 2
ENDMDL
MODEL 4
REMARK VINA RESULT:    -4.658     13.584     14.063
REMARK INTER + INTRA:          -4.930
REMARK INTER:                  -4.930
REMARK INTRA:                   0.000
REMARK UNBOUND:                 0.000
REMARK SMILES O=c1ccc2cc(O)c(O)cc2o1
REMARK SMILES IDX 4 1 3 2 2 3 1 4 13 5 12 6 11 7 9 8 7 9 6 10 5 11 8 12 10 14
REMARK H PARENT 8 13 10 15
REMARK Flexibility Score: inf
ROOT
ATOM      1  C   UNL     1      13.134  -3.254  18.269  1.00  0.00     0.019 A 
ATOM      2  C   UNL     1      12.393  -2.798  19.359  1.00  0.00     0.094 A 
ATOM      3  C   UNL     1      13.022  -2.676  20.602  1.00  0.00     0.336 A 
ATOM      4  O   UNL     1      12.371  -2.266  21.598  1.00  0.00    -0.246 OA
ATOM      5  O   UNL     1      14.308  -2.992  20.741  1.00  0.00    -0.423 OA
ATOM      6  C   UNL     1      15.051  -3.430  19.727  1.00  0.00     0.142 A 
ATOM      7  C   UNL     1      16.396  -3.746  19.933  1.00  0.00     0.098 A 
ATOM      8  C   UNL     1      17.185  -4.208  18.872  1.00  0.00     0.161 A 
ATOM      9  C   UNL     1      16.621  -4.356  17.590  1.00  0.00     0.158 A 
ATOM     10  C   UNL     1      15.270  -4.039  17.380  1.00  0.00     0.062 A 
ATOM     11  C   UNL     1      14.483  -3.578  18.443  1.00  0.00     0.022 A 
ENDROOT
BRANCH   9  12
ATOM     12  O   UNL     1      17.405  -4.816  16.533  1.00  0.00    -0.504 OA
ATOM     13  H   UNL     1      17.466  -4.308  15.659  1.00  0.00     0.293 HD
ENDBRANCH   9  12
BRANCH   8  14
ATOM     14  O   UNL     1      18.524  -4.515  19.108  1.00  0.00    -0.504 OA
ATOM     15  H   UNL     1      19.045  -4.099  19.870  1.00  0.00     0.293 HD
ENDBRANCH   8  14
TORSDOF 2
ENDMDL
MODEL 5
REMARK VINA RESULT:    -4.613      6.690      9.434
REMARK INTER + INTRA:          -4.883
REMARK INTER:                  -4.883
REMARK INTRA:                   0.000
REMARK UNBOUND:                 0.000
REMARK SMILES O=c1ccc2cc(O)c(O)cc2o1
REMARK SMILES IDX 4 1 3 2 2 3 1 4 13 5 12 6 11 7 9 8 7 9 6 10 5 11 8 12 10 14
REMARK H PARENT 8 13 10 15
REMARK Flexibility Score: inf
ROOT
ATOM      1  C   UNL     1      14.661   6.563  19.710  1.00  0.00     0.019 A 
ATOM      2  C   UNL     1      16.032   6.742  19.895  1.00  0.00     0.094 A 
ATOM      3  C   UNL     1      16.907   5.722  19.506  1.00  0.00     0.336 A 
ATOM      4  O   UNL     1      18.147   5.865  19.664  1.00  0.00    -0.246 OA
ATOM      5  O   UNL     1      16.436   4.599  18.968  1.00  0.00    -0.423 OA
ATOM      6  C   UNL     1      15.137   4.388  18.774  1.00  0.00     0.142 A 
ATOM      7  C   UNL     1      14.700   3.188  18.206  1.00  0.00     0.098 A 
ATOM      8  C   UNL     1      13.335   2.958  17.998  1.00  0.00     0.161 A 
ATOM      9  C   UNL     1      12.394   3.939  18.365  1.00  0.00     0.158 A 
ATOM     10  C   UNL     1      12.828   5.145  18.937  1.00  0.00     0.062 A 
ATOM     11  C   UNL     1      14.194   5.373  19.143  1.00  0.00     0.022 A 
ENDROOT
BRANCH   9  12
ATOM     12  O   UNL     1      11.034   3.711  18.160  1.00  0.00    -0.504 OA
ATOM     13  H   UNL     1      10.486   4.298  17.542  1.00  0.00     0.293 HD
ENDBRANCH   9  12
BRANCH   8  14
ATOM     14  O   UNL     1      12.931   1.751  17.429  1.00  0.00    -0.504 OA
ATOM     15  H   UNL     1      13.564   0.967  17.324  1.00  0.00     0.293 HD
ENDBRANCH   8  14
TORSDOF 2
ENDMDL
MODEL 6
REMARK VINA RESULT:    -4.612      2.148      2.695
REMARK INTER + INTRA:          -4.882
REMARK INTER:                  -4.882
REMARK INTRA:                   0.000
REMARK UNBOUND:                 0.000
REMARK SMILES O=c1ccc2cc(O)c(O)cc2o1
REMARK SMILES IDX 4 1 3 2 2 3 1 4 13 5 12 6 11 7 9 8 7 9 6 10 5 11 8 12 10 14
REMARK H PARENT 8 13 10 15
REMARK Flexibility Score: inf
ROOT
ATOM      1  C   UNL     1      19.791   8.373  17.722  1.00  0.00     0.019 A 
ATOM      2  C   UNL     1      19.009   9.273  18.446  1.00  0.00     0.094 A 
ATOM      3  C   UNL     1      19.144   9.320  19.838  1.00  0.00     0.336 A 
ATOM      4  O   UNL     1      18.448  10.125  20.510  1.00  0.00    -0.246 OA
ATOM      5  O   UNL     1      20.006   8.517  20.459  1.00  0.00    -0.423 OA
ATOM      6  C   UNL     1      20.771   7.646  19.806  1.00  0.00     0.142 A 
ATOM      7  C   UNL     1      21.657   6.828  20.512  1.00  0.00     0.098 A 
ATOM      8  C   UNL     1      22.465   5.908  19.833  1.00  0.00     0.161 A 
ATOM      9  C   UNL     1      22.385   5.803  18.431  1.00  0.00     0.158 A 
ATOM     10  C   UNL     1      21.496   6.623  17.719  1.00  0.00     0.062 A 
ATOM     11  C   UNL     1      20.688   7.542  18.400  1.00  0.00     0.022 A 
ENDROOT
BRANCH   9  12
ATOM     12  O   UNL     1      23.188   4.887  17.754  1.00  0.00    -0.504 OA
ATOM     13  H   UNL     1      24.140   4.700  18.046  1.00  0.00     0.293 HD
ENDBRANCH   9  12
BRANCH   8  14
ATOM     14  O   UNL     1      23.340   5.106  20.565  1.00  0.00    -0.504 OA
ATOM     15  H   UNL     1      23.193   4.907  21.547  1.00  0.00     0.293 HD
ENDBRANCH   8  14
TORSDOF 2
ENDMDL
MODEL 7
REMARK VINA RESULT:    -4.509     15.149     16.246
REMARK INTER + INTRA:          -4.772
REMARK INTER:                  -4.772
REMARK INTRA:                   0.000
REMARK UNBOUND:                 0.000
REMARK SMILES O=c1ccc2cc(O)c(O)cc2o1
REMARK SMILES IDX 4 1 3 2 2 3 1 4 13 5 12 6 11 7 9 8 7 9 6 10 5 11 8 12 10 14
REMARK H PARENT 8 13 10 15
REMARK Flexibility Score: inf
ROOT
ATOM      1  C   UNL     1      22.725  -8.209  18.673  1.00  0.00     0.019 A 
ATOM      2  C   UNL     1      23.737  -7.626  19.434  1.00  0.00     0.094 A 
ATOM      3  C   UNL     1      23.448  -6.477  20.179  1.00  0.00     0.336 A 
ATOM      4  O   UNL     1      24.348  -5.936  20.872  1.00  0.00    -0.246 OA
ATOM      5  O   UNL     1      22.225  -5.952  20.160  1.00  0.00    -0.423 OA
ATOM      6  C   UNL     1      21.231  -6.477  19.448  1.00  0.00     0.142 A 
ATOM      7  C   UNL     1      19.967  -5.881  19.466  1.00  0.00     0.098 A 
ATOM      8  C   UNL     1      18.916  -6.427  18.720  1.00  0.00     0.161 A 
ATOM      9  C   UNL     1      19.131  -7.583  17.945  1.00  0.00     0.158 A 
ATOM     10  C   UNL     1      20.399  -8.184  17.924  1.00  0.00     0.062 A 
ATOM     11  C   UNL     1      21.449  -7.636  18.671  1.00  0.00     0.022 A 
ENDROOT
BRANCH   9  12
ATOM     12  O   UNL     1      18.085  -8.128  17.202  1.00  0.00    -0.504 OA
ATOM     13  H   UNL     1      18.160  -8.258  16.200  1.00  0.00     0.293 HD
ENDBRANCH   9  12
BRANCH   8  14
ATOM     14  O   UNL     1      17.666  -5.809  18.759  1.00  0.00    -0.504 OA
ATOM     15  H   UNL     1      16.900  -6.180  19.308  1.00  0.00     0.293 HD
ENDBRANCH   8  14
TORSDOF 2
ENDMDL
MODEL 8
REMARK VINA RESULT:    -4.493      8.559     10.198
REMARK INTER + INTRA:          -4.756
REMARK INTER:                  -4.756
REMARK INTRA:                   0.000
REMARK UNBOUND:                 0.000
REMARK SMILES O=c1ccc2cc(O)c(O)cc2o1
REMARK SMILES IDX 4 1 3 2 2 3 1 4 13 5 12 6 11 7 9 8 7 9 6 10 5 11 8 12 10 14
REMARK H PARENT 8 13 10 15
REMARK Flexibility Score: inf
ROOT
ATOM      1  C   UNL     1      15.360   3.989  18.248  1.00  0.00     0.019 A 
ATOM      2  C   UNL     1      15.449   2.850  17.448  1.00  0.00     0.094 A 
ATOM      3  C   UNL     1      14.272   2.194  17.070  1.00  0.00     0.336 A 
ATOM      4  O   UNL     1      14.331   1.165  16.348  1.00  0.00    -0.246 OA
ATOM      5  O   UNL     1      13.088   2.652  17.470  1.00  0.00    -0.423 OA
ATOM      6  C   UNL     1      12.958   3.734  18.233  1.00  0.00     0.142 A 
ATOM      7  C   UNL     1      11.688   4.168  18.622  1.00  0.00     0.098 A 
ATOM      8  C   UNL     1      11.543   5.306  19.425  1.00  0.00     0.161 A 
ATOM      9  C   UNL     1      12.683   6.018  19.845  1.00  0.00     0.158 A 
ATOM     10  C   UNL     1      13.960   5.586  19.456  1.00  0.00     0.062 A 
ATOM     11  C   UNL     1      14.103   4.448  18.653  1.00  0.00     0.022 A 
ENDROOT
BRANCH   9  12
ATOM     12  O   UNL     1      12.540   7.151  20.644  1.00  0.00    -0.504 OA
ATOM     13  H   UNL     1      13.144   7.957  20.534  1.00  0.00     0.293 HD
ENDBRANCH   9  12
BRANCH   8  14
ATOM     14  O   UNL     1      10.262   5.713  19.796  1.00  0.00    -0.504 OA
ATOM     15  H   UNL     1       9.597   5.077  20.218  1.00  0.00     0.293 HD
ENDBRANCH   8  14
TORSDOF 2
ENDMDL
MODEL 9
REMARK VINA RESULT:    -4.443      3.091      5.460
REMARK INTER + INTRA:          -4.702
REMARK INTER:                  -4.702
REMARK INTRA:                   0.000
REMARK UNBOUND:                 0.000
REMARK SMILES O=c1ccc2cc(O)c(O)cc2o1
REMARK SMILES IDX 4 1 3 2 2 3 1 4 13 5 12 6 11 7 9 8 7 9 6 10 5 11 8 12 10 14
REMARK H PARENT 8 13 10 15
REMARK Flexibility Score: inf
ROOT
ATOM      1  C   UNL     1      23.762   4.183  17.512  1.00  0.00     0.019 A 
ATOM      2  C   UNL     1      24.752   3.474  18.192  1.00  0.00     0.094 A 
ATOM      3  C   UNL     1      25.131   3.898  19.470  1.00  0.00     0.336 A 
ATOM      4  O   UNL     1      26.023   3.272  20.101  1.00  0.00    -0.246 OA
ATOM      5  O   UNL     1      24.555   4.960  20.027  1.00  0.00    -0.423 OA
ATOM      6  C   UNL     1      23.606   5.664  19.413  1.00  0.00     0.142 A 
ATOM      7  C   UNL     1      23.037   6.772  20.047  1.00  0.00     0.098 A 
ATOM      8  C   UNL     1      22.039   7.517  19.408  1.00  0.00     0.161 A 
ATOM      9  C   UNL     1      21.605   7.151  18.120  1.00  0.00     0.158 A 
ATOM     10  C   UNL     1      22.174   6.040  17.480  1.00  0.00     0.062 A 
ATOM     11  C   UNL     1      23.173   5.295  18.120  1.00  0.00     0.022 A 
ENDROOT
BRANCH   9  12
ATOM     12  O   UNL     1      20.611   7.893  17.482  1.00  0.00    -0.504 OA
ATOM     13  H   UNL     1      19.630   7.759  17.697  1.00  0.00     0.293 HD
ENDBRANCH   9  12
BRANCH   8  14
ATOM     14  O   UNL     1      21.490   8.617  20.067  1.00  0.00    -0.504 OA
ATOM     15  H   UNL     1      20.490   8.762  20.132  1.00  0.00     0.293 HD
ENDBRANCH   8  14
TORSDOF 2
ENDMDL
