MODEL 1
REMARK VINA RESULT:    -3.811      0.000      0.000
REMARK INTER + INTRA:          -8.043
REMARK INTER:                  -5.928
REMARK INTRA:                  -2.115
REMARK UNBOUND:                -2.115
REMARK SMILES COc1cc(CNC(=O)CCCCC=CC(C)C)ccc1O
REMARK SMILES IDX 11 1 12 2 13 3 14 4 15 5 16 6 17 7 18 8 10 9 8 10 9 11 7 12
REMARK SMILES IDX 6 14 5 15 4 16 19 17 3 18 20 19 21 20 2 21 1 22 22 23
REMARK H PARENT 7 13 22 24
REMARK Flexibility Score: inf
ROOT
ATOM      1  C   UNL     1     -99.577  -7.156 -66.533  1.00  0.00     0.010 C 
ENDROOT
BRANCH   1   2
ATOM      2  C   UNL     1    -100.272  -5.851 -66.115  1.00  0.00     0.005 C 
BRANCH   2   3
ATOM      3  C   UNL     1    -101.100  -5.275 -67.269  1.00  0.00     0.027 C 
BRANCH   3   4
ATOM      4  C   UNL     1    -100.581  -5.750 -68.599  1.00  0.00    -0.031 C 
ATOM      5  C   UNL     1    -100.958  -5.172 -69.749  1.00  0.00    -0.028 C 
BRANCH   5   6
ATOM      6  C   UNL     1    -100.435  -5.657 -71.082  1.00  0.00     0.005 C 
ATOM      7  C   UNL     1    -100.214  -7.173 -71.052  1.00  0.00     0.012 C 
ATOM      8  C   UNL     1    -101.404  -5.281 -72.209  1.00  0.00     0.012 C 
ENDBRANCH   5   6
ENDBRANCH   3   4
ENDBRANCH   2   3
ENDBRANCH   1   2
BRANCH   1   9
ATOM      9  C   UNL     1     -99.942  -8.330 -65.614  1.00  0.00     0.100 C 
BRANCH   9  10
ATOM     10  C   UNL     1    -101.075  -9.141 -66.171  1.00  0.00     0.220 C 
ATOM     11  O   UNL     1    -101.763  -9.857 -65.394  1.00  0.00    -0.275 OA
ATOM     12  N   UNL     1    -101.346  -9.132 -67.579  1.00  0.00    -0.352 N 
ATOM     13  H   UNL     1    -100.732  -8.570 -68.212  1.00  0.00     0.163 HD
BRANCH  12  14
ATOM     14  C   UNL     1    -102.425  -9.915 -68.175  1.00  0.00     0.151 C 
BRANCH  14  15
ATOM     15  C   UNL     1    -102.941  -9.237 -69.415  1.00  0.00    -0.025 A 
ATOM     16  C   UNL     1    -102.846  -9.883 -70.658  1.00  0.00     0.056 A 
ATOM     17  C   UNL     1    -103.499  -7.953 -69.345  1.00  0.00     0.009 A 
ATOM     18  C   UNL     1    -103.311  -9.253 -71.830  1.00  0.00     0.160 A 
ATOM     19  C   UNL     1    -103.962  -7.324 -70.502  1.00  0.00     0.050 A 
ATOM     20  C   UNL     1    -103.873  -7.966 -71.742  1.00  0.00     0.157 A 
BRANCH  18  21
ATOM     21  O   UNL     1    -103.229  -9.872 -73.088  1.00  0.00    -0.493 OA
ATOM     22  C   UNL     1    -103.964 -11.031 -73.468  1.00  0.00     0.278 C 
ENDBRANCH  18  21
BRANCH  20  23
ATOM     23  O   UNL     1    -104.345  -7.306 -72.876  1.00  0.00    -0.504 OA
ATOM     24  H   UNL     1    -104.312  -6.298 -72.967  1.00  0.00     0.293 HD
ENDBRANCH  20  23
ENDBRANCH  14  15
ENDBRANCH  12  14
ENDBRANCH   9  10
ENDBRANCH   1   9
TORSDOF 10
ENDMDL
MODEL 2
REMARK VINA RESULT:    -3.712      2.450      6.470
REMARK INTER + INTRA:          -7.888
REMARK INTER:                  -5.789
REMARK INTRA:                  -2.099
REMARK UNBOUND:                -2.115
REMARK SMILES COc1cc(CNC(=O)CCCCC=CC(C)C)ccc1O
REMARK SMILES IDX 11 1 12 2 13 3 14 4 15 5 16 6 17 7 18 8 10 9 8 10 9 11 7 12
REMARK SMILES IDX 6 14 5 15 4 16 19 17 3 18 20 19 21 20 2 21 1 22 22 23
REMARK H PARENT 7 13 22 24
REMARK Flexibility Score: inf
ROOT
ATOM      1  C   UNL     1    -102.332  -7.565 -72.188  1.00  0.00     0.010 C 
ENDROOT
BRANCH   1   2
ATOM      2  C   UNL     1    -101.019  -8.362 -72.140  1.00  0.00     0.005 C 
BRANCH   2   3
ATOM      3  C   UNL     1    -100.743  -8.881 -70.724  1.00  0.00     0.027 C 
BRANCH   3   4
ATOM      4  C   UNL     1    -102.004  -8.917 -69.905  1.00  0.00    -0.031 C 
ATOM      5  C   UNL     1    -102.131  -9.727 -68.842  1.00  0.00    -0.028 C 
BRANCH   5   6
ATOM      6  C   UNL     1    -103.402  -9.760 -68.026  1.00  0.00     0.005 C 
ATOM      7  C   UNL     1    -104.283  -8.552 -68.356  1.00  0.00     0.012 C 
ATOM      8  C   UNL     1    -104.168 -11.065 -68.276  1.00  0.00     0.012 C 
ENDBRANCH   5   6
ENDBRANCH   3   4
ENDBRANCH   2   3
ENDBRANCH   1   2
BRANCH   1   9
ATOM      9  C   UNL     1    -102.093  -6.061 -72.380  1.00  0.00     0.100 C 
BRANCH   9  10
ATOM     10  C   UNL     1    -101.267  -5.482 -71.269  1.00  0.00     0.220 C 
ATOM     11  O   UNL     1    -100.103  -5.065 -71.517  1.00  0.00    -0.275 OA
ATOM     12  N   UNL     1    -101.782  -5.444 -69.931  1.00  0.00    -0.352 N 
ATOM     13  H   UNL     1    -102.730  -5.840 -69.740  1.00  0.00     0.163 HD
BRANCH  12  14
ATOM     14  C   UNL     1    -101.014  -4.907 -68.810  1.00  0.00     0.151 C 
BRANCH  14  15
ATOM     15  C   UNL     1    -100.688  -6.000 -67.829  1.00  0.00    -0.025 A 
ATOM     16  C   UNL     1    -101.641  -6.394 -66.877  1.00  0.00     0.056 A 
ATOM     17  C   UNL     1     -99.430  -6.618 -67.843  1.00  0.00     0.009 A 
ATOM     18  C   UNL     1    -101.344  -7.405 -65.941  1.00  0.00     0.160 A 
ATOM     19  C   UNL     1     -99.129  -7.620 -66.920  1.00  0.00     0.050 A 
ATOM     20  C   UNL     1    -100.077  -8.018 -65.971  1.00  0.00     0.157 A 
BRANCH  18  21
ATOM     21  O   UNL     1    -102.274  -7.820 -64.975  1.00  0.00    -0.493 OA
ATOM     22  C   UNL     1    -102.979  -6.942 -64.102  1.00  0.00     0.278 C 
ENDBRANCH  18  21
BRANCH  20  23
ATOM     23  O   UNL     1     -99.741  -9.023 -65.065  1.00  0.00    -0.504 OA
ATOM     24  H   UNL     1     -99.894  -8.925 -64.069  1.00  0.00     0.293 HD
ENDBRANCH  20  23
ENDBRANCH  14  15
ENDBRANCH  12  14
ENDBRANCH   9  10
ENDBRANCH   1   9
TORSDOF 10
ENDMDL
MODEL 3
REMARK VINA RESULT:    -3.704      1.943      5.506
REMARK INTER + INTRA:          -7.876
REMARK INTER:                  -5.823
REMARK INTRA:                  -2.052
REMARK UNBOUND:                -2.115
REMARK SMILES COc1cc(CNC(=O)CCCCC=CC(C)C)ccc1O
REMARK SMILES IDX 11 1 12 2 13 3 14 4 15 5 16 6 17 7 18 8 10 9 8 10 9 11 7 12
REMARK SMILES IDX 6 14 5 15 4 16 19 17 3 18 20 19 21 20 2 21 1 22 22 23
REMARK H PARENT 7 13 22 24
REMARK Flexibility Score: inf
ROOT
ATOM      1  C   UNL     1    -102.106  -6.459 -72.662  1.00  0.00     0.010 C 
ENDROOT
BRANCH   1   2
ATOM      2  C   UNL     1    -101.761  -5.708 -71.367  1.00  0.00     0.005 C 
BRANCH   2   3
ATOM      3  C   UNL     1    -100.247  -5.698 -71.125  1.00  0.00     0.027 C 
BRANCH   3   4
ATOM      4  C   UNL     1     -99.903  -6.355 -69.817  1.00  0.00    -0.031 C 
ATOM      5  C   UNL     1    -100.445  -5.947 -68.659  1.00  0.00    -0.028 C 
BRANCH   5   6
ATOM      6  C   UNL     1    -100.091  -6.610 -67.348  1.00  0.00     0.005 C 
ATOM      7  C   UNL     1     -98.673  -7.187 -67.404  1.00  0.00     0.012 C 
ATOM      8  C   UNL     1    -100.216  -5.612 -66.190  1.00  0.00     0.012 C 
ENDBRANCH   5   6
ENDBRANCH   3   4
ENDBRANCH   2   3
ENDBRANCH   1   2
BRANCH   1   9
ATOM      9  C   UNL     1    -102.991  -7.686 -72.406  1.00  0.00     0.100 C 
BRANCH   9  10
ATOM     10  C   UNL     1    -102.369  -8.622 -71.411  1.00  0.00     0.220 C 
ATOM     11  O   UNL     1    -101.249  -9.142 -71.668  1.00  0.00    -0.275 OA
ATOM     12  N   UNL     1    -103.063  -8.954 -70.201  1.00  0.00    -0.352 N 
ATOM     13  H   UNL     1    -104.012  -8.550 -70.032  1.00  0.00     0.163 HD
BRANCH  12  14
ATOM     14  C   UNL     1    -102.510  -9.872 -69.207  1.00  0.00     0.151 C 
BRANCH  14  15
ATOM     15  C   UNL     1    -102.601  -9.269 -67.832  1.00  0.00    -0.025 A 
ATOM     16  C   UNL     1    -103.416  -8.149 -67.610  1.00  0.00     0.056 A 
ATOM     17  C   UNL     1    -101.860  -9.805 -66.769  1.00  0.00     0.009 A 
ATOM     18  C   UNL     1    -103.498  -7.564 -66.330  1.00  0.00     0.160 A 
ATOM     19  C   UNL     1    -101.938  -9.232 -65.499  1.00  0.00     0.050 A 
ATOM     20  C   UNL     1    -102.752  -8.117 -65.273  1.00  0.00     0.157 A 
BRANCH  18  21
ATOM     21  O   UNL     1    -104.304  -6.442 -66.076  1.00  0.00    -0.493 OA
ATOM     22  C   UNL     1    -103.886  -5.091 -66.253  1.00  0.00     0.278 C 
ENDBRANCH  18  21
BRANCH  20  23
ATOM     23  O   UNL     1    -102.804  -7.571 -63.991  1.00  0.00    -0.504 OA
ATOM     24  H   UNL     1    -102.600  -8.118 -63.163  1.00  0.00     0.293 HD
ENDBRANCH  20  23
ENDBRANCH  14  15
ENDBRANCH  12  14
ENDBRANCH   9  10
ENDBRANCH   1   9
TORSDOF 10
ENDMDL
MODEL 4
REMARK VINA RESULT:    -3.678      2.120      3.725
REMARK INTER + INTRA:          -7.836
REMARK INTER:                  -5.717
REMARK INTRA:                  -2.120
REMARK UNBOUND:                -2.115
REMARK SMILES COc1cc(CNC(=O)CCCCC=CC(C)C)ccc1O
REMARK SMILES IDX 11 1 12 2 13 3 14 4 15 5 16 6 17 7 18 8 10 9 8 10 9 11 7 12
REMARK SMILES IDX 6 14 5 15 4 16 19 17 3 18 20 19 21 20 2 21 1 22 22 23
REMARK H PARENT 7 13 22 24
REMARK Flexibility Score: inf
ROOT
ATOM      1  C   UNL     1    -101.000  -9.384 -66.085  1.00  0.00     0.010 C 
ENDROOT
BRANCH   1   2
ATOM      2  C   UNL     1    -100.484  -8.055 -65.511  1.00  0.00     0.005 C 
BRANCH   2   3
ATOM      3  C   UNL     1     -99.576  -7.338 -66.516  1.00  0.00     0.027 C 
BRANCH   3   4
ATOM      4  C   UNL     1    -100.203  -6.057 -66.994  1.00  0.00    -0.031 C 
ATOM      5  C   UNL     1    -101.521  -5.833 -66.884  1.00  0.00    -0.028 C 
BRANCH   5   6
ATOM      6  C   UNL     1    -102.144  -4.545 -67.370  1.00  0.00     0.005 C 
ATOM      7  C   UNL     1    -101.245  -3.875 -68.414  1.00  0.00     0.012 C 
ATOM      8  C   UNL     1    -103.537  -4.808 -67.954  1.00  0.00     0.012 C 
ENDBRANCH   5   6
ENDBRANCH   3   4
ENDBRANCH   2   3
ENDBRANCH   1   2
BRANCH   1   9
ATOM      9  C   UNL     1    -102.500  -9.337 -66.405  1.00  0.00     0.100 C 
BRANCH   9  10
ATOM     10  C   UNL     1    -102.751  -9.071 -67.860  1.00  0.00     0.220 C 
ATOM     11  O   UNL     1    -103.848  -8.561 -68.215  1.00  0.00    -0.275 OA
ATOM     12  N   UNL     1    -101.768  -9.434 -68.840  1.00  0.00    -0.352 N 
ATOM     13  H   UNL     1    -100.887  -9.901 -68.528  1.00  0.00     0.163 HD
BRANCH  12  14
ATOM     14  C   UNL     1    -101.968  -9.212 -70.270  1.00  0.00     0.151 C 
BRANCH  14  15
ATOM     15  C   UNL     1    -101.402  -7.879 -70.677  1.00  0.00    -0.025 A 
ATOM     16  C   UNL     1    -102.175  -6.995 -71.446  1.00  0.00     0.056 A 
ATOM     17  C   UNL     1    -100.098  -7.517 -70.312  1.00  0.00     0.009 A 
ATOM     18  C   UNL     1    -101.652  -5.750 -71.848  1.00  0.00     0.160 A 
ATOM     19  C   UNL     1     -99.574  -6.285 -70.706  1.00  0.00     0.050 A 
ATOM     20  C   UNL     1    -100.342  -5.400 -71.470  1.00  0.00     0.157 A 
BRANCH  18  21
ATOM     21  O   UNL     1    -102.399  -4.844 -72.619  1.00  0.00    -0.493 OA
ATOM     22  C   UNL     1    -102.594  -4.950 -74.026  1.00  0.00     0.278 C 
ENDBRANCH  18  21
BRANCH  20  23
ATOM     23  O   UNL     1     -99.785  -4.178 -71.845  1.00  0.00    -0.504 OA
ATOM     24  H   UNL     1     -99.275  -3.594 -71.193  1.00  0.00     0.293 HD
ENDBRANCH  20  23
ENDBRANCH  14  15
ENDBRANCH  12  14
ENDBRANCH   9  10
ENDBRANCH   1   9
TORSDOF 10
ENDMDL
MODEL 5
REMARK VINA RESULT:    -3.675      2.213      4.260
REMARK INTER + INTRA:          -7.831
REMARK INTER:                  -6.338
REMARK INTRA:                  -1.493
REMARK UNBOUND:                -2.115
REMARK SMILES COc1cc(CNC(=O)CCCCC=CC(C)C)ccc1O
REMARK SMILES IDX 11 1 12 2 13 3 14 4 15 5 16 6 17 7 18 8 10 9 8 10 9 11 7 12
REMARK SMILES IDX 6 14 5 15 4 16 19 17 3 18 20 19 21 20 2 21 1 22 22 23
REMARK H PARENT 7 13 22 24
REMARK Flexibility Score: inf
ROOT
ATOM      1  C   UNL     1     -99.877  -6.174 -66.262  1.00  0.00     0.010 C 
ENDROOT
BRANCH   1   2
ATOM      2  C   UNL     1    -100.721  -7.134 -65.409  1.00  0.00     0.005 C 
BRANCH   2   3
ATOM      3  C   UNL     1    -100.202  -8.571 -65.524  1.00  0.00     0.027 C 
BRANCH   3   4
ATOM      4  C   UNL     1    -101.312  -9.522 -65.875  1.00  0.00    -0.031 C 
ATOM      5  C   UNL     1    -102.601  -9.208 -65.672  1.00  0.00    -0.028 C 
BRANCH   5   6
ATOM      6  C   UNL     1    -103.711 -10.170 -66.024  1.00  0.00     0.005 C 
ATOM      7  C   UNL     1    -104.046 -11.065 -64.827  1.00  0.00     0.012 C 
ATOM      8  C   UNL     1    -104.958  -9.407 -66.486  1.00  0.00     0.012 C 
ENDBRANCH   5   6
ENDBRANCH   3   4
ENDBRANCH   2   3
ENDBRANCH   1   2
BRANCH   1   9
ATOM      9  C   UNL     1     -99.127  -6.899 -67.386  1.00  0.00     0.100 C 
BRANCH   9  10
ATOM     10  C   UNL     1     -99.874  -6.833 -68.686  1.00  0.00     0.220 C 
ATOM     11  O   UNL     1    -100.505  -5.783 -68.984  1.00  0.00    -0.275 OA
ATOM     12  N   UNL     1     -99.904  -7.970 -69.560  1.00  0.00    -0.352 N 
ATOM     13  H   UNL     1     -99.414  -8.847 -69.271  1.00  0.00     0.163 HD
BRANCH  12  14
ATOM     14  C   UNL     1    -100.629  -7.965 -70.828  1.00  0.00     0.151 C 
BRANCH  14  15
ATOM     15  C   UNL     1    -101.675  -9.046 -70.837  1.00  0.00    -0.025 A 
ATOM     16  C   UNL     1    -102.185  -9.518 -72.056  1.00  0.00     0.056 A 
ATOM     17  C   UNL     1    -102.163  -9.575 -69.634  1.00  0.00     0.009 A 
ATOM     18  C   UNL     1    -103.176 -10.519 -72.079  1.00  0.00     0.160 A 
ATOM     19  C   UNL     1    -103.144 -10.567 -69.649  1.00  0.00     0.050 A 
ATOM     20  C   UNL     1    -103.653 -11.043 -70.862  1.00  0.00     0.157 A 
BRANCH  18  21
ATOM     21  O   UNL     1    -103.707 -11.012 -73.282  1.00  0.00    -0.493 OA
ATOM     22  C   UNL     1    -104.359 -10.212 -74.265  1.00  0.00     0.278 C 
ENDBRANCH  18  21
BRANCH  20  23
ATOM     23  O   UNL     1    -104.632 -12.035 -70.838  1.00  0.00    -0.504 OA
ATOM     24  H   UNL     1    -104.859 -12.590 -71.654  1.00  0.00     0.293 HD
ENDBRANCH  20  23
ENDBRANCH  14  15
ENDBRANCH  12  14
ENDBRANCH   9  10
ENDBRANCH   1   9
TORSDOF 10
ENDMDL
MODEL 6
REMARK VINA RESULT:    -3.660      1.828      3.838
REMARK INTER + INTRA:          -7.809
REMARK INTER:                  -5.804
REMARK INTRA:                  -2.005
REMARK UNBOUND:                -2.115
REMARK SMILES COc1cc(CNC(=O)CCCCC=CC(C)C)ccc1O
REMARK SMILES IDX 11 1 12 2 13 3 14 4 15 5 16 6 17 7 18 8 10 9 8 10 9 11 7 12
REMARK SMILES IDX 6 14 5 15 4 16 19 17 3 18 20 19 21 20 2 21 1 22 22 23
REMARK H PARENT 7 13 22 24
REMARK Flexibility Score: inf
ROOT
ATOM      1  C   UNL     1    -101.235  -9.162 -65.709  1.00  0.00     0.010 C 
ENDROOT
BRANCH   1   2
ATOM      2  C   UNL     1    -102.409  -8.248 -65.327  1.00  0.00     0.005 C 
BRANCH   2   3
ATOM      3  C   UNL     1    -103.289  -7.945 -66.545  1.00  0.00     0.027 C 
BRANCH   3   4
ATOM      4  C   UNL     1    -103.166  -9.025 -67.584  1.00  0.00    -0.031 C 
ATOM      5  C   UNL     1    -103.685  -8.882 -68.814  1.00  0.00    -0.028 C 
BRANCH   5   6
ATOM      6  C   UNL     1    -103.561  -9.973 -69.852  1.00  0.00     0.005 C 
ATOM      7  C   UNL     1    -103.708 -11.352 -69.201  1.00  0.00     0.012 C 
ATOM      8  C   UNL     1    -104.610  -9.787 -70.955  1.00  0.00     0.012 C 
ENDBRANCH   5   6
ENDBRANCH   3   4
ENDBRANCH   2   3
ENDBRANCH   1   2
BRANCH   1   9
ATOM      9  C   UNL     1     -99.882  -8.444 -65.611  1.00  0.00     0.100 C 
BRANCH   9  10
ATOM     10  C   UNL     1     -99.723  -7.407 -66.684  1.00  0.00     0.220 C 
ATOM     11  O   UNL     1     -99.436  -6.223 -66.362  1.00  0.00    -0.275 OA
ATOM     12  N   UNL     1     -99.938  -7.754 -68.059  1.00  0.00    -0.352 N 
ATOM     13  H   UNL     1    -100.224  -8.730 -68.300  1.00  0.00     0.163 HD
BRANCH  12  14
ATOM     14  C   UNL     1     -99.813  -6.780 -69.141  1.00  0.00     0.151 C 
BRANCH  14  15
ATOM     15  C   UNL     1    -100.511  -7.279 -70.377  1.00  0.00    -0.025 A 
ATOM     16  C   UNL     1    -101.611  -6.576 -70.893  1.00  0.00     0.056 A 
ATOM     17  C   UNL     1    -100.085  -8.454 -71.011  1.00  0.00     0.009 A 
ATOM     18  C   UNL     1    -102.284  -7.041 -72.040  1.00  0.00     0.160 A 
ATOM     19  C   UNL     1    -100.746  -8.919 -72.149  1.00  0.00     0.050 A 
ATOM     20  C   UNL     1    -101.841  -8.220 -72.667  1.00  0.00     0.157 A 
BRANCH  18  21
ATOM     21  O   UNL     1    -103.389  -6.362 -72.579  1.00  0.00    -0.493 OA
ATOM     22  C   UNL     1    -104.582  -6.060 -71.860  1.00  0.00     0.278 C 
ENDBRANCH  18  21
BRANCH  20  23
ATOM     23  O   UNL     1    -102.477  -8.715 -73.806  1.00  0.00    -0.504 OA
ATOM     24  H   UNL     1    -103.452  -8.987 -73.803  1.00  0.00     0.293 HD
ENDBRANCH  20  23
ENDBRANCH  14  15
ENDBRANCH  12  14
ENDBRANCH   9  10
ENDBRANCH   1   9
TORSDOF 10
ENDMDL
MODEL 7
REMARK VINA RESULT:    -3.634      1.047      2.232
REMARK INTER + INTRA:          -7.768
REMARK INTER:                  -5.848
REMARK INTRA:                  -1.920
REMARK UNBOUND:                -2.115
REMARK SMILES COc1cc(CNC(=O)CCCCC=CC(C)C)ccc1O
REMARK SMILES IDX 11 1 12 2 13 3 14 4 15 5 16 6 17 7 18 8 10 9 8 10 9 11 7 12
REMARK SMILES IDX 6 14 5 15 4 16 19 17 3 18 20 19 21 20 2 21 1 22 22 23
REMARK H PARENT 7 13 22 24
REMARK Flexibility Score: inf
ROOT
ATOM      1  C   UNL     1     -99.849  -8.398 -65.885  1.00  0.00     0.010 C 
ENDROOT
BRANCH   1   2
ATOM      2  C   UNL     1     -99.397  -7.063 -66.495  1.00  0.00     0.005 C 
BRANCH   2   3
ATOM      3  C   UNL     1    -100.599  -6.246 -66.982  1.00  0.00     0.027 C 
BRANCH   3   4
ATOM      4  C   UNL     1    -100.684  -6.250 -68.484  1.00  0.00    -0.031 C 
ATOM      5  C   UNL     1     -99.745  -6.838 -69.241  1.00  0.00    -0.028 C 
BRANCH   5   6
ATOM      6  C   UNL     1     -99.836  -6.836 -70.750  1.00  0.00     0.005 C 
ATOM      7  C   UNL     1    -100.088  -8.253 -71.274  1.00  0.00     0.012 C 
ATOM      8  C   UNL     1    -100.945  -5.887 -71.220  1.00  0.00     0.012 C 
ENDBRANCH   5   6
ENDBRANCH   3   4
ENDBRANCH   2   3
ENDBRANCH   1   2
BRANCH   1   9
ATOM      9  C   UNL     1    -101.348  -8.411 -65.556  1.00  0.00     0.100 C 
BRANCH   9  10
ATOM     10  C   UNL     1    -102.096  -9.397 -66.404  1.00  0.00     0.220 C 
ATOM     11  O   UNL     1    -102.985 -10.119 -65.875  1.00  0.00    -0.275 OA
ATOM     12  N   UNL     1    -101.772  -9.546 -67.793  1.00  0.00    -0.352 N 
ATOM     13  H   UNL     1    -100.999  -8.973 -68.200  1.00  0.00     0.163 HD
BRANCH  12  14
ATOM     14  C   UNL     1    -102.457 -10.503 -68.660  1.00  0.00     0.151 C 
BRANCH  14  15
ATOM     15  C   UNL     1    -103.024  -9.804 -69.865  1.00  0.00    -0.025 A 
ATOM     16  C   UNL     1    -103.465  -8.475 -69.762  1.00  0.00     0.056 A 
ATOM     17  C   UNL     1    -103.136 -10.474 -71.091  1.00  0.00     0.009 A 
ATOM     18  C   UNL     1    -104.013  -7.813 -70.879  1.00  0.00     0.160 A 
ATOM     19  C   UNL     1    -103.676  -9.824 -72.201  1.00  0.00     0.050 A 
ATOM     20  C   UNL     1    -104.114  -8.499 -72.103  1.00  0.00     0.157 A 
BRANCH  18  21
ATOM     21  O   UNL     1    -104.465  -6.485 -70.807  1.00  0.00    -0.493 OA
ATOM     22  C   UNL     1    -104.543  -5.722 -69.607  1.00  0.00     0.278 C 
ENDBRANCH  18  21
BRANCH  20  23
ATOM     23  O   UNL     1    -104.648  -7.882 -73.234  1.00  0.00    -0.504 OA
ATOM     24  H   UNL     1    -105.542  -8.154 -73.625  1.00  0.00     0.293 HD
ENDBRANCH  20  23
ENDBRANCH  14  15
ENDBRANCH  12  14
ENDBRANCH   9  10
ENDBRANCH   1   9
TORSDOF 10
ENDMDL
MODEL 8
REMARK VINA RESULT:    -3.582     12.023     14.838
REMARK INTER + INTRA:          -7.686
REMARK INTER:                  -5.399
REMARK INTRA:                  -2.287
REMARK UNBOUND:                -2.115
REMARK SMILES COc1cc(CNC(=O)CCCCC=CC(C)C)ccc1O
REMARK SMILES IDX 11 1 12 2 13 3 14 4 15 5 16 6 17 7 18 8 10 9 8 10 9 11 7 12
REMARK SMILES IDX 6 14 5 15 4 16 19 17 3 18 20 19 21 20 2 21 1 22 22 23
REMARK H PARENT 7 13 22 24
REMARK Flexibility Score: inf
ROOT
ATOM      1  C   UNL     1     -91.826 -20.961 -62.946  1.00  0.00     0.010 C 
ENDROOT
BRANCH   1   2
ATOM      2  C   UNL     1     -91.779 -19.601 -63.657  1.00  0.00     0.005 C 
BRANCH   2   3
ATOM      3  C   UNL     1     -92.115 -18.462 -62.688  1.00  0.00     0.027 C 
BRANCH   3   4
ATOM      4  C   UNL     1     -93.234 -18.850 -61.762  1.00  0.00    -0.031 C 
ATOM      5  C   UNL     1     -94.270 -18.031 -61.526  1.00  0.00    -0.028 C 
BRANCH   5   6
ATOM      6  C   UNL     1     -95.389 -18.427 -60.591  1.00  0.00     0.005 C 
ATOM      7  C   UNL     1     -96.549 -17.432 -60.691  1.00  0.00     0.012 C 
ATOM      8  C   UNL     1     -95.876 -19.847 -60.906  1.00  0.00     0.012 C 
ENDBRANCH   5   6
ENDBRANCH   3   4
ENDBRANCH   2   3
ENDBRANCH   1   2
BRANCH   1   9
ATOM      9  C   UNL     1     -92.576 -22.021 -63.764  1.00  0.00     0.100 C 
BRANCH   9  10
ATOM     10  C   UNL     1     -94.063 -21.823 -63.702  1.00  0.00     0.220 C 
ATOM     11  O   UNL     1     -94.732 -22.437 -62.827  1.00  0.00    -0.275 OA
ATOM     12  N   UNL     1     -94.718 -20.975 -64.655  1.00  0.00    -0.352 N 
ATOM     13  H   UNL     1     -94.150 -20.514 -65.402  1.00  0.00     0.163 HD
BRANCH  12  14
ATOM     14  C   UNL     1     -96.163 -20.760 -64.649  1.00  0.00     0.151 C 
BRANCH  14  15
ATOM     15  C   UNL     1     -96.474 -19.292 -64.541  1.00  0.00    -0.025 A 
ATOM     16  C   UNL     1     -97.734 -18.874 -64.086  1.00  0.00     0.056 A 
ATOM     17  C   UNL     1     -95.521 -18.333 -64.911  1.00  0.00     0.009 A 
ATOM     18  C   UNL     1     -98.044 -17.503 -63.994  1.00  0.00     0.160 A 
ATOM     19  C   UNL     1     -95.821 -16.973 -64.822  1.00  0.00     0.050 A 
ATOM     20  C   UNL     1     -97.075 -16.553 -64.365  1.00  0.00     0.157 A 
BRANCH  18  21
ATOM     21  O   UNL     1     -99.296 -17.053 -63.544  1.00  0.00    -0.493 OA
ATOM     22  C   UNL     1     -99.983 -17.576 -62.411  1.00  0.00     0.278 C 
ENDBRANCH  18  21
BRANCH  20  23
ATOM     23  O   UNL     1     -97.339 -15.185 -64.290  1.00  0.00    -0.504 OA
ATOM     24  H   UNL     1     -96.627 -14.512 -64.035  1.00  0.00     0.293 HD
ENDBRANCH  20  23
ENDBRANCH  14  15
ENDBRANCH  12  14
ENDBRANCH   9  10
ENDBRANCH   1   9
TORSDOF 10
ENDMDL
MODEL 9
REMARK VINA RESULT:    -3.533      1.601      2.503
REMARK INTER + INTRA:          -7.610
REMARK INTER:                  -5.300
REMARK INTRA:                  -2.310
REMARK UNBOUND:                -2.115
REMARK SMILES COc1cc(CNC(=O)CCCCC=CC(C)C)ccc1O
REMARK SMILES IDX 11 1 12 2 13 3 14 4 15 5 16 6 17 7 18 8 10 9 8 10 9 11 7 12
REMARK SMILES IDX 6 14 5 15 4 16 19 17 3 18 20 19 21 20 2 21 1 22 22 23
REMARK H PARENT 7 13 22 24
REMARK Flexibility Score: inf
ROOT
ATOM      1  C   UNL     1    -100.145  -8.544 -65.805  1.00  0.00     0.010 C 
ENDROOT
BRANCH   1   2
ATOM      2  C   UNL     1     -99.716  -7.136 -66.246  1.00  0.00     0.005 C 
BRANCH   2   3
ATOM      3  C   UNL     1     -99.086  -7.165 -67.642  1.00  0.00     0.027 C 
BRANCH   3   4
ATOM      4  C   UNL     1     -99.911  -6.382 -68.626  1.00  0.00    -0.031 C 
ATOM      5  C   UNL     1    -101.170  -6.008 -68.350  1.00  0.00    -0.028 C 
BRANCH   5   6
ATOM      6  C   UNL     1    -101.994  -5.224 -69.345  1.00  0.00     0.005 C 
ATOM      7  C   UNL     1    -102.811  -4.143 -68.631  1.00  0.00     0.012 C 
ATOM      8  C   UNL     1    -101.092  -4.594 -70.413  1.00  0.00     0.012 C 
ENDBRANCH   5   6
ENDBRANCH   3   4
ENDBRANCH   2   3
ENDBRANCH   1   2
BRANCH   1   9
ATOM      9  C   UNL     1    -101.645  -8.625 -65.491  1.00  0.00     0.100 C 
BRANCH   9  10
ATOM     10  C   UNL     1    -102.431  -9.136 -66.663  1.00  0.00     0.220 C 
ATOM     11  O   UNL     1    -103.691  -9.121 -66.615  1.00  0.00    -0.275 OA
ATOM     12  N   UNL     1    -101.754  -9.673 -67.807  1.00  0.00    -0.352 N 
ATOM     13  H   UNL     1    -100.710  -9.721 -67.805  1.00  0.00     0.163 HD
BRANCH  12  14
ATOM     14  C   UNL     1    -102.471 -10.199 -68.966  1.00  0.00     0.151 C 
BRANCH  14  15
ATOM     15  C   UNL     1    -102.400  -9.225 -70.111  1.00  0.00    -0.025 A 
ATOM     16  C   UNL     1    -103.556  -8.545 -70.526  1.00  0.00     0.056 A 
ATOM     17  C   UNL     1    -101.190  -9.002 -70.783  1.00  0.00     0.009 A 
ATOM     18  C   UNL     1    -103.508  -7.642 -71.606  1.00  0.00     0.160 A 
ATOM     19  C   UNL     1    -101.135  -8.108 -71.853  1.00  0.00     0.050 A 
ATOM     20  C   UNL     1    -102.285  -7.426 -72.268  1.00  0.00     0.157 A 
BRANCH  18  21
ATOM     21  O   UNL     1    -104.647  -6.949 -72.046  1.00  0.00    -0.493 OA
ATOM     22  C   UNL     1    -104.982  -5.618 -71.662  1.00  0.00     0.278 C 
ENDBRANCH  18  21
BRANCH  20  23
ATOM     23  O   UNL     1    -102.191  -6.541 -73.341  1.00  0.00    -0.504 OA
ATOM     24  H   UNL     1    -102.280  -6.847 -74.302  1.00  0.00     0.293 HD
ENDBRANCH  20  23
ENDBRANCH  14  15
ENDBRANCH  12  14
ENDBRANCH   9  10
ENDBRANCH   1   9
TORSDOF 10
ENDMDL
