MODEL 1
REMARK VINA RESULT:    -6.469      0.000      0.000
REMARK INTER + INTRA:          -7.074
REMARK INTER:                  -6.847
REMARK INTRA:                  -0.227
REMARK UNBOUND:                -0.227
REMARK SMILES O=c1cc(-c2ccccc2)oc2ccccc12
REMARK SMILES IDX 4 1 3 2 2 3 1 4 17 5 16 6 15 7 14 8 13 9 12 10 11 11 5 12
REMARK SMILES IDX 8 13 7 14 9 15 6 16 10 17
REMARK H PARENT
REMARK Flexibility Score: inf
ROOT
ATOM      1  C   UNL     1      15.142  56.518  34.226  1.00  0.00     0.138 A 
ATOM      2  C   UNL     1      14.999  55.893  32.970  1.00  0.00     0.100 A 
ATOM      3  C   UNL     1      14.858  54.505  32.903  1.00  0.00     0.193 A 
ATOM      4  O   UNL     1      14.729  53.946  31.780  1.00  0.00    -0.289 OA
ATOM      5  C   UNL     1      14.859  53.753  34.086  1.00  0.00     0.065 A 
ATOM      6  C   UNL     1      14.721  52.353  34.089  1.00  0.00     0.016 A 
ATOM      7  C   UNL     1      14.729  51.651  35.299  1.00  0.00     0.001 A 
ATOM      8  C   UNL     1      14.877  52.338  36.509  1.00  0.00     0.004 A 
ATOM      9  C   UNL     1      15.014  53.729  36.515  1.00  0.00     0.048 A 
ATOM     10  C   UNL     1      15.007  54.441  35.311  1.00  0.00     0.138 A 
ATOM     11  O   UNL     1      15.139  55.762  35.326  1.00  0.00    -0.456 OA
ENDROOT
BRANCH   1  12
ATOM     12  C   UNL     1      15.299  57.996  34.387  1.00  0.00     0.017 A 
ATOM     13  C   UNL     1      15.689  60.772  34.716  1.00  0.00     0.000 A 
ATOM     14  C   UNL     1      16.745  59.889  34.933  1.00  0.00     0.001 A 
ATOM     15  C   UNL     1      14.440  60.283  34.336  1.00  0.00     0.001 A 
ATOM     16  C   UNL     1      16.555  58.514  34.772  1.00  0.00     0.012 A 
ATOM     17  C   UNL     1      14.241  58.908  34.171  1.00  0.00     0.012 A 
ENDBRANCH   1  12
TORSDOF 1
ENDMDL
MODEL 2
REMARK VINA RESULT:    -6.352      1.385      6.007
REMARK INTER + INTRA:          -6.950
REMARK INTER:                  -6.730
REMARK INTRA:                  -0.220
REMARK UNBOUND:                -0.227
REMARK SMILES O=c1cc(-c2ccccc2)oc2ccccc12
REMARK SMILES IDX 4 1 3 2 2 3 1 4 17 5 16 6 15 7 14 8 13 9 12 10 11 11 5 12
REMARK SMILES IDX 8 13 7 14 9 15 6 16 10 17
REMARK H PARENT
REMARK Flexibility Score: inf
ROOT
ATOM      1  C   UNL     1      14.611  55.903  34.924  1.00  0.00     0.138 A 
ATOM      2  C   UNL     1      13.388  56.510  34.570  1.00  0.00     0.100 A 
ATOM      3  C   UNL     1      13.369  57.859  34.208  1.00  0.00     0.193 A 
ATOM      4  O   UNL     1      12.276  58.401  33.891  1.00  0.00    -0.289 OA
ATOM      5  C   UNL     1      14.565  58.590  34.201  1.00  0.00     0.065 A 
ATOM      6  C   UNL     1      14.615  59.950  33.848  1.00  0.00     0.016 A 
ATOM      7  C   UNL     1      15.836  60.632  33.858  1.00  0.00     0.001 A 
ATOM      8  C   UNL     1      17.010  59.965  34.221  1.00  0.00     0.004 A 
ATOM      9  C   UNL     1      16.969  58.613  34.574  1.00  0.00     0.048 A 
ATOM     10  C   UNL     1      15.754  57.921  34.567  1.00  0.00     0.138 A 
ATOM     11  O   UNL     1      15.725  56.637  34.904  1.00  0.00    -0.456 OA
ENDROOT
BRANCH   1  12
ATOM     12  C   UNL     1      14.721  54.466  35.324  1.00  0.00     0.017 A 
ATOM     13  C   UNL     1      14.911  51.780  36.171  1.00  0.00     0.000 A 
ATOM     14  C   UNL     1      14.644  52.787  37.098  1.00  0.00     0.001 A 
ATOM     15  C   UNL     1      15.084  52.101  34.826  1.00  0.00     0.001 A 
ATOM     16  C   UNL     1      14.550  54.118  36.682  1.00  0.00     0.012 A 
ATOM     17  C   UNL     1      14.990  53.431  34.400  1.00  0.00     0.012 A 
ENDBRANCH   1  12
TORSDOF 1
ENDMDL
MODEL 3
REMARK VINA RESULT:    -6.259      1.425      5.728
REMARK INTER + INTRA:          -6.852
REMARK INTER:                  -6.622
REMARK INTRA:                  -0.230
REMARK UNBOUND:                -0.227
REMARK SMILES O=c1cc(-c2ccccc2)oc2ccccc12
REMARK SMILES IDX 4 1 3 2 2 3 1 4 17 5 16 6 15 7 14 8 13 9 12 10 11 11 5 12
REMARK SMILES IDX 8 13 7 14 9 15 6 16 10 17
REMARK H PARENT
REMARK Flexibility Score: inf
ROOT
ATOM      1  C   UNL     1      15.092  55.611  34.393  1.00  0.00     0.138 A 
ATOM      2  C   UNL     1      14.694  55.636  33.040  1.00  0.00     0.100 A 
ATOM      3  C   UNL     1      14.961  56.767  32.265  1.00  0.00     0.193 A 
ATOM      4  O   UNL     1      14.605  56.790  31.056  1.00  0.00    -0.289 OA
ATOM      5  C   UNL     1      15.620  57.861  32.843  1.00  0.00     0.065 A 
ATOM      6  C   UNL     1      15.919  59.030  32.119  1.00  0.00     0.016 A 
ATOM      7  C   UNL     1      16.579  60.091  32.745  1.00  0.00     0.001 A 
ATOM      8  C   UNL     1      16.944  59.996  34.092  1.00  0.00     0.004 A 
ATOM      9  C   UNL     1      16.651  58.839  34.819  1.00  0.00     0.048 A 
ATOM     10  C   UNL     1      15.992  57.770  34.203  1.00  0.00     0.138 A 
ATOM     11  O   UNL     1      15.718  56.675  34.902  1.00  0.00    -0.456 OA
ENDROOT
BRANCH   1  12
ATOM     12  C   UNL     1      14.846  54.442  35.293  1.00  0.00     0.017 A 
ATOM     13  C   UNL     1      14.323  52.291  37.044  1.00  0.00     0.000 A 
ATOM     14  C   UNL     1      13.722  53.530  37.261  1.00  0.00     0.001 A 
ATOM     15  C   UNL     1      15.183  52.115  35.961  1.00  0.00     0.001 A 
ATOM     16  C   UNL     1      13.979  54.596  36.396  1.00  0.00     0.012 A 
ATOM     17  C   UNL     1      15.446  53.178  35.090  1.00  0.00     0.012 A 
ENDBRANCH   1  12
TORSDOF 1
ENDMDL
MODEL 4
REMARK VINA RESULT:    -5.711      1.865      5.752
REMARK INTER + INTRA:          -6.272
REMARK INTER:                  -6.020
REMARK INTRA:                  -0.251
REMARK UNBOUND:                -0.227
REMARK SMILES O=c1cc(-c2ccccc2)oc2ccccc12
REMARK SMILES IDX 4 1 3 2 2 3 1 4 17 5 16 6 15 7 14 8 13 9 12 10 11 11 5 12
REMARK SMILES IDX 8 13 7 14 9 15 6 16 10 17
REMARK H PARENT
REMARK Flexibility Score: inf
ROOT
ATOM      1  C   UNL     1      14.511  55.824  34.869  1.00  0.00     0.138 A 
ATOM      2  C   UNL     1      15.476  55.419  33.923  1.00  0.00     0.100 A 
ATOM      3  C   UNL     1      16.010  56.359  33.038  1.00  0.00     0.193 A 
ATOM      4  O   UNL     1      16.872  55.997  32.193  1.00  0.00    -0.289 OA
ATOM      5  C   UNL     1      15.578  57.691  33.103  1.00  0.00     0.065 A 
ATOM      6  C   UNL     1      16.075  58.686  32.241  1.00  0.00     0.016 A 
ATOM      7  C   UNL     1      15.610  60.001  32.349  1.00  0.00     0.001 A 
ATOM      8  C   UNL     1      14.650  60.330  33.312  1.00  0.00     0.004 A 
ATOM      9  C   UNL     1      14.152  59.348  34.172  1.00  0.00     0.048 A 
ATOM     10  C   UNL     1      14.610  58.030  34.073  1.00  0.00     0.138 A 
ATOM     11  O   UNL     1      14.131  57.103  34.895  1.00  0.00    -0.456 OA
ENDROOT
BRANCH   1  12
ATOM     12  C   UNL     1      13.890  54.884  35.852  1.00  0.00     0.017 A 
ATOM     13  C   UNL     1      12.633  53.157  37.697  1.00  0.00     0.000 A 
ATOM     14  C   UNL     1      11.907  54.185  37.097  1.00  0.00     0.001 A 
ATOM     15  C   UNL     1      13.980  52.983  37.385  1.00  0.00     0.001 A 
ATOM     16  C   UNL     1      12.527  55.042  36.184  1.00  0.00     0.012 A 
ATOM     17  C   UNL     1      14.609  53.836  36.470  1.00  0.00     0.012 A 
ENDBRANCH   1  12
TORSDOF 1
ENDMDL
MODEL 5
REMARK VINA RESULT:    -5.621      1.449      2.577
REMARK INTER + INTRA:          -6.176
REMARK INTER:                  -5.954
REMARK INTRA:                  -0.222
REMARK UNBOUND:                -0.227
REMARK SMILES O=c1cc(-c2ccccc2)oc2ccccc12
REMARK SMILES IDX 4 1 3 2 2 3 1 4 17 5 16 6 15 7 14 8 13 9 12 10 11 11 5 12
REMARK SMILES IDX 8 13 7 14 9 15 6 16 10 17
REMARK H PARENT
REMARK Flexibility Score: inf
ROOT
ATOM      1  C   UNL     1      14.928  55.500  34.513  1.00  0.00     0.138 A 
ATOM      2  C   UNL     1      15.004  54.769  35.717  1.00  0.00     0.100 A 
ATOM      3  C   UNL     1      14.851  53.381  35.691  1.00  0.00     0.193 A 
ATOM      4  O   UNL     1      14.919  52.728  36.767  1.00  0.00    -0.289 OA
ATOM      5  C   UNL     1      14.625  52.735  34.468  1.00  0.00     0.065 A 
ATOM      6  C   UNL     1      14.463  51.340  34.371  1.00  0.00     0.016 A 
ATOM      7  C   UNL     1      14.240  50.746  33.125  1.00  0.00     0.001 A 
ATOM      8  C   UNL     1      14.176  51.535  31.972  1.00  0.00     0.004 A 
ATOM      9  C   UNL     1      14.336  52.920  32.059  1.00  0.00     0.048 A 
ATOM     10  C   UNL     1      14.561  53.525  33.300  1.00  0.00     0.138 A 
ATOM     11  O   UNL     1      14.711  54.843  33.372  1.00  0.00    -0.456 OA
ENDROOT
BRANCH   1  12
ATOM     12  C   UNL     1      15.080  56.987  34.452  1.00  0.00     0.017 A 
ATOM     13  C   UNL     1      15.463  59.781  34.349  1.00  0.00     0.000 A 
ATOM     14  C   UNL     1      16.557  58.933  34.511  1.00  0.00     0.001 A 
ATOM     15  C   UNL     1      14.179  59.249  34.238  1.00  0.00     0.001 A 
ATOM     16  C   UNL     1      16.370  57.549  34.563  1.00  0.00     0.012 A 
ATOM     17  C   UNL     1      13.984  57.864  34.288  1.00  0.00     0.012 A 
ENDBRANCH   1  12
TORSDOF 1
ENDMDL
MODEL 6
REMARK VINA RESULT:    -5.591      3.294      7.538
REMARK INTER + INTRA:          -6.144
REMARK INTER:                  -5.920
REMARK INTRA:                  -0.224
REMARK UNBOUND:                -0.227
REMARK SMILES O=c1cc(-c2ccccc2)oc2ccccc12
REMARK SMILES IDX 4 1 3 2 2 3 1 4 17 5 16 6 15 7 14 8 13 9 12 10 11 11 5 12
REMARK SMILES IDX 8 13 7 14 9 15 6 16 10 17
REMARK H PARENT
REMARK Flexibility Score: inf
ROOT
ATOM      1  C   UNL     1      14.536  50.627  33.333  1.00  0.00     0.138 A 
ATOM      2  C   UNL     1      14.225  51.642  32.404  1.00  0.00     0.100 A 
ATOM      3  C   UNL     1      14.159  52.970  32.832  1.00  0.00     0.193 A 
ATOM      4  O   UNL     1      13.882  53.877  32.001  1.00  0.00    -0.289 OA
ATOM      5  C   UNL     1      14.404  53.275  34.178  1.00  0.00     0.065 A 
ATOM      6  C   UNL     1      14.353  54.590  34.674  1.00  0.00     0.016 A 
ATOM      7  C   UNL     1      14.606  54.839  36.027  1.00  0.00     0.001 A 
ATOM      8  C   UNL     1      14.908  53.781  36.891  1.00  0.00     0.004 A 
ATOM      9  C   UNL     1      14.960  52.471  36.406  1.00  0.00     0.048 A 
ATOM     10  C   UNL     1      14.710  52.211  35.055  1.00  0.00     0.138 A 
ATOM     11  O   UNL     1      14.761  50.963  34.604  1.00  0.00    -0.456 OA
ENDROOT
BRANCH   1  12
ATOM     12  C   UNL     1      14.626  49.181  32.959  1.00  0.00     0.017 A 
ATOM     13  C   UNL     1      14.878  46.474  32.205  1.00  0.00     0.000 A 
ATOM     14  C   UNL     1      15.832  47.404  31.794  1.00  0.00     0.001 A 
ATOM     15  C   UNL     1      13.800  46.881  32.989  1.00  0.00     0.001 A 
ATOM     16  C   UNL     1      15.709  48.745  32.165  1.00  0.00     0.012 A 
ATOM     17  C   UNL     1      13.670  48.223  33.366  1.00  0.00     0.012 A 
ENDBRANCH   1  12
TORSDOF 1
ENDMDL
MODEL 7
REMARK VINA RESULT:    -5.480      1.750      5.980
REMARK INTER + INTRA:          -6.027
REMARK INTER:                  -5.778
REMARK INTRA:                  -0.250
REMARK UNBOUND:                -0.227
REMARK SMILES O=c1cc(-c2ccccc2)oc2ccccc12
REMARK SMILES IDX 4 1 3 2 2 3 1 4 17 5 16 6 15 7 14 8 13 9 12 10 11 11 5 12
REMARK SMILES IDX 8 13 7 14 9 15 6 16 10 17
REMARK H PARENT
REMARK Flexibility Score: inf
ROOT
ATOM      1  C   UNL     1      14.655  55.928  34.876  1.00  0.00     0.138 A 
ATOM      2  C   UNL     1      15.769  56.532  34.255  1.00  0.00     0.100 A 
ATOM      3  C   UNL     1      15.652  57.824  33.738  1.00  0.00     0.193 A 
ATOM      4  O   UNL     1      16.648  58.363  33.183  1.00  0.00    -0.289 OA
ATOM      5  C   UNL     1      14.431  58.503  33.844  1.00  0.00     0.065 A 
ATOM      6  C   UNL     1      14.246  59.805  33.344  1.00  0.00     0.016 A 
ATOM      7  C   UNL     1      13.005  60.437  33.478  1.00  0.00     0.001 A 
ATOM      8  C   UNL     1      11.944  59.777  34.105  1.00  0.00     0.004 A 
ATOM      9  C   UNL     1      12.119  58.483  34.604  1.00  0.00     0.048 A 
ATOM     10  C   UNL     1      13.356  57.842  34.478  1.00  0.00     0.138 A 
ATOM     11  O   UNL     1      13.512  56.612  34.955  1.00  0.00    -0.456 OA
ENDROOT
BRANCH   1  12
ATOM     12  C   UNL     1      14.694  54.550  35.456  1.00  0.00     0.017 A 
ATOM     13  C   UNL     1      14.713  51.981  36.624  1.00  0.00     0.000 A 
ATOM     14  C   UNL     1      14.033  53.026  37.248  1.00  0.00     0.001 A 
ATOM     15  C   UNL     1      15.383  52.206  35.422  1.00  0.00     0.001 A 
ATOM     16  C   UNL     1      14.022  54.299  36.672  1.00  0.00     0.012 A 
ATOM     17  C   UNL     1      15.377  53.478  34.839  1.00  0.00     0.012 A 
ENDBRANCH   1  12
TORSDOF 1
ENDMDL
MODEL 8
REMARK VINA RESULT:    -5.469      2.017      5.979
REMARK INTER + INTRA:          -6.015
REMARK INTER:                  -5.751
REMARK INTRA:                  -0.264
REMARK UNBOUND:                -0.227
REMARK SMILES O=c1cc(-c2ccccc2)oc2ccccc12
REMARK SMILES IDX 4 1 3 2 2 3 1 4 17 5 16 6 15 7 14 8 13 9 12 10 11 11 5 12
REMARK SMILES IDX 8 13 7 14 9 15 6 16 10 17
REMARK H PARENT
REMARK Flexibility Score: inf
ROOT
ATOM      1  C   UNL     1      15.159  55.568  34.073  1.00  0.00     0.138 A 
ATOM      2  C   UNL     1      15.358  56.848  34.632  1.00  0.00     0.100 A 
ATOM      3  C   UNL     1      15.486  57.955  33.790  1.00  0.00     0.193 A 
ATOM      4  O   UNL     1      15.664  59.098  34.290  1.00  0.00    -0.289 OA
ATOM      5  C   UNL     1      15.416  57.778  32.402  1.00  0.00     0.065 A 
ATOM      6  C   UNL     1      15.538  58.850  31.498  1.00  0.00     0.016 A 
ATOM      7  C   UNL     1      15.459  58.617  30.121  1.00  0.00     0.001 A 
ATOM      8  C   UNL     1      15.262  57.320  29.638  1.00  0.00     0.004 A 
ATOM      9  C   UNL     1      15.139  56.249  30.528  1.00  0.00     0.048 A 
ATOM     10  C   UNL     1      15.215  56.470  31.907  1.00  0.00     0.138 A 
ATOM     11  O   UNL     1      15.098  55.447  32.746  1.00  0.00    -0.456 OA
ENDROOT
BRANCH   1  12
ATOM     12  C   UNL     1      15.012  54.331  34.902  1.00  0.00     0.017 A 
ATOM     13  C   UNL     1      14.723  52.054  36.544  1.00  0.00     0.000 A 
ATOM     14  C   UNL     1      14.656  53.330  37.102  1.00  0.00     0.001 A 
ATOM     15  C   UNL     1      14.933  51.904  35.174  1.00  0.00     0.001 A 
ATOM     16  C   UNL     1      14.799  54.459  36.291  1.00  0.00     0.012 A 
ATOM     17  C   UNL     1      15.076  53.030  34.355  1.00  0.00     0.012 A 
ENDBRANCH   1  12
TORSDOF 1
ENDMDL
MODEL 9
REMARK VINA RESULT:    -5.402      2.339      2.985
REMARK INTER + INTRA:          -5.945
REMARK INTER:                  -5.713
REMARK INTRA:                  -0.231
REMARK UNBOUND:                -0.227
REMARK SMILES O=c1cc(-c2ccccc2)oc2ccccc12
REMARK SMILES IDX 4 1 3 2 2 3 1 4 17 5 16 6 15 7 14 8 13 9 12 10 11 11 5 12
REMARK SMILES IDX 8 13 7 14 9 15 6 16 10 17
REMARK H PARENT
REMARK Flexibility Score: inf
ROOT
ATOM      1  C   UNL     1      14.536  56.064  34.421  1.00  0.00     0.138 A 
ATOM      2  C   UNL     1      15.369  54.972  34.745  1.00  0.00     0.100 A 
ATOM      3  C   UNL     1      14.932  54.025  35.673  1.00  0.00     0.193 A 
ATOM      4  O   UNL     1      15.677  53.049  35.962  1.00  0.00    -0.289 OA
ATOM      5  C   UNL     1      13.673  54.172  36.270  1.00  0.00     0.065 A 
ATOM      6  C   UNL     1      13.173  53.254  37.212  1.00  0.00     0.016 A 
ATOM      7  C   UNL     1      11.908  53.448  37.776  1.00  0.00     0.001 A 
ATOM      8  C   UNL     1      11.137  54.555  37.408  1.00  0.00     0.004 A 
ATOM      9  C   UNL     1      11.625  55.471  36.473  1.00  0.00     0.048 A 
ATOM     10  C   UNL     1      12.888  55.287  35.901  1.00  0.00     0.138 A 
ATOM     11  O   UNL     1      13.344  56.163  35.014  1.00  0.00    -0.456 OA
ENDROOT
BRANCH   1  12
ATOM     12  C   UNL     1      14.925  57.122  33.439  1.00  0.00     0.017 A 
ATOM     13  C   UNL     1      15.735  59.144  31.643  1.00  0.00     0.000 A 
ATOM     14  C   UNL     1      16.463  58.914  32.810  1.00  0.00     0.001 A 
ATOM     15  C   UNL     1      14.607  58.374  31.365  1.00  0.00     0.001 A 
ATOM     16  C   UNL     1      16.065  57.914  33.701  1.00  0.00     0.012 A 
ATOM     17  C   UNL     1      14.201  57.371  32.251  1.00  0.00     0.012 A 
ENDBRANCH   1  12
TORSDOF 1
ENDMDL
