MODEL 1
REMARK VINA RESULT:    -3.925      0.000      0.000
REMARK INTER + INTRA:          -5.158
REMARK INTER:                  -4.728
REMARK INTRA:                  -0.430
REMARK UNBOUND:                -0.430
REMARK SMILES O=c1ccn([C@H]2O[C@@H](CO)[C@H](O)[C@H]2O)c(=O)[nH]1
REMARK SMILES IDX 6 1 13 2 11 3 8 4 7 5 5 6 3 7 4 8 2 9 17 10 1 11 15 12 16 14
REMARK SMILES IDX 14 15 12 17 9 19 10 20
REMARK H PARENT 17 13 14 16 12 18 10 21
REMARK Flexibility Score: inf
ROOT
ATOM      1  C   UNL     1     172.943 163.251 172.839  1.00  0.00     0.255 C 
ATOM      2  C   UNL     1     173.709 162.299 171.930  1.00  0.00     0.196 C 
ATOM      3  C   UNL     1     174.291 163.245 170.905  1.00  0.00     0.179 C 
ATOM      4  C   UNL     1     174.363 164.582 171.660  1.00  0.00     0.178 C 
ATOM      5  O   UNL     1     173.607 164.495 172.851  1.00  0.00    -0.347 OA
ENDROOT
BRANCH   1   6
ATOM      6  N   UNL     1     172.778 162.708 174.206  1.00  0.00    -0.271 N 
ATOM      7  C   UNL     1     173.471 162.736 176.504  1.00  0.00     0.090 A 
ATOM      8  C   UNL     1     173.590 163.193 175.195  1.00  0.00     0.099 A 
ATOM      9  C   UNL     1     172.499 161.784 176.791  1.00  0.00     0.253 A 
ATOM     10  N   UNL     1     171.688 161.326 175.802  1.00  0.00    -0.274 N 
ATOM     11  O   UNL     1     172.369 161.351 177.968  1.00  0.00    -0.269 OA
ATOM     12  C   UNL     1     171.810 161.782 174.523  1.00  0.00     0.330 A 
ATOM     13  H   UNL     1     170.954 160.618 176.028  1.00  0.00     0.175 HD
ATOM     14  O   UNL     1     171.020 161.345 173.644  1.00  0.00    -0.248 OA
ENDBRANCH   1   6
BRANCH   2  15
ATOM     15  O   UNL     1     174.740 161.653 172.633  1.00  0.00    -0.386 OA
ATOM     16  H   UNL     1     175.424 161.397 171.961  1.00  0.00     0.211 HD
ENDBRANCH   2  15
BRANCH   3  17
ATOM     17  O   UNL     1     173.418 163.367 169.810  1.00  0.00    -0.387 OA
ATOM     18  H   UNL     1     172.932 164.225 169.927  1.00  0.00     0.211 HD
ENDBRANCH   3  17
BRANCH   4  19
ATOM     19  C   UNL     1     175.812 164.957 172.006  1.00  0.00     0.191 C 
BRANCH  19  20
ATOM     20  O   UNL     1     176.242 164.258 173.142  1.00  0.00    -0.394 OA
ATOM     21  H   UNL     1     175.542 163.582 173.343  1.00  0.00     0.210 HD
ENDBRANCH  19  20
ENDBRANCH   4  19
TORSDOF 5
ENDMDL
MODEL 2
REMARK VINA RESULT:    -3.901     17.438     19.356
REMARK INTER + INTRA:          -5.129
REMARK INTER:                  -4.701
REMARK INTRA:                  -0.428
REMARK UNBOUND:                -0.430
REMARK SMILES O=c1ccn([C@H]2O[C@@H](CO)[C@H](O)[C@H]2O)c(=O)[nH]1
REMARK SMILES IDX 6 1 13 2 11 3 8 4 7 5 5 6 3 7 4 8 2 9 17 10 1 11 15 12 16 14
REMARK SMILES IDX 14 15 12 17 9 19 10 20
REMARK H PARENT 17 13 14 16 12 18 10 21
REMARK Flexibility Score: inf
ROOT
ATOM      1  C   UNL     1     163.258 172.964 163.121  1.00  0.00     0.255 C 
ATOM      2  C   UNL     1     162.295 173.712 164.033  1.00  0.00     0.196 C 
ATOM      3  C   UNL     1     163.232 174.300 165.062  1.00  0.00     0.179 C 
ATOM      4  C   UNL     1     164.569 174.395 164.310  1.00  0.00     0.178 C 
ATOM      5  O   UNL     1     164.493 173.644 163.114  1.00  0.00    -0.347 OA
ENDROOT
BRANCH   1   6
ATOM      6  N   UNL     1     162.718 172.800 161.752  1.00  0.00    -0.271 N 
ATOM      7  C   UNL     1     162.771 173.476 159.450  1.00  0.00     0.090 A 
ATOM      8  C   UNL     1     163.224 173.595 160.760  1.00  0.00     0.099 A 
ATOM      9  C   UNL     1     161.802 172.521 159.165  1.00  0.00     0.253 A 
ATOM     10  N   UNL     1     161.324 171.726 160.157  1.00  0.00    -0.274 N 
ATOM     11  O   UNL     1     161.372 172.391 157.987  1.00  0.00    -0.269 OA
ATOM     12  C   UNL     1     161.775 171.848 161.437  1.00  0.00     0.330 A 
ATOM     13  H   UNL     1     160.602 171.003 159.933  1.00  0.00     0.175 HD
ATOM     14  O   UNL     1     161.320 171.073 162.320  1.00  0.00    -0.248 OA
ENDBRANCH   1   6
BRANCH   2  15
ATOM     15  O   UNL     1     161.636 174.738 163.336  1.00  0.00    -0.386 OA
ATOM     16  H   UNL     1     161.021 175.171 163.983  1.00  0.00     0.211 HD
ENDBRANCH   2  15
BRANCH   3  17
ATOM     17  O   UNL     1     163.365 173.423 166.152  1.00  0.00    -0.387 OA
ATOM     18  H   UNL     1     162.971 173.884 166.939  1.00  0.00     0.211 HD
ENDBRANCH   3  17
BRANCH   4  19
ATOM     19  C   UNL     1     164.925 175.850 163.972  1.00  0.00     0.191 C 
BRANCH  19  20
ATOM     20  O   UNL     1     164.255 176.264 162.812  1.00  0.00    -0.394 OA
ATOM     21  H   UNL     1     163.379 175.795 162.807  1.00  0.00     0.210 HD
ENDBRANCH  19  20
ENDBRANCH   4  19
TORSDOF 5
ENDMDL
MODEL 3
REMARK VINA RESULT:    -3.874      9.260     12.568
REMARK INTER + INTRA:          -5.097
REMARK INTER:                  -4.676
REMARK INTRA:                  -0.421
REMARK UNBOUND:                -0.430
REMARK SMILES O=c1ccn([C@H]2O[C@@H](CO)[C@H](O)[C@H]2O)c(=O)[nH]1
REMARK SMILES IDX 6 1 13 2 11 3 8 4 7 5 5 6 3 7 4 8 2 9 17 10 1 11 15 12 16 14
REMARK SMILES IDX 14 15 12 17 9 19 10 20
REMARK H PARENT 17 13 14 16 12 18 10 21
REMARK Flexibility Score: inf
ROOT
ATOM      1  C   UNL     1     172.695 163.016 163.173  1.00  0.00     0.255 C 
ATOM      2  C   UNL     1     173.654 162.307 164.120  1.00  0.00     0.196 C 
ATOM      3  C   UNL     1     172.708 161.716 165.139  1.00  0.00     0.179 C 
ATOM      4  C   UNL     1     171.391 161.576 164.359  1.00  0.00     0.178 C 
ATOM      5  O   UNL     1     171.476 162.307 163.152  1.00  0.00    -0.347 OA
ENDROOT
BRANCH   1   6
ATOM      6  N   UNL     1     173.261 163.168 161.814  1.00  0.00    -0.271 N 
ATOM      7  C   UNL     1     173.272 162.453 159.523  1.00  0.00     0.090 A 
ATOM      8  C   UNL     1     172.793 162.347 160.825  1.00  0.00     0.099 A 
ATOM      9  C   UNL     1     174.228 163.423 159.242  1.00  0.00     0.253 A 
ATOM     10  N   UNL     1     174.668 164.244 160.231  1.00  0.00    -0.274 N 
ATOM     11  O   UNL     1     174.681 163.542 158.072  1.00  0.00    -0.269 OA
ATOM     12  C   UNL     1     174.191 164.134 161.503  1.00  0.00     0.330 A 
ATOM     13  H   UNL     1     175.380 164.977 160.010  1.00  0.00     0.175 HD
ATOM     14  O   UNL     1     174.612 164.933 162.382  1.00  0.00    -0.248 OA
ENDBRANCH   1   6
BRANCH   2  15
ATOM     15  O   UNL     1     174.352 161.284 163.456  1.00  0.00    -0.386 OA
ATOM     16  H   UNL     1     173.873 161.124 162.601  1.00  0.00     0.211 HD
ENDBRANCH   2  15
BRANCH   3  17
ATOM     17  O   UNL     1     172.531 162.609 166.210  1.00  0.00    -0.387 OA
ATOM     18  H   UNL     1     172.473 163.518 165.816  1.00  0.00     0.211 HD
ENDBRANCH   3  17
BRANCH   4  19
ATOM     19  C   UNL     1     171.076 160.107 164.041  1.00  0.00     0.191 C 
BRANCH  19  20
ATOM     20  O   UNL     1     171.732 159.707 162.868  1.00  0.00    -0.394 OA
ATOM     21  H   UNL     1     172.534 160.286 162.779  1.00  0.00     0.210 HD
ENDBRANCH  19  20
ENDBRANCH   4  19
TORSDOF 5
ENDMDL
MODEL 4
REMARK VINA RESULT:    -3.865     13.417     16.193
REMARK INTER + INTRA:          -5.087
REMARK INTER:                  -4.662
REMARK INTRA:                  -0.425
REMARK UNBOUND:                -0.430
REMARK SMILES O=c1ccn([C@H]2O[C@@H](CO)[C@H](O)[C@H]2O)c(=O)[nH]1
REMARK SMILES IDX 6 1 13 2 11 3 8 4 7 5 5 6 3 7 4 8 2 9 17 10 1 11 15 12 16 14
REMARK SMILES IDX 14 15 12 17 9 19 10 20
REMARK H PARENT 17 13 14 16 12 18 10 21
REMARK Flexibility Score: inf
ROOT
ATOM      1  C   UNL     1     172.953 172.783 163.064  1.00  0.00     0.255 C 
ATOM      2  C   UNL     1     173.686 173.732 164.002  1.00  0.00     0.196 C 
ATOM      3  C   UNL     1     174.251 172.781 165.031  1.00  0.00     0.179 C 
ATOM      4  C   UNL     1     174.355 171.453 164.265  1.00  0.00     0.178 C 
ATOM      5  O   UNL     1     173.628 171.546 163.056  1.00  0.00    -0.347 OA
ENDROOT
BRANCH   1   6
ATOM      6  N   UNL     1     172.817 173.339 161.699  1.00  0.00    -0.271 N 
ATOM      7  C   UNL     1     173.542 173.316 159.411  1.00  0.00     0.090 A 
ATOM      8  C   UNL     1     173.634 172.847 160.718  1.00  0.00     0.099 A 
ATOM      9  C   UNL     1     172.591 174.286 159.117  1.00  0.00     0.253 A 
ATOM     10  N   UNL     1     171.774 174.751 160.098  1.00  0.00    -0.274 N 
ATOM     11  O   UNL     1     172.486 174.731 157.942  1.00  0.00    -0.269 OA
ATOM     12  C   UNL     1     171.870 174.284 161.375  1.00  0.00     0.330 A 
ATOM     13  H   UNL     1     171.055 175.474 159.867  1.00  0.00     0.175 HD
ATOM     14  O   UNL     1     171.075 174.727 162.247  1.00  0.00    -0.248 OA
ENDBRANCH   1   6
BRANCH   2  15
ATOM     15  O   UNL     1     174.728 174.396 163.332  1.00  0.00    -0.386 OA
ATOM     16  H   UNL     1     175.577 174.029 163.694  1.00  0.00     0.211 HD
ENDBRANCH   2  15
BRANCH   3  17
ATOM     17  O   UNL     1     173.353 172.639 166.102  1.00  0.00    -0.387 OA
ATOM     18  H   UNL     1     173.502 173.415 166.704  1.00  0.00     0.211 HD
ENDBRANCH   3  17
BRANCH   4  19
ATOM     19  C   UNL     1     175.816 171.095 163.951  1.00  0.00     0.191 C 
BRANCH  19  20
ATOM     20  O   UNL     1     176.247 171.760 162.795  1.00  0.00    -0.394 OA
ATOM     21  H   UNL     1     177.240 171.747 162.813  1.00  0.00     0.210 HD
ENDBRANCH  19  20
ENDBRANCH   4  19
TORSDOF 5
ENDMDL
MODEL 5
REMARK VINA RESULT:    -3.860     14.579     16.575
REMARK INTER + INTRA:          -5.080
REMARK INTER:                  -4.659
REMARK INTRA:                  -0.421
REMARK UNBOUND:                -0.430
REMARK SMILES O=c1ccn([C@H]2O[C@@H](CO)[C@H](O)[C@H]2O)c(=O)[nH]1
REMARK SMILES IDX 6 1 13 2 11 3 8 4 7 5 5 6 3 7 4 8 2 9 17 10 1 11 15 12 16 14
REMARK SMILES IDX 14 15 12 17 9 19 10 20
REMARK H PARENT 17 13 14 16 12 18 10 21
REMARK Flexibility Score: inf
ROOT
ATOM      1  C   UNL     1     163.028 163.194 163.097  1.00  0.00     0.255 C 
ATOM      2  C   UNL     1     162.294 162.241 164.031  1.00  0.00     0.196 C 
ATOM      3  C   UNL     1     161.727 163.187 165.062  1.00  0.00     0.179 C 
ATOM      4  C   UNL     1     161.622 164.518 164.301  1.00  0.00     0.178 C 
ATOM      5  O   UNL     1     162.351 164.431 163.093  1.00  0.00    -0.347 OA
ENDROOT
BRANCH   1   6
ATOM      6  N   UNL     1     163.166 162.643 161.730  1.00  0.00    -0.271 N 
ATOM      7  C   UNL     1     162.456 162.686 159.438  1.00  0.00     0.090 A 
ATOM      8  C   UNL     1     162.361 163.149 160.747  1.00  0.00     0.099 A 
ATOM      9  C   UNL     1     163.398 161.706 159.145  1.00  0.00     0.253 A 
ATOM     10  N   UNL     1     164.203 161.227 160.129  1.00  0.00    -0.274 N 
ATOM     11  O   UNL     1     163.506 161.266 157.969  1.00  0.00    -0.269 OA
ATOM     12  C   UNL     1     164.104 161.689 161.408  1.00  0.00     0.330 A 
ATOM     13  H   UNL     1     164.915 160.497 159.899  1.00  0.00     0.175 HD
ATOM     14  O   UNL     1     164.889 161.232 162.282  1.00  0.00    -0.248 OA
ENDBRANCH   1   6
BRANCH   2  15
ATOM     15  O   UNL     1     161.254 161.579 163.356  1.00  0.00    -0.386 OA
ATOM     16  H   UNL     1     161.582 160.663 163.159  1.00  0.00     0.211 HD
ENDBRANCH   2  15
BRANCH   3  17
ATOM     17  O   UNL     1     162.623 163.326 166.136  1.00  0.00    -0.387 OA
ATOM     18  H   UNL     1     163.374 163.889 165.809  1.00  0.00     0.211 HD
ENDBRANCH   3  17
BRANCH   4  19
ATOM     19  C   UNL     1     160.162 164.875 163.987  1.00  0.00     0.191 C 
BRANCH  19  20
ATOM     20  O   UNL     1     159.742 164.239 162.810  1.00  0.00    -0.394 OA
ATOM     21  H   UNL     1     158.872 163.806 163.016  1.00  0.00     0.210 HD
ENDBRANCH  19  20
ENDBRANCH   4  19
TORSDOF 5
ENDMDL
MODEL 6
REMARK VINA RESULT:    -3.855      9.665     10.940
REMARK INTER + INTRA:          -5.074
REMARK INTER:                  -4.647
REMARK INTRA:                  -0.427
REMARK UNBOUND:                -0.430
REMARK SMILES O=c1ccn([C@H]2O[C@@H](CO)[C@H](O)[C@H]2O)c(=O)[nH]1
REMARK SMILES IDX 6 1 13 2 11 3 8 4 7 5 5 6 3 7 4 8 2 9 17 10 1 11 15 12 16 14
REMARK SMILES IDX 14 15 12 17 9 19 10 20
REMARK H PARENT 17 13 14 16 12 18 10 21
REMARK Flexibility Score: inf
ROOT
ATOM      1  C   UNL     1     172.728 172.993 172.886  1.00  0.00     0.255 C 
ATOM      2  C   UNL     1     173.685 173.730 171.957  1.00  0.00     0.196 C 
ATOM      3  C   UNL     1     172.739 174.325 170.941  1.00  0.00     0.179 C 
ATOM      4  C   UNL     1     171.414 174.435 171.712  1.00  0.00     0.178 C 
ATOM      5  O   UNL     1     171.500 173.686 172.908  1.00  0.00    -0.347 OA
ENDROOT
BRANCH   1   6
ATOM      6  N   UNL     1     173.285 172.827 174.247  1.00  0.00    -0.271 N 
ATOM      7  C   UNL     1     173.267 173.502 176.549  1.00  0.00     0.090 A 
ATOM      8  C   UNL     1     172.796 173.623 175.246  1.00  0.00     0.099 A 
ATOM      9  C   UNL     1     174.236 172.543 176.821  1.00  0.00     0.253 A 
ATOM     10  N   UNL     1     174.697 171.747 175.822  1.00  0.00    -0.274 N 
ATOM     11  O   UNL     1     174.682 172.411 177.993  1.00  0.00    -0.269 OA
ATOM     12  C   UNL     1     174.229 171.871 174.548  1.00  0.00     0.330 A 
ATOM     13  H   UNL     1     175.419 171.021 176.036  1.00  0.00     0.175 HD
ATOM     14  O   UNL     1     174.670 171.094 173.659  1.00  0.00    -0.248 OA
ENDBRANCH   1   6
BRANCH   2  15
ATOM     15  O   UNL     1     174.364 174.751 172.643  1.00  0.00    -0.386 OA
ATOM     16  H   UNL     1     173.787 175.557 172.595  1.00  0.00     0.211 HD
ENDBRANCH   2  15
BRANCH   3  17
ATOM     17  O   UNL     1     172.581 173.447 169.855  1.00  0.00    -0.387 OA
ATOM     18  H   UNL     1     172.882 173.938 169.045  1.00  0.00     0.211 HD
ENDBRANCH   3  17
BRANCH   4  19
ATOM     19  C   UNL     1     171.078 175.894 172.052  1.00  0.00     0.191 C 
BRANCH  19  20
ATOM     20  O   UNL     1     171.750 176.296 173.215  1.00  0.00    -0.394 OA
ATOM     21  H   UNL     1     171.911 177.272 173.127  1.00  0.00     0.210 HD
ENDBRANCH  19  20
ENDBRANCH   4  19
TORSDOF 5
ENDMDL
MODEL 7
REMARK VINA RESULT:    -3.844      9.640     10.921
REMARK INTER + INTRA:          -5.062
REMARK INTER:                  -4.634
REMARK INTRA:                  -0.428
REMARK UNBOUND:                -0.430
REMARK SMILES O=c1ccn([C@H]2O[C@@H](CO)[C@H](O)[C@H]2O)c(=O)[nH]1
REMARK SMILES IDX 6 1 13 2 11 3 8 4 7 5 5 6 3 7 4 8 2 9 17 10 1 11 15 12 16 14
REMARK SMILES IDX 14 15 12 17 9 19 10 20
REMARK H PARENT 17 13 14 16 12 18 10 21
REMARK Flexibility Score: inf
ROOT
ATOM      1  C   UNL     1     163.216 163.084 172.806  1.00  0.00     0.255 C 
ATOM      2  C   UNL     1     162.269 162.324 171.886  1.00  0.00     0.196 C 
ATOM      3  C   UNL     1     163.219 161.760 170.856  1.00  0.00     0.179 C 
ATOM      4  C   UNL     1     164.556 161.686 171.610  1.00  0.00     0.178 C 
ATOM      5  O   UNL     1     164.463 162.427 172.810  1.00  0.00    -0.347 OA
ENDROOT
BRANCH   1   6
ATOM      6  N   UNL     1     162.671 163.229 174.174  1.00  0.00    -0.271 N 
ATOM      7  C   UNL     1     162.688 162.496 176.459  1.00  0.00     0.090 A 
ATOM      8  C   UNL     1     163.147 162.396 175.149  1.00  0.00     0.099 A 
ATOM      9  C   UNL     1     161.743 163.470 176.762  1.00  0.00     0.253 A 
ATOM     10  N   UNL     1     161.295 164.302 175.786  1.00  0.00    -0.274 N 
ATOM     11  O   UNL     1     161.308 163.583 177.939  1.00  0.00    -0.269 OA
ATOM     12  C   UNL     1     161.752 164.199 174.506  1.00  0.00     0.330 A 
ATOM     13  H   UNL     1     160.592 165.039 176.023  1.00  0.00     0.175 HD
ATOM     14  O   UNL     1     161.324 165.008 173.640  1.00  0.00    -0.248 OA
ENDBRANCH   1   6
BRANCH   2  15
ATOM     15  O   UNL     1     161.628 161.281 172.576  1.00  0.00    -0.386 OA
ATOM     16  H   UNL     1     161.743 161.469 173.544  1.00  0.00     0.211 HD
ENDBRANCH   2  15
BRANCH   3  17
ATOM     17  O   UNL     1     163.337 162.646 169.771  1.00  0.00    -0.387 OA
ATOM     18  H   UNL     1     163.113 162.129 168.954  1.00  0.00     0.211 HD
ENDBRANCH   3  17
BRANCH   4  19
ATOM     19  C   UNL     1     164.938 160.235 171.939  1.00  0.00     0.191 C 
BRANCH  19  20
ATOM     20  O   UNL     1     164.227 159.781 173.058  1.00  0.00    -0.394 OA
ATOM     21  H   UNL     1     164.900 159.585 173.762  1.00  0.00     0.210 HD
ENDBRANCH  19  20
ENDBRANCH   4  19
TORSDOF 5
ENDMDL
MODEL 8
REMARK VINA RESULT:    -3.766     14.578     15.446
REMARK INTER + INTRA:          -4.967
REMARK INTER:                  -4.545
REMARK INTRA:                  -0.423
REMARK UNBOUND:                -0.430
REMARK SMILES O=c1ccn([C@H]2O[C@@H](CO)[C@H](O)[C@H]2O)c(=O)[nH]1
REMARK SMILES IDX 6 1 13 2 11 3 8 4 7 5 5 6 3 7 4 8 2 9 17 10 1 11 15 12 16 14
REMARK SMILES IDX 14 15 12 17 9 19 10 20
REMARK H PARENT 17 13 14 16 12 18 10 21
REMARK Flexibility Score: inf
ROOT
ATOM      1  C   UNL     1     163.066 172.794 172.892  1.00  0.00     0.255 C 
ATOM      2  C   UNL     1     162.345 173.751 171.953  1.00  0.00     0.196 C 
ATOM      3  C   UNL     1     161.772 172.807 170.922  1.00  0.00     0.179 C 
ATOM      4  C   UNL     1     161.652 171.479 171.687  1.00  0.00     0.178 C 
ATOM      5  O   UNL     1     162.377 171.563 172.897  1.00  0.00    -0.347 OA
ENDROOT
BRANCH   1   6
ATOM      6  N   UNL     1     163.204 173.347 174.258  1.00  0.00    -0.271 N 
ATOM      7  C   UNL     1     162.463 173.341 176.540  1.00  0.00     0.090 A 
ATOM      8  C   UNL     1     162.370 172.874 175.233  1.00  0.00     0.099 A 
ATOM      9  C   UNL     1     163.433 174.291 176.840  1.00  0.00     0.253 A 
ATOM     10  N   UNL     1     164.266 174.737 175.865  1.00  0.00    -0.274 N 
ATOM     11  O   UNL     1     163.540 174.733 178.016  1.00  0.00    -0.269 OA
ATOM     12  C   UNL     1     164.169 174.272 174.588  1.00  0.00     0.330 A 
ATOM     13  H   UNL     1     164.999 175.444 176.101  1.00  0.00     0.175 HD
ATOM     14  O   UNL     1     164.980 174.697 173.721  1.00  0.00    -0.248 OA
ENDBRANCH   1   6
BRANCH   2  15
ATOM     15  O   UNL     1     161.308 174.425 172.621  1.00  0.00    -0.386 OA
ATOM     16  H   UNL     1     161.451 175.394 172.461  1.00  0.00     0.211 HD
ENDBRANCH   2  15
BRANCH   3  17
ATOM     17  O   UNL     1     162.672 172.656 169.852  1.00  0.00    -0.387 OA
ATOM     18  H   UNL     1     163.141 171.793 169.994  1.00  0.00     0.211 HD
ENDBRANCH   3  17
BRANCH   4  19
ATOM     19  C   UNL     1     160.187 171.137 171.996  1.00  0.00     0.191 C 
BRANCH  19  20
ATOM     20  O   UNL     1     159.765 171.792 173.162  1.00  0.00    -0.394 OA
ATOM     21  H   UNL     1     159.634 171.089 173.851  1.00  0.00     0.210 HD
ENDBRANCH  19  20
ENDBRANCH   4  19
TORSDOF 5
ENDMDL
MODEL 9
REMARK VINA RESULT:    -3.752     15.454     16.429
REMARK INTER + INTRA:          -4.950
REMARK INTER:                  -4.555
REMARK INTRA:                  -0.395
REMARK UNBOUND:                -0.430
REMARK SMILES O=c1ccn([C@H]2O[C@@H](CO)[C@H](O)[C@H]2O)c(=O)[nH]1
REMARK SMILES IDX 6 1 13 2 11 3 8 4 7 5 5 6 3 7 4 8 2 9 17 10 1 11 15 12 16 14
REMARK SMILES IDX 14 15 12 17 9 19 10 20
REMARK H PARENT 17 13 14 16 12 18 10 21
REMARK Flexibility Score: inf
ROOT
ATOM      1  C   UNL     1     163.620 174.705 172.680  1.00  0.00     0.255 C 
ATOM      2  C   UNL     1     163.320 175.968 173.476  1.00  0.00     0.196 C 
ATOM      3  C   UNL     1     164.383 176.916 172.972  1.00  0.00     0.179 C 
ATOM      4  C   UNL     1     164.710 176.368 171.573  1.00  0.00     0.178 C 
ATOM      5  O   UNL     1     164.154 175.076 171.430  1.00  0.00    -0.347 OA
ENDROOT
BRANCH   1   6
ATOM      6  N   UNL     1     162.427 173.842 172.530  1.00  0.00    -0.271 N 
ATOM      7  C   UNL     1     160.585 173.137 171.162  1.00  0.00     0.090 A 
ATOM      8  C   UNL     1     161.706 173.935 171.371  1.00  0.00     0.099 A 
ATOM      9  C   UNL     1     160.219 172.231 172.150  1.00  0.00     0.253 A 
ATOM     10  N   UNL     1     160.957 172.137 173.288  1.00  0.00    -0.274 N 
ATOM     11  O   UNL     1     159.208 171.496 171.989  1.00  0.00    -0.269 OA
ATOM     12  C   UNL     1     162.054 172.921 173.483  1.00  0.00     0.330 A 
ATOM     13  H   UNL     1     160.680 171.446 174.022  1.00  0.00     0.175 HD
ATOM     14  O   UNL     1     162.721 172.782 174.543  1.00  0.00    -0.248 OA
ENDBRANCH   1   6
BRANCH   2  15
ATOM     15  O   UNL     1     162.042 176.465 173.168  1.00  0.00    -0.386 OA
ATOM     16  H   UNL     1     162.172 177.389 172.829  1.00  0.00     0.211 HD
ENDBRANCH   2  15
BRANCH   3  17
ATOM     17  O   UNL     1     165.525 176.840 173.788  1.00  0.00    -0.387 OA
ATOM     18  H   UNL     1     165.241 177.106 174.701  1.00  0.00     0.211 HD
ENDBRANCH   3  17
BRANCH   4  19
ATOM     19  C   UNL     1     164.163 177.282 170.467  1.00  0.00     0.191 C 
BRANCH  19  20
ATOM     20  O   UNL     1     162.762 177.228 170.433  1.00  0.00    -0.394 OA
ATOM     21  H   UNL     1     162.473 177.817 169.687  1.00  0.00     0.210 HD
ENDBRANCH  19  20
ENDBRANCH   4  19
TORSDOF 5
ENDMDL
