MODEL 1
REMARK VINA RESULT:    -7.596      0.000      0.000
REMARK INTER + INTRA:          -9.115
REMARK INTER:                  -9.372
REMARK INTRA:                   0.257
REMARK UNBOUND:                 0.257
REMARK SMILES Oc1cc(O)c2cc(O)c(-c3cc(O)c(O)c(O)c3)[o+]c2c1
REMARK SMILES IDX 10 1 20 2 21 3 22 4 2 5 3 6 4 7 6 8 7 9 8 10 11 11 12 12
REMARK SMILES IDX 13 13 19 14 15 15 17 16 14 17 16 19 18 21 9 23 1 25 5 27
REMARK H PARENT 14 18 16 20 18 22 9 24 1 26 5 28
REMARK Flexibility Score: inf
ROOT
ATOM      1  C   UNL     1     -23.098  84.958 -23.392  1.00  0.00     0.402 A 
ATOM      2  O   UNL     1     -22.737  86.225 -23.574  1.00  0.00    -0.202 OA
ATOM      3  C   UNL     1     -23.077  86.935 -24.644  1.00  0.00     0.368 A 
ATOM      4  C   UNL     1     -22.646  88.261 -24.746  1.00  0.00     0.162 A 
ATOM      5  C   UNL     1     -22.988  89.029 -25.862  1.00  0.00     0.128 A 
ATOM      6  C   UNL     1     -23.763  88.470 -26.881  1.00  0.00     0.093 A 
ATOM      7  C   UNL     1     -24.207  87.145 -26.803  1.00  0.00     0.136 A 
ATOM      8  C   UNL     1     -23.865  86.361 -25.671  1.00  0.00     0.125 A 
ATOM      9  C   UNL     1     -24.277  85.029 -25.501  1.00  0.00     0.078 A 
ATOM     10  C   UNL     1     -23.904  84.321 -24.355  1.00  0.00     0.223 A 
ENDROOT
BRANCH   1  11
ATOM     11  C   UNL     1     -22.647  84.270 -22.162  1.00  0.00     0.091 A 
ATOM     12  C   UNL     1     -22.581  82.868 -22.090  1.00  0.00     0.068 A 
ATOM     13  C   UNL     1     -22.130  82.234 -20.927  1.00  0.00     0.162 A 
ATOM     14  C   UNL     1     -22.222  85.030 -21.063  1.00  0.00     0.068 A 
ATOM     15  C   UNL     1     -21.727  83.001 -19.820  1.00  0.00     0.200 A 
ATOM     16  C   UNL     1     -21.771  84.405 -19.892  1.00  0.00     0.162 A 
BRANCH  13  17
ATOM     17  O   UNL     1     -22.084  80.841 -20.892  1.00  0.00    -0.504 OA
ATOM     18  H   UNL     1     -21.540  80.303 -21.557  1.00  0.00     0.293 HD
ENDBRANCH  13  17
BRANCH  15  19
ATOM     19  O   UNL     1     -21.284  82.362 -18.662  1.00  0.00    -0.502 OA
ATOM     20  H   UNL     1     -21.151  82.856 -17.789  1.00  0.00     0.293 HD
ENDBRANCH  15  19
BRANCH  16  21
ATOM     21  O   UNL     1     -21.365  85.172 -18.801  1.00  0.00    -0.504 OA
ATOM     22  H   UNL     1     -22.023  85.478 -18.093  1.00  0.00     0.293 HD
ENDBRANCH  16  21
ENDBRANCH   1  11
BRANCH  10  23
ATOM     23  O   UNL     1     -24.355  83.015 -24.162  1.00  0.00    -0.500 OA
ATOM     24  H   UNL     1     -25.342  82.796 -24.096  1.00  0.00     0.294 HD
ENDBRANCH  10  23
BRANCH   5  25
ATOM     25  O   UNL     1     -22.562  90.352 -25.971  1.00  0.00    -0.507 OA
ATOM     26  H   UNL     1     -23.189  91.088 -26.277  1.00  0.00     0.293 HD
ENDBRANCH   5  25
BRANCH   7  27
ATOM     27  O   UNL     1     -24.975  86.661 -27.866  1.00  0.00    -0.507 OA
ATOM     28  H   UNL     1     -25.810  86.102 -27.758  1.00  0.00     0.293 HD
ENDBRANCH   7  27
TORSDOF 7
ENDMDL
MODEL 2
REMARK VINA RESULT:    -7.467      0.102      1.797
REMARK INTER + INTRA:          -8.956
REMARK INTER:                  -9.307
REMARK INTRA:                   0.351
REMARK UNBOUND:                 0.257
REMARK SMILES Oc1cc(O)c2cc(O)c(-c3cc(O)c(O)c(O)c3)[o+]c2c1
REMARK SMILES IDX 10 1 20 2 21 3 22 4 2 5 3 6 4 7 6 8 7 9 8 10 11 11 12 12
REMARK SMILES IDX 13 13 19 14 15 15 17 16 14 17 16 19 18 21 9 23 1 25 5 27
REMARK H PARENT 14 18 16 20 18 22 9 24 1 26 5 28
REMARK Flexibility Score: inf
ROOT
ATOM      1  C   UNL     1     -23.030  85.065 -23.405  1.00  0.00     0.402 A 
ATOM      2  O   UNL     1     -22.684  86.336 -23.592  1.00  0.00    -0.202 OA
ATOM      3  C   UNL     1     -23.043  87.042 -24.658  1.00  0.00     0.368 A 
ATOM      4  C   UNL     1     -22.627  88.372 -24.765  1.00  0.00     0.162 A 
ATOM      5  C   UNL     1     -22.988  89.136 -25.879  1.00  0.00     0.128 A 
ATOM      6  C   UNL     1     -23.767  88.568 -26.889  1.00  0.00     0.093 A 
ATOM      7  C   UNL     1     -24.196  87.238 -26.806  1.00  0.00     0.136 A 
ATOM      8  C   UNL     1     -23.835  86.458 -25.677  1.00  0.00     0.125 A 
ATOM      9  C   UNL     1     -24.230  85.122 -25.503  1.00  0.00     0.078 A 
ATOM     10  C   UNL     1     -23.839  84.418 -24.359  1.00  0.00     0.223 A 
ENDROOT
BRANCH   1  11
ATOM     11  C   UNL     1     -22.559  84.383 -22.179  1.00  0.00     0.091 A 
ATOM     12  C   UNL     1     -22.173  85.109 -21.040  1.00  0.00     0.068 A 
ATOM     13  C   UNL     1     -21.753  84.448 -19.881  1.00  0.00     0.162 A 
ATOM     14  C   UNL     1     -22.550  82.981 -22.130  1.00  0.00     0.068 A 
ATOM     15  C   UNL     1     -21.723  83.043 -19.845  1.00  0.00     0.200 A 
ATOM     16  C   UNL     1     -22.128  82.309 -20.974  1.00  0.00     0.162 A 
BRANCH  13  17
ATOM     17  O   UNL     1     -21.372  85.205 -18.773  1.00  0.00    -0.504 OA
ATOM     18  H   UNL     1     -21.984  85.339 -17.977  1.00  0.00     0.293 HD
ENDBRANCH  13  17
BRANCH  15  19
ATOM     19  O   UNL     1     -21.298  82.392 -18.688  1.00  0.00    -0.502 OA
ATOM     20  H   UNL     1     -21.145  82.883 -17.816  1.00  0.00     0.293 HD
ENDBRANCH  15  19
BRANCH  16  21
ATOM     21  O   UNL     1     -22.110  80.915 -20.942  1.00  0.00    -0.504 OA
ATOM     22  H   UNL     1     -21.333  80.386 -21.322  1.00  0.00     0.293 HD
ENDBRANCH  16  21
ENDBRANCH   1  11
BRANCH  10  23
ATOM     23  O   UNL     1     -24.273  83.108 -24.162  1.00  0.00    -0.500 OA
ATOM     24  H   UNL     1     -24.485  82.494 -24.940  1.00  0.00     0.294 HD
ENDBRANCH  10  23
BRANCH   5  25
ATOM     25  O   UNL     1     -22.577  90.463 -25.992  1.00  0.00    -0.507 OA
ATOM     26  H   UNL     1     -22.770  91.008 -26.825  1.00  0.00     0.293 HD
ENDBRANCH   5  25
BRANCH   7  27
ATOM     27  O   UNL     1     -24.969  86.744 -27.861  1.00  0.00    -0.507 OA
ATOM     28  H   UNL     1     -25.843  86.252 -27.746  1.00  0.00     0.293 HD
ENDBRANCH   7  27
TORSDOF 7
ENDMDL
MODEL 3
REMARK VINA RESULT:    -7.454      1.757      2.920
REMARK INTER + INTRA:          -8.940
REMARK INTER:                  -8.572
REMARK INTRA:                  -0.368
REMARK UNBOUND:                 0.257
REMARK SMILES Oc1cc(O)c2cc(O)c(-c3cc(O)c(O)c(O)c3)[o+]c2c1
REMARK SMILES IDX 10 1 20 2 21 3 22 4 2 5 3 6 4 7 6 8 7 9 8 10 11 11 12 12
REMARK SMILES IDX 13 13 19 14 15 15 17 16 14 17 16 19 18 21 9 23 1 25 5 27
REMARK H PARENT 14 18 16 20 18 22 9 24 1 26 5 28
REMARK Flexibility Score: inf
ROOT
ATOM      1  C   UNL     1     -22.668  85.554 -23.849  1.00  0.00     0.402 A 
ATOM      2  O   UNL     1     -23.629  85.715 -24.755  1.00  0.00    -0.202 OA
ATOM      3  C   UNL     1     -23.822  86.848 -25.421  1.00  0.00     0.368 A 
ATOM      4  C   UNL     1     -24.861  86.922 -26.353  1.00  0.00     0.162 A 
ATOM      5  C   UNL     1     -25.087  88.103 -27.065  1.00  0.00     0.128 A 
ATOM      6  C   UNL     1     -24.273  89.215 -26.844  1.00  0.00     0.093 A 
ATOM      7  C   UNL     1     -23.225  89.168 -25.916  1.00  0.00     0.136 A 
ATOM      8  C   UNL     1     -22.989  87.971 -25.192  1.00  0.00     0.125 A 
ATOM      9  C   UNL     1     -21.955  87.827 -24.253  1.00  0.00     0.078 A 
ATOM     10  C   UNL     1     -21.781  86.613 -23.581  1.00  0.00     0.223 A 
ENDROOT
BRANCH   1  11
ATOM     11  C   UNL     1     -22.562  84.244 -23.166  1.00  0.00     0.091 A 
ATOM     12  C   UNL     1     -21.675  83.253 -23.619  1.00  0.00     0.068 A 
ATOM     13  C   UNL     1     -21.570  82.030 -22.949  1.00  0.00     0.162 A 
ATOM     14  C   UNL     1     -23.319  84.006 -22.010  1.00  0.00     0.068 A 
ATOM     15  C   UNL     1     -22.349  81.788 -21.803  1.00  0.00     0.200 A 
ATOM     16  C   UNL     1     -23.223  82.783 -21.332  1.00  0.00     0.162 A 
BRANCH  13  17
ATOM     17  O   UNL     1     -20.683  81.069 -23.432  1.00  0.00    -0.504 OA
ATOM     18  H   UNL     1     -19.687  81.118 -23.256  1.00  0.00     0.293 HD
ENDBRANCH  13  17
BRANCH  15  19
ATOM     19  O   UNL     1     -22.242  80.564 -21.143  1.00  0.00    -0.502 OA
ATOM     20  H   UNL     1     -22.659  80.401 -20.235  1.00  0.00     0.293 HD
ENDBRANCH  15  19
BRANCH  16  21
ATOM     21  O   UNL     1     -23.991  82.553 -20.192  1.00  0.00    -0.504 OA
ATOM     22  H   UNL     1     -24.237  83.304 -19.557  1.00  0.00     0.293 HD
ENDBRANCH  16  21
ENDBRANCH   1  11
BRANCH  10  23
ATOM     23  O   UNL     1     -20.724  86.454 -22.686  1.00  0.00    -0.500 OA
ATOM     24  H   UNL     1     -20.289  85.552 -22.529  1.00  0.00     0.294 HD
ENDBRANCH  10  23
BRANCH   5  25
ATOM     25  O   UNL     1     -26.122  88.183 -27.996  1.00  0.00    -0.507 OA
ATOM     26  H   UNL     1     -26.440  87.367 -28.506  1.00  0.00     0.293 HD
ENDBRANCH   5  25
BRANCH   7  27
ATOM     27  O   UNL     1     -22.458  90.325 -25.752  1.00  0.00    -0.507 OA
ATOM     28  H   UNL     1     -22.017  90.829 -26.507  1.00  0.00     0.293 HD
ENDBRANCH   7  27
TORSDOF 7
ENDMDL
MODEL 4
REMARK VINA RESULT:    -7.103      1.705      6.837
REMARK INTER + INTRA:          -8.507
REMARK INTER:                  -8.140
REMARK INTRA:                  -0.367
REMARK UNBOUND:                 0.257
REMARK SMILES Oc1cc(O)c2cc(O)c(-c3cc(O)c(O)c(O)c3)[o+]c2c1
REMARK SMILES IDX 10 1 20 2 21 3 22 4 2 5 3 6 4 7 6 8 7 9 8 10 11 11 12 12
REMARK SMILES IDX 13 13 19 14 15 15 17 16 14 17 16 19 18 21 9 23 1 25 5 27
REMARK H PARENT 14 18 16 20 18 22 9 24 1 26 5 28
REMARK Flexibility Score: inf
ROOT
ATOM      1  C   UNL     1     -23.590  85.232 -23.805  1.00  0.00     0.402 A 
ATOM      2  O   UNL     1     -23.133  85.135 -22.559  1.00  0.00    -0.202 OA
ATOM      3  C   UNL     1     -22.696  83.999 -22.028  1.00  0.00     0.368 A 
ATOM      4  C   UNL     1     -22.237  83.997 -20.707  1.00  0.00     0.162 A 
ATOM      5  C   UNL     1     -21.774  82.815 -20.124  1.00  0.00     0.128 A 
ATOM      6  C   UNL     1     -21.770  81.629 -20.862  1.00  0.00     0.093 A 
ATOM      7  C   UNL     1     -22.224  81.604 -22.186  1.00  0.00     0.136 A 
ATOM      8  C   UNL     1     -22.693  82.802 -22.785  1.00  0.00     0.125 A 
ATOM      9  C   UNL     1     -23.154  82.874 -24.110  1.00  0.00     0.078 A 
ATOM     10  C   UNL     1     -23.597  84.093 -24.633  1.00  0.00     0.223 A 
ENDROOT
BRANCH   1  11
ATOM     11  C   UNL     1     -24.060  86.553 -24.279  1.00  0.00     0.091 A 
ATOM     12  C   UNL     1     -25.429  86.866 -24.335  1.00  0.00     0.068 A 
ATOM     13  C   UNL     1     -25.855  88.127 -24.763  1.00  0.00     0.162 A 
ATOM     14  C   UNL     1     -23.121  87.535 -24.626  1.00  0.00     0.068 A 
ATOM     15  C   UNL     1     -24.910  89.100 -25.132  1.00  0.00     0.200 A 
ATOM     16  C   UNL     1     -23.538  88.802 -25.059  1.00  0.00     0.162 A 
BRANCH  13  17
ATOM     17  O   UNL     1     -27.222  88.398 -24.810  1.00  0.00    -0.504 OA
ATOM     18  H   UNL     1     -27.817  88.312 -23.995  1.00  0.00     0.293 HD
ENDBRANCH  13  17
BRANCH  15  19
ATOM     19  O   UNL     1     -25.343  90.354 -25.563  1.00  0.00    -0.502 OA
ATOM     20  H   UNL     1     -25.470  90.576 -26.543  1.00  0.00     0.293 HD
ENDBRANCH  15  19
BRANCH  16  21
ATOM     21  O   UNL     1     -22.595  89.765 -25.415  1.00  0.00    -0.504 OA
ATOM     22  H   UNL     1     -21.887  89.581 -26.117  1.00  0.00     0.293 HD
ENDBRANCH  16  21
ENDBRANCH   1  11
BRANCH  10  23
ATOM     23  O   UNL     1     -24.007  84.176 -25.963  1.00  0.00    -0.500 OA
ATOM     24  H   UNL     1     -23.466  84.679 -26.657  1.00  0.00     0.294 HD
ENDBRANCH  10  23
BRANCH   5  25
ATOM     25  O   UNL     1     -21.316  82.806 -18.807  1.00  0.00    -0.507 OA
ATOM     26  H   UNL     1     -21.701  82.171 -18.116  1.00  0.00     0.293 HD
ENDBRANCH   5  25
BRANCH   7  27
ATOM     27  O   UNL     1     -22.190  80.377 -22.855  1.00  0.00    -0.507 OA
ATOM     28  H   UNL     1     -22.904  80.055 -23.492  1.00  0.00     0.293 HD
ENDBRANCH   7  27
TORSDOF 7
ENDMDL
MODEL 5
REMARK VINA RESULT:    -7.069      3.292      7.298
REMARK INTER + INTRA:          -8.465
REMARK INTER:                  -8.110
REMARK INTRA:                  -0.355
REMARK UNBOUND:                 0.257
REMARK SMILES Oc1cc(O)c2cc(O)c(-c3cc(O)c(O)c(O)c3)[o+]c2c1
REMARK SMILES IDX 10 1 20 2 21 3 22 4 2 5 3 6 4 7 6 8 7 9 8 10 11 11 12 12
REMARK SMILES IDX 13 13 19 14 15 15 17 16 14 17 16 19 18 21 9 23 1 25 5 27
REMARK H PARENT 14 18 16 20 18 22 9 24 1 26 5 28
REMARK Flexibility Score: inf
ROOT
ATOM      1  C   UNL     1     -22.820  82.247 -23.298  1.00  0.00     0.402 A 
ATOM      2  O   UNL     1     -22.072  81.439 -24.046  1.00  0.00    -0.202 OA
ATOM      3  C   UNL     1     -22.111  80.114 -23.953  1.00  0.00     0.368 A 
ATOM      4  C   UNL     1     -21.284  79.350 -24.781  1.00  0.00     0.162 A 
ATOM      5  C   UNL     1     -21.303  77.955 -24.701  1.00  0.00     0.128 A 
ATOM      6  C   UNL     1     -22.152  77.321 -23.791  1.00  0.00     0.093 A 
ATOM      7  C   UNL     1     -22.990  78.064 -22.952  1.00  0.00     0.136 A 
ATOM      8  C   UNL     1     -22.977  79.480 -23.029  1.00  0.00     0.125 A 
ATOM      9  C   UNL     1     -23.792  80.305 -22.236  1.00  0.00     0.078 A 
ATOM     10  C   UNL     1     -23.726  81.695 -22.373  1.00  0.00     0.223 A 
ENDROOT
BRANCH   1  11
ATOM     11  C   UNL     1     -22.678  83.708 -23.488  1.00  0.00     0.091 A 
ATOM     12  C   UNL     1     -21.623  84.424 -22.897  1.00  0.00     0.068 A 
ATOM     13  C   UNL     1     -21.491  85.800 -23.105  1.00  0.00     0.162 A 
ATOM     14  C   UNL     1     -23.581  84.386 -24.319  1.00  0.00     0.068 A 
ATOM     15  C   UNL     1     -22.412  86.479 -23.921  1.00  0.00     0.200 A 
ATOM     16  C   UNL     1     -23.459  85.766 -24.532  1.00  0.00     0.162 A 
BRANCH  13  17
ATOM     17  O   UNL     1     -20.434  86.476 -22.497  1.00  0.00    -0.504 OA
ATOM     18  H   UNL     1     -19.923  87.213 -22.968  1.00  0.00     0.293 HD
ENDBRANCH  13  17
BRANCH  15  19
ATOM     19  O   UNL     1     -22.277  87.853 -24.119  1.00  0.00    -0.502 OA
ATOM     20  H   UNL     1     -22.783  88.348 -24.843  1.00  0.00     0.293 HD
ENDBRANCH  15  19
BRANCH  16  21
ATOM     21  O   UNL     1     -24.371  86.432 -25.350  1.00  0.00    -0.504 OA
ATOM     22  H   UNL     1     -24.461  87.441 -25.332  1.00  0.00     0.293 HD
ENDBRANCH  16  21
ENDBRANCH   1  11
BRANCH  10  23
ATOM     23  O   UNL     1     -24.570  82.512 -21.622  1.00  0.00    -0.500 OA
ATOM     24  H   UNL     1     -25.399  82.936 -22.025  1.00  0.00     0.294 HD
ENDBRANCH  10  23
BRANCH   5  25
ATOM     25  O   UNL     1     -20.481  77.186 -25.524  1.00  0.00    -0.507 OA
ATOM     26  H   UNL     1     -19.616  76.783 -25.180  1.00  0.00     0.293 HD
ENDBRANCH   5  25
BRANCH   7  27
ATOM     27  O   UNL     1     -23.807  77.354 -22.066  1.00  0.00    -0.507 OA
ATOM     28  H   UNL     1     -23.707  76.370 -21.863  1.00  0.00     0.293 HD
ENDBRANCH   7  27
TORSDOF 7
ENDMDL
MODEL 6
REMARK VINA RESULT:    -7.036      1.664      6.940
REMARK INTER + INTRA:          -8.425
REMARK INTER:                  -8.108
REMARK INTRA:                  -0.317
REMARK UNBOUND:                 0.257
REMARK SMILES Oc1cc(O)c2cc(O)c(-c3cc(O)c(O)c(O)c3)[o+]c2c1
REMARK SMILES IDX 10 1 20 2 21 3 22 4 2 5 3 6 4 7 6 8 7 9 8 10 11 11 12 12
REMARK SMILES IDX 13 13 19 14 15 15 17 16 14 17 16 19 18 21 9 23 1 25 5 27
REMARK H PARENT 14 18 16 20 18 22 9 24 1 26 5 28
REMARK Flexibility Score: inf
ROOT
ATOM      1  C   UNL     1     -23.556  85.271 -23.763  1.00  0.00     0.402 A 
ATOM      2  O   UNL     1     -23.125  85.154 -22.510  1.00  0.00    -0.202 OA
ATOM      3  C   UNL     1     -22.708  84.008 -21.985  1.00  0.00     0.368 A 
ATOM      4  C   UNL     1     -22.276  83.985 -20.656  1.00  0.00     0.162 A 
ATOM      5  C   UNL     1     -21.835  82.791 -20.078  1.00  0.00     0.128 A 
ATOM      6  C   UNL     1     -21.826  81.615 -20.832  1.00  0.00     0.093 A 
ATOM      7  C   UNL     1     -22.252  81.612 -22.165  1.00  0.00     0.136 A 
ATOM      8  C   UNL     1     -22.700  82.821 -22.757  1.00  0.00     0.125 A 
ATOM      9  C   UNL     1     -23.133  82.914 -24.090  1.00  0.00     0.078 A 
ATOM     10  C   UNL     1     -23.556  84.144 -24.606  1.00  0.00     0.223 A 
ENDROOT
BRANCH   1  11
ATOM     11  C   UNL     1     -24.006  86.603 -24.228  1.00  0.00     0.091 A 
ATOM     12  C   UNL     1     -23.086  87.619 -24.537  1.00  0.00     0.068 A 
ATOM     13  C   UNL     1     -23.527  88.864 -24.997  1.00  0.00     0.162 A 
ATOM     14  C   UNL     1     -25.375  86.840 -24.420  1.00  0.00     0.068 A 
ATOM     15  C   UNL     1     -24.901  89.105 -25.165  1.00  0.00     0.200 A 
ATOM     16  C   UNL     1     -25.827  88.086 -24.878  1.00  0.00     0.162 A 
BRANCH  13  17
ATOM     17  O   UNL     1     -22.583  89.849 -25.287  1.00  0.00    -0.504 OA
ATOM     18  H   UNL     1     -22.054  90.319 -24.563  1.00  0.00     0.293 HD
ENDBRANCH  13  17
BRANCH  15  19
ATOM     19  O   UNL     1     -25.333  90.350 -25.620  1.00  0.00    -0.502 OA
ATOM     20  H   UNL     1     -26.052  90.881 -25.143  1.00  0.00     0.293 HD
ENDBRANCH  15  19
BRANCH  16  21
ATOM     21  O   UNL     1     -27.191  88.314 -25.052  1.00  0.00    -0.504 OA
ATOM     22  H   UNL     1     -27.885  87.829 -24.495  1.00  0.00     0.293 HD
ENDBRANCH  16  21
ENDBRANCH   1  11
BRANCH  10  23
ATOM     23  O   UNL     1     -23.939  84.247 -25.942  1.00  0.00    -0.500 OA
ATOM     24  H   UNL     1     -24.895  84.083 -26.237  1.00  0.00     0.294 HD
ENDBRANCH  10  23
BRANCH   5  25
ATOM     25  O   UNL     1     -21.403  82.761 -18.753  1.00  0.00    -0.507 OA
ATOM     26  H   UNL     1     -21.597  83.524 -18.115  1.00  0.00     0.293 HD
ENDBRANCH   5  25
BRANCH   7  27
ATOM     27  O   UNL     1     -22.215  80.393 -22.849  1.00  0.00    -0.507 OA
ATOM     28  H   UNL     1     -21.734  80.244 -23.724  1.00  0.00     0.293 HD
ENDBRANCH   7  27
TORSDOF 7
ENDMDL
MODEL 7
REMARK VINA RESULT:    -6.925      6.424      9.655
REMARK INTER + INTRA:          -8.287
REMARK INTER:                  -7.904
REMARK INTRA:                  -0.384
REMARK UNBOUND:                 0.257
REMARK SMILES Oc1cc(O)c2cc(O)c(-c3cc(O)c(O)c(O)c3)[o+]c2c1
REMARK SMILES IDX 10 1 20 2 21 3 22 4 2 5 3 6 4 7 6 8 7 9 8 10 11 11 12 12
REMARK SMILES IDX 13 13 19 14 15 15 17 16 14 17 16 19 18 21 9 23 1 25 5 27
REMARK H PARENT 14 18 16 20 18 22 9 24 1 26 5 28
REMARK Flexibility Score: inf
ROOT
ATOM      1  C   UNL     1     -24.136  91.526 -29.873  1.00  0.00     0.402 A 
ATOM      2  O   UNL     1     -24.624  92.526 -29.142  1.00  0.00    -0.202 OA
ATOM      3  C   UNL     1     -24.492  93.805 -29.474  1.00  0.00     0.368 A 
ATOM      4  C   UNL     1     -25.038  94.785 -28.639  1.00  0.00     0.162 A 
ATOM      5  C   UNL     1     -24.910  96.138 -28.963  1.00  0.00     0.128 A 
ATOM      6  C   UNL     1     -24.232  96.514 -30.125  1.00  0.00     0.093 A 
ATOM      7  C   UNL     1     -23.677  95.553 -30.978  1.00  0.00     0.136 A 
ATOM      8  C   UNL     1     -23.805  94.177 -30.655  1.00  0.00     0.125 A 
ATOM      9  C   UNL     1     -23.292  93.144 -31.457  1.00  0.00     0.078 A 
ATOM     10  C   UNL     1     -23.462  91.810 -31.076  1.00  0.00     0.223 A 
ENDROOT
BRANCH   1  11
ATOM     11  C   UNL     1     -24.341  90.141 -29.391  1.00  0.00     0.091 A 
ATOM     12  C   UNL     1     -23.358  89.476 -28.639  1.00  0.00     0.068 A 
ATOM     13  C   UNL     1     -23.577  88.175 -28.172  1.00  0.00     0.162 A 
ATOM     14  C   UNL     1     -25.561  89.497 -29.642  1.00  0.00     0.068 A 
ATOM     15  C   UNL     1     -24.793  87.526 -28.446  1.00  0.00     0.200 A 
ATOM     16  C   UNL     1     -25.789  88.193 -29.181  1.00  0.00     0.162 A 
BRANCH  13  17
ATOM     17  O   UNL     1     -22.576  87.546 -27.433  1.00  0.00    -0.504 OA
ATOM     18  H   UNL     1     -22.785  86.944 -26.646  1.00  0.00     0.293 HD
ENDBRANCH  13  17
BRANCH  15  19
ATOM     19  O   UNL     1     -25.002  86.227 -27.982  1.00  0.00    -0.502 OA
ATOM     20  H   UNL     1     -24.717  85.932 -27.056  1.00  0.00     0.293 HD
ENDBRANCH  15  19
BRANCH  16  21
ATOM     21  O   UNL     1     -27.001  87.559 -29.449  1.00  0.00    -0.504 OA
ATOM     22  H   UNL     1     -27.094  86.888 -30.203  1.00  0.00     0.293 HD
ENDBRANCH  16  21
ENDBRANCH   1  11
BRANCH  10  23
ATOM     23  O   UNL     1     -22.997  90.783 -31.896  1.00  0.00    -0.500 OA
ATOM     24  H   UNL     1     -22.031  90.743 -32.204  1.00  0.00     0.294 HD
ENDBRANCH  10  23
BRANCH   5  25
ATOM     25  O   UNL     1     -25.452  97.120 -28.136  1.00  0.00    -0.507 OA
ATOM     26  H   UNL     1     -25.684  96.928 -27.168  1.00  0.00     0.293 HD
ENDBRANCH   5  25
BRANCH   7  27
ATOM     27  O   UNL     1     -23.012  96.012 -32.119  1.00  0.00    -0.507 OA
ATOM     28  H   UNL     1     -23.461  96.488 -32.888  1.00  0.00     0.293 HD
ENDBRANCH   7  27
TORSDOF 7
ENDMDL
MODEL 8
REMARK VINA RESULT:    -6.844      6.614      9.512
REMARK INTER + INTRA:          -8.187
REMARK INTER:                  -7.886
REMARK INTRA:                  -0.302
REMARK UNBOUND:                 0.257
REMARK SMILES Oc1cc(O)c2cc(O)c(-c3cc(O)c(O)c(O)c3)[o+]c2c1
REMARK SMILES IDX 10 1 20 2 21 3 22 4 2 5 3 6 4 7 6 8 7 9 8 10 11 11 12 12
REMARK SMILES IDX 13 13 19 14 15 15 17 16 14 17 16 19 18 21 9 23 1 25 5 27
REMARK H PARENT 14 18 16 20 18 22 9 24 1 26 5 28
REMARK Flexibility Score: inf
ROOT
ATOM      1  C   UNL     1     -25.030  91.944 -28.528  1.00  0.00     0.402 A 
ATOM      2  O   UNL     1     -24.429  92.515 -29.569  1.00  0.00    -0.202 OA
ATOM      3  C   UNL     1     -24.372  93.829 -29.749  1.00  0.00     0.368 A 
ATOM      4  C   UNL     1     -23.720  94.334 -30.878  1.00  0.00     0.162 A 
ATOM      5  C   UNL     1     -23.647  95.713 -31.092  1.00  0.00     0.128 A 
ATOM      6  C   UNL     1     -24.229  96.591 -30.176  1.00  0.00     0.093 A 
ATOM      7  C   UNL     1     -24.888  96.111 -29.037  1.00  0.00     0.136 A 
ATOM      8  C   UNL     1     -24.963  94.713 -28.813  1.00  0.00     0.125 A 
ATOM      9  C   UNL     1     -25.591  94.142 -27.693  1.00  0.00     0.078 A 
ATOM     10  C   UNL     1     -25.620  92.753 -27.538  1.00  0.00     0.223 A 
ENDROOT
BRANCH   1  11
ATOM     11  C   UNL     1     -25.036  90.466 -28.445  1.00  0.00     0.091 A 
ATOM     12  C   UNL     1     -26.220  89.729 -28.612  1.00  0.00     0.068 A 
ATOM     13  C   UNL     1     -26.204  88.331 -28.554  1.00  0.00     0.162 A 
ATOM     14  C   UNL     1     -23.827  89.782 -28.252  1.00  0.00     0.068 A 
ATOM     15  C   UNL     1     -24.993  87.651 -28.337  1.00  0.00     0.200 A 
ATOM     16  C   UNL     1     -23.801  88.381 -28.189  1.00  0.00     0.162 A 
BRANCH  13  17
ATOM     17  O   UNL     1     -27.401  87.635 -28.719  1.00  0.00    -0.504 OA
ATOM     18  H   UNL     1     -28.148  87.979 -29.310  1.00  0.00     0.293 HD
ENDBRANCH  13  17
BRANCH  15  19
ATOM     19  O   UNL     1     -24.986  86.258 -28.275  1.00  0.00    -0.502 OA
ATOM     20  H   UNL     1     -24.372  85.747 -27.653  1.00  0.00     0.293 HD
ENDBRANCH  15  19
BRANCH  16  21
ATOM     21  O   UNL     1     -22.595  87.713 -27.983  1.00  0.00    -0.504 OA
ATOM     22  H   UNL     1     -22.478  87.052 -27.223  1.00  0.00     0.293 HD
ENDBRANCH  16  21
ENDBRANCH   1  11
BRANCH  10  23
ATOM     23  O   UNL     1     -26.200  92.188 -26.402  1.00  0.00    -0.500 OA
ATOM     24  H   UNL     1     -26.394  91.195 -26.341  1.00  0.00     0.294 HD
ENDBRANCH  10  23
BRANCH   5  25
ATOM     25  O   UNL     1     -22.999  96.223 -32.216  1.00  0.00    -0.507 OA
ATOM     26  H   UNL     1     -22.005  96.086 -32.362  1.00  0.00     0.293 HD
ENDBRANCH   5  25
BRANCH   7  27
ATOM     27  O   UNL     1     -25.447  97.056 -28.171  1.00  0.00    -0.507 OA
ATOM     28  H   UNL     1     -25.640  98.015 -28.422  1.00  0.00     0.293 HD
ENDBRANCH   7  27
TORSDOF 7
ENDMDL
MODEL 9
REMARK VINA RESULT:    -6.739      4.893      8.260
REMARK INTER + INTRA:          -8.058
REMARK INTER:                  -7.680
REMARK INTRA:                  -0.378
REMARK UNBOUND:                 0.257
REMARK SMILES Oc1cc(O)c2cc(O)c(-c3cc(O)c(O)c(O)c3)[o+]c2c1
REMARK SMILES IDX 10 1 20 2 21 3 22 4 2 5 3 6 4 7 6 8 7 9 8 10 11 11 12 12
REMARK SMILES IDX 13 13 19 14 15 15 17 16 14 17 16 19 18 21 9 23 1 25 5 27
REMARK H PARENT 14 18 16 20 18 22 9 24 1 26 5 28
REMARK Flexibility Score: inf
ROOT
ATOM      1  C   UNL     1     -24.105  91.292 -28.182  1.00  0.00     0.402 A 
ATOM      2  O   UNL     1     -24.554  92.489 -27.813  1.00  0.00    -0.202 OA
ATOM      3  C   UNL     1     -24.530  93.554 -28.606  1.00  0.00     0.368 A 
ATOM      4  C   UNL     1     -25.022  94.772 -28.127  1.00  0.00     0.162 A 
ATOM      5  C   UNL     1     -25.006  95.908 -28.940  1.00  0.00     0.128 A 
ATOM      6  C   UNL     1     -24.496  95.828 -30.237  1.00  0.00     0.093 A 
ATOM      7  C   UNL     1     -23.998  94.621 -30.742  1.00  0.00     0.136 A 
ATOM      8  C   UNL     1     -24.013  93.463 -29.922  1.00  0.00     0.125 A 
ATOM      9  C   UNL     1     -23.547  92.208 -30.348  1.00  0.00     0.078 A 
ATOM     10  C   UNL     1     -23.599  91.111 -29.483  1.00  0.00     0.223 A 
ENDROOT
BRANCH   1  11
ATOM     11  C   UNL     1     -24.177  90.184 -27.202  1.00  0.00     0.091 A 
ATOM     12  C   UNL     1     -23.062  89.819 -26.428  1.00  0.00     0.068 A 
ATOM     13  C   UNL     1     -23.152  88.785 -25.491  1.00  0.00     0.162 A 
ATOM     14  C   UNL     1     -25.395  89.520 -27.000  1.00  0.00     0.068 A 
ATOM     15  C   UNL     1     -24.370  88.107 -25.308  1.00  0.00     0.200 A 
ATOM     16  C   UNL     1     -25.495  88.481 -26.064  1.00  0.00     0.162 A 
BRANCH  13  17
ATOM     17  O   UNL     1     -22.023  88.449 -24.746  1.00  0.00    -0.504 OA
ATOM     18  H   UNL     1     -22.067  88.274 -23.749  1.00  0.00     0.293 HD
ENDBRANCH  13  17
BRANCH  15  19
ATOM     19  O   UNL     1     -24.452  87.074 -24.375  1.00  0.00    -0.502 OA
ATOM     20  H   UNL     1     -24.554  87.249 -23.382  1.00  0.00     0.293 HD
ENDBRANCH  15  19
BRANCH  16  21
ATOM     21  O   UNL     1     -26.709  87.819 -25.882  1.00  0.00    -0.504 OA
ATOM     22  H   UNL     1     -27.263  87.500 -26.668  1.00  0.00     0.293 HD
ENDBRANCH  16  21
ENDBRANCH   1  11
BRANCH  10  23
ATOM     23  O   UNL     1     -23.183  89.854 -29.922  1.00  0.00    -0.500 OA
ATOM     24  H   UNL     1     -22.201  89.622 -30.020  1.00  0.00     0.294 HD
ENDBRANCH  10  23
BRANCH   5  25
ATOM     25  O   UNL     1     -25.495  97.125 -28.468  1.00  0.00    -0.507 OA
ATOM     26  H   UNL     1     -25.019  97.638 -27.733  1.00  0.00     0.293 HD
ENDBRANCH   5  25
BRANCH   7  27
ATOM     27  O   UNL     1     -23.502  94.626 -32.049  1.00  0.00    -0.507 OA
ATOM     28  H   UNL     1     -23.316  93.794 -32.592  1.00  0.00     0.293 HD
ENDBRANCH   7  27
TORSDOF 7
ENDMDL
