MODEL 1
REMARK VINA RESULT:    -6.676      0.000      0.000
REMARK INTER + INTRA:          -8.754
REMARK INTER:                  -8.237
REMARK INTRA:                  -0.517
REMARK UNBOUND:                -0.517
REMARK SMILES CC(C)=CCC[C@@H](C)c1ccc(C)cc1
REMARK SMILES IDX 6 1 7 2 8 3 9 4 13 5 12 6 11 7 14 8 10 9 15 10 5 11 4 12
REMARK SMILES IDX 2 13 1 14 3 15
REMARK H PARENT
REMARK Flexibility Score: inf
ROOT
ATOM      1  C   UNL     1      93.422 100.094  98.439  1.00  0.00     0.012 C 
ENDROOT
BRANCH   1   2
ATOM      2  C   UNL     1      93.990  98.688  98.739  1.00  0.00     0.016 C 
ATOM      3  C   UNL     1      92.956  97.773  99.412  1.00  0.00     0.013 C 
BRANCH   2   4
ATOM      4  C   UNL     1      94.514  98.047  97.466  1.00  0.00    -0.045 A 
ATOM      5  C   UNL     1      96.021  96.176  93.876  1.00  0.00     0.044 C 
ATOM      6  C   UNL     1      95.476  96.838  95.106  1.00  0.00    -0.051 A 
ATOM      7  C   UNL     1      94.557  96.164  95.924  1.00  0.00     0.004 A 
ATOM      8  C   UNL     1      95.932  98.108  95.486  1.00  0.00     0.004 A 
ATOM      9  C   UNL     1      94.076  96.765  97.090  1.00  0.00     0.004 A 
ATOM     10  C   UNL     1      95.452  98.711  96.653  1.00  0.00     0.004 A 
ENDBRANCH   2   4
ENDBRANCH   1   2
BRANCH   1  11
ATOM     11  C   UNL     1      92.887 100.796  99.696  1.00  0.00     0.028 C 
BRANCH  11  12
ATOM     12  C   UNL     1      93.542 102.143  99.873  1.00  0.00    -0.028 C 
ATOM     13  C   UNL     1      94.073 102.587 101.035  1.00  0.00    -0.080 C 
ATOM     14  C   UNL     1      94.733 103.942 101.051  1.00  0.00     0.039 C 
ATOM     15  C   UNL     1      94.007 101.776 102.307  1.00  0.00     0.039 C 
ENDBRANCH  11  12
ENDBRANCH   1  11
TORSDOF 4
ENDMDL
MODEL 2
REMARK VINA RESULT:    -6.222      1.116      1.646
REMARK INTER + INTRA:          -8.195
REMARK INTER:                  -7.698
REMARK INTRA:                  -0.497
REMARK UNBOUND:                -0.517
REMARK SMILES CC(C)=CCC[C@@H](C)c1ccc(C)cc1
REMARK SMILES IDX 6 1 7 2 8 3 9 4 13 5 12 6 11 7 14 8 10 9 15 10 5 11 4 12
REMARK SMILES IDX 2 13 1 14 3 15
REMARK H PARENT
REMARK Flexibility Score: inf
ROOT
ATOM      1  C   UNL     1      94.627  99.223  98.968  1.00  0.00     0.012 C 
ENDROOT
BRANCH   1   2
ATOM      2  C   UNL     1      93.870  98.554  97.798  1.00  0.00     0.016 C 
ATOM      3  C   UNL     1      92.876  99.511  97.124  1.00  0.00     0.013 C 
BRANCH   2   4
ATOM      4  C   UNL     1      94.852  98.005  96.779  1.00  0.00    -0.045 A 
ATOM      5  C   UNL     1      97.669  96.409  93.920  1.00  0.00     0.044 C 
ATOM      6  C   UNL     1      96.671  96.966  94.891  1.00  0.00    -0.051 A 
ATOM      7  C   UNL     1      95.851  96.104  95.634  1.00  0.00     0.004 A 
ATOM      8  C   UNL     1      96.597  98.347  95.114  1.00  0.00     0.004 A 
ATOM      9  C   UNL     1      94.945  96.619  96.566  1.00  0.00     0.004 A 
ATOM     10  C   UNL     1      95.692  98.865  96.045  1.00  0.00     0.004 A 
ENDBRANCH   2   4
ENDBRANCH   1   2
BRANCH   1  11
ATOM     11  C   UNL     1      94.016 100.573  99.373  1.00  0.00     0.028 C 
BRANCH  11  12
ATOM     12  C   UNL     1      93.756 100.617 100.857  1.00  0.00    -0.028 C 
ATOM     13  C   UNL     1      93.826 101.736 101.613  1.00  0.00    -0.080 C 
ATOM     14  C   UNL     1      93.498 101.633 103.081  1.00  0.00     0.039 C 
ATOM     15  C   UNL     1      94.235 103.069 101.033  1.00  0.00     0.039 C 
ENDBRANCH  11  12
ENDBRANCH   1  11
TORSDOF 4
ENDMDL
MODEL 3
REMARK VINA RESULT:    -6.134      1.174      6.799
REMARK INTER + INTRA:          -8.086
REMARK INTER:                  -7.528
REMARK INTRA:                  -0.558
REMARK UNBOUND:                -0.517
REMARK SMILES CC(C)=CCC[C@@H](C)c1ccc(C)cc1
REMARK SMILES IDX 6 1 7 2 8 3 9 4 13 5 12 6 11 7 14 8 10 9 15 10 5 11 4 12
REMARK SMILES IDX 2 13 1 14 3 15
REMARK H PARENT
REMARK Flexibility Score: inf
ROOT
ATOM      1  C   UNL     1      95.166  98.922  97.081  1.00  0.00     0.012 C 
ENDROOT
BRANCH   1   2
ATOM      2  C   UNL     1      93.789  98.830  97.776  1.00  0.00     0.016 C 
ATOM      3  C   UNL     1      93.441  97.393  98.194  1.00  0.00     0.013 C 
BRANCH   2   4
ATOM      4  C   UNL     1      93.741  99.757  98.978  1.00  0.00    -0.045 A 
ATOM      5  C   UNL     1      93.621 102.441 102.360  1.00  0.00     0.044 C 
ATOM      6  C   UNL     1      93.640 101.493 101.198  1.00  0.00    -0.051 A 
ATOM      7  C   UNL     1      92.888 101.771 100.047  1.00  0.00     0.004 A 
ATOM      8  C   UNL     1      94.463 100.359 101.225  1.00  0.00     0.004 A 
ATOM      9  C   UNL     1      92.934 100.908  98.949  1.00  0.00     0.004 A 
ATOM     10  C   UNL     1      94.510  99.495 100.128  1.00  0.00     0.004 A 
ENDBRANCH   2   4
ENDBRANCH   1   2
BRANCH   1  11
ATOM     11  C   UNL     1      95.077  98.712  95.562  1.00  0.00     0.028 C 
BRANCH  11  12
ATOM     12  C   UNL     1      96.322  98.038  95.043  1.00  0.00    -0.028 C 
ATOM     13  C   UNL     1      96.343  96.823  94.449  1.00  0.00    -0.080 C 
ATOM     14  C   UNL     1      97.659  96.294  93.942  1.00  0.00     0.039 C 
ATOM     15  C   UNL     1      95.095  95.986  94.295  1.00  0.00     0.039 C 
ENDBRANCH  11  12
ENDBRANCH   1  11
TORSDOF 4
ENDMDL
MODEL 4
REMARK VINA RESULT:    -4.458      1.237      6.800
REMARK INTER + INTRA:          -6.017
REMARK INTER:                  -5.523
REMARK INTRA:                  -0.494
REMARK UNBOUND:                -0.517
REMARK SMILES CC(C)=CCC[C@@H](C)c1ccc(C)cc1
REMARK SMILES IDX 6 1 7 2 8 3 9 4 13 5 12 6 11 7 14 8 10 9 15 10 5 11 4 12
REMARK SMILES IDX 2 13 1 14 3 15
REMARK H PARENT
REMARK Flexibility Score: inf
ROOT
ATOM      1  C   UNL     1      95.010  98.766  97.109  1.00  0.00     0.012 C 
ENDROOT
BRANCH   1   2
ATOM      2  C   UNL     1      93.593  98.924  97.705  1.00  0.00     0.016 C 
ATOM      3  C   UNL     1      92.949  97.571  98.044  1.00  0.00     0.013 C 
BRANCH   2   4
ATOM      4  C   UNL     1      93.633  99.814  98.934  1.00  0.00    -0.045 A 
ATOM      5  C   UNL     1      93.730 102.299 102.466  1.00  0.00     0.044 C 
ATOM      6  C   UNL     1      93.719 101.453 101.228  1.00  0.00    -0.051 A 
ATOM      7  C   UNL     1      94.459 100.262 101.179  1.00  0.00     0.004 A 
ATOM      8  C   UNL     1      92.915 101.808 100.136  1.00  0.00     0.004 A 
ATOM      9  C   UNL     1      94.421  99.453 100.041  1.00  0.00     0.004 A 
ATOM     10  C   UNL     1      92.875 100.999  98.997  1.00  0.00     0.004 A 
ENDBRANCH   2   4
ENDBRANCH   1   2
BRANCH   1  11
ATOM     11  C   UNL     1      94.994  98.597  95.582  1.00  0.00     0.028 C 
BRANCH  11  12
ATOM     12  C   UNL     1      96.279  97.970  95.103  1.00  0.00    -0.028 C 
ATOM     13  C   UNL     1      96.348  96.852  94.345  1.00  0.00    -0.080 C 
ATOM     14  C   UNL     1      97.705  96.365  93.906  1.00  0.00     0.039 C 
ATOM     15  C   UNL     1      95.114  96.079  93.946  1.00  0.00     0.039 C 
ENDBRANCH  11  12
ENDBRANCH   1  11
TORSDOF 4
ENDMDL
MODEL 5
REMARK VINA RESULT:    -4.107     21.279     24.184
REMARK INTER + INTRA:          -5.584
REMARK INTER:                  -4.502
REMARK INTRA:                  -1.082
REMARK UNBOUND:                -0.517
REMARK SMILES CC(C)=CCC[C@@H](C)c1ccc(C)cc1
REMARK SMILES IDX 6 1 7 2 8 3 9 4 13 5 12 6 11 7 14 8 10 9 15 10 5 11 4 12
REMARK SMILES IDX 2 13 1 14 3 15
REMARK H PARENT
REMARK Flexibility Score: inf
ROOT
ATOM      1  C   UNL     1     113.125 110.114 112.725  1.00  0.00     0.012 C 
ENDROOT
BRANCH   1   2
ATOM      2  C   UNL     1     112.356 110.901 111.640  1.00  0.00     0.016 C 
ATOM      3  C   UNL     1     113.066 112.209 111.257  1.00  0.00     0.013 C 
BRANCH   2   4
ATOM      4  C   UNL     1     112.141 110.036 110.412  1.00  0.00    -0.045 A 
ATOM      5  C   UNL     1     111.514 107.623 106.885  1.00  0.00     0.044 C 
ATOM      6  C   UNL     1     111.753 108.441 108.118  1.00  0.00    -0.051 A 
ATOM      7  C   UNL     1     112.647 109.521 108.088  1.00  0.00     0.004 A 
ATOM      8  C   UNL     1     111.034 108.177 109.292  1.00  0.00     0.004 A 
ATOM      9  C   UNL     1     112.843 110.309 109.226  1.00  0.00     0.004 A 
ATOM     10  C   UNL     1     111.228 108.963 110.431  1.00  0.00     0.004 A 
ENDBRANCH   2   4
ENDBRANCH   1   2
BRANCH   1  11
ATOM     11  C   UNL     1     112.328 109.973 114.031  1.00  0.00     0.028 C 
BRANCH  11  12
ATOM     12  C   UNL     1     111.696 108.607 114.125  1.00  0.00    -0.028 C 
ATOM     13  C   UNL     1     110.375 108.363 113.970  1.00  0.00    -0.080 C 
ATOM     14  C   UNL     1     109.893 106.937 114.050  1.00  0.00     0.039 C 
ATOM     15  C   UNL     1     109.378 109.474 113.736  1.00  0.00     0.039 C 
ENDBRANCH  11  12
ENDBRANCH   1  11
TORSDOF 4
ENDMDL
