MODEL 1
REMARK VINA RESULT:    -7.064      0.000      0.000
REMARK INTER + INTRA:          -7.064
REMARK INTER:                  -7.064
REMARK INTRA:                   0.000
REMARK UNBOUND:                 0.000
REMARK SMILES C[NH+]1CCN(C2=[NH+]c3ccccc3Oc3ccc(Cl)cc32)CC1
REMARK SMILES IDX 7 1 6 2 21 3 5 4 8 5 9 6 13 7 10 8 12 9 14 10 11 11 15 12
REMARK SMILES IDX 16 13 17 14 18 15 20 16 19 17 4 18 22 19 3 20 23 21 2 22
REMARK SMILES IDX 1 23
REMARK H PARENT 7 24 2 25
REMARK Flexibility Score: inf
ROOT
ATOM      1  N   UNL     1     125.172 113.902 115.172  1.00  0.00    -0.237 N 
ATOM      2  C   UNL     1     125.590 113.478 114.007  1.00  0.00     0.286 C 
ATOM      3  C   UNL     1     124.679 113.043 112.916  1.00  0.00     0.108 A 
ATOM      4  N   UNL     1     127.009 113.376 113.772  1.00  0.00    -0.250 N 
ATOM      5  C   UNL     1     123.814 114.037 115.621  1.00  0.00     0.168 A 
ATOM      6  C   UNL     1     123.544 113.844 116.988  1.00  0.00     0.056 A 
ATOM      7  C   UNL     1     122.791 114.538 114.789  1.00  0.00     0.173 A 
ATOM      8  C   UNL     1     122.284 114.132 117.516  1.00  0.00     0.005 A 
ATOM      9  C   UNL     1     121.541 114.857 115.335  1.00  0.00     0.052 A 
ATOM     10  O   UNL     1     122.971 114.728 113.423  1.00  0.00    -0.452 OA
ATOM     11  C   UNL     1     121.284 114.647 116.691  1.00  0.00     0.004 A 
ATOM     12  C   UNL     1     123.493 113.735 112.599  1.00  0.00     0.143 A 
ATOM     13  C   UNL     1     122.792 113.423 111.428  1.00  0.00     0.049 A 
ATOM     14  C   UNL     1     123.226 112.393 110.593  1.00  0.00     0.024 A 
ATOM     15  C   UNL     1     124.374 111.671 110.920  1.00  0.00     0.042 A 
ATOM     16  C   UNL     1     125.100 111.997 112.068  1.00  0.00     0.041 A 
ATOM     17  Cl  UNL     1     124.923 110.374 109.875  1.00  0.00    -0.084 Cl
ATOM     18  C   UNL     1     127.884 112.735 114.755  1.00  0.00     0.298 C 
ATOM     19  C   UNL     1     127.625 114.155 112.696  1.00  0.00     0.298 C 
ATOM     20  C   UNL     1     128.991 111.951 114.036  1.00  0.00     0.308 C 
ATOM     21  C   UNL     1     128.740 113.338 112.029  1.00  0.00     0.308 C 
ATOM     22  N   UNL     1     129.688 112.757 113.007  1.00  0.00    -0.331 N 
ATOM     23  C   UNL     1     130.573 113.777 113.601  1.00  0.00     0.332 C 
ATOM     24  H   UNL     1     125.901 114.139 115.884  1.00  0.00     0.312 HD
ATOM     25  H   UNL     1     130.308 112.100 112.475  1.00  0.00     0.348 HD
ENDROOT
TORSDOF 0
ENDMDL
MODEL 2
REMARK VINA RESULT:    -6.872      3.555      5.427
REMARK INTER + INTRA:          -6.872
REMARK INTER:                  -6.872
REMARK INTRA:                   0.000
REMARK UNBOUND:                 0.000
REMARK SMILES C[NH+]1CCN(C2=[NH+]c3ccccc3Oc3ccc(Cl)cc32)CC1
REMARK SMILES IDX 7 1 6 2 21 3 5 4 8 5 9 6 13 7 10 8 12 9 14 10 11 11 15 12
REMARK SMILES IDX 16 13 17 14 18 15 20 16 19 17 4 18 22 19 3 20 23 21 2 22
REMARK SMILES IDX 1 23
REMARK H PARENT 7 24 2 25
REMARK Flexibility Score: inf
ROOT
ATOM      1  N   UNL     1     126.560 113.214 112.767  1.00  0.00    -0.237 N 
ATOM      2  C   UNL     1     127.796 113.033 113.155  1.00  0.00     0.286 C 
ATOM      3  C   UNL     1     128.613 111.851 112.773  1.00  0.00     0.108 A 
ATOM      4  N   UNL     1     128.396 114.001 114.039  1.00  0.00    -0.250 N 
ATOM      5  C   UNL     1     125.770 112.356 111.928  1.00  0.00     0.168 A 
ATOM      6  C   UNL     1     124.381 112.309 112.147  1.00  0.00     0.056 A 
ATOM      7  C   UNL     1     126.301 111.719 110.787  1.00  0.00     0.173 A 
ATOM      8  C   UNL     1     123.539 111.636 111.259  1.00  0.00     0.005 A 
ATOM      9  C   UNL     1     125.444 111.077 109.883  1.00  0.00     0.052 A 
ATOM     10  O   UNL     1     127.665 111.696 110.517  1.00  0.00    -0.452 OA
ATOM     11  C   UNL     1     124.069 111.027 110.123  1.00  0.00     0.004 A 
ATOM     12  C   UNL     1     128.603 111.313 111.471  1.00  0.00     0.143 A 
ATOM     13  C   UNL     1     129.551 110.350 111.104  1.00  0.00     0.049 A 
ATOM     14  C   UNL     1     130.477 109.875 112.033  1.00  0.00     0.024 A 
ATOM     15  C   UNL     1     130.467 110.368 113.339  1.00  0.00     0.042 A 
ATOM     16  C   UNL     1     129.548 111.354 113.704  1.00  0.00     0.041 A 
ATOM     17  Cl  UNL     1     131.627 109.772 114.512  1.00  0.00    -0.084 Cl
ATOM     18  C   UNL     1     127.682 114.470 115.227  1.00  0.00     0.298 C 
ATOM     19  C   UNL     1     129.591 114.732 113.614  1.00  0.00     0.298 C 
ATOM     20  C   UNL     1     128.671 114.681 116.383  1.00  0.00     0.308 C 
ATOM     21  C   UNL     1     130.533 114.940 114.807  1.00  0.00     0.308 C 
ATOM     22  N   UNL     1     129.841 115.500 115.991  1.00  0.00    -0.331 N 
ATOM     23  C   UNL     1     129.495 116.923 115.814  1.00  0.00     0.332 C 
ATOM     24  H   UNL     1     126.063 114.058 113.132  1.00  0.00     0.312 HD
ATOM     25  H   UNL     1     130.521 115.458 116.788  1.00  0.00     0.348 HD
ENDROOT
TORSDOF 0
ENDMDL
MODEL 3
REMARK VINA RESULT:    -6.410      5.832      8.953
REMARK INTER + INTRA:          -6.410
REMARK INTER:                  -6.410
REMARK INTRA:                   0.000
REMARK UNBOUND:                 0.000
REMARK SMILES C[NH+]1CCN(C2=[NH+]c3ccccc3Oc3ccc(Cl)cc32)CC1
REMARK SMILES IDX 7 1 6 2 21 3 5 4 8 5 9 6 13 7 10 8 12 9 14 10 11 11 15 12
REMARK SMILES IDX 16 13 17 14 18 15 20 16 19 17 4 18 22 19 3 20 23 21 2 22
REMARK SMILES IDX 1 23
REMARK H PARENT 7 24 2 25
REMARK Flexibility Score: inf
ROOT
ATOM      1  N   UNL     1     124.832 114.590 120.499  1.00  0.00    -0.237 N 
ATOM      2  C   UNL     1     123.718 115.124 120.070  1.00  0.00     0.286 C 
ATOM      3  C   UNL     1     122.729 115.790 120.959  1.00  0.00     0.108 A 
ATOM      4  N   UNL     1     123.395 115.028 118.668  1.00  0.00    -0.250 N 
ATOM      5  C   UNL     1     125.317 114.541 121.851  1.00  0.00     0.168 A 
ATOM      6  C   UNL     1     126.095 113.434 122.236  1.00  0.00     0.056 A 
ATOM      7  C   UNL     1     125.207 115.636 122.733  1.00  0.00     0.173 A 
ATOM      8  C   UNL     1     126.741 113.409 123.475  1.00  0.00     0.005 A 
ATOM      9  C   UNL     1     125.888 115.617 123.958  1.00  0.00     0.052 A 
ATOM     10  O   UNL     1     124.433 116.753 122.436  1.00  0.00    -0.452 OA
ATOM     11  C   UNL     1     126.644 114.505 124.332  1.00  0.00     0.004 A 
ATOM     12  C   UNL     1     123.113 116.648 122.009  1.00  0.00     0.143 A 
ATOM     13  C   UNL     1     122.150 117.422 122.668  1.00  0.00     0.049 A 
ATOM     14  C   UNL     1     120.801 117.314 122.332  1.00  0.00     0.024 A 
ATOM     15  C   UNL     1     120.403 116.434 121.325  1.00  0.00     0.042 A 
ATOM     16  C   UNL     1     121.360 115.683 120.638  1.00  0.00     0.041 A 
ATOM     17  Cl  UNL     1     118.707 116.292 120.900  1.00  0.00    -0.084 Cl
ATOM     18  C   UNL     1     123.510 113.751 117.962  1.00  0.00     0.298 C 
ATOM     19  C   UNL     1     123.225 116.246 117.876  1.00  0.00     0.298 C 
ATOM     20  C   UNL     1     122.377 113.617 116.935  1.00  0.00     0.308 C 
ATOM     21  C   UNL     1     122.101 116.053 116.848  1.00  0.00     0.308 C 
ATOM     22  N   UNL     1     122.254 114.807 116.062  1.00  0.00    -0.331 N 
ATOM     23  C   UNL     1     123.352 114.898 115.080  1.00  0.00     0.332 C 
ATOM     24  H   UNL     1     125.433 114.106 119.793  1.00  0.00     0.312 HD
ATOM     25  H   UNL     1     121.372 114.688 115.508  1.00  0.00     0.348 HD
ENDROOT
TORSDOF 0
ENDMDL
MODEL 4
REMARK VINA RESULT:    -6.256      3.270      5.093
REMARK INTER + INTRA:          -6.256
REMARK INTER:                  -6.256
REMARK INTRA:                   0.000
REMARK UNBOUND:                 0.000
REMARK SMILES C[NH+]1CCN(C2=[NH+]c3ccccc3Oc3ccc(Cl)cc32)CC1
REMARK SMILES IDX 7 1 6 2 21 3 5 4 8 5 9 6 13 7 10 8 12 9 14 10 11 11 15 12
REMARK SMILES IDX 16 13 17 14 18 15 20 16 19 17 4 18 22 19 3 20 23 21 2 22
REMARK SMILES IDX 1 23
REMARK H PARENT 7 24 2 25
REMARK Flexibility Score: inf
ROOT
ATOM      1  N   UNL     1     127.031 114.135 115.123  1.00  0.00    -0.237 N 
ATOM      2  C   UNL     1     128.259 113.695 115.227  1.00  0.00     0.286 C 
ATOM      3  C   UNL     1     128.772 112.509 114.492  1.00  0.00     0.108 A 
ATOM      4  N   UNL     1     129.160 114.358 116.136  1.00  0.00    -0.250 N 
ATOM      5  C   UNL     1     125.973 113.597 114.313  1.00  0.00     0.168 A 
ATOM      6  C   UNL     1     124.652 113.714 114.783  1.00  0.00     0.056 A 
ATOM      7  C   UNL     1     126.188 113.138 112.996  1.00  0.00     0.173 A 
ATOM      8  C   UNL     1     123.570 113.372 113.970  1.00  0.00     0.005 A 
ATOM      9  C   UNL     1     125.094 112.833 112.176  1.00  0.00     0.052 A 
ATOM     10  O   UNL     1     127.464 112.968 112.469  1.00  0.00    -0.452 OA
ATOM     11  C   UNL     1     123.791 112.940 112.663  1.00  0.00     0.004 A 
ATOM     12  C   UNL     1     128.456 112.260 113.141  1.00  0.00     0.143 A 
ATOM     13  C   UNL     1     129.140 111.264 112.435  1.00  0.00     0.049 A 
ATOM     14  C   UNL     1     130.098 110.473 113.069  1.00  0.00     0.024 A 
ATOM     15  C   UNL     1     130.388 110.681 114.418  1.00  0.00     0.042 A 
ATOM     16  C   UNL     1     129.736 111.696 115.123  1.00  0.00     0.041 A 
ATOM     17  Cl  UNL     1     131.591 109.689 115.221  1.00  0.00    -0.084 Cl
ATOM     18  C   UNL     1     128.743 114.672 117.504  1.00  0.00     0.298 C 
ATOM     19  C   UNL     1     130.385 114.974 115.625  1.00  0.00     0.298 C 
ATOM     20  C   UNL     1     129.925 114.490 118.466  1.00  0.00     0.308 C 
ATOM     21  C   UNL     1     131.528 114.787 116.632  1.00  0.00     0.308 C 
ATOM     22  N   UNL     1     131.149 115.187 118.007  1.00  0.00    -0.331 N 
ATOM     23  C   UNL     1     131.046 116.652 118.155  1.00  0.00     0.332 C 
ATOM     24  H   UNL     1     126.763 114.950 115.720  1.00  0.00     0.312 HD
ATOM     25  H   UNL     1     131.928 114.881 118.638  1.00  0.00     0.348 HD
ENDROOT
TORSDOF 0
ENDMDL
MODEL 5
REMARK VINA RESULT:    -6.232     10.459     13.003
REMARK INTER + INTRA:          -6.232
REMARK INTER:                  -6.232
REMARK INTRA:                   0.000
REMARK UNBOUND:                 0.000
REMARK SMILES C[NH+]1CCN(C2=[NH+]c3ccccc3Oc3ccc(Cl)cc32)CC1
REMARK SMILES IDX 7 1 6 2 21 3 5 4 8 5 9 6 13 7 10 8 12 9 14 10 11 11 15 12
REMARK SMILES IDX 16 13 17 14 18 15 20 16 19 17 4 18 22 19 3 20 23 21 2 22
REMARK SMILES IDX 1 23
REMARK H PARENT 7 24 2 25
REMARK Flexibility Score: inf
ROOT
ATOM      1  N   UNL     1     127.430 117.136 125.288  1.00  0.00    -0.237 N 
ATOM      2  C   UNL     1     127.043 115.951 124.893  1.00  0.00     0.286 C 
ATOM      3  C   UNL     1     127.368 114.695 125.620  1.00  0.00     0.108 A 
ATOM      4  N   UNL     1     126.300 115.836 123.663  1.00  0.00    -0.250 N 
ATOM      5  C   UNL     1     128.207 117.463 126.452  1.00  0.00     0.168 A 
ATOM      6  C   UNL     1     129.067 118.573 126.385  1.00  0.00     0.056 A 
ATOM      7  C   UNL     1     127.997 116.838 127.699  1.00  0.00     0.173 A 
ATOM      8  C   UNL     1     129.715 119.047 127.529  1.00  0.00     0.005 A 
ATOM      9  C   UNL     1     128.623 117.343 128.846  1.00  0.00     0.052 A 
ATOM     10  O   UNL     1     127.185 115.718 127.841  1.00  0.00    -0.452 OA
ATOM     11  C   UNL     1     129.485 118.437 128.761  1.00  0.00     0.004 A 
ATOM     12  C   UNL     1     127.316 114.598 127.024  1.00  0.00     0.143 A 
ATOM     13  C   UNL     1     127.410 113.346 127.643  1.00  0.00     0.049 A 
ATOM     14  C   UNL     1     127.609 112.192 126.885  1.00  0.00     0.024 A 
ATOM     15  C   UNL     1     127.708 112.281 125.496  1.00  0.00     0.042 A 
ATOM     16  C   UNL     1     127.581 113.522 124.867  1.00  0.00     0.041 A 
ATOM     17  Cl  UNL     1     127.961 110.834 124.539  1.00  0.00    -0.084 Cl
ATOM     18  C   UNL     1     126.753 116.520 122.450  1.00  0.00     0.298 C 
ATOM     19  C   UNL     1     124.948 115.276 123.679  1.00  0.00     0.298 C 
ATOM     20  C   UNL     1     126.476 115.644 121.221  1.00  0.00     0.308 C 
ATOM     21  C   UNL     1     124.713 114.432 122.420  1.00  0.00     0.308 C 
ATOM     22  N   UNL     1     125.082 115.146 121.175  1.00  0.00    -0.331 N 
ATOM     23  C   UNL     1     124.119 116.210 120.835  1.00  0.00     0.332 C 
ATOM     24  H   UNL     1     127.184 117.948 124.676  1.00  0.00     0.312 HD
ATOM     25  H   UNL     1     125.035 114.444 120.398  1.00  0.00     0.348 HD
ENDROOT
TORSDOF 0
ENDMDL
MODEL 6
REMARK VINA RESULT:    -6.212      3.707      6.074
REMARK INTER + INTRA:          -6.212
REMARK INTER:                  -6.212
REMARK INTRA:                   0.000
REMARK UNBOUND:                 0.000
REMARK SMILES C[NH+]1CCN(C2=[NH+]c3ccccc3Oc3ccc(Cl)cc32)CC1
REMARK SMILES IDX 7 1 6 2 21 3 5 4 8 5 9 6 13 7 10 8 12 9 14 10 11 11 15 12
REMARK SMILES IDX 16 13 17 14 18 15 20 16 19 17 4 18 22 19 3 20 23 21 2 22
REMARK SMILES IDX 1 23
REMARK H PARENT 7 24 2 25
REMARK Flexibility Score: inf
ROOT
ATOM      1  N   UNL     1     127.605 113.839 114.076  1.00  0.00    -0.237 N 
ATOM      2  C   UNL     1     127.635 112.856 113.214  1.00  0.00     0.286 C 
ATOM      3  C   UNL     1     128.815 111.974 113.012  1.00  0.00     0.108 A 
ATOM      4  N   UNL     1     126.484 112.633 112.374  1.00  0.00    -0.250 N 
ATOM      5  C   UNL     1     128.651 114.253 114.971  1.00  0.00     0.168 A 
ATOM      6  C   UNL     1     128.742 115.617 115.300  1.00  0.00     0.056 A 
ATOM      7  C   UNL     1     129.456 113.329 115.670  1.00  0.00     0.173 A 
ATOM      8  C   UNL     1     129.619 116.057 116.295  1.00  0.00     0.005 A 
ATOM      9  C   UNL     1     130.306 113.776 116.690  1.00  0.00     0.052 A 
ATOM     10  O   UNL     1     129.445 111.968 115.382  1.00  0.00    -0.452 OA
ATOM     11  C   UNL     1     130.394 115.135 116.996  1.00  0.00     0.004 A 
ATOM     12  C   UNL     1     129.585 111.484 114.085  1.00  0.00     0.143 A 
ATOM     13  C   UNL     1     130.539 110.484 113.861  1.00  0.00     0.049 A 
ATOM     14  C   UNL     1     130.776 110.003 112.574  1.00  0.00     0.024 A 
ATOM     15  C   UNL     1     130.051 110.514 111.497  1.00  0.00     0.042 A 
ATOM     16  C   UNL     1     129.072 111.487 111.715  1.00  0.00     0.041 A 
ATOM     17  Cl  UNL     1     130.345 109.914 109.875  1.00  0.00    -0.084 Cl
ATOM     18  C   UNL     1     125.847 113.747 111.670  1.00  0.00     0.298 C 
ATOM     19  C   UNL     1     125.773 111.355 112.439  1.00  0.00     0.298 C 
ATOM     20  C   UNL     1     125.364 113.285 110.288  1.00  0.00     0.308 C 
ATOM     21  C   UNL     1     125.290 110.951 111.039  1.00  0.00     0.308 C 
ATOM     22  N   UNL     1     124.563 112.041 110.349  1.00  0.00    -0.331 N 
ATOM     23  C   UNL     1     123.221 112.267 110.920  1.00  0.00     0.332 C 
ATOM     24  H   UNL     1     126.740 114.426 114.104  1.00  0.00     0.312 HD
ATOM     25  H   UNL     1     124.413 111.727 109.360  1.00  0.00     0.348 HD
ENDROOT
TORSDOF 0
ENDMDL
MODEL 7
REMARK VINA RESULT:    -6.145      6.253      9.273
REMARK INTER + INTRA:          -6.145
REMARK INTER:                  -6.145
REMARK INTRA:                   0.000
REMARK UNBOUND:                 0.000
REMARK SMILES C[NH+]1CCN(C2=[NH+]c3ccccc3Oc3ccc(Cl)cc32)CC1
REMARK SMILES IDX 7 1 6 2 21 3 5 4 8 5 9 6 13 7 10 8 12 9 14 10 11 11 15 12
REMARK SMILES IDX 16 13 17 14 18 15 20 16 19 17 4 18 22 19 3 20 23 21 2 22
REMARK SMILES IDX 1 23
REMARK H PARENT 7 24 2 25
REMARK Flexibility Score: inf
ROOT
ATOM      1  N   UNL     1     123.412 116.303 121.483  1.00  0.00    -0.237 N 
ATOM      2  C   UNL     1     122.447 116.187 120.608  1.00  0.00     0.286 C 
ATOM      3  C   UNL     1     122.557 115.381 119.364  1.00  0.00     0.108 A 
ATOM      4  N   UNL     1     121.220 116.913 120.825  1.00  0.00    -0.250 N 
ATOM      5  C   UNL     1     124.717 115.702 121.435  1.00  0.00     0.168 A 
ATOM      6  C   UNL     1     125.792 116.402 122.011  1.00  0.00     0.056 A 
ATOM      7  C   UNL     1     124.919 114.372 121.011  1.00  0.00     0.173 A 
ATOM      8  C   UNL     1     127.044 115.800 122.153  1.00  0.00     0.005 A 
ATOM      9  C   UNL     1     126.169 113.765 121.191  1.00  0.00     0.052 A 
ATOM     10  O   UNL     1     123.915 113.625 120.406  1.00  0.00    -0.452 OA
ATOM     11  C   UNL     1     127.230 114.479 121.752  1.00  0.00     0.004 A 
ATOM     12  C   UNL     1     123.169 114.112 119.337  1.00  0.00     0.143 A 
ATOM     13  C   UNL     1     123.049 113.301 118.202  1.00  0.00     0.049 A 
ATOM     14  C   UNL     1     122.371 113.758 117.071  1.00  0.00     0.024 A 
ATOM     15  C   UNL     1     121.800 115.031 117.070  1.00  0.00     0.042 A 
ATOM     16  C   UNL     1     121.885 115.834 118.210  1.00  0.00     0.041 A 
ATOM     17  Cl  UNL     1     120.949 115.611 115.650  1.00  0.00    -0.084 Cl
ATOM     18  C   UNL     1     121.247 118.331 121.188  1.00  0.00     0.298 C 
ATOM     19  C   UNL     1     119.959 116.185 120.965  1.00  0.00     0.298 C 
ATOM     20  C   UNL     1     120.079 119.065 120.514  1.00  0.00     0.308 C 
ATOM     21  C   UNL     1     118.821 116.971 120.299  1.00  0.00     0.308 C 
ATOM     22  N   UNL     1     118.779 118.388 120.726  1.00  0.00    -0.331 N 
ATOM     23  C   UNL     1     118.288 118.541 122.110  1.00  0.00     0.332 C 
ATOM     24  H   UNL     1     123.243 116.933 122.301  1.00  0.00     0.312 HD
ATOM     25  H   UNL     1     118.081 118.871 120.111  1.00  0.00     0.348 HD
ENDROOT
TORSDOF 0
ENDMDL
MODEL 8
REMARK VINA RESULT:    -6.130      6.283      8.941
REMARK INTER + INTRA:          -6.130
REMARK INTER:                  -6.130
REMARK INTRA:                   0.000
REMARK UNBOUND:                 0.000
REMARK SMILES C[NH+]1CCN(C2=[NH+]c3ccccc3Oc3ccc(Cl)cc32)CC1
REMARK SMILES IDX 7 1 6 2 21 3 5 4 8 5 9 6 13 7 10 8 12 9 14 10 11 11 15 12
REMARK SMILES IDX 16 13 17 14 18 15 20 16 19 17 4 18 22 19 3 20 23 21 2 22
REMARK SMILES IDX 1 23
REMARK H PARENT 7 24 2 25
REMARK Flexibility Score: inf
ROOT
ATOM      1  N   UNL     1     123.351 115.574 118.790  1.00  0.00    -0.237 N 
ATOM      2  C   UNL     1     123.048 115.836 120.035  1.00  0.00     0.286 C 
ATOM      3  C   UNL     1     121.692 116.250 120.481  1.00  0.00     0.108 A 
ATOM      4  N   UNL     1     124.087 115.768 121.032  1.00  0.00    -0.250 N 
ATOM      5  C   UNL     1     122.482 115.624 117.646  1.00  0.00     0.168 A 
ATOM      6  C   UNL     1     123.038 115.978 116.404  1.00  0.00     0.056 A 
ATOM      7  C   UNL     1     121.154 115.149 117.687  1.00  0.00     0.173 A 
ATOM      8  C   UNL     1     122.290 115.874 115.229  1.00  0.00     0.005 A 
ATOM      9  C   UNL     1     120.424 115.015 116.499  1.00  0.00     0.052 A 
ATOM     10  O   UNL     1     120.524 114.807 118.879  1.00  0.00    -0.452 OA
ATOM     11  C   UNL     1     120.986 115.384 115.275  1.00  0.00     0.004 A 
ATOM     12  C   UNL     1     120.516 115.654 119.983  1.00  0.00     0.143 A 
ATOM     13  C   UNL     1     119.285 115.919 120.594  1.00  0.00     0.049 A 
ATOM     14  C   UNL     1     119.199 116.811 121.663  1.00  0.00     0.024 A 
ATOM     15  C   UNL     1     120.350 117.442 122.136  1.00  0.00     0.042 A 
ATOM     16  C   UNL     1     121.588 117.158 121.555  1.00  0.00     0.041 A 
ATOM     17  Cl  UNL     1     120.248 118.566 123.478  1.00  0.00    -0.084 Cl
ATOM     18  C   UNL     1     125.382 116.411 120.805  1.00  0.00     0.298 C 
ATOM     19  C   UNL     1     123.964 114.829 122.147  1.00  0.00     0.298 C 
ATOM     20  C   UNL     1     125.910 117.004 122.120  1.00  0.00     0.308 C 
ATOM     21  C   UNL     1     124.528 115.457 123.429  1.00  0.00     0.308 C 
ATOM     22  N   UNL     1     125.879 116.033 123.238  1.00  0.00    -0.331 N 
ATOM     23  C   UNL     1     126.916 114.991 123.103  1.00  0.00     0.332 C 
ATOM     24  H   UNL     1     124.348 115.336 118.580  1.00  0.00     0.312 HD
ATOM     25  H   UNL     1     126.108 116.567 124.110  1.00  0.00     0.348 HD
ENDROOT
TORSDOF 0
ENDMDL
MODEL 9
REMARK VINA RESULT:    -6.116      3.034      6.049
REMARK INTER + INTRA:          -6.116
REMARK INTER:                  -6.116
REMARK INTRA:                   0.000
REMARK UNBOUND:                 0.000
REMARK SMILES C[NH+]1CCN(C2=[NH+]c3ccccc3Oc3ccc(Cl)cc32)CC1
REMARK SMILES IDX 7 1 6 2 21 3 5 4 8 5 9 6 13 7 10 8 12 9 14 10 11 11 15 12
REMARK SMILES IDX 16 13 17 14 18 15 20 16 19 17 4 18 22 19 3 20 23 21 2 22
REMARK SMILES IDX 1 23
REMARK H PARENT 7 24 2 25
REMARK Flexibility Score: inf
ROOT
ATOM      1  N   UNL     1     125.416 113.671 113.196  1.00  0.00    -0.237 N 
ATOM      2  C   UNL     1     126.360 114.143 113.969  1.00  0.00     0.286 C 
ATOM      3  C   UNL     1     127.784 113.727 113.875  1.00  0.00     0.108 A 
ATOM      4  N   UNL     1     126.006 115.083 115.003  1.00  0.00    -0.250 N 
ATOM      5  C   UNL     1     125.548 112.703 112.142  1.00  0.00     0.168 A 
ATOM      6  C   UNL     1     124.464 111.842 111.891  1.00  0.00     0.056 A 
ATOM      7  C   UNL     1     126.632 112.714 111.238  1.00  0.00     0.173 A 
ATOM      8  C   UNL     1     124.459 111.003 110.774  1.00  0.00     0.005 A 
ATOM      9  C   UNL     1     126.601 111.895 110.102  1.00  0.00     0.052 A 
ATOM     10  O   UNL     1     127.752 113.515 111.433  1.00  0.00    -0.452 OA
ATOM     11  C   UNL     1     125.524 111.036 109.875  1.00  0.00     0.004 A 
ATOM     12  C   UNL     1     128.440 113.546 112.642  1.00  0.00     0.143 A 
ATOM     13  C   UNL     1     129.830 113.376 112.607  1.00  0.00     0.049 A 
ATOM     14  C   UNL     1     130.570 113.331 113.788  1.00  0.00     0.024 A 
ATOM     15  C   UNL     1     129.925 113.464 115.018  1.00  0.00     0.042 A 
ATOM     16  C   UNL     1     128.544 113.668 115.062  1.00  0.00     0.041 A 
ATOM     17  Cl  UNL     1     130.851 113.405 116.507  1.00  0.00    -0.084 Cl
ATOM     18  C   UNL     1     124.871 114.825 115.890  1.00  0.00     0.298 C 
ATOM     19  C   UNL     1     126.591 116.425 114.996  1.00  0.00     0.298 C 
ATOM     20  C   UNL     1     125.191 115.322 117.307  1.00  0.00     0.308 C 
ATOM     21  C   UNL     1     126.867 116.885 116.434  1.00  0.00     0.308 C 
ATOM     22  N   UNL     1     125.696 116.714 117.325  1.00  0.00    -0.331 N 
ATOM     23  C   UNL     1     124.633 117.698 117.045  1.00  0.00     0.332 C 
ATOM     24  H   UNL     1     124.440 113.998 113.378  1.00  0.00     0.312 HD
ATOM     25  H   UNL     1     126.027 116.905 118.301  1.00  0.00     0.348 HD
ENDROOT
TORSDOF 0
ENDMDL
