MODEL 1
REMARK VINA RESULT:    -3.625      0.000      0.000
REMARK INTER + INTRA:          -6.707
REMARK INTER:                  -5.533
REMARK INTRA:                  -1.174
REMARK UNBOUND:                -1.174
REMARK SMILES CCCCCCCCCCC(=O)[O-]
REMARK SMILES IDX 7 1 8 2 9 3 10 4 11 5 12 6 13 7 6 8 5 9 4 10 3 11 2 12 1 13
REMARK H PARENT
REMARK Flexibility Score: inf
ROOT
ATOM      1  C   UNL     1     187.172 188.339 170.451  1.00  0.00     0.000 C 
ENDROOT
BRANCH   1   2
ATOM      2  C   UNL     1     188.532 187.667 170.702  1.00  0.00     0.000 C 
BRANCH   2   3
ATOM      3  C   UNL     1     188.398 186.306 171.407  1.00  0.00     0.006 C 
BRANCH   3   4
ATOM      4  C   UNL     1     189.688 185.900 172.131  1.00  0.00     0.053 C 
BRANCH   4   5
ATOM      5  C   UNL     1     189.403 185.189 173.419  1.00  0.00     0.041 C 
ATOM      6  O   UNL     1     190.348 184.730 174.114  1.00  0.00    -0.550 OA
ATOM      7  O   UNL     1     188.091 185.008 173.837  1.00  0.00    -0.550 OA
ENDBRANCH   4   5
ENDBRANCH   3   4
ENDBRANCH   2   3
ENDBRANCH   1   2
BRANCH   1   8
ATOM      8  C   UNL     1     185.995 187.359 170.572  1.00  0.00     0.000 C 
BRANCH   8   9
ATOM      9  C   UNL     1     185.055 187.479 169.366  1.00  0.00    -0.000 C 
BRANCH   9  10
ATOM     10  C   UNL     1     185.603 186.707 168.160  1.00  0.00    -0.000 C 
BRANCH  10  11
ATOM     11  C   UNL     1     186.095 185.314 168.577  1.00  0.00    -0.000 C 
BRANCH  11  12
ATOM     12  C   UNL     1     187.498 184.997 168.035  1.00  0.00    -0.003 C 
ATOM     13  C   UNL     1     188.132 186.182 167.307  1.00  0.00     0.004 C 
ENDBRANCH  11  12
ENDBRANCH  10  11
ENDBRANCH   9  10
ENDBRANCH   8   9
ENDBRANCH   1   8
TORSDOF 9
ENDMDL
MODEL 2
REMARK VINA RESULT:    -3.508      1.010      2.526
REMARK INTER + INTRA:          -6.528
REMARK INTER:                  -5.156
REMARK INTRA:                  -1.372
REMARK UNBOUND:                -1.174
REMARK SMILES CCCCCCCCCCC(=O)[O-]
REMARK SMILES IDX 7 1 8 2 9 3 10 4 11 5 12 6 13 7 6 8 5 9 4 10 3 11 2 12 1 13
REMARK H PARENT
REMARK Flexibility Score: inf
ROOT
ATOM      1  C   UNL     1     188.772 188.449 168.630  1.00  0.00     0.000 C 
ENDROOT
BRANCH   1   2
ATOM      2  C   UNL     1     188.617 188.365 170.158  1.00  0.00     0.000 C 
BRANCH   2   3
ATOM      3  C   UNL     1     189.169 187.051 170.738  1.00  0.00     0.006 C 
BRANCH   3   4
ATOM      4  C   UNL     1     188.135 186.321 171.604  1.00  0.00     0.053 C 
BRANCH   4   5
ATOM      5  C   UNL     1     188.741 185.795 172.870  1.00  0.00     0.041 C 
ATOM      6  O   UNL     1     188.022 185.215 173.726  1.00  0.00    -0.550 OA
ATOM      7  O   UNL     1     190.096 185.972 173.116  1.00  0.00    -0.550 OA
ENDBRANCH   4   5
ENDBRANCH   3   4
ENDBRANCH   2   3
ENDBRANCH   1   2
BRANCH   1   8
ATOM      8  C   UNL     1     189.030 187.079 167.985  1.00  0.00     0.000 C 
BRANCH   8   9
ATOM      9  C   UNL     1     187.791 186.589 167.225  1.00  0.00    -0.000 C 
BRANCH   9  10
ATOM     10  C   UNL     1     187.287 185.256 167.792  1.00  0.00    -0.000 C 
BRANCH  10  11
ATOM     11  C   UNL     1     186.043 185.466 168.667  1.00  0.00    -0.000 C 
BRANCH  11  12
ATOM     12  C   UNL     1     185.371 186.826 168.421  1.00  0.00    -0.003 C 
ATOM     13  C   UNL     1     185.011 187.551 169.717  1.00  0.00     0.004 C 
ENDBRANCH  11  12
ENDBRANCH  10  11
ENDBRANCH   9  10
ENDBRANCH   8   9
ENDBRANCH   1   8
TORSDOF 9
ENDMDL
MODEL 3
REMARK VINA RESULT:    -3.479      0.981      1.459
REMARK INTER + INTRA:          -6.484
REMARK INTER:                  -5.176
REMARK INTRA:                  -1.307
REMARK UNBOUND:                -1.174
REMARK SMILES CCCCCCCCCCC(=O)[O-]
REMARK SMILES IDX 7 1 8 2 9 3 10 4 11 5 12 6 13 7 6 8 5 9 4 10 3 11 2 12 1 13
REMARK H PARENT
REMARK Flexibility Score: inf
ROOT
ATOM      1  C   UNL     1     188.899 188.042 170.286  1.00  0.00     0.000 C 
ENDROOT
BRANCH   1   2
ATOM      2  C   UNL     1     189.578 186.703 169.952  1.00  0.00     0.000 C 
BRANCH   2   3
ATOM      3  C   UNL     1     189.112 185.558 170.868  1.00  0.00     0.006 C 
BRANCH   3   4
ATOM      4  C   UNL     1     188.631 186.068 172.233  1.00  0.00     0.053 C 
BRANCH   4   5
ATOM      5  C   UNL     1     189.284 185.331 173.363  1.00  0.00     0.041 C 
ATOM      6  O   UNL     1     190.088 185.925 174.129  1.00  0.00    -0.550 OA
ATOM      7  O   UNL     1     189.025 183.980 173.552  1.00  0.00    -0.550 OA
ENDBRANCH   4   5
ENDBRANCH   3   4
ENDBRANCH   2   3
ENDBRANCH   1   2
BRANCH   1   8
ATOM      8  C   UNL     1     187.711 188.350 169.362  1.00  0.00     0.000 C 
BRANCH   8   9
ATOM      9  C   UNL     1     186.384 188.258 170.125  1.00  0.00    -0.000 C 
BRANCH   9  10
ATOM     10  C   UNL     1     185.725 186.888 169.922  1.00  0.00    -0.000 C 
BRANCH  10  11
ATOM     11  C   UNL     1     185.809 186.449 168.453  1.00  0.00    -0.000 C 
BRANCH  11  12
ATOM     12  C   UNL     1     186.376 185.030 168.293  1.00  0.00    -0.003 C 
ATOM     13  C   UNL     1     187.609 184.983 167.391  1.00  0.00     0.004 C 
ENDBRANCH  11  12
ENDBRANCH  10  11
ENDBRANCH   9  10
ENDBRANCH   8   9
ENDBRANCH   1   8
TORSDOF 9
ENDMDL
MODEL 4
REMARK VINA RESULT:    -3.442      1.227      1.753
REMARK INTER + INTRA:          -6.427
REMARK INTER:                  -5.476
REMARK INTRA:                  -0.951
REMARK UNBOUND:                -1.174
REMARK SMILES CCCCCCCCCCC(=O)[O-]
REMARK SMILES IDX 7 1 8 2 9 3 10 4 11 5 12 6 13 7 6 8 5 9 4 10 3 11 2 12 1 13
REMARK H PARENT
REMARK Flexibility Score: inf
ROOT
ATOM      1  C   UNL     1     188.220 187.706 170.767  1.00  0.00     0.000 C 
ENDROOT
BRANCH   1   2
ATOM      2  C   UNL     1     187.793 186.436 171.520  1.00  0.00     0.000 C 
BRANCH   2   3
ATOM      3  C   UNL     1     188.918 185.860 172.397  1.00  0.00     0.006 C 
BRANCH   3   4
ATOM      4  C   UNL     1     190.200 186.698 172.317  1.00  0.00     0.053 C 
BRANCH   4   5
ATOM      5  C   UNL     1     191.144 186.379 173.436  1.00  0.00     0.041 C 
ATOM      6  O   UNL     1     192.333 186.046 173.190  1.00  0.00    -0.550 OA
ATOM      7  O   UNL     1     190.701 186.422 174.752  1.00  0.00    -0.550 OA
ENDBRANCH   4   5
ENDBRANCH   3   4
ENDBRANCH   2   3
ENDBRANCH   1   2
BRANCH   1   8
ATOM      8  C   UNL     1     187.040 188.417 170.087  1.00  0.00     0.000 C 
BRANCH   8   9
ATOM      9  C   UNL     1     185.730 187.657 170.327  1.00  0.00    -0.000 C 
BRANCH   9  10
ATOM     10  C   UNL     1     184.985 187.411 169.009  1.00  0.00    -0.000 C 
BRANCH  10  11
ATOM     11  C   UNL     1     185.890 186.706 167.989  1.00  0.00    -0.000 C 
BRANCH  11  12
ATOM     12  C   UNL     1     186.158 185.237 168.355  1.00  0.00    -0.003 C 
ATOM     13  C   UNL     1     187.635 184.861 168.246  1.00  0.00     0.004 C 
ENDBRANCH  11  12
ENDBRANCH  10  11
ENDBRANCH   9  10
ENDBRANCH   8   9
ENDBRANCH   1   8
TORSDOF 9
ENDMDL
MODEL 5
REMARK VINA RESULT:    -3.414      3.668      5.293
REMARK INTER + INTRA:          -6.385
REMARK INTER:                  -5.299
REMARK INTRA:                  -1.085
REMARK UNBOUND:                -1.174
REMARK SMILES CCCCCCCCCCC(=O)[O-]
REMARK SMILES IDX 7 1 8 2 9 3 10 4 11 5 12 6 13 7 6 8 5 9 4 10 3 11 2 12 1 13
REMARK H PARENT
REMARK Flexibility Score: inf
ROOT
ATOM      1  C   UNL     1     186.816 188.505 170.081  1.00  0.00     0.000 C 
ENDROOT
BRANCH   1   2
ATOM      2  C   UNL     1     186.219 187.270 170.774  1.00  0.00     0.000 C 
BRANCH   2   3
ATOM      3  C   UNL     1     184.794 186.950 170.292  1.00  0.00     0.006 C 
BRANCH   3   4
ATOM      4  C   UNL     1     184.422 187.733 169.026  1.00  0.00     0.053 C 
BRANCH   4   5
ATOM      5  C   UNL     1     182.983 188.151 169.032  1.00  0.00     0.041 C 
ATOM      6  O   UNL     1     182.390 188.402 167.950  1.00  0.00    -0.550 OA
ATOM      7  O   UNL     1     182.306 188.290 170.237  1.00  0.00    -0.550 OA
ENDBRANCH   4   5
ENDBRANCH   3   4
ENDBRANCH   2   3
ENDBRANCH   1   2
BRANCH   1   8
ATOM      8  C   UNL     1     188.352 188.488 170.060  1.00  0.00     0.000 C 
BRANCH   8   9
ATOM      9  C   UNL     1     188.900 187.334 170.909  1.00  0.00    -0.000 C 
BRANCH   9  10
ATOM     10  C   UNL     1     189.837 186.440 170.088  1.00  0.00    -0.000 C 
BRANCH  10  11
ATOM     11  C   UNL     1     189.149 185.118 169.716  1.00  0.00    -0.000 C 
BRANCH  11  12
ATOM     12  C   UNL     1     188.604 185.120 168.280  1.00  0.00    -0.003 C 
ATOM     13  C   UNL     1     187.120 184.759 168.210  1.00  0.00     0.004 C 
ENDBRANCH  11  12
ENDBRANCH  10  11
ENDBRANCH   9  10
ENDBRANCH   8   9
ENDBRANCH   1   8
TORSDOF 9
ENDMDL
MODEL 6
REMARK VINA RESULT:    -3.400      1.248      2.760
REMARK INTER + INTRA:          -6.363
REMARK INTER:                  -4.961
REMARK INTRA:                  -1.401
REMARK UNBOUND:                -1.174
REMARK SMILES CCCCCCCCCCC(=O)[O-]
REMARK SMILES IDX 7 1 8 2 9 3 10 4 11 5 12 6 13 7 6 8 5 9 4 10 3 11 2 12 1 13
REMARK H PARENT
REMARK Flexibility Score: inf
ROOT
ATOM      1  C   UNL     1     188.634 185.594 167.936  1.00  0.00     0.000 C 
ENDROOT
BRANCH   1   2
ATOM      2  C   UNL     1     189.836 185.775 168.876  1.00  0.00     0.000 C 
BRANCH   2   3
ATOM      3  C   UNL     1     189.590 185.182 170.274  1.00  0.00     0.006 C 
BRANCH   3   4
ATOM      4  C   UNL     1     189.877 186.195 171.390  1.00  0.00     0.053 C 
BRANCH   4   5
ATOM      5  C   UNL     1     189.096 185.890 172.632  1.00  0.00     0.041 C 
ATOM      6  O   UNL     1     187.837 185.868 172.603  1.00  0.00    -0.550 OA
ATOM      7  O   UNL     1     189.759 185.656 173.830  1.00  0.00    -0.550 OA
ENDBRANCH   4   5
ENDBRANCH   3   4
ENDBRANCH   2   3
ENDBRANCH   1   2
BRANCH   1   8
ATOM      8  C   UNL     1     187.425 184.954 168.637  1.00  0.00     0.000 C 
BRANCH   8   9
ATOM      9  C   UNL     1     186.128 185.688 168.273  1.00  0.00    -0.000 C 
BRANCH   9  10
ATOM     10  C   UNL     1     186.270 187.199 168.488  1.00  0.00    -0.000 C 
BRANCH  10  11
ATOM     11  C   UNL     1     186.208 187.549 169.982  1.00  0.00    -0.000 C 
BRANCH  11  12
ATOM     12  C   UNL     1     187.257 188.597 170.386  1.00  0.00    -0.003 C 
ATOM     13  C   UNL     1     188.088 189.089 169.202  1.00  0.00     0.004 C 
ENDBRANCH  11  12
ENDBRANCH  10  11
ENDBRANCH   9  10
ENDBRANCH   8   9
ENDBRANCH   1   8
TORSDOF 9
ENDMDL
MODEL 7
REMARK VINA RESULT:    -3.348      2.397      4.432
REMARK INTER + INTRA:          -6.284
REMARK INTER:                  -5.143
REMARK INTRA:                  -1.142
REMARK UNBOUND:                -1.174
REMARK SMILES CCCCCCCCCCC(=O)[O-]
REMARK SMILES IDX 7 1 8 2 9 3 10 4 11 5 12 6 13 7 6 8 5 9 4 10 3 11 2 12 1 13
REMARK H PARENT
REMARK Flexibility Score: inf
ROOT
ATOM      1  C   UNL     1     185.347 186.824 168.321  1.00  0.00     0.000 C 
ENDROOT
BRANCH   1   2
ATOM      2  C   UNL     1     185.991 185.507 168.784  1.00  0.00     0.000 C 
BRANCH   2   3
ATOM      3  C   UNL     1     186.991 184.944 167.758  1.00  0.00     0.006 C 
BRANCH   3   4
ATOM      4  C   UNL     1     188.053 185.976 167.359  1.00  0.00     0.053 C 
BRANCH   4   5
ATOM      5  C   UNL     1     189.356 185.732 168.058  1.00  0.00     0.041 C 
ATOM      6  O   UNL     1     189.469 184.783 168.878  1.00  0.00    -0.550 OA
ATOM      7  O   UNL     1     190.438 186.571 167.824  1.00  0.00    -0.550 OA
ENDBRANCH   4   5
ENDBRANCH   3   4
ENDBRANCH   2   3
ENDBRANCH   1   2
BRANCH   1   8
ATOM      8  C   UNL     1     185.545 187.966 169.329  1.00  0.00     0.000 C 
BRANCH   8   9
ATOM      9  C   UNL     1     186.382 187.502 170.528  1.00  0.00    -0.000 C 
BRANCH   9  10
ATOM     10  C   UNL     1     187.768 188.157 170.520  1.00  0.00    -0.000 C 
BRANCH  10  11
ATOM     11  C   UNL     1     188.792 187.287 171.262  1.00  0.00    -0.000 C 
BRANCH  11  12
ATOM     12  C   UNL     1     188.145 186.081 171.962  1.00  0.00    -0.003 C 
ATOM     13  C   UNL     1     189.080 185.409 172.967  1.00  0.00     0.004 C 
ENDBRANCH  11  12
ENDBRANCH  10  11
ENDBRANCH   9  10
ENDBRANCH   8   9
ENDBRANCH   1   8
TORSDOF 9
ENDMDL
MODEL 8
REMARK VINA RESULT:    -3.346      2.656      5.259
REMARK INTER + INTRA:          -6.281
REMARK INTER:                  -5.509
REMARK INTRA:                  -0.773
REMARK UNBOUND:                -1.174
REMARK SMILES CCCCCCCCCCC(=O)[O-]
REMARK SMILES IDX 7 1 8 2 9 3 10 4 11 5 12 6 13 7 6 8 5 9 4 10 3 11 2 12 1 13
REMARK H PARENT
REMARK Flexibility Score: inf
ROOT
ATOM      1  C   UNL     1     186.499 187.467 170.503  1.00  0.00     0.000 C 
ENDROOT
BRANCH   1   2
ATOM      2  C   UNL     1     185.630 187.893 169.309  1.00  0.00     0.000 C 
BRANCH   2   3
ATOM      3  C   UNL     1     185.482 186.781 168.257  1.00  0.00     0.006 C 
BRANCH   3   4
ATOM      4  C   UNL     1     186.095 185.455 168.726  1.00  0.00     0.053 C 
BRANCH   4   5
ATOM      5  C   UNL     1     187.274 185.061 167.891  1.00  0.00     0.041 C 
ATOM      6  O   UNL     1     187.129 184.805 166.667  1.00  0.00    -0.550 OA
ATOM      7  O   UNL     1     188.531 184.949 168.472  1.00  0.00    -0.550 OA
ENDBRANCH   4   5
ENDBRANCH   3   4
ENDBRANCH   2   3
ENDBRANCH   1   2
BRANCH   1   8
ATOM      8  C   UNL     1     187.870 188.159 170.515  1.00  0.00     0.000 C 
BRANCH   8   9
ATOM      9  C   UNL     1     188.943 187.242 171.116  1.00  0.00    -0.000 C 
BRANCH   9  10
ATOM     10  C   UNL     1     188.310 186.137 171.969  1.00  0.00    -0.000 C 
BRANCH  10  11
ATOM     11  C   UNL     1     189.345 185.511 172.914  1.00  0.00    -0.000 C 
BRANCH  11  12
ATOM     12  C   UNL     1     190.506 186.466 173.233  1.00  0.00    -0.003 C 
ATOM     13  C   UNL     1     191.008 186.328 174.670  1.00  0.00     0.004 C 
ENDBRANCH  11  12
ENDBRANCH  10  11
ENDBRANCH   9  10
ENDBRANCH   8   9
ENDBRANCH   1   8
TORSDOF 9
ENDMDL
MODEL 9
REMARK VINA RESULT:    -3.301      3.481      5.551
REMARK INTER + INTRA:          -6.212
REMARK INTER:                  -4.911
REMARK INTRA:                  -1.300
REMARK UNBOUND:                -1.174
REMARK SMILES CCCCCCCCCCC(=O)[O-]
REMARK SMILES IDX 7 1 8 2 9 3 10 4 11 5 12 6 13 7 6 8 5 9 4 10 3 11 2 12 1 13
REMARK H PARENT
REMARK Flexibility Score: inf
ROOT
ATOM      1  C   UNL     1     187.254 185.157 168.380  1.00  0.00     0.000 C 
ENDROOT
BRANCH   1   2
ATOM      2  C   UNL     1     185.990 185.997 168.133  1.00  0.00     0.000 C 
BRANCH   2   3
ATOM      3  C   UNL     1     185.331 186.474 169.438  1.00  0.00     0.006 C 
BRANCH   3   4
ATOM      4  C   UNL     1     184.790 187.905 169.324  1.00  0.00     0.053 C 
BRANCH   4   5
ATOM      5  C   UNL     1     183.294 187.931 169.262  1.00  0.00     0.041 C 
ATOM      6  O   UNL     1     182.703 187.947 168.150  1.00  0.00    -0.550 OA
ATOM      7  O   UNL     1     182.550 187.966 170.435  1.00  0.00    -0.550 OA
ENDBRANCH   4   5
ENDBRANCH   3   4
ENDBRANCH   2   3
ENDBRANCH   1   2
BRANCH   1   8
ATOM      8  C   UNL     1     188.383 185.480 167.390  1.00  0.00     0.000 C 
BRANCH   8   9
ATOM      9  C   UNL     1     188.539 186.995 167.210  1.00  0.00    -0.000 C 
BRANCH   9  10
ATOM     10  C   UNL     1     189.313 187.614 168.380  1.00  0.00    -0.000 C 
BRANCH  10  11
ATOM     11  C   UNL     1     188.533 188.782 168.999  1.00  0.00    -0.000 C 
BRANCH  11  12
ATOM     12  C   UNL     1     188.177 188.539 170.474  1.00  0.00    -0.003 C 
ATOM     13  C   UNL     1     188.809 187.264 171.032  1.00  0.00     0.004 C 
ENDBRANCH  11  12
ENDBRANCH  10  11
ENDBRANCH   9  10
ENDBRANCH   8   9
ENDBRANCH   1   8
TORSDOF 9
ENDMDL
