MODEL 1
REMARK VINA RESULT:    -4.961      0.000      0.000
REMARK INTER + INTRA:          -6.080
REMARK INTER:                  -5.831
REMARK INTRA:                  -0.248
REMARK UNBOUND:                -0.248
REMARK SMILES C=CC(C)=CCC=C(C)C
REMARK SMILES IDX 5 1 3 2 4 3 6 4 7 5 9 6 8 7 10 8 2 9 1 10
REMARK H PARENT
REMARK Flexibility Score: inf
ROOT
ATOM      1  C   UNL     1     104.885 102.941 128.834  1.00  0.00    -0.020 C 
ATOM      2  C   UNL     1     105.424 101.808 128.338  1.00  0.00    -0.055 C 
ATOM      3  C   UNL     1     105.388 101.482 126.862  1.00  0.00     0.044 C 
ENDROOT
BRANCH   1   4
ATOM      4  C   UNL     1     104.169 103.987 128.020  1.00  0.00     0.055 C 
BRANCH   4   5
ATOM      5  C   UNL     1     102.872 104.409 128.667  1.00  0.00    -0.024 C 
ATOM      6  C   UNL     1     101.707 104.771 126.480  1.00  0.00     0.039 C 
ATOM      7  C   UNL     1     101.760 104.772 127.988  1.00  0.00    -0.080 C 
ATOM      8  C   UNL     1     100.509 105.144 128.740  1.00  0.00     0.039 C 
ENDBRANCH   4   5
ENDBRANCH   1   4
BRANCH   2   9
ATOM      9  C   UNL     1     106.140 100.912 129.282  1.00  0.00    -0.005 C 
ATOM     10  C   UNL     1     107.460 100.723 129.265  1.00  0.00     0.009 C 
ENDBRANCH   2   9
TORSDOF 3
ENDMDL
MODEL 2
REMARK VINA RESULT:    -4.956      4.904      6.600
REMARK INTER + INTRA:          -6.073
REMARK INTER:                  -5.831
REMARK INTRA:                  -0.242
REMARK UNBOUND:                -0.248
REMARK SMILES C=CC(C)=CCC=C(C)C
REMARK SMILES IDX 5 1 3 2 4 3 6 4 7 5 9 6 8 7 10 8 2 9 1 10
REMARK H PARENT
REMARK Flexibility Score: inf
ROOT
ATOM      1  C   UNL     1     102.926 107.525 128.822  1.00  0.00    -0.020 C 
ATOM      2  C   UNL     1     101.787 106.991 128.333  1.00  0.00    -0.055 C 
ATOM      3  C   UNL     1     101.446 107.039 126.862  1.00  0.00     0.044 C 
ENDROOT
BRANCH   1   4
ATOM      4  C   UNL     1     103.965 108.244 128.001  1.00  0.00     0.055 C 
BRANCH   4   5
ATOM      5  C   UNL     1     104.394 109.537 128.652  1.00  0.00    -0.024 C 
ATOM      6  C   UNL     1     104.825 110.685 126.468  1.00  0.00     0.039 C 
ATOM      7  C   UNL     1     104.792 110.639 127.975  1.00  0.00    -0.080 C 
ATOM      8  C   UNL     1     105.167 111.888 128.730  1.00  0.00     0.039 C 
ENDBRANCH   4   5
ENDBRANCH   1   4
BRANCH   2   9
ATOM      9  C   UNL     1     100.900 106.271 129.282  1.00  0.00    -0.005 C 
ATOM     10  C   UNL     1     100.565 104.986 129.150  1.00  0.00     0.009 C 
ENDBRANCH   2   9
TORSDOF 3
ENDMDL
MODEL 3
REMARK VINA RESULT:    -4.931      7.375      9.380
REMARK INTER + INTRA:          -6.044
REMARK INTER:                  -5.796
REMARK INTRA:                  -0.248
REMARK UNBOUND:                -0.248
REMARK SMILES C=CC(C)=CCC=C(C)C
REMARK SMILES IDX 5 1 3 2 4 3 6 4 7 5 9 6 8 7 10 8 2 9 1 10
REMARK H PARENT
REMARK Flexibility Score: inf
ROOT
ATOM      1  C   UNL     1     107.594 109.554 128.857  1.00  0.00    -0.020 C 
ATOM      2  C   UNL     1     107.038 110.678 128.358  1.00  0.00    -0.055 C 
ATOM      3  C   UNL     1     107.034 110.981 126.878  1.00  0.00     0.044 C 
ENDROOT
BRANCH   1   4
ATOM      4  C   UNL     1     108.290 108.498 128.040  1.00  0.00     0.055 C 
BRANCH   4   5
ATOM      5  C   UNL     1     109.593 108.070 128.672  1.00  0.00    -0.024 C 
ATOM      6  C   UNL     1     110.743 107.741 126.472  1.00  0.00     0.039 C 
ATOM      7  C   UNL     1     110.701 107.718 127.979  1.00  0.00    -0.080 C 
ATOM      8  C   UNL     1     111.958 107.340 128.717  1.00  0.00     0.039 C 
ENDBRANCH   4   5
ENDBRANCH   1   4
BRANCH   2   9
ATOM      9  C   UNL     1     106.346 111.587 129.308  1.00  0.00    -0.005 C 
ATOM     10  C   UNL     1     105.040 111.851 129.259  1.00  0.00     0.009 C 
ENDBRANCH   2   9
TORSDOF 3
ENDMDL
MODEL 4
REMARK VINA RESULT:    -4.927      4.881      6.660
REMARK INTER + INTRA:          -6.039
REMARK INTER:                  -5.816
REMARK INTRA:                  -0.223
REMARK UNBOUND:                -0.248
REMARK SMILES C=CC(C)=CCC=C(C)C
REMARK SMILES IDX 5 1 3 2 4 3 6 4 7 5 9 6 8 7 10 8 2 9 1 10
REMARK H PARENT
REMARK Flexibility Score: inf
ROOT
ATOM      1  C   UNL     1     109.633 104.843 128.761  1.00  0.00    -0.020 C 
ATOM      2  C   UNL     1     110.723 105.457 128.257  1.00  0.00    -0.055 C 
ATOM      3  C   UNL     1     111.005 105.502 126.773  1.00  0.00     0.044 C 
ENDROOT
BRANCH   1   4
ATOM      4  C   UNL     1     108.597 104.115 127.944  1.00  0.00     0.055 C 
BRANCH   4   5
ATOM      5  C   UNL     1     108.087 102.885 128.657  1.00  0.00    -0.024 C 
ATOM      6  C   UNL     1     107.723 101.605 126.535  1.00  0.00     0.039 C 
ATOM      7  C   UNL     1     107.682 101.753 128.036  1.00  0.00    -0.080 C 
ATOM      8  C   UNL     1     107.221 100.573 128.851  1.00  0.00     0.039 C 
ENDBRANCH   4   5
ENDBRANCH   1   4
BRANCH   2   9
ATOM      9  C   UNL     1     111.613 106.172 129.208  1.00  0.00    -0.005 C 
ATOM     10  C   UNL     1     111.884 107.476 129.129  1.00  0.00     0.009 C 
ENDBRANCH   2   9
TORSDOF 3
ENDMDL
MODEL 5
REMARK VINA RESULT:    -4.905      0.742      5.115
REMARK INTER + INTRA:          -6.014
REMARK INTER:                  -5.603
REMARK INTRA:                  -0.411
REMARK UNBOUND:                -0.248
REMARK SMILES C=CC(C)=CCC=C(C)C
REMARK SMILES IDX 5 1 3 2 4 3 6 4 7 5 9 6 8 7 10 8 2 9 1 10
REMARK H PARENT
REMARK Flexibility Score: inf
ROOT
ATOM      1  C   UNL     1     103.064 104.543 128.506  1.00  0.00    -0.020 C 
ATOM      2  C   UNL     1     102.213 104.804 127.493  1.00  0.00    -0.055 C 
ATOM      3  C   UNL     1     102.657 104.794 126.049  1.00  0.00     0.044 C 
ENDROOT
BRANCH   1   4
ATOM      4  C   UNL     1     104.532 104.246 128.347  1.00  0.00     0.055 C 
BRANCH   4   5
ATOM      5  C   UNL     1     104.930 102.985 129.076  1.00  0.00    -0.024 C 
ATOM      6  C   UNL     1     105.415 101.721 126.969  1.00  0.00     0.039 C 
ATOM      7  C   UNL     1     105.320 101.840 128.470  1.00  0.00    -0.080 C 
ATOM      8  C   UNL     1     105.728 100.652 129.301  1.00  0.00     0.039 C 
ENDBRANCH   4   5
ENDBRANCH   1   4
BRANCH   2   9
ATOM      9  C   UNL     1     100.783 105.026 127.832  1.00  0.00    -0.005 C 
ATOM     10  C   UNL     1     100.310 105.020 129.079  1.00  0.00     0.009 C 
ENDBRANCH   2   9
TORSDOF 3
ENDMDL
MODEL 6
REMARK VINA RESULT:    -4.890      5.130      6.900
REMARK INTER + INTRA:          -5.996
REMARK INTER:                  -5.618
REMARK INTRA:                  -0.378
REMARK UNBOUND:                -0.248
REMARK SMILES C=CC(C)=CCC=C(C)C
REMARK SMILES IDX 5 1 3 2 4 3 6 4 7 5 9 6 8 7 10 8 2 9 1 10
REMARK H PARENT
REMARK Flexibility Score: inf
ROOT
ATOM      1  C   UNL     1     104.492 109.341 128.505  1.00  0.00    -0.020 C 
ATOM      2  C   UNL     1     104.812 110.226 127.539  1.00  0.00    -0.055 C 
ATOM      3  C   UNL     1     104.814 109.851 126.075  1.00  0.00     0.044 C 
ENDROOT
BRANCH   1   4
ATOM      4  C   UNL     1     104.133 107.897 128.270  1.00  0.00     0.055 C 
BRANCH   4   5
ATOM      5  C   UNL     1     102.903 107.492 129.047  1.00  0.00    -0.024 C 
ATOM      6  C   UNL     1     101.546 107.050 126.989  1.00  0.00     0.039 C 
ATOM      7  C   UNL     1     101.731 107.118 128.485  1.00  0.00    -0.080 C 
ATOM      8  C   UNL     1     100.578 106.702 129.360  1.00  0.00     0.039 C 
ENDBRANCH   4   5
ENDBRANCH   1   4
BRANCH   2   9
ATOM      9  C   UNL     1     105.090 111.627 127.950  1.00  0.00    -0.005 C 
ATOM     10  C   UNL     1     104.932 112.077 129.196  1.00  0.00     0.009 C 
ENDBRANCH   2   9
TORSDOF 3
ENDMDL
MODEL 7
REMARK VINA RESULT:    -4.888      7.308      7.762
REMARK INTER + INTRA:          -5.993
REMARK INTER:                  -5.587
REMARK INTRA:                  -0.406
REMARK UNBOUND:                -0.248
REMARK SMILES C=CC(C)=CCC=C(C)C
REMARK SMILES IDX 5 1 3 2 4 3 6 4 7 5 9 6 8 7 10 8 2 9 1 10
REMARK H PARENT
REMARK Flexibility Score: inf
ROOT
ATOM      1  C   UNL     1     109.342 107.979 128.535  1.00  0.00    -0.020 C 
ATOM      2  C   UNL     1     110.217 107.696 127.548  1.00  0.00    -0.055 C 
ATOM      3  C   UNL     1     109.817 107.715 126.091  1.00  0.00     0.044 C 
ENDROOT
BRANCH   1   4
ATOM      4  C   UNL     1     107.887 108.311 128.331  1.00  0.00     0.055 C 
BRANCH   4   5
ATOM      5  C   UNL     1     107.489 109.560 129.079  1.00  0.00    -0.024 C 
ATOM      6  C   UNL     1     107.127 110.895 126.991  1.00  0.00     0.039 C 
ATOM      7  C   UNL     1     107.153 110.731 128.491  1.00  0.00    -0.080 C 
ATOM      8  C   UNL     1     106.739 111.906 129.338  1.00  0.00     0.039 C 
ENDBRANCH   4   5
ENDBRANCH   1   4
BRANCH   2   9
ATOM      9  C   UNL     1     111.630 107.441 127.930  1.00  0.00    -0.005 C 
ATOM     10  C   UNL     1     112.085 107.525 129.182  1.00  0.00     0.009 C 
ENDBRANCH   2   9
TORSDOF 3
ENDMDL
MODEL 8
REMARK VINA RESULT:    -4.873      4.536      6.177
REMARK INTER + INTRA:          -5.976
REMARK INTER:                  -5.561
REMARK INTRA:                  -0.415
REMARK UNBOUND:                -0.248
REMARK SMILES C=CC(C)=CCC=C(C)C
REMARK SMILES IDX 5 1 3 2 4 3 6 4 7 5 9 6 8 7 10 8 2 9 1 10
REMARK H PARENT
REMARK Flexibility Score: inf
ROOT
ATOM      1  C   UNL     1     107.882 103.118 128.513  1.00  0.00    -0.020 C 
ATOM      2  C   UNL     1     107.690 102.207 127.537  1.00  0.00    -0.055 C 
ATOM      3  C   UNL     1     107.873 102.547 126.075  1.00  0.00     0.044 C 
ENDROOT
BRANCH   1   4
ATOM      4  C   UNL     1     108.262 104.559 128.289  1.00  0.00     0.055 C 
BRANCH   4   5
ATOM      5  C   UNL     1     109.512 104.932 129.048  1.00  0.00    -0.024 C 
ATOM      6  C   UNL     1     110.837 105.386 126.972  1.00  0.00     0.039 C 
ATOM      7  C   UNL     1     110.679 105.297 128.469  1.00  0.00    -0.080 C 
ATOM      8  C   UNL     1     111.855 105.682 129.329  1.00  0.00     0.039 C 
ENDBRANCH   4   5
ENDBRANCH   1   4
BRANCH   2   9
ATOM      9  C   UNL     1     107.369 100.816 127.945  1.00  0.00    -0.005 C 
ATOM     10  C   UNL     1     107.557 100.344 129.178  1.00  0.00     0.009 C 
ENDBRANCH   2   9
TORSDOF 3
ENDMDL
MODEL 9
REMARK VINA RESULT:    -4.592      5.458      7.390
REMARK INTER + INTRA:          -5.646
REMARK INTER:                  -5.405
REMARK INTRA:                  -0.241
REMARK UNBOUND:                -0.248
REMARK SMILES C=CC(C)=CCC=C(C)C
REMARK SMILES IDX 5 1 3 2 4 3 6 4 7 5 9 6 8 7 10 8 2 9 1 10
REMARK H PARENT
REMARK Flexibility Score: inf
ROOT
ATOM      1  C   UNL     1     104.527 109.619 127.657  1.00  0.00    -0.020 C 
ATOM      2  C   UNL     1     104.803 110.934 127.771  1.00  0.00    -0.055 C 
ATOM      3  C   UNL     1     104.857 111.629 129.112  1.00  0.00     0.044 C 
ENDROOT
BRANCH   1   4
ATOM      4  C   UNL     1     104.215 108.698 128.807  1.00  0.00     0.055 C 
BRANCH   4   5
ATOM      5  C   UNL     1     104.016 107.274 128.346  1.00  0.00    -0.024 C 
ATOM      6  C   UNL     1     101.694 107.123 129.273  1.00  0.00     0.039 C 
ATOM      7  C   UNL     1     102.892 106.551 128.556  1.00  0.00    -0.080 C 
ATOM      8  C   UNL     1     102.792 105.147 128.020  1.00  0.00     0.039 C 
ENDBRANCH   4   5
ENDBRANCH   1   4
BRANCH   2   9
ATOM      9  C   UNL     1     105.139 111.680 126.531  1.00  0.00    -0.005 C 
ATOM     10  C   UNL     1     106.121 111.328 125.699  1.00  0.00     0.009 C 
ENDBRANCH   2   9
TORSDOF 3
ENDMDL
