MODEL 1
REMARK VINA RESULT:    -5.683      0.000      0.000
REMARK INTER + INTRA:          -7.847
REMARK INTER:                  -7.012
REMARK INTRA:                  -0.836
REMARK UNBOUND:                -0.836
REMARK SMILES CC(C)=CCC[C@@H](C)c1ccc(C)cc1
REMARK SMILES IDX 6 1 7 2 8 3 9 4 13 5 12 6 11 7 14 8 10 9 15 10 5 11 4 12
REMARK SMILES IDX 2 13 1 14 3 15
REMARK H PARENT
REMARK Flexibility Score: inf
ROOT
ATOM      1  C   UNL     1      20.043  10.857  33.952  1.00  0.00     0.012 C 
ENDROOT
BRANCH   1   2
ATOM      2  C   UNL     1      19.500  10.047  32.753  1.00  0.00     0.016 C 
ATOM      3  C   UNL     1      18.008   9.741  32.935  1.00  0.00     0.013 C 
BRANCH   2   4
ATOM      4  C   UNL     1      19.743  10.755  31.431  1.00  0.00    -0.045 A 
ATOM      5  C   UNL     1      20.385  12.771  27.666  1.00  0.00     0.044 C 
ATOM      6  C   UNL     1      20.157  12.046  28.959  1.00  0.00    -0.051 A 
ATOM      7  C   UNL     1      18.875  11.991  29.521  1.00  0.00     0.004 A 
ATOM      8  C   UNL     1      21.237  11.474  29.648  1.00  0.00     0.004 A 
ATOM      9  C   UNL     1      18.667  11.345  30.745  1.00  0.00     0.004 A 
ATOM     10  C   UNL     1      21.032  10.829  30.871  1.00  0.00     0.004 A 
ENDBRANCH   2   4
ENDBRANCH   1   2
BRANCH   1  11
ATOM     11  C   UNL     1      21.207  10.141  34.653  1.00  0.00     0.028 C 
BRANCH  11  12
ATOM     12  C   UNL     1      21.014   8.646  34.614  1.00  0.00    -0.028 C 
ATOM     13  C   UNL     1      20.488   7.916  35.622  1.00  0.00    -0.080 C 
ATOM     14  C   UNL     1      19.979   8.556  36.893  1.00  0.00     0.039 C 
ATOM     15  C   UNL     1      20.395   6.421  35.455  1.00  0.00     0.039 C 
ENDBRANCH  11  12
ENDBRANCH   1  11
TORSDOF 4
ENDMDL
MODEL 2
REMARK VINA RESULT:    -5.498      2.785      7.630
REMARK INTER + INTRA:          -7.619
REMARK INTER:                  -6.996
REMARK INTRA:                  -0.623
REMARK UNBOUND:                -0.836
REMARK SMILES CC(C)=CCC[C@@H](C)c1ccc(C)cc1
REMARK SMILES IDX 6 1 7 2 8 3 9 4 13 5 12 6 11 7 14 8 10 9 15 10 5 11 4 12
REMARK SMILES IDX 2 13 1 14 3 15
REMARK H PARENT
REMARK Flexibility Score: inf
ROOT
ATOM      1  C   UNL     1      19.497   9.397  35.695  1.00  0.00     0.012 C 
ENDROOT
BRANCH   1   2
ATOM      2  C   UNL     1      20.713  10.153  36.275  1.00  0.00     0.016 C 
ATOM      3  C   UNL     1      20.969  11.450  35.497  1.00  0.00     0.013 C 
BRANCH   2   4
ATOM      4  C   UNL     1      20.551  10.442  37.757  1.00  0.00    -0.045 A 
ATOM      5  C   UNL     1      20.087  11.218  41.981  1.00  0.00     0.044 C 
ATOM      6  C   UNL     1      20.218  10.944  40.512  1.00  0.00    -0.051 A 
ATOM      7  C   UNL     1      20.501   9.648  40.058  1.00  0.00     0.004 A 
ATOM      8  C   UNL     1      20.127  11.993  39.586  1.00  0.00     0.004 A 
ATOM      9  C   UNL     1      20.659   9.397  38.692  1.00  0.00     0.004 A 
ATOM     10  C   UNL     1      20.285  11.745  38.220  1.00  0.00     0.004 A 
ENDBRANCH   2   4
ENDBRANCH   1   2
BRANCH   1  11
ATOM     11  C   UNL     1      19.697   9.027  34.219  1.00  0.00     0.028 C 
BRANCH  11  12
ATOM     12  C   UNL     1      18.712   9.764  33.346  1.00  0.00    -0.028 C 
ATOM     13  C   UNL     1      19.045  10.465  32.240  1.00  0.00    -0.080 C 
ATOM     14  C   UNL     1      20.466  10.531  31.732  1.00  0.00     0.039 C 
ATOM     15  C   UNL     1      17.954  11.185  31.491  1.00  0.00     0.039 C 
ENDBRANCH  11  12
ENDBRANCH   1  11
TORSDOF 4
ENDMDL
MODEL 3
REMARK VINA RESULT:    -5.497      1.077      2.079
REMARK INTER + INTRA:          -7.618
REMARK INTER:                  -7.145
REMARK INTRA:                  -0.472
REMARK UNBOUND:                -0.836
REMARK SMILES CC(C)=CCC[C@@H](C)c1ccc(C)cc1
REMARK SMILES IDX 6 1 7 2 8 3 9 4 13 5 12 6 11 7 14 8 10 9 15 10 5 11 4 12
REMARK SMILES IDX 2 13 1 14 3 15
REMARK H PARENT
REMARK Flexibility Score: inf
ROOT
ATOM      1  C   UNL     1      19.467  10.836  32.929  1.00  0.00     0.012 C 
ENDROOT
BRANCH   1   2
ATOM      2  C   UNL     1      18.823  10.662  31.535  1.00  0.00     0.016 C 
ATOM      3  C   UNL     1      17.421  11.283  31.503  1.00  0.00     0.013 C 
BRANCH   2   4
ATOM      4  C   UNL     1      19.690  11.242  30.431  1.00  0.00    -0.045 A 
ATOM      5  C   UNL     1      22.194  12.881  27.317  1.00  0.00     0.044 C 
ATOM      6  C   UNL     1      21.328  12.337  28.414  1.00  0.00    -0.051 A 
ATOM      7  C   UNL     1      21.892  11.574  29.446  1.00  0.00     0.004 A 
ATOM      8  C   UNL     1      19.940  12.532  28.380  1.00  0.00     0.004 A 
ATOM      9  C   UNL     1      21.081  11.035  30.450  1.00  0.00     0.004 A 
ATOM     10  C   UNL     1      19.128  11.994  29.383  1.00  0.00     0.004 A 
ENDBRANCH   2   4
ENDBRANCH   1   2
BRANCH   1  11
ATOM     11  C   UNL     1      19.632   9.495  33.660  1.00  0.00     0.028 C 
BRANCH  11  12
ATOM     12  C   UNL     1      19.660   9.702  35.153  1.00  0.00    -0.028 C 
ATOM     13  C   UNL     1      19.927   8.732  36.055  1.00  0.00    -0.080 C 
ATOM     14  C   UNL     1      20.284   7.325  35.635  1.00  0.00     0.039 C 
ATOM     15  C   UNL     1      19.878   9.080  37.520  1.00  0.00     0.039 C 
ENDBRANCH  11  12
ENDBRANCH   1  11
TORSDOF 4
ENDMDL
MODEL 4
REMARK VINA RESULT:    -5.414      2.103      7.179
REMARK INTER + INTRA:          -7.516
REMARK INTER:                  -6.940
REMARK INTRA:                  -0.576
REMARK UNBOUND:                -0.836
REMARK SMILES CC(C)=CCC[C@@H](C)c1ccc(C)cc1
REMARK SMILES IDX 6 1 7 2 8 3 9 4 13 5 12 6 11 7 14 8 10 9 15 10 5 11 4 12
REMARK SMILES IDX 2 13 1 14 3 15
REMARK H PARENT
REMARK Flexibility Score: inf
ROOT
ATOM      1  C   UNL     1      20.430  10.226  34.572  1.00  0.00     0.012 C 
ENDROOT
BRANCH   1   2
ATOM      2  C   UNL     1      19.758   9.225  35.538  1.00  0.00     0.016 C 
ATOM      3  C   UNL     1      20.231   7.794  35.253  1.00  0.00     0.013 C 
BRANCH   2   4
ATOM      4  C   UNL     1      20.000   9.588  36.993  1.00  0.00    -0.045 A 
ATOM      5  C   UNL     1      20.678  10.574  41.143  1.00  0.00     0.044 C 
ATOM      6  C   UNL     1      20.413  10.234  39.706  1.00  0.00    -0.051 A 
ATOM      7  C   UNL     1      20.287   8.895  39.309  1.00  0.00     0.004 A 
ATOM      8  C   UNL     1      20.356  11.248  38.739  1.00  0.00     0.004 A 
ATOM      9  C   UNL     1      20.076   8.575  37.964  1.00  0.00     0.004 A 
ATOM     10  C   UNL     1      20.145  10.929  37.394  1.00  0.00     0.004 A 
ENDBRANCH   2   4
ENDBRANCH   1   2
BRANCH   1  11
ATOM     11  C   UNL     1      20.503   9.683  33.137  1.00  0.00     0.028 C 
BRANCH  11  12
ATOM     12  C   UNL     1      19.775  10.598  32.184  1.00  0.00    -0.028 C 
ATOM     13  C   UNL     1      18.437  10.596  31.993  1.00  0.00    -0.080 C 
ATOM     14  C   UNL     1      17.518   9.692  32.781  1.00  0.00     0.039 C 
ATOM     15  C   UNL     1      17.856  11.542  30.974  1.00  0.00     0.039 C 
ENDBRANCH  11  12
ENDBRANCH   1  11
TORSDOF 4
ENDMDL
MODEL 5
REMARK VINA RESULT:    -5.375      2.148      3.865
REMARK INTER + INTRA:          -7.468
REMARK INTER:                  -6.847
REMARK INTRA:                  -0.621
REMARK UNBOUND:                -0.836
REMARK SMILES CC(C)=CCC[C@@H](C)c1ccc(C)cc1
REMARK SMILES IDX 6 1 7 2 8 3 9 4 13 5 12 6 11 7 14 8 10 9 15 10 5 11 4 12
REMARK SMILES IDX 2 13 1 14 3 15
REMARK H PARENT
REMARK Flexibility Score: inf
ROOT
ATOM      1  C   UNL     1      21.618  10.305  34.589  1.00  0.00     0.012 C 
ENDROOT
BRANCH   1   2
ATOM      2  C   UNL     1      20.764   9.202  33.926  1.00  0.00     0.016 C 
ATOM      3  C   UNL     1      20.228   8.224  34.979  1.00  0.00     0.013 C 
BRANCH   2   4
ATOM      4  C   UNL     1      19.625   9.780  33.104  1.00  0.00    -0.045 A 
ATOM      5  C   UNL     1      16.417  11.453  30.746  1.00  0.00     0.044 C 
ATOM      6  C   UNL     1      17.529  10.895  31.584  1.00  0.00    -0.051 A 
ATOM      7  C   UNL     1      18.864  11.191  31.273  1.00  0.00     0.004 A 
ATOM      8  C   UNL     1      17.246  10.020  32.642  1.00  0.00     0.004 A 
ATOM      9  C   UNL     1      19.904  10.644  32.031  1.00  0.00     0.004 A 
ATOM     10  C   UNL     1      18.284   9.471  33.400  1.00  0.00     0.004 A 
ENDBRANCH   2   4
ENDBRANCH   1   2
BRANCH   1  11
ATOM     11  C   UNL     1      20.757  11.323  35.351  1.00  0.00     0.028 C 
BRANCH  11  12
ATOM     12  C   UNL     1      21.596  12.107  36.328  1.00  0.00    -0.028 C 
ATOM     13  C   UNL     1      21.292  12.278  37.634  1.00  0.00    -0.080 C 
ATOM     14  C   UNL     1      20.079  11.635  38.263  1.00  0.00     0.039 C 
ATOM     15  C   UNL     1      22.208  13.124  38.480  1.00  0.00     0.039 C 
ENDBRANCH  11  12
ENDBRANCH   1  11
TORSDOF 4
ENDMDL
MODEL 6
REMARK VINA RESULT:    -5.371      2.471      4.502
REMARK INTER + INTRA:          -7.463
REMARK INTER:                  -6.776
REMARK INTRA:                  -0.687
REMARK UNBOUND:                -0.836
REMARK SMILES CC(C)=CCC[C@@H](C)c1ccc(C)cc1
REMARK SMILES IDX 6 1 7 2 8 3 9 4 13 5 12 6 11 7 14 8 10 9 15 10 5 11 4 12
REMARK SMILES IDX 2 13 1 14 3 15
REMARK H PARENT
REMARK Flexibility Score: inf
ROOT
ATOM      1  C   UNL     1      21.992  10.145  30.717  1.00  0.00     0.012 C 
ENDROOT
BRANCH   1   2
ATOM      2  C   UNL     1      22.474  11.572  30.374  1.00  0.00     0.016 C 
ATOM      3  C   UNL     1      23.932  11.772  30.808  1.00  0.00     0.013 C 
BRANCH   2   4
ATOM      4  C   UNL     1      22.309  11.889  28.898  1.00  0.00    -0.045 A 
ATOM      5  C   UNL     1      21.885  12.787  24.694  1.00  0.00     0.044 C 
ATOM      6  C   UNL     1      22.040  12.503  26.159  1.00  0.00    -0.051 A 
ATOM      7  C   UNL     1      23.259  12.024  26.660  1.00  0.00     0.004 A 
ATOM      8  C   UNL     1      20.949  12.651  27.027  1.00  0.00     0.004 A 
ATOM      9  C   UNL     1      23.394  11.725  28.020  1.00  0.00     0.004 A 
ATOM     10  C   UNL     1      21.082  12.352  28.386  1.00  0.00     0.004 A 
ENDBRANCH   2   4
ENDBRANCH   1   2
BRANCH   1  11
ATOM     11  C   UNL     1      20.978  10.139  31.870  1.00  0.00     0.028 C 
BRANCH  11  12
ATOM     12  C   UNL     1      19.705  10.838  31.464  1.00  0.00    -0.028 C 
ATOM     13  C   UNL     1      18.477  10.522  31.930  1.00  0.00    -0.080 C 
ATOM     14  C   UNL     1      18.268   9.447  32.970  1.00  0.00     0.039 C 
ATOM     15  C   UNL     1      17.289  11.283  31.399  1.00  0.00     0.039 C 
ENDBRANCH  11  12
ENDBRANCH   1  11
TORSDOF 4
ENDMDL
MODEL 7
REMARK VINA RESULT:    -5.346      1.763      4.490
REMARK INTER + INTRA:          -7.432
REMARK INTER:                  -6.373
REMARK INTRA:                  -1.059
REMARK UNBOUND:                -0.836
REMARK SMILES CC(C)=CCC[C@@H](C)c1ccc(C)cc1
REMARK SMILES IDX 6 1 7 2 8 3 9 4 13 5 12 6 11 7 14 8 10 9 15 10 5 11 4 12
REMARK SMILES IDX 2 13 1 14 3 15
REMARK H PARENT
REMARK Flexibility Score: inf
ROOT
ATOM      1  C   UNL     1      21.918  10.557  33.695  1.00  0.00     0.012 C 
ENDROOT
BRANCH   1   2
ATOM      2  C   UNL     1      20.901   9.417  33.468  1.00  0.00     0.016 C 
ATOM      3  C   UNL     1      20.586   8.699  34.788  1.00  0.00     0.013 C 
BRANCH   2   4
ATOM      4  C   UNL     1      19.625   9.913  32.812  1.00  0.00    -0.045 A 
ATOM      5  C   UNL     1      16.020  11.359  30.922  1.00  0.00     0.044 C 
ATOM      6  C   UNL     1      17.270  10.879  31.598  1.00  0.00    -0.051 A 
ATOM      7  C   UNL     1      18.525  11.332  31.167  1.00  0.00     0.004 A 
ATOM      8  C   UNL     1      17.197   9.923  32.622  1.00  0.00     0.004 A 
ATOM      9  C   UNL     1      19.693  10.858  31.773  1.00  0.00     0.004 A 
ATOM     10  C   UNL     1      18.364   9.448  33.228  1.00  0.00     0.004 A 
ENDBRANCH   2   4
ENDBRANCH   1   2
BRANCH   1  11
ATOM     11  C   UNL     1      23.241  10.307  32.957  1.00  0.00     0.028 C 
BRANCH  11  12
ATOM     12  C   UNL     1      23.241  10.994  31.615  1.00  0.00    -0.028 C 
ATOM     13  C   UNL     1      23.042  10.366  30.435  1.00  0.00    -0.080 C 
ATOM     14  C   UNL     1      22.739   8.889  30.355  1.00  0.00     0.039 C 
ATOM     15  C   UNL     1      23.112  11.180  29.168  1.00  0.00     0.039 C 
ENDBRANCH  11  12
ENDBRANCH   1  11
TORSDOF 4
ENDMDL
MODEL 8
REMARK VINA RESULT:    -5.204      1.234      6.577
REMARK INTER + INTRA:          -7.256
REMARK INTER:                  -6.725
REMARK INTRA:                  -0.531
REMARK UNBOUND:                -0.836
REMARK SMILES CC(C)=CCC[C@@H](C)c1ccc(C)cc1
REMARK SMILES IDX 6 1 7 2 8 3 9 4 13 5 12 6 11 7 14 8 10 9 15 10 5 11 4 12
REMARK SMILES IDX 2 13 1 14 3 15
REMARK H PARENT
REMARK Flexibility Score: inf
ROOT
ATOM      1  C   UNL     1      20.681   9.937  31.559  1.00  0.00     0.012 C 
ENDROOT
BRANCH   1   2
ATOM      2  C   UNL     1      19.760  10.700  32.536  1.00  0.00     0.016 C 
ATOM      3  C   UNL     1      18.285  10.496  32.165  1.00  0.00     0.013 C 
BRANCH   2   4
ATOM      4  C   UNL     1      20.007  10.301  33.981  1.00  0.00    -0.045 A 
ATOM      5  C   UNL     1      20.681   9.128  38.083  1.00  0.00     0.044 C 
ATOM      6  C   UNL     1      20.421   9.546  36.666  1.00  0.00    -0.051 A 
ATOM      7  C   UNL     1      19.831   8.651  35.763  1.00  0.00     0.004 A 
ATOM      8  C   UNL     1      20.825  10.812  36.217  1.00  0.00     0.004 A 
ATOM      9  C   UNL     1      19.620   9.027  34.432  1.00  0.00     0.004 A 
ATOM     10  C   UNL     1      20.615  11.189  34.888  1.00  0.00     0.004 A 
ENDBRANCH   2   4
ENDBRANCH   1   2
BRANCH   1  11
ATOM     11  C   UNL     1      21.574  10.886  30.747  1.00  0.00     0.028 C 
BRANCH  11  12
ATOM     12  C   UNL     1      20.765  11.623  29.710  1.00  0.00    -0.028 C 
ATOM     13  C   UNL     1      21.261  12.088  28.542  1.00  0.00    -0.080 C 
ATOM     14  C   UNL     1      22.697  11.857  28.133  1.00  0.00     0.039 C 
ATOM     15  C   UNL     1      20.338  12.844  27.620  1.00  0.00     0.039 C 
ENDBRANCH  11  12
ENDBRANCH   1  11
TORSDOF 4
ENDMDL
MODEL 9
REMARK VINA RESULT:    -5.186      2.098      6.494
REMARK INTER + INTRA:          -7.235
REMARK INTER:                  -6.558
REMARK INTRA:                  -0.676
REMARK UNBOUND:                -0.836
REMARK SMILES CC(C)=CCC[C@@H](C)c1ccc(C)cc1
REMARK SMILES IDX 6 1 7 2 8 3 9 4 13 5 12 6 11 7 14 8 10 9 15 10 5 11 4 12
REMARK SMILES IDX 2 13 1 14 3 15
REMARK H PARENT
REMARK Flexibility Score: inf
ROOT
ATOM      1  C   UNL     1      21.091  10.559  33.459  1.00  0.00     0.012 C 
ENDROOT
BRANCH   1   2
ATOM      2  C   UNL     1      21.022   9.554  34.629  1.00  0.00     0.016 C 
ATOM      3  C   UNL     1      22.292   8.693  34.682  1.00  0.00     0.013 C 
BRANCH   2   4
ATOM      4  C   UNL     1      20.791  10.246  35.962  1.00  0.00    -0.045 A 
ATOM      5  C   UNL     1      20.116  12.173  39.768  1.00  0.00     0.044 C 
ATOM      6  C   UNL     1      20.322  11.507  38.439  1.00  0.00    -0.051 A 
ATOM      7  C   UNL     1      20.201  10.116  38.320  1.00  0.00     0.004 A 
ATOM      8  C   UNL     1      20.701  12.264  37.321  1.00  0.00     0.004 A 
ATOM      9  C   UNL     1      20.428   9.490  37.090  1.00  0.00     0.004 A 
ATOM     10  C   UNL     1      20.928  11.640  36.091  1.00  0.00     0.004 A 
ENDBRANCH   2   4
ENDBRANCH   1   2
BRANCH   1  11
ATOM     11  C   UNL     1      20.595   9.946  32.141  1.00  0.00     0.028 C 
BRANCH  11  12
ATOM     12  C   UNL     1      19.475  10.770  31.557  1.00  0.00    -0.028 C 
ATOM     13  C   UNL     1      18.170  10.621  31.874  1.00  0.00    -0.080 C 
ATOM     14  C   UNL     1      17.707   9.626  32.912  1.00  0.00     0.039 C 
ATOM     15  C   UNL     1      17.157  11.492  31.176  1.00  0.00     0.039 C 
ENDBRANCH  11  12
ENDBRANCH   1  11
TORSDOF 4
ENDMDL
