MODEL 1
REMARK VINA RESULT:    -4.047      0.000      0.000
REMARK INTER + INTRA:          -4.450
REMARK INTER:                  -4.283
REMARK INTRA:                  -0.167
REMARK UNBOUND:                -0.167
REMARK SMILES C=C(C)[C@@H]1CC=C(C)CC1
REMARK SMILES IDX 8 1 7 2 6 3 5 4 4 5 10 6 9 7 2 8 1 9 3 10
REMARK H PARENT
REMARK Flexibility Score: inf
ROOT
ATOM      1  C   UNL     1      -6.221  -7.619  -3.616  1.00  0.00     0.039 C 
ATOM      2  C   UNL     1      -7.365  -7.854  -2.671  1.00  0.00    -0.077 C 
ATOM      3  C   UNL     1      -7.156  -8.474  -1.497  1.00  0.00    -0.027 C 
ATOM      4  C   UNL     1      -8.322  -8.747  -0.588  1.00  0.00     0.035 C 
ATOM      5  C   UNL     1      -9.504  -9.333  -1.396  1.00  0.00     0.018 C 
ATOM      6  C   UNL     1      -9.761  -8.596  -2.752  1.00  0.00     0.013 C 
ATOM      7  C   UNL     1      -8.775  -7.445  -3.029  1.00  0.00     0.031 C 
ENDROOT
BRANCH   5   8
ATOM      8  C   UNL     1     -10.760  -9.407  -0.542  1.00  0.00    -0.077 C 
ATOM      9  C   UNL     1     -11.156 -10.569   0.008  1.00  0.00     0.008 C 
ATOM     10  C   UNL     1     -11.559  -8.152  -0.313  1.00  0.00     0.039 C 
ENDBRANCH   5   8
TORSDOF 1
ENDMDL
MODEL 2
REMARK VINA RESULT:    -3.904      1.711      4.591
REMARK INTER + INTRA:          -4.299
REMARK INTER:                  -4.140
REMARK INTRA:                  -0.159
REMARK UNBOUND:                -0.167
REMARK SMILES C=C(C)[C@@H]1CC=C(C)CC1
REMARK SMILES IDX 8 1 7 2 6 3 5 4 4 5 10 6 9 7 2 8 1 9 3 10
REMARK H PARENT
REMARK Flexibility Score: inf
ROOT
ATOM      1  C   UNL     1     -13.657  -8.668   0.477  1.00  0.00     0.039 C 
ATOM      2  C   UNL     1     -12.366  -9.044  -0.195  1.00  0.00    -0.077 C 
ATOM      3  C   UNL     1     -11.907 -10.305  -0.119  1.00  0.00    -0.027 C 
ATOM      4  C   UNL     1     -10.588 -10.650  -0.755  1.00  0.00     0.035 C 
ATOM      5  C   UNL     1      -9.527  -9.581  -0.397  1.00  0.00     0.018 C 
ATOM      6  C   UNL     1     -10.057  -8.113  -0.507  1.00  0.00     0.013 C 
ATOM      7  C   UNL     1     -11.535  -8.018  -0.930  1.00  0.00     0.031 C 
ENDROOT
BRANCH   5   8
ATOM      8  C   UNL     1      -8.256  -9.789  -1.204  1.00  0.00    -0.077 C 
ATOM      9  C   UNL     1      -7.302  -8.842  -1.251  1.00  0.00     0.008 C 
ATOM     10  C   UNL     1      -8.072 -11.083  -1.953  1.00  0.00     0.039 C 
ENDBRANCH   5   8
TORSDOF 1
ENDMDL
MODEL 3
REMARK VINA RESULT:    -3.902     12.241     13.812
REMARK INTER + INTRA:          -4.297
REMARK INTER:                  -4.139
REMARK INTRA:                  -0.159
REMARK UNBOUND:                -0.167
REMARK SMILES C=C(C)[C@@H]1CC=C(C)CC1
REMARK SMILES IDX 8 1 7 2 6 3 5 4 4 5 10 6 9 7 2 8 1 9 3 10
REMARK H PARENT
REMARK Flexibility Score: inf
ROOT
ATOM      1  C   UNL     1     -10.100   2.718   1.464  1.00  0.00     0.039 C 
ATOM      2  C   UNL     1      -9.249   3.527   0.526  1.00  0.00    -0.077 C 
ATOM      3  C   UNL     1      -9.180   3.200  -0.775  1.00  0.00    -0.027 C 
ATOM      4  C   UNL     1      -8.283   3.990  -1.688  1.00  0.00     0.035 C 
ATOM      5  C   UNL     1      -6.899   4.199  -1.027  1.00  0.00     0.018 C 
ATOM      6  C   UNL     1      -6.982   4.602   0.483  1.00  0.00     0.013 C 
ATOM      7  C   UNL     1      -8.423   4.690   1.022  1.00  0.00     0.031 C 
ENDROOT
BRANCH   5   8
ATOM      8  C   UNL     1      -6.058   5.178  -1.831  1.00  0.00    -0.077 C 
ATOM      9  C   UNL     1      -5.736   6.386  -1.334  1.00  0.00     0.008 C 
ATOM     10  C   UNL     1      -5.579   4.772  -3.200  1.00  0.00     0.039 C 
ENDBRANCH   5   8
TORSDOF 1
ENDMDL
MODEL 4
REMARK VINA RESULT:    -3.883     12.198     13.748
REMARK INTER + INTRA:          -4.277
REMARK INTER:                  -4.115
REMARK INTRA:                  -0.162
REMARK UNBOUND:                -0.167
REMARK SMILES C=C(C)[C@@H]1CC=C(C)CC1
REMARK SMILES IDX 8 1 7 2 6 3 5 4 4 5 10 6 9 7 2 8 1 9 3 10
REMARK H PARENT
REMARK Flexibility Score: inf
ROOT
ATOM      1  C   UNL     1     -10.213   2.660   1.318  1.00  0.00     0.039 C 
ATOM      2  C   UNL     1      -9.319   3.478   0.428  1.00  0.00    -0.077 C 
ATOM      3  C   UNL     1      -9.243   3.206  -0.886  1.00  0.00    -0.027 C 
ATOM      4  C   UNL     1      -8.305   4.002  -1.751  1.00  0.00     0.035 C 
ATOM      5  C   UNL     1      -6.924   4.129  -1.063  1.00  0.00     0.018 C 
ATOM      6  C   UNL     1      -7.013   4.467   0.461  1.00  0.00     0.013 C 
ATOM      7  C   UNL     1      -8.457   4.586   0.986  1.00  0.00     0.031 C 
ENDROOT
BRANCH   5   8
ATOM      8  C   UNL     1      -6.035   5.110  -1.812  1.00  0.00    -0.077 C 
ATOM      9  C   UNL     1      -5.579   4.830  -3.046  1.00  0.00     0.008 C 
ATOM     10  C   UNL     1      -5.674   6.415  -1.152  1.00  0.00     0.039 C 
ENDBRANCH   5   8
TORSDOF 1
ENDMDL
MODEL 5
REMARK VINA RESULT:    -3.798      1.334      4.539
REMARK INTER + INTRA:          -4.187
REMARK INTER:                  -4.029
REMARK INTRA:                  -0.158
REMARK UNBOUND:                -0.167
REMARK SMILES C=C(C)[C@@H]1CC=C(C)CC1
REMARK SMILES IDX 8 1 7 2 6 3 5 4 4 5 10 6 9 7 2 8 1 9 3 10
REMARK H PARENT
REMARK Flexibility Score: inf
ROOT
ATOM      1  C   UNL     1     -13.818  -9.201   0.040  1.00  0.00     0.039 C 
ATOM      2  C   UNL     1     -12.319  -9.235  -0.058  1.00  0.00    -0.077 C 
ATOM      3  C   UNL     1     -11.627  -8.097  -0.238  1.00  0.00    -0.027 C 
ATOM      4  C   UNL     1     -10.131  -8.158  -0.385  1.00  0.00     0.035 C 
ATOM      5  C   UNL     1      -9.737  -9.285  -1.370  1.00  0.00     0.018 C 
ATOM      6  C   UNL     1     -10.527 -10.616  -1.146  1.00  0.00     0.013 C 
ATOM      7  C   UNL     1     -11.558 -10.540  -0.003  1.00  0.00     0.031 C 
ENDROOT
BRANCH   5   8
ATOM      8  C   UNL     1      -8.233  -9.508  -1.363  1.00  0.00    -0.077 C 
ATOM      9  C   UNL     1      -7.712 -10.705  -1.039  1.00  0.00     0.008 C 
ATOM     10  C   UNL     1      -7.326  -8.364  -1.732  1.00  0.00     0.039 C 
ENDBRANCH   5   8
TORSDOF 1
ENDMDL
MODEL 6
REMARK VINA RESULT:    -3.711     11.970     12.855
REMARK INTER + INTRA:          -4.095
REMARK INTER:                  -3.936
REMARK INTRA:                  -0.159
REMARK UNBOUND:                -0.167
REMARK SMILES C=C(C)[C@@H]1CC=C(C)CC1
REMARK SMILES IDX 8 1 7 2 6 3 5 4 4 5 10 6 9 7 2 8 1 9 3 10
REMARK H PARENT
REMARK Flexibility Score: inf
ROOT
ATOM      1  C   UNL     1      -7.124   5.072  -3.188  1.00  0.00     0.039 C 
ATOM      2  C   UNL     1      -7.522   4.378  -1.915  1.00  0.00    -0.077 C 
ATOM      3  C   UNL     1      -8.772   3.910  -1.763  1.00  0.00    -0.027 C 
ATOM      4  C   UNL     1      -9.166   3.265  -0.463  1.00  0.00     0.035 C 
ATOM      5  C   UNL     1      -8.675   4.123   0.729  1.00  0.00     0.018 C 
ATOM      6  C   UNL     1      -7.211   4.648   0.560  1.00  0.00     0.013 C 
ATOM      7  C   UNL     1      -6.551   4.228  -0.767  1.00  0.00     0.031 C 
ENDROOT
BRANCH   5   8
ATOM      8  C   UNL     1      -8.866   3.382   2.043  1.00  0.00    -0.077 C 
ATOM      9  C   UNL     1      -8.081   3.641   3.104  1.00  0.00     0.008 C 
ATOM     10  C   UNL     1      -9.958   2.350   2.146  1.00  0.00     0.039 C 
ENDBRANCH   5   8
TORSDOF 1
ENDMDL
MODEL 7
REMARK VINA RESULT:    -3.707     11.578     12.576
REMARK INTER + INTRA:          -4.090
REMARK INTER:                  -3.930
REMARK INTRA:                  -0.160
REMARK UNBOUND:                -0.167
REMARK SMILES C=C(C)[C@@H]1CC=C(C)CC1
REMARK SMILES IDX 8 1 7 2 6 3 5 4 4 5 10 6 9 7 2 8 1 9 3 10
REMARK H PARENT
REMARK Flexibility Score: inf
ROOT
ATOM      1  C   UNL     1      -8.026   3.476   4.738  1.00  0.00     0.039 C 
ATOM      2  C   UNL     1      -8.322   3.217   3.287  1.00  0.00    -0.077 C 
ATOM      3  C   UNL     1      -7.922   4.091   2.349  1.00  0.00    -0.027 C 
ATOM      4  C   UNL     1      -8.272   3.840   0.908  1.00  0.00     0.035 C 
ATOM      5  C   UNL     1      -9.761   3.436   0.784  1.00  0.00     0.018 C 
ATOM      6  C   UNL     1     -10.220   2.401   1.863  1.00  0.00     0.013 C 
ATOM      7  C   UNL     1      -9.108   2.002   2.852  1.00  0.00     0.031 C 
ENDROOT
BRANCH   5   8
ATOM      8  C   UNL     1     -10.078   2.965  -0.627  1.00  0.00    -0.077 C 
ATOM      9  C   UNL     1     -11.185   2.246  -0.885  1.00  0.00     0.008 C 
ATOM     10  C   UNL     1      -9.132   3.322  -1.743  1.00  0.00     0.039 C 
ENDBRANCH   5   8
TORSDOF 1
ENDMDL
MODEL 8
REMARK VINA RESULT:    -3.664     13.058     14.077
REMARK INTER + INTRA:          -4.045
REMARK INTER:                  -3.886
REMARK INTRA:                  -0.160
REMARK UNBOUND:                -0.167
REMARK SMILES C=C(C)[C@@H]1CC=C(C)CC1
REMARK SMILES IDX 8 1 7 2 6 3 5 4 4 5 10 6 9 7 2 8 1 9 3 10
REMARK H PARENT
REMARK Flexibility Score: inf
ROOT
ATOM      1  C   UNL     1      -4.070   6.593  -3.307  1.00  0.00     0.039 C 
ATOM      2  C   UNL     1      -5.235   6.153  -2.466  1.00  0.00    -0.077 C 
ATOM      3  C   UNL     1      -5.461   6.726  -1.271  1.00  0.00    -0.027 C 
ATOM      4  C   UNL     1      -6.601   6.237  -0.421  1.00  0.00     0.035 C 
ATOM      5  C   UNL     1      -6.609   4.690  -0.378  1.00  0.00     0.018 C 
ATOM      6  C   UNL     1      -6.369   4.024  -1.773  1.00  0.00     0.013 C 
ATOM      7  C   UNL     1      -6.150   5.036  -2.913  1.00  0.00     0.031 C 
ENDROOT
BRANCH   5   8
ATOM      8  C   UNL     1      -7.875   4.174   0.288  1.00  0.00    -0.077 C 
ATOM      9  C   UNL     1      -8.889   3.677  -0.442  1.00  0.00     0.008 C 
ATOM     10  C   UNL     1      -7.979   4.221   1.790  1.00  0.00     0.039 C 
ENDBRANCH   5   8
TORSDOF 1
ENDMDL
MODEL 9
REMARK VINA RESULT:    -3.602      1.138      4.521
REMARK INTER + INTRA:          -3.980
REMARK INTER:                  -3.821
REMARK INTRA:                  -0.159
REMARK UNBOUND:                -0.167
REMARK SMILES C=C(C)[C@@H]1CC=C(C)CC1
REMARK SMILES IDX 8 1 7 2 6 3 5 4 4 5 10 6 9 7 2 8 1 9 3 10
REMARK H PARENT
REMARK Flexibility Score: inf
ROOT
ATOM      1  C   UNL     1     -10.190 -10.197  -0.337  1.00  0.00     0.039 C 
ATOM      2  C   UNL     1      -9.045  -9.742  -1.199  1.00  0.00    -0.077 C 
ATOM      3  C   UNL     1      -8.144  -8.868  -0.719  1.00  0.00    -0.027 C 
ATOM      4  C   UNL     1      -7.035  -8.386  -1.613  1.00  0.00     0.035 C 
ATOM      5  C   UNL     1      -7.600  -7.995  -3.000  1.00  0.00     0.018 C 
ATOM      6  C   UNL     1      -8.632  -9.025  -3.568  1.00  0.00     0.013 C 
ATOM      7  C   UNL     1      -8.902 -10.215  -2.627  1.00  0.00     0.031 C 
ENDROOT
BRANCH   5   8
ATOM      8  C   UNL     1      -6.474  -7.718  -3.984  1.00  0.00    -0.077 C 
ATOM      9  C   UNL     1      -6.623  -7.972  -5.297  1.00  0.00     0.008 C 
ATOM     10  C   UNL     1      -5.180  -7.146  -3.468  1.00  0.00     0.039 C 
ENDBRANCH   5   8
TORSDOF 1
ENDMDL
