MODEL 1
REMARK VINA RESULT:    -4.470      0.000      0.000
REMARK INTER + INTRA:          -5.763
REMARK INTER:                  -5.515
REMARK INTRA:                  -0.247
REMARK UNBOUND:                -0.247
REMARK SMILES CCCCC=CC(C)=O
REMARK SMILES IDX 4 1 3 2 2 3 1 4 5 5 6 6 7 7 9 8 8 9
REMARK H PARENT
REMARK Flexibility Score: inf
ROOT
ATOM      1  C   UNL     1     -25.937  20.245 -33.510  1.00  0.00     0.027 C 
ENDROOT
BRANCH   1   2
ATOM      2  C   UNL     1     -27.134  20.787 -34.303  1.00  0.00     0.004 C 
BRANCH   2   3
ATOM      3  C   UNL     1     -28.428  20.075 -33.896  1.00  0.00    -0.003 C 
ATOM      4  C   UNL     1     -28.156  18.982 -32.868  1.00  0.00     0.004 C 
ENDBRANCH   2   3
ENDBRANCH   1   2
BRANCH   1   5
ATOM      5  C   UNL     1     -24.766  19.963 -34.412  1.00  0.00    -0.023 C 
ATOM      6  C   UNL     1     -23.527  19.625 -34.014  1.00  0.00     0.042 C 
BRANCH   6   7
ATOM      7  C   UNL     1     -23.053  19.507 -32.615  1.00  0.00     0.152 C 
ATOM      8  O   UNL     1     -23.076  18.411 -31.997  1.00  0.00    -0.295 OA
ATOM      9  C   UNL     1     -22.598  20.736 -31.895  1.00  0.00     0.093 C 
ENDBRANCH   6   7
ENDBRANCH   1   5
TORSDOF 4
ENDMDL
MODEL 2
REMARK VINA RESULT:    -4.328      1.424      2.135
REMARK INTER + INTRA:          -5.588
REMARK INTER:                  -5.145
REMARK INTRA:                  -0.443
REMARK UNBOUND:                -0.247
REMARK SMILES CCCCC=CC(C)=O
REMARK SMILES IDX 4 1 3 2 2 3 1 4 5 5 6 6 7 7 9 8 8 9
REMARK H PARENT
REMARK Flexibility Score: inf
ROOT
ATOM      1  C   UNL     1     -24.383  19.644 -34.323  1.00  0.00     0.027 C 
ENDROOT
BRANCH   1   2
ATOM      2  C   UNL     1     -25.700  20.379 -34.608  1.00  0.00     0.004 C 
BRANCH   2   3
ATOM      3  C   UNL     1     -26.697  20.179 -33.462  1.00  0.00    -0.003 C 
ATOM      4  C   UNL     1     -27.507  21.447 -33.209  1.00  0.00     0.004 C 
ENDBRANCH   2   3
ENDBRANCH   1   2
BRANCH   1   5
ATOM      5  C   UNL     1     -23.655  20.259 -33.157  1.00  0.00    -0.023 C 
ATOM      6  C   UNL     1     -23.330  19.634 -32.012  1.00  0.00     0.042 C 
BRANCH   6   7
ATOM      7  C   UNL     1     -23.660  18.237 -31.647  1.00  0.00     0.152 C 
ATOM      8  O   UNL     1     -22.872  17.285 -31.889  1.00  0.00    -0.295 OA
ATOM      9  C   UNL     1     -24.992  17.938 -31.036  1.00  0.00     0.093 C 
ENDBRANCH   6   7
ENDBRANCH   1   5
TORSDOF 4
ENDMDL
MODEL 3
REMARK VINA RESULT:    -4.198      7.564      8.730
REMARK INTER + INTRA:          -5.427
REMARK INTER:                  -5.082
REMARK INTRA:                  -0.345
REMARK UNBOUND:                -0.247
REMARK SMILES CCCCC=CC(C)=O
REMARK SMILES IDX 4 1 3 2 2 3 1 4 5 5 6 6 7 7 9 8 8 9
REMARK H PARENT
REMARK Flexibility Score: inf
ROOT
ATOM      1  C   UNL     1     -27.745  12.544 -28.276  1.00  0.00     0.027 C 
ENDROOT
BRANCH   1   2
ATOM      2  C   UNL     1     -29.088  11.825 -28.461  1.00  0.00     0.004 C 
BRANCH   2   3
ATOM      3  C   UNL     1     -29.634  12.041 -29.877  1.00  0.00    -0.003 C 
ATOM      4  C   UNL     1     -29.741  10.721 -30.634  1.00  0.00     0.004 C 
ENDBRANCH   2   3
ENDBRANCH   1   2
BRANCH   1   5
ATOM      5  C   UNL     1     -26.608  11.732 -28.836  1.00  0.00    -0.023 C 
ATOM      6  C   UNL     1     -25.838  12.072 -29.885  1.00  0.00     0.042 C 
BRANCH   6   7
ATOM      7  C   UNL     1     -25.980  13.283 -30.726  1.00  0.00     0.152 C 
ATOM      8  O   UNL     1     -26.353  13.217 -31.926  1.00  0.00    -0.295 OA
ATOM      9  C   UNL     1     -25.605  14.614 -30.155  1.00  0.00     0.093 C 
ENDBRANCH   6   7
ENDBRANCH   1   5
TORSDOF 4
ENDMDL
MODEL 4
REMARK VINA RESULT:    -4.187      1.778      4.777
REMARK INTER + INTRA:          -5.413
REMARK INTER:                  -5.636
REMARK INTRA:                   0.223
REMARK UNBOUND:                -0.247
REMARK SMILES CCCCC=CC(C)=O
REMARK SMILES IDX 4 1 3 2 2 3 1 4 5 5 6 6 7 7 9 8 8 9
REMARK H PARENT
REMARK Flexibility Score: inf
ROOT
ATOM      1  C   UNL     1     -25.489  19.693 -33.559  1.00  0.00     0.027 C 
ENDROOT
BRANCH   1   2
ATOM      2  C   UNL     1     -24.345  19.989 -34.538  1.00  0.00     0.004 C 
BRANCH   2   3
ATOM      3  C   UNL     1     -22.985  19.884 -33.840  1.00  0.00    -0.003 C 
ATOM      4  C   UNL     1     -22.850  20.931 -32.739  1.00  0.00     0.004 C 
ENDBRANCH   2   3
ENDBRANCH   1   2
BRANCH   1   5
ATOM      5  C   UNL     1     -26.627  20.662 -33.739  1.00  0.00    -0.023 C 
ATOM      6  C   UNL     1     -27.913  20.435 -33.422  1.00  0.00     0.042 C 
BRANCH   6   7
ATOM      7  C   UNL     1     -28.478  19.179 -32.876  1.00  0.00     0.152 C 
ATOM      8  O   UNL     1     -27.748  18.295 -32.356  1.00  0.00    -0.295 OA
ATOM      9  C   UNL     1     -29.945  18.923 -33.006  1.00  0.00     0.093 C 
ENDBRANCH   6   7
ENDBRANCH   1   5
TORSDOF 4
ENDMDL
MODEL 5
REMARK VINA RESULT:    -4.161      7.731      8.970
REMARK INTER + INTRA:          -5.381
REMARK INTER:                  -4.832
REMARK INTRA:                  -0.549
REMARK UNBOUND:                -0.247
REMARK SMILES CCCCC=CC(C)=O
REMARK SMILES IDX 4 1 3 2 2 3 1 4 5 5 6 6 7 7 9 8 8 9
REMARK H PARENT
REMARK Flexibility Score: inf
ROOT
ATOM      1  C   UNL     1     -28.466  10.767 -31.467  1.00  0.00     0.027 C 
ENDROOT
BRANCH   1   2
ATOM      2  C   UNL     1     -29.487  10.705 -30.322  1.00  0.00     0.004 C 
BRANCH   2   3
ATOM      3  C   UNL     1     -29.686  12.088 -29.692  1.00  0.00    -0.003 C 
ATOM      4  C   UNL     1     -29.075  12.150 -28.295  1.00  0.00     0.004 C 
ENDBRANCH   2   3
ENDBRANCH   1   2
BRANCH   1   5
ATOM      5  C   UNL     1     -27.072  10.488 -30.972  1.00  0.00    -0.023 C 
ATOM      6  C   UNL     1     -26.108  11.403 -30.772  1.00  0.00     0.042 C 
BRANCH   6   7
ATOM      7  C   UNL     1     -26.205  12.857 -31.039  1.00  0.00     0.152 C 
ATOM      8  O   UNL     1     -26.260  13.314 -32.211  1.00  0.00    -0.295 OA
ATOM      9  C   UNL     1     -26.168  13.812 -29.889  1.00  0.00     0.093 C 
ENDBRANCH   6   7
ENDBRANCH   1   5
TORSDOF 4
ENDMDL
MODEL 6
REMARK VINA RESULT:    -4.099      7.945      9.116
REMARK INTER + INTRA:          -5.305
REMARK INTER:                  -4.749
REMARK INTRA:                  -0.556
REMARK UNBOUND:                -0.247
REMARK SMILES CCCCC=CC(C)=O
REMARK SMILES IDX 4 1 3 2 2 3 1 4 5 5 6 6 7 7 9 8 8 9
REMARK H PARENT
REMARK Flexibility Score: inf
ROOT
ATOM      1  C   UNL     1     -28.221  12.814 -28.879  1.00  0.00     0.027 C 
ENDROOT
BRANCH   1   2
ATOM      2  C   UNL     1     -29.394  11.825 -28.834  1.00  0.00     0.004 C 
BRANCH   2   3
ATOM      3  C   UNL     1     -29.897  11.508 -30.246  1.00  0.00    -0.003 C 
ATOM      4  C   UNL     1     -29.660  10.043 -30.599  1.00  0.00     0.004 C 
ENDBRANCH   2   3
ENDBRANCH   1   2
BRANCH   1   5
ATOM      5  C   UNL     1     -26.901  12.093 -28.932  1.00  0.00    -0.023 C 
ATOM      6  C   UNL     1     -26.106  11.981 -30.010  1.00  0.00     0.042 C 
BRANCH   6   7
ATOM      7  C   UNL     1     -26.387  12.500 -31.369  1.00  0.00     0.152 C 
ATOM      8  O   UNL     1     -26.295  13.725 -31.643  1.00  0.00    -0.295 OA
ATOM      9  C   UNL     1     -26.857  11.554 -32.427  1.00  0.00     0.093 C 
ENDBRANCH   6   7
ENDBRANCH   1   5
TORSDOF 4
ENDMDL
MODEL 7
REMARK VINA RESULT:    -4.020      2.493      3.866
REMARK INTER + INTRA:          -5.207
REMARK INTER:                  -4.858
REMARK INTRA:                  -0.349
REMARK UNBOUND:                -0.247
REMARK SMILES CCCCC=CC(C)=O
REMARK SMILES IDX 4 1 3 2 2 3 1 4 5 5 6 6 7 7 9 8 8 9
REMARK H PARENT
REMARK Flexibility Score: inf
ROOT
ATOM      1  C   UNL     1     -23.792  19.458 -32.048  1.00  0.00     0.027 C 
ENDROOT
BRANCH   1   2
ATOM      2  C   UNL     1     -23.983  17.978 -31.692  1.00  0.00     0.004 C 
BRANCH   2   3
ATOM      3  C   UNL     1     -25.217  17.783 -30.803  1.00  0.00    -0.003 C 
ATOM      4  C   UNL     1     -25.417  16.312 -30.452  1.00  0.00     0.004 C 
ENDBRANCH   2   3
ENDBRANCH   1   2
BRANCH   1   5
ATOM      5  C   UNL     1     -23.863  19.677 -33.535  1.00  0.00    -0.023 C 
ATOM      6  C   UNL     1     -24.983  19.870 -34.252  1.00  0.00     0.042 C 
BRANCH   6   7
ATOM      7  C   UNL     1     -26.372  19.862 -33.734  1.00  0.00     0.152 C 
ATOM      8  O   UNL     1     -27.004  18.789 -33.550  1.00  0.00    -0.295 OA
ATOM      9  C   UNL     1     -27.065  21.164 -33.488  1.00  0.00     0.093 C 
ENDBRANCH   6   7
ENDBRANCH   1   5
TORSDOF 4
ENDMDL
MODEL 8
REMARK VINA RESULT:    -3.998     11.104     13.281
REMARK INTER + INTRA:          -5.180
REMARK INTER:                  -4.825
REMARK INTRA:                  -0.355
REMARK UNBOUND:                -0.247
REMARK SMILES CCCCC=CC(C)=O
REMARK SMILES IDX 4 1 3 2 2 3 1 4 5 5 6 6 7 7 9 8 8 9
REMARK H PARENT
REMARK Flexibility Score: inf
ROOT
ATOM      1  C   UNL     1     -13.621  14.953 -31.604  1.00  0.00     0.027 C 
ENDROOT
BRANCH   1   2
ATOM      2  C   UNL     1     -13.195  14.812 -30.137  1.00  0.00     0.004 C 
BRANCH   2   3
ATOM      3  C   UNL     1     -11.926  13.962 -30.015  1.00  0.00    -0.003 C 
ATOM      4  C   UNL     1     -11.545  13.747 -28.553  1.00  0.00     0.004 C 
ENDBRANCH   2   3
ENDBRANCH   1   2
BRANCH   1   5
ATOM      5  C   UNL     1     -13.835  13.607 -32.243  1.00  0.00    -0.023 C 
ATOM      6  C   UNL     1     -15.021  13.004 -32.434  1.00  0.00     0.042 C 
BRANCH   6   7
ATOM      7  C   UNL     1     -16.347  13.516 -32.017  1.00  0.00     0.152 C 
ATOM      8  O   UNL     1     -17.040  14.252 -32.768  1.00  0.00    -0.295 OA
ATOM      9  C   UNL     1     -16.848  13.207 -30.643  1.00  0.00     0.093 C 
ENDBRANCH   6   7
ENDBRANCH   1   5
TORSDOF 4
ENDMDL
MODEL 9
REMARK VINA RESULT:    -3.934     10.850     12.077
REMARK INTER + INTRA:          -5.100
REMARK INTER:                  -4.557
REMARK INTRA:                  -0.543
REMARK UNBOUND:                -0.247
REMARK SMILES CCCCC=CC(C)=O
REMARK SMILES IDX 4 1 3 2 2 3 1 4 5 5 6 6 7 7 9 8 8 9
REMARK H PARENT
REMARK Flexibility Score: inf
ROOT
ATOM      1  C   UNL     1     -17.874  12.766 -29.425  1.00  0.00     0.027 C 
ENDROOT
BRANCH   1   2
ATOM      2  C   UNL     1     -17.306  11.600 -28.604  1.00  0.00     0.004 C 
BRANCH   2   3
ATOM      3  C   UNL     1     -16.607  10.581 -29.511  1.00  0.00    -0.003 C 
ATOM      4  C   UNL     1     -15.107  10.536 -29.236  1.00  0.00     0.004 C 
ENDBRANCH   2   3
ENDBRANCH   1   2
BRANCH   1   5
ATOM      5  C   UNL     1     -16.955  13.958 -29.389  1.00  0.00    -0.023 C 
ATOM      6  C   UNL     1     -16.294  14.475 -30.439  1.00  0.00     0.042 C 
BRANCH   6   7
ATOM      7  C   UNL     1     -16.297  13.954 -31.826  1.00  0.00     0.152 C 
ATOM      8  O   UNL     1     -17.185  14.283 -32.655  1.00  0.00    -0.295 OA
ATOM      9  C   UNL     1     -15.257  12.959 -32.232  1.00  0.00     0.093 C 
ENDBRANCH   6   7
ENDBRANCH   1   5
TORSDOF 4
ENDMDL
