MODEL 1
REMARK VINA RESULT:    -3.457      0.000      0.000
REMARK INTER + INTRA:          -6.259
REMARK INTER:                  -5.275
REMARK INTRA:                  -0.984
REMARK UNBOUND:                -0.984
REMARK SMILES O=C([O-])CCCCCCCCC(=O)[O-]
REMARK SMILES IDX 7 1 6 2 5 3 4 4 2 5 1 6 3 7 8 8 9 9 10 10 11 11 12 12 13 13
REMARK SMILES IDX 14 14
REMARK H PARENT
REMARK Flexibility Score: inf
ROOT
ATOM      1  C   UNL     1      -1.284   9.570  37.080  1.00  0.00     0.000 C 
ENDROOT
BRANCH   1   2
ATOM      2  C   UNL     1      -1.840   9.410  38.499  1.00  0.00     0.000 C 
BRANCH   2   3
ATOM      3  C   UNL     1      -1.806   7.942  38.942  1.00  0.00     0.006 C 
BRANCH   3   4
ATOM      4  C   UNL     1      -2.661   7.726  40.194  1.00  0.00     0.053 C 
BRANCH   4   5
ATOM      5  C   UNL     1      -2.020   6.722  41.099  1.00  0.00     0.041 C 
ATOM      6  O   UNL     1      -2.080   6.864  42.348  1.00  0.00    -0.550 OA
ATOM      7  O   UNL     1      -1.398   5.600  40.564  1.00  0.00    -0.550 OA
ENDBRANCH   4   5
ENDBRANCH   3   4
ENDBRANCH   2   3
ENDBRANCH   1   2
BRANCH   1   8
ATOM      8  C   UNL     1       0.172   9.085  37.002  1.00  0.00     0.000 C 
BRANCH   8   9
ATOM      9  C   UNL     1       1.172  10.122  37.534  1.00  0.00     0.000 C 
BRANCH   9  10
ATOM     10  C   UNL     1       2.000   9.594  38.718  1.00  0.00     0.006 C 
BRANCH  10  11
ATOM     11  C   UNL     1       1.410  10.016  40.071  1.00  0.00     0.053 C 
BRANCH  11  12
ATOM     12  C   UNL     1       1.139   8.837  40.954  1.00  0.00     0.041 C 
ATOM     13  O   UNL     1       0.716   9.008  42.127  1.00  0.00    -0.550 OA
ATOM     14  O   UNL     1       1.323   7.547  40.471  1.00  0.00    -0.550 OA
ENDBRANCH  11  12
ENDBRANCH  10  11
ENDBRANCH   9  10
ENDBRANCH   8   9
ENDBRANCH   1   8
TORSDOF 9
ENDMDL
MODEL 2
REMARK VINA RESULT:    -3.387      2.216      4.565
REMARK INTER + INTRA:          -6.153
REMARK INTER:                  -5.213
REMARK INTRA:                  -0.940
REMARK UNBOUND:                -0.984
REMARK SMILES O=C([O-])CCCCCCCCC(=O)[O-]
REMARK SMILES IDX 7 1 6 2 5 3 4 4 2 5 1 6 3 7 8 8 9 9 10 10 11 11 12 12 13 13
REMARK SMILES IDX 14 14
REMARK H PARENT
REMARK Flexibility Score: inf
ROOT
ATOM      1  C   UNL     1       0.717   9.314  39.550  1.00  0.00     0.000 C 
ENDROOT
BRANCH   1   2
ATOM      2  C   UNL     1       2.107   9.687  39.022  1.00  0.00     0.000 C 
BRANCH   2   3
ATOM      3  C   UNL     1       2.220   9.400  37.519  1.00  0.00     0.006 C 
BRANCH   3   4
ATOM      4  C   UNL     1       2.139   7.896  37.239  1.00  0.00     0.053 C 
BRANCH   4   5
ATOM      5  C   UNL     1       1.177   7.622  36.127  1.00  0.00     0.041 C 
ATOM      6  O   UNL     1       0.532   8.565  35.598  1.00  0.00    -0.550 OA
ATOM      7  O   UNL     1       1.029   6.330  35.638  1.00  0.00    -0.550 OA
ENDBRANCH   4   5
ENDBRANCH   3   4
ENDBRANCH   2   3
ENDBRANCH   1   2
BRANCH   1   8
ATOM      8  C   UNL     1      -0.378  10.125  38.838  1.00  0.00     0.000 C 
BRANCH   8   9
ATOM      9  C   UNL     1      -1.565   9.258  38.394  1.00  0.00     0.000 C 
BRANCH   9  10
ATOM     10  C   UNL     1      -1.530   7.846  39.005  1.00  0.00     0.006 C 
BRANCH  10  11
ATOM     11  C   UNL     1      -2.589   7.662  40.100  1.00  0.00     0.053 C 
BRANCH  11  12
ATOM     12  C   UNL     1      -1.988   7.162  41.379  1.00  0.00     0.041 C 
ATOM     13  O   UNL     1      -1.941   5.927  41.615  1.00  0.00    -0.550 OA
ATOM     14  O   UNL     1      -1.453   8.059  42.294  1.00  0.00    -0.550 OA
ENDBRANCH  11  12
ENDBRANCH  10  11
ENDBRANCH   9  10
ENDBRANCH   8   9
ENDBRANCH   1   8
TORSDOF 9
ENDMDL
MODEL 3
REMARK VINA RESULT:    -3.337      2.376      4.300
REMARK INTER + INTRA:          -6.077
REMARK INTER:                  -5.069
REMARK INTRA:                  -1.008
REMARK UNBOUND:                -0.984
REMARK SMILES O=C([O-])CCCCCCCCC(=O)[O-]
REMARK SMILES IDX 7 1 6 2 5 3 4 4 2 5 1 6 3 7 8 8 9 9 10 10 11 11 12 12 13 13
REMARK SMILES IDX 14 14
REMARK H PARENT
REMARK Flexibility Score: inf
ROOT
ATOM      1  C   UNL     1       2.274   9.830  38.496  1.00  0.00     0.000 C 
ENDROOT
BRANCH   1   2
ATOM      2  C   UNL     1       2.012   8.410  37.981  1.00  0.00     0.000 C 
BRANCH   2   3
ATOM      3  C   UNL     1       1.148   8.435  36.714  1.00  0.00     0.006 C 
BRANCH   3   4
ATOM      4  C   UNL     1      -0.328   8.207  37.052  1.00  0.00     0.053 C 
BRANCH   4   5
ATOM      5  C   UNL     1      -1.123   9.447  36.788  1.00  0.00     0.041 C 
ATOM      6  O   UNL     1      -1.797   9.976  37.710  1.00  0.00    -0.550 OA
ATOM      7  O   UNL     1      -1.081  10.047  35.535  1.00  0.00    -0.550 OA
ENDBRANCH   4   5
ENDBRANCH   3   4
ENDBRANCH   2   3
ENDBRANCH   1   2
BRANCH   1   8
ATOM      8  C   UNL     1       1.435  10.125  39.749  1.00  0.00     0.000 C 
BRANCH   8   9
ATOM      9  C   UNL     1       1.232   8.885  40.632  1.00  0.00     0.000 C 
BRANCH   9  10
ATOM     10  C   UNL     1      -0.253   8.531  40.824  1.00  0.00     0.006 C 
BRANCH  10  11
ATOM     11  C   UNL     1      -0.553   7.072  40.453  1.00  0.00     0.053 C 
BRANCH  11  12
ATOM     12  C   UNL     1      -1.984   6.882  40.052  1.00  0.00     0.041 C 
ATOM     13  O   UNL     1      -2.786   7.852  40.089  1.00  0.00    -0.550 OA
ATOM     14  O   UNL     1      -2.425   5.641  39.610  1.00  0.00    -0.550 OA
ENDBRANCH  11  12
ENDBRANCH  10  11
ENDBRANCH   9  10
ENDBRANCH   8   9
ENDBRANCH   1   8
TORSDOF 9
ENDMDL
MODEL 4
REMARK VINA RESULT:    -3.311      1.959      2.859
REMARK INTER + INTRA:          -6.037
REMARK INTER:                  -5.259
REMARK INTRA:                  -0.778
REMARK UNBOUND:                -0.984
REMARK SMILES O=C([O-])CCCCCCCCC(=O)[O-]
REMARK SMILES IDX 7 1 6 2 5 3 4 4 2 5 1 6 3 7 8 8 9 9 10 10 11 11 12 12 13 13
REMARK SMILES IDX 14 14
REMARK H PARENT
REMARK Flexibility Score: inf
ROOT
ATOM      1  C   UNL     1      -0.494  10.125  38.582  1.00  0.00     0.000 C 
ENDROOT
BRANCH   1   2
ATOM      2  C   UNL     1      -1.776   9.300  38.414  1.00  0.00     0.000 C 
BRANCH   2   3
ATOM      3  C   UNL     1      -1.576   7.864  38.915  1.00  0.00     0.006 C 
BRANCH   3   4
ATOM      4  C   UNL     1      -2.663   7.478  39.922  1.00  0.00     0.053 C 
BRANCH   4   5
ATOM      5  C   UNL     1      -2.243   6.277  40.711  1.00  0.00     0.041 C 
ATOM      6  O   UNL     1      -2.420   5.120  40.247  1.00  0.00    -0.550 OA
ATOM      7  O   UNL     1      -1.610   6.437  41.937  1.00  0.00    -0.550 OA
ENDBRANCH   4   5
ENDBRANCH   3   4
ENDBRANCH   2   3
ENDBRANCH   1   2
BRANCH   1   8
ATOM      8  C   UNL     1       0.330   9.624  39.778  1.00  0.00     0.000 C 
BRANCH   8   9
ATOM      9  C   UNL     1       1.831   9.913  39.628  1.00  0.00     0.000 C 
BRANCH   9  10
ATOM     10  C   UNL     1       2.431   9.285  38.359  1.00  0.00     0.006 C 
BRANCH  10  11
ATOM     11  C   UNL     1       2.394   7.751  38.398  1.00  0.00     0.053 C 
BRANCH  11  12
ATOM     12  C   UNL     1       2.041   7.167  37.064  1.00  0.00     0.041 C 
ATOM     13  O   UNL     1       2.729   6.231  36.580  1.00  0.00    -0.550 OA
ATOM     14  O   UNL     1       0.933   7.637  36.369  1.00  0.00    -0.550 OA
ENDBRANCH  11  12
ENDBRANCH  10  11
ENDBRANCH   9  10
ENDBRANCH   8   9
ENDBRANCH   1   8
TORSDOF 9
ENDMDL
MODEL 5
REMARK VINA RESULT:    -3.305      2.077      2.855
REMARK INTER + INTRA:          -6.028
REMARK INTER:                  -4.952
REMARK INTRA:                  -1.076
REMARK UNBOUND:                -0.984
REMARK SMILES O=C([O-])CCCCCCCCC(=O)[O-]
REMARK SMILES IDX 7 1 6 2 5 3 4 4 2 5 1 6 3 7 8 8 9 9 10 10 11 11 12 12 13 13
REMARK SMILES IDX 14 14
REMARK H PARENT
REMARK Flexibility Score: inf
ROOT
ATOM      1  C   UNL     1      -1.873   9.746  38.249  1.00  0.00     0.000 C 
ENDROOT
BRANCH   1   2
ATOM      2  C   UNL     1      -0.745   9.389  39.223  1.00  0.00     0.000 C 
BRANCH   2   3
ATOM      3  C   UNL     1      -1.146   8.214  40.124  1.00  0.00     0.006 C 
BRANCH   3   4
ATOM      4  C   UNL     1      -2.553   7.715  39.781  1.00  0.00     0.053 C 
BRANCH   4   5
ATOM      5  C   UNL     1      -2.585   6.220  39.749  1.00  0.00     0.041 C 
ATOM      6  O   UNL     1      -3.608   5.616  39.333  1.00  0.00    -0.550 OA
ATOM      7  O   UNL     1      -1.465   5.491  40.131  1.00  0.00    -0.550 OA
ENDBRANCH   4   5
ENDBRANCH   3   4
ENDBRANCH   2   3
ENDBRANCH   1   2
BRANCH   1   8
ATOM      8  C   UNL     1      -1.360   9.781  36.801  1.00  0.00     0.000 C 
BRANCH   8   9
ATOM      9  C   UNL     1       0.172   9.712  36.712  1.00  0.00     0.000 C 
BRANCH   9  10
ATOM     10  C   UNL     1       0.661   8.641  35.722  1.00  0.00     0.006 C 
BRANCH  10  11
ATOM     11  C   UNL     1       1.571   7.604  36.393  1.00  0.00     0.053 C 
BRANCH  11  12
ATOM     12  C   UNL     1       0.801   6.683  37.291  1.00  0.00     0.041 C 
ATOM     13  O   UNL     1       1.299   6.299  38.380  1.00  0.00    -0.550 OA
ATOM     14  O   UNL     1      -0.479   6.275  36.937  1.00  0.00    -0.550 OA
ENDBRANCH  11  12
ENDBRANCH  10  11
ENDBRANCH   9  10
ENDBRANCH   8   9
ENDBRANCH   1   8
TORSDOF 9
ENDMDL
MODEL 6
REMARK VINA RESULT:    -3.294      2.659      3.926
REMARK INTER + INTRA:          -6.011
REMARK INTER:                  -5.132
REMARK INTRA:                  -0.879
REMARK UNBOUND:                -0.984
REMARK SMILES O=C([O-])CCCCCCCCC(=O)[O-]
REMARK SMILES IDX 7 1 6 2 5 3 4 4 2 5 1 6 3 7 8 8 9 9 10 10 11 11 12 12 13 13
REMARK SMILES IDX 14 14
REMARK H PARENT
REMARK Flexibility Score: inf
ROOT
ATOM      1  C   UNL     1      -0.871   8.304  39.577  1.00  0.00     0.000 C 
ENDROOT
BRANCH   1   2
ATOM      2  C   UNL     1      -2.339   7.930  39.810  1.00  0.00     0.000 C 
BRANCH   2   3
ATOM      3  C   UNL     1      -2.594   6.457  39.465  1.00  0.00     0.006 C 
BRANCH   3   4
ATOM      4  C   UNL     1      -1.691   5.998  38.317  1.00  0.00     0.053 C 
BRANCH   4   5
ATOM      5  C   UNL     1      -1.168   4.621  38.580  1.00  0.00     0.041 C 
ATOM      6  O   UNL     1      -1.296   4.101  39.719  1.00  0.00    -0.550 OA
ATOM      7  O   UNL     1      -0.583   3.891  37.553  1.00  0.00    -0.550 OA
ENDBRANCH   4   5
ENDBRANCH   3   4
ENDBRANCH   2   3
ENDBRANCH   1   2
BRANCH   1   8
ATOM      8  C   UNL     1      -0.754   9.680  38.902  1.00  0.00     0.000 C 
BRANCH   8   9
ATOM      9  C   UNL     1      -1.876   9.940  37.886  1.00  0.00     0.000 C 
BRANCH   9  10
ATOM     10  C   UNL     1      -1.458   9.608  36.444  1.00  0.00     0.006 C 
BRANCH  10  11
ATOM     11  C   UNL     1       0.040   9.837  36.208  1.00  0.00     0.053 C 
BRANCH  11  12
ATOM     12  C   UNL     1       0.700   8.633  35.607  1.00  0.00     0.041 C 
ATOM     13  O   UNL     1       1.134   8.673  34.425  1.00  0.00    -0.550 OA
ATOM     14  O   UNL     1       0.863   7.479  36.361  1.00  0.00    -0.550 OA
ENDBRANCH  11  12
ENDBRANCH  10  11
ENDBRANCH   9  10
ENDBRANCH   8   9
ENDBRANCH   1   8
TORSDOF 9
ENDMDL
MODEL 7
REMARK VINA RESULT:    -3.287      1.283      2.050
REMARK INTER + INTRA:          -6.000
REMARK INTER:                  -4.990
REMARK INTRA:                  -1.011
REMARK UNBOUND:                -0.984
REMARK SMILES O=C([O-])CCCCCCCCC(=O)[O-]
REMARK SMILES IDX 7 1 6 2 5 3 4 4 2 5 1 6 3 7 8 8 9 9 10 10 11 11 12 12 13 13
REMARK SMILES IDX 14 14
REMARK H PARENT
REMARK Flexibility Score: inf
ROOT
ATOM      1  C   UNL     1       0.945   9.936  36.372  1.00  0.00     0.000 C 
ENDROOT
BRANCH   1   2
ATOM      2  C   UNL     1      -0.542  10.124  36.697  1.00  0.00     0.000 C 
BRANCH   2   3
ATOM      3  C   UNL     1      -1.150   8.834  37.260  1.00  0.00     0.006 C 
BRANCH   3   4
ATOM      4  C   UNL     1      -1.794   9.082  38.627  1.00  0.00     0.053 C 
BRANCH   4   5
ATOM      5  C   UNL     1      -2.020   7.787  39.342  1.00  0.00     0.041 C 
ATOM      6  O   UNL     1      -2.746   7.748  40.370  1.00  0.00    -0.550 OA
ATOM      7  O   UNL     1      -1.470   6.612  38.844  1.00  0.00    -0.550 OA
ENDBRANCH   4   5
ENDBRANCH   3   4
ENDBRANCH   2   3
ENDBRANCH   1   2
BRANCH   1   8
ATOM      8  C   UNL     1       1.771   9.767  37.657  1.00  0.00     0.000 C 
BRANCH   8   9
ATOM      9  C   UNL     1       2.281   8.332  37.850  1.00  0.00     0.000 C 
BRANCH   9  10
ATOM     10  C   UNL     1       1.870   7.734  39.207  1.00  0.00     0.006 C 
BRANCH  10  11
ATOM     11  C   UNL     1       1.507   8.817  40.231  1.00  0.00     0.053 C 
BRANCH  11  12
ATOM     12  C   UNL     1       0.933   8.230  41.484  1.00  0.00     0.041 C 
ATOM     13  O   UNL     1       0.715   6.992  41.561  1.00  0.00    -0.550 OA
ATOM     14  O   UNL     1       0.668   9.044  42.578  1.00  0.00    -0.550 OA
ENDBRANCH  11  12
ENDBRANCH  10  11
ENDBRANCH   9  10
ENDBRANCH   8   9
ENDBRANCH   1   8
TORSDOF 9
ENDMDL
MODEL 8
REMARK VINA RESULT:    -3.281      1.959      3.979
REMARK INTER + INTRA:          -5.991
REMARK INTER:                  -4.975
REMARK INTRA:                  -1.016
REMARK UNBOUND:                -0.984
REMARK SMILES O=C([O-])CCCCCCCCC(=O)[O-]
REMARK SMILES IDX 7 1 6 2 5 3 4 4 2 5 1 6 3 7 8 8 9 9 10 10 11 11 12 12 13 13
REMARK SMILES IDX 14 14
REMARK H PARENT
REMARK Flexibility Score: inf
ROOT
ATOM      1  C   UNL     1       2.550   9.386  38.431  1.00  0.00     0.000 C 
ENDROOT
BRANCH   1   2
ATOM      2  C   UNL     1       1.852   8.853  37.174  1.00  0.00     0.000 C 
BRANCH   2   3
ATOM      3  C   UNL     1       1.984   7.328  37.076  1.00  0.00     0.006 C 
BRANCH   3   4
ATOM      4  C   UNL     1       2.331   6.718  38.436  1.00  0.00     0.053 C 
BRANCH   4   5
ATOM      5  C   UNL     1       1.149   6.000  39.006  1.00  0.00     0.041 C 
ATOM      6  O   UNL     1       0.363   5.372  38.249  1.00  0.00    -0.550 OA
ATOM      7  O   UNL     1       0.941   5.982  40.380  1.00  0.00    -0.550 OA
ENDBRANCH   4   5
ENDBRANCH   3   4
ENDBRANCH   2   3
ENDBRANCH   1   2
BRANCH   1   8
ATOM      8  C   UNL     1       1.555  10.124  39.341  1.00  0.00     0.000 C 
BRANCH   8   9
ATOM      9  C   UNL     1       0.100   9.979  38.870  1.00  0.00     0.000 C 
BRANCH   9  10
ATOM     10  C   UNL     1      -0.737   9.083  39.800  1.00  0.00     0.006 C 
BRANCH  10  11
ATOM     11  C   UNL     1      -1.820   8.309  39.037  1.00  0.00     0.053 C 
BRANCH  11  12
ATOM     12  C   UNL     1      -2.538   7.335  39.922  1.00  0.00     0.041 C 
ATOM     13  O   UNL     1      -3.051   6.295  39.433  1.00  0.00    -0.550 OA
ATOM     14  O   UNL     1      -2.613   7.562  41.290  1.00  0.00    -0.550 OA
ENDBRANCH  11  12
ENDBRANCH  10  11
ENDBRANCH   9  10
ENDBRANCH   8   9
ENDBRANCH   1   8
TORSDOF 9
ENDMDL
MODEL 9
REMARK VINA RESULT:    -3.259      3.253      5.159
REMARK INTER + INTRA:          -5.958
REMARK INTER:                  -4.945
REMARK INTRA:                  -1.013
REMARK UNBOUND:                -0.984
REMARK SMILES O=C([O-])CCCCCCCCC(=O)[O-]
REMARK SMILES IDX 7 1 6 2 5 3 4 4 2 5 1 6 3 7 8 8 9 9 10 10 11 11 12 12 13 13
REMARK SMILES IDX 14 14
REMARK H PARENT
REMARK Flexibility Score: inf
ROOT
ATOM      1  C   UNL     1      -2.296   6.484  40.456  1.00  0.00     0.000 C 
ENDROOT
BRANCH   1   2
ATOM      2  C   UNL     1      -2.591   7.961  40.170  1.00  0.00     0.000 C 
BRANCH   2   3
ATOM      3  C   UNL     1      -1.412   8.628  39.450  1.00  0.00     0.006 C 
BRANCH   3   4
ATOM      4  C   UNL     1      -1.892   9.426  38.234  1.00  0.00     0.053 C 
BRANCH   4   5
ATOM      5  C   UNL     1      -0.805   9.525  37.211  1.00  0.00     0.041 C 
ATOM      6  O   UNL     1       0.398   9.618  37.570  1.00  0.00    -0.550 OA
ATOM      7  O   UNL     1      -1.116   9.463  35.857  1.00  0.00    -0.550 OA
ENDBRANCH   4   5
ENDBRANCH   3   4
ENDBRANCH   2   3
ENDBRANCH   1   2
BRANCH   1   8
ATOM      8  C   UNL     1      -2.834   5.588  39.330  1.00  0.00     0.000 C 
BRANCH   8   9
ATOM      9  C   UNL     1      -1.716   4.888  38.542  1.00  0.00     0.000 C 
BRANCH   9  10
ATOM     10  C   UNL     1      -1.286   5.679  37.295  1.00  0.00     0.006 C 
BRANCH  10  11
ATOM     11  C   UNL     1       0.211   6.018  37.312  1.00  0.00     0.053 C 
BRANCH  11  12
ATOM     12  C   UNL     1       0.788   6.064  35.930  1.00  0.00     0.041 C 
ATOM     13  O   UNL     1       0.734   5.048  35.188  1.00  0.00    -0.550 OA
ATOM     14  O   UNL     1       1.359   7.236  35.451  1.00  0.00    -0.550 OA
ENDBRANCH  11  12
ENDBRANCH  10  11
ENDBRANCH   9  10
ENDBRANCH   8   9
ENDBRANCH   1   8
TORSDOF 9
ENDMDL
