MODEL 1
REMARK VINA RESULT:    -3.844      0.000      0.000
REMARK INTER + INTRA:          -4.086
REMARK INTER:                  -4.069
REMARK INTRA:                  -0.017
REMARK UNBOUND:                -0.017
REMARK SMILES O=C([O-])c1cccnc1
REMARK SMILES IDX 4 1 5 2 9 3 6 4 8 5 7 6 2 7 1 8 3 9
REMARK H PARENT
REMARK Flexibility Score: inf
ROOT
ATOM      1  C   UNL     1       5.615  20.000   0.484  1.00  0.00     0.016 A 
ATOM      2  C   UNL     1       6.650  19.051   0.555  1.00  0.00     0.013 A 
ATOM      3  C   UNL     1       5.155  20.575   1.680  1.00  0.00     0.120 A 
ATOM      4  C   UNL     1       7.197  18.702   1.791  1.00  0.00     0.021 A 
ATOM      5  N   UNL     1       5.705  20.217   2.871  1.00  0.00    -0.264 NA
ATOM      6  C   UNL     1       6.705  19.302   2.951  1.00  0.00     0.111 A 
ENDROOT
BRANCH   1   7
ATOM      7  C   UNL     1       5.023  20.383  -0.815  1.00  0.00     0.073 C 
ATOM      8  O   UNL     1       4.391  19.540  -1.505  1.00  0.00    -0.545 OA
ATOM      9  O   UNL     1       5.155  21.682  -1.293  1.00  0.00    -0.545 OA
ENDBRANCH   1   7
TORSDOF 1
ENDMDL
MODEL 2
REMARK VINA RESULT:    -3.444     14.493     15.213
REMARK INTER + INTRA:          -3.662
REMARK INTER:                  -3.639
REMARK INTRA:                  -0.024
REMARK UNBOUND:                -0.017
REMARK SMILES O=C([O-])c1cccnc1
REMARK SMILES IDX 4 1 5 2 9 3 6 4 8 5 7 6 2 7 1 8 3 9
REMARK H PARENT
REMARK Flexibility Score: inf
ROOT
ATOM      1  C   UNL     1      -7.339  14.885  -4.936  1.00  0.00     0.016 A 
ATOM      2  C   UNL     1      -8.447  15.716  -4.692  1.00  0.00     0.013 A 
ATOM      3  C   UNL     1      -6.557  14.478  -3.843  1.00  0.00     0.120 A 
ATOM      4  C   UNL     1      -8.748  16.118  -3.390  1.00  0.00     0.021 A 
ATOM      5  N   UNL     1      -6.872  14.885  -2.583  1.00  0.00    -0.264 NA
ATOM      6  C   UNL     1      -7.940  15.687  -2.337  1.00  0.00     0.111 A 
ENDROOT
BRANCH   1   7
ATOM      7  C   UNL     1      -7.003  14.449  -6.308  1.00  0.00     0.073 C 
ATOM      8  O   UNL     1      -7.529  15.010  -7.305  1.00  0.00    -0.545 OA
ATOM      9  O   UNL     1      -6.101  13.411  -6.516  1.00  0.00    -0.545 OA
ENDBRANCH   1   7
TORSDOF 1
ENDMDL
MODEL 3
REMARK VINA RESULT:    -3.428     14.819     15.609
REMARK INTER + INTRA:          -3.645
REMARK INTER:                  -3.629
REMARK INTRA:                  -0.016
REMARK UNBOUND:                -0.017
REMARK SMILES O=C([O-])c1cccnc1
REMARK SMILES IDX 4 1 5 2 9 3 6 4 8 5 7 6 2 7 1 8 3 9
REMARK H PARENT
REMARK Flexibility Score: inf
ROOT
ATOM      1  C   UNL     1      -8.190  15.495  -3.931  1.00  0.00     0.016 A 
ATOM      2  C   UNL     1      -8.457  15.785  -5.281  1.00  0.00     0.013 A 
ATOM      3  C   UNL     1      -7.122  14.634  -3.633  1.00  0.00     0.120 A 
ATOM      4  C   UNL     1      -7.669  15.225  -6.287  1.00  0.00     0.021 A 
ATOM      5  N   UNL     1      -6.370  14.101  -4.633  1.00  0.00    -0.264 NA
ATOM      6  C   UNL     1      -6.618  14.375  -5.940  1.00  0.00     0.111 A 
ENDROOT
BRANCH   1   7
ATOM      7  C   UNL     1      -9.013  16.079  -2.851  1.00  0.00     0.073 C 
ATOM      8  O   UNL     1      -9.947  15.415  -2.327  1.00  0.00    -0.545 OA
ATOM      9  O   UNL     1      -8.767  17.370  -2.397  1.00  0.00    -0.545 OA
ENDBRANCH   1   7
TORSDOF 1
ENDMDL
MODEL 4
REMARK VINA RESULT:    -3.394     13.247     13.922
REMARK INTER + INTRA:          -3.610
REMARK INTER:                  -3.593
REMARK INTRA:                  -0.017
REMARK UNBOUND:                -0.017
REMARK SMILES O=C([O-])c1cccnc1
REMARK SMILES IDX 4 1 5 2 9 3 6 4 8 5 7 6 2 7 1 8 3 9
REMARK H PARENT
REMARK Flexibility Score: inf
ROOT
ATOM      1  C   UNL     1      -7.384  18.137   3.168  1.00  0.00     0.016 A 
ATOM      2  C   UNL     1      -6.420  17.632   2.278  1.00  0.00     0.013 A 
ATOM      3  C   UNL     1      -8.711  17.697   3.034  1.00  0.00     0.120 A 
ATOM      4  C   UNL     1      -6.788  16.716   1.292  1.00  0.00     0.021 A 
ATOM      5  N   UNL     1      -9.043  16.803   2.064  1.00  0.00    -0.264 NA
ATOM      6  C   UNL     1      -8.120  16.309   1.199  1.00  0.00     0.111 A 
ENDROOT
BRANCH   1   7
ATOM      7  C   UNL     1      -7.014  19.108   4.219  1.00  0.00     0.073 C 
ATOM      8  O   UNL     1      -7.437  20.294   4.173  1.00  0.00    -0.545 OA
ATOM      9  O   UNL     1      -6.193  18.726   5.274  1.00  0.00    -0.545 OA
ENDBRANCH   1   7
TORSDOF 1
ENDMDL
MODEL 5
REMARK VINA RESULT:    -3.350     14.533     15.172
REMARK INTER + INTRA:          -3.564
REMARK INTER:                  -3.541
REMARK INTRA:                  -0.022
REMARK UNBOUND:                -0.017
REMARK SMILES O=C([O-])c1cccnc1
REMARK SMILES IDX 4 1 5 2 9 3 6 4 8 5 7 6 2 7 1 8 3 9
REMARK H PARENT
REMARK Flexibility Score: inf
ROOT
ATOM      1  C   UNL     1      -7.354  14.887  -4.886  1.00  0.00     0.016 A 
ATOM      2  C   UNL     1      -6.542  14.548  -3.789  1.00  0.00     0.013 A 
ATOM      3  C   UNL     1      -8.514  15.642  -4.649  1.00  0.00     0.120 A 
ATOM      4  C   UNL     1      -6.894  14.961  -2.503  1.00  0.00     0.021 A 
ATOM      5  N   UNL     1      -8.834  16.031  -3.385  1.00  0.00    -0.264 NA
ATOM      6  C   UNL     1      -8.057  15.710  -2.319  1.00  0.00     0.111 A 
ENDROOT
BRANCH   1   7
ATOM      7  C   UNL     1      -6.999  14.459  -6.255  1.00  0.00     0.073 C 
ATOM      8  O   UNL     1      -7.428  15.093  -7.256  1.00  0.00    -0.545 OA
ATOM      9  O   UNL     1      -6.187  13.349  -6.458  1.00  0.00    -0.545 OA
ENDBRANCH   1   7
TORSDOF 1
ENDMDL
MODEL 6
REMARK VINA RESULT:    -3.336      3.403      4.085
REMARK INTER + INTRA:          -3.549
REMARK INTER:                  -3.531
REMARK INTRA:                  -0.018
REMARK UNBOUND:                -0.017
REMARK SMILES O=C([O-])c1cccnc1
REMARK SMILES IDX 4 1 5 2 9 3 6 4 8 5 7 6 2 7 1 8 3 9
REMARK H PARENT
REMARK Flexibility Score: inf
ROOT
ATOM      1  C   UNL     1       6.612  19.889   3.067  1.00  0.00     0.016 A 
ATOM      2  C   UNL     1       7.401  18.973   2.349  1.00  0.00     0.013 A 
ATOM      3  C   UNL     1       5.534  20.502   2.408  1.00  0.00     0.120 A 
ATOM      4  C   UNL     1       7.105  18.690   1.015  1.00  0.00     0.021 A 
ATOM      5  N   UNL     1       5.268  20.209   1.107  1.00  0.00    -0.264 NA
ATOM      6  C   UNL     1       6.023  19.325   0.404  1.00  0.00     0.111 A 
ENDROOT
BRANCH   1   7
ATOM      7  C   UNL     1       6.909  20.202   4.481  1.00  0.00     0.073 C 
ATOM      8  O   UNL     1       6.861  19.301   5.361  1.00  0.00    -0.545 OA
ATOM      9  O   UNL     1       7.244  21.497   4.860  1.00  0.00    -0.545 OA
ENDBRANCH   1   7
TORSDOF 1
ENDMDL
MODEL 7
REMARK VINA RESULT:    -3.320     14.110     15.092
REMARK INTER + INTRA:          -3.531
REMARK INTER:                  -3.508
REMARK INTRA:                  -0.023
REMARK UNBOUND:                -0.017
REMARK SMILES O=C([O-])c1cccnc1
REMARK SMILES IDX 4 1 5 2 9 3 6 4 8 5 7 6 2 7 1 8 3 9
REMARK H PARENT
REMARK Flexibility Score: inf
ROOT
ATOM      1  C   UNL     1      -8.053  15.857  -2.160  1.00  0.00     0.016 A 
ATOM      2  C   UNL     1      -8.792  16.054  -3.340  1.00  0.00     0.013 A 
ATOM      3  C   UNL     1      -6.903  15.052  -2.221  1.00  0.00     0.120 A 
ATOM      4  C   UNL     1      -8.380  15.460  -4.533  1.00  0.00     0.021 A 
ATOM      5  N   UNL     1      -6.524  14.484  -3.397  1.00  0.00    -0.264 NA
ATOM      6  C   UNL     1      -7.231  14.669  -4.542  1.00  0.00     0.111 A 
ENDROOT
BRANCH   1   7
ATOM      7  C   UNL     1      -8.473  16.478  -0.886  1.00  0.00     0.073 C 
ATOM      8  O   UNL     1      -7.701  16.483   0.109  1.00  0.00    -0.545 OA
ATOM      9  O   UNL     1      -9.728  17.065  -0.769  1.00  0.00    -0.545 OA
ENDBRANCH   1   7
TORSDOF 1
ENDMDL
MODEL 8
REMARK VINA RESULT:    -3.283     15.418     16.501
REMARK INTER + INTRA:          -3.492
REMARK INTER:                  -3.469
REMARK INTRA:                  -0.023
REMARK UNBOUND:                -0.017
REMARK SMILES O=C([O-])c1cccnc1
REMARK SMILES IDX 4 1 5 2 9 3 6 4 8 5 7 6 2 7 1 8 3 9
REMARK H PARENT
REMARK Flexibility Score: inf
ROOT
ATOM      1  C   UNL     1      -8.190  14.626  -6.636  1.00  0.00     0.016 A 
ATOM      2  C   UNL     1      -8.760  15.105  -5.443  1.00  0.00     0.013 A 
ATOM      3  C   UNL     1      -6.886  14.106  -6.590  1.00  0.00     0.120 A 
ATOM      4  C   UNL     1      -8.035  15.057  -4.252  1.00  0.00     0.021 A 
ATOM      5  N   UNL     1      -6.201  14.072  -5.416  1.00  0.00    -0.264 NA
ATOM      6  C   UNL     1      -6.742  14.532  -4.258  1.00  0.00     0.111 A 
ENDROOT
BRANCH   1   7
ATOM      7  C   UNL     1      -8.942  14.668  -7.908  1.00  0.00     0.073 C 
ATOM      8  O   UNL     1      -8.360  14.446  -9.003  1.00  0.00    -0.545 OA
ATOM      9  O   UNL     1     -10.302  14.954  -7.913  1.00  0.00    -0.545 OA
ENDBRANCH   1   7
TORSDOF 1
ENDMDL
MODEL 9
REMARK VINA RESULT:    -3.227      2.345      3.165
REMARK INTER + INTRA:          -3.433
REMARK INTER:                  -3.411
REMARK INTRA:                  -0.022
REMARK UNBOUND:                -0.017
REMARK SMILES O=C([O-])c1cccnc1
REMARK SMILES IDX 4 1 5 2 9 3 6 4 8 5 7 6 2 7 1 8 3 9
REMARK H PARENT
REMARK Flexibility Score: inf
ROOT
ATOM      1  C   UNL     1       6.627  19.876   2.538  1.00  0.00     0.016 A 
ATOM      2  C   UNL     1       5.506  20.642   2.903  1.00  0.00     0.013 A 
ATOM      3  C   UNL     1       7.756  19.906   3.373  1.00  0.00     0.120 A 
ATOM      4  C   UNL     1       5.530  21.406   4.071  1.00  0.00     0.021 A 
ATOM      5  N   UNL     1       7.753  20.659   4.505  1.00  0.00    -0.264 NA
ATOM      6  C   UNL     1       6.675  21.402   4.868  1.00  0.00     0.111 A 
ENDROOT
BRANCH   1   7
ATOM      7  C   UNL     1       6.622  19.060   1.305  1.00  0.00     0.073 C 
ATOM      8  O   UNL     1       7.339  18.028   1.217  1.00  0.00    -0.545 OA
ATOM      9  O   UNL     1       5.824  19.421   0.225  1.00  0.00    -0.545 OA
ENDBRANCH   1   7
TORSDOF 1
ENDMDL
