MODEL 1
REMARK VINA RESULT:    -5.349      0.000      0.000
REMARK INTER + INTRA:          -8.626
REMARK INTER:                  -8.163
REMARK INTRA:                  -0.463
REMARK UNBOUND:                -0.463
REMARK SMILES CCCCCCCCCCC(=O)[O-]
REMARK SMILES IDX 7 1 8 2 9 3 10 4 11 5 12 6 13 7 6 8 5 9 4 10 3 11 2 12 1 13
REMARK H PARENT
REMARK Flexibility Score: inf
ROOT
ATOM      1  C   UNL     1     -11.748  -0.152  -9.991  1.00  0.00     0.000 C 
ENDROOT
BRANCH   1   2
ATOM      2  C   UNL     1     -10.781  -1.325 -10.190  1.00  0.00     0.000 C 
BRANCH   2   3
ATOM      3  C   UNL     1     -10.732  -2.216  -8.940  1.00  0.00     0.006 C 
BRANCH   3   4
ATOM      4  C   UNL     1     -11.261  -3.630  -9.212  1.00  0.00     0.053 C 
BRANCH   4   5
ATOM      5  C   UNL     1     -10.207  -4.670  -8.986  1.00  0.00     0.041 C 
ATOM      6  O   UNL     1     -10.467  -5.889  -9.172  1.00  0.00    -0.550 OA
ATOM      7  O   UNL     1      -8.946  -4.297  -8.538  1.00  0.00    -0.550 OA
ENDBRANCH   4   5
ENDBRANCH   3   4
ENDBRANCH   2   3
ENDBRANCH   1   2
BRANCH   1   8
ATOM      8  C   UNL     1     -13.199  -0.584 -10.253  1.00  0.00     0.000 C 
BRANCH   8   9
ATOM      9  C   UNL     1     -14.213   0.538  -9.977  1.00  0.00    -0.000 C 
BRANCH   9  10
ATOM     10  C   UNL     1     -13.534   1.866  -9.600  1.00  0.00    -0.000 C 
BRANCH  10  11
ATOM     11  C   UNL     1     -14.454   2.800  -8.792  1.00  0.00    -0.000 C 
BRANCH  11  12
ATOM     12  C   UNL     1     -13.757   4.029  -8.181  1.00  0.00    -0.003 C 
ATOM     13  C   UNL     1     -12.238   4.001  -8.346  1.00  0.00     0.004 C 
ENDBRANCH  11  12
ENDBRANCH  10  11
ENDBRANCH   9  10
ENDBRANCH   8   9
ENDBRANCH   1   8
TORSDOF 9
ENDMDL
MODEL 2
REMARK VINA RESULT:    -5.295      1.020      1.489
REMARK INTER + INTRA:          -8.544
REMARK INTER:                  -8.063
REMARK INTRA:                  -0.481
REMARK UNBOUND:                -0.463
REMARK SMILES CCCCCCCCCCC(=O)[O-]
REMARK SMILES IDX 7 1 8 2 9 3 10 4 11 5 12 6 13 7 6 8 5 9 4 10 3 11 2 12 1 13
REMARK H PARENT
REMARK Flexibility Score: inf
ROOT
ATOM      1  C   UNL     1     -13.489  -0.880 -10.390  1.00  0.00     0.000 C 
ENDROOT
BRANCH   1   2
ATOM      2  C   UNL     1     -12.229  -0.101  -9.993  1.00  0.00     0.000 C 
BRANCH   2   3
ATOM      3  C   UNL     1     -10.974  -0.976 -10.134  1.00  0.00     0.006 C 
BRANCH   3   4
ATOM      4  C   UNL     1     -10.607  -1.682  -8.823  1.00  0.00     0.053 C 
BRANCH   4   5
ATOM      5  C   UNL     1     -10.124  -3.080  -9.062  1.00  0.00     0.041 C 
ATOM      6  O   UNL     1     -10.841  -3.900  -9.694  1.00  0.00    -0.550 OA
ATOM      7  O   UNL     1      -8.895  -3.486  -8.557  1.00  0.00    -0.550 OA
ENDBRANCH   4   5
ENDBRANCH   3   4
ENDBRANCH   2   3
ENDBRANCH   1   2
BRANCH   1   8
ATOM      8  C   UNL     1     -14.695   0.061 -10.530  1.00  0.00     0.000 C 
BRANCH   8   9
ATOM      9  C   UNL     1     -14.893   0.961  -9.300  1.00  0.00    -0.000 C 
BRANCH   9  10
ATOM     10  C   UNL     1     -14.609   2.443  -9.603  1.00  0.00    -0.000 C 
BRANCH  10  11
ATOM     11  C   UNL     1     -14.399   3.284  -8.330  1.00  0.00    -0.000 C 
BRANCH  11  12
ATOM     12  C   UNL     1     -13.214   4.265  -8.387  1.00  0.00    -0.003 C 
ATOM     13  C   UNL     1     -11.856   3.565  -8.407  1.00  0.00     0.004 C 
ENDBRANCH  11  12
ENDBRANCH  10  11
ENDBRANCH   9  10
ENDBRANCH   8   9
ENDBRANCH   1   8
TORSDOF 9
ENDMDL
MODEL 3
REMARK VINA RESULT:    -5.225      3.827      6.764
REMARK INTER + INTRA:          -8.437
REMARK INTER:                  -8.080
REMARK INTRA:                  -0.356
REMARK UNBOUND:                -0.463
REMARK SMILES CCCCCCCCCCC(=O)[O-]
REMARK SMILES IDX 7 1 8 2 9 3 10 4 11 5 12 6 13 7 6 8 5 9 4 10 3 11 2 12 1 13
REMARK H PARENT
REMARK Flexibility Score: inf
ROOT
ATOM      1  C   UNL     1     -14.602  -0.285 -10.732  1.00  0.00     0.000 C 
ENDROOT
BRANCH   1   2
ATOM      2  C   UNL     1     -15.086   0.481  -9.495  1.00  0.00     0.000 C 
BRANCH   2   3
ATOM      3  C   UNL     1     -14.759   1.978  -9.611  1.00  0.00     0.006 C 
BRANCH   3   4
ATOM      4  C   UNL     1     -13.270   2.266  -9.384  1.00  0.00     0.053 C 
BRANCH   4   5
ATOM      5  C   UNL     1     -13.057   3.582  -8.700  1.00  0.00     0.041 C 
ATOM      6  O   UNL     1     -14.034   4.207  -8.209  1.00  0.00    -0.550 OA
ATOM      7  O   UNL     1     -11.784   4.133  -8.633  1.00  0.00    -0.550 OA
ENDBRANCH   4   5
ENDBRANCH   3   4
ENDBRANCH   2   3
ENDBRANCH   1   2
BRANCH   1   8
ATOM      8  C   UNL     1     -13.476  -1.264 -10.366  1.00  0.00     0.000 C 
BRANCH   8   9
ATOM      9  C   UNL     1     -12.077  -0.647 -10.524  1.00  0.00    -0.000 C 
BRANCH   9  10
ATOM     10  C   UNL     1     -11.028  -1.326  -9.626  1.00  0.00    -0.000 C 
BRANCH  10  11
ATOM     11  C   UNL     1     -11.283  -2.834  -9.444  1.00  0.00    -0.000 C 
BRANCH  11  12
ATOM     12  C   UNL     1     -10.109  -3.744  -9.846  1.00  0.00    -0.003 C 
ATOM     13  C   UNL     1      -9.360  -4.323  -8.646  1.00  0.00     0.004 C 
ENDBRANCH  11  12
ENDBRANCH  10  11
ENDBRANCH   9  10
ENDBRANCH   8   9
ENDBRANCH   1   8
TORSDOF 9
ENDMDL
MODEL 4
REMARK VINA RESULT:    -5.194      1.107      1.526
REMARK INTER + INTRA:          -8.389
REMARK INTER:                  -8.089
REMARK INTRA:                  -0.300
REMARK UNBOUND:                -0.463
REMARK SMILES CCCCCCCCCCC(=O)[O-]
REMARK SMILES IDX 7 1 8 2 9 3 10 4 11 5 12 6 13 7 6 8 5 9 4 10 3 11 2 12 1 13
REMARK H PARENT
REMARK Flexibility Score: inf
ROOT
ATOM      1  C   UNL     1     -10.787  -1.200  -9.838  1.00  0.00     0.000 C 
ENDROOT
BRANCH   1   2
ATOM      2  C   UNL     1     -10.836  -2.716  -9.613  1.00  0.00     0.000 C 
BRANCH   2   3
ATOM      3  C   UNL     1     -10.307  -3.083  -8.218  1.00  0.00     0.006 C 
BRANCH   3   4
ATOM      4  C   UNL     1      -9.399  -4.319  -8.249  1.00  0.00     0.053 C 
BRANCH   4   5
ATOM      5  C   UNL     1     -10.183  -5.588  -8.116  1.00  0.00     0.041 C 
ATOM      6  O   UNL     1     -10.643  -6.160  -9.141  1.00  0.00    -0.550 OA
ATOM      7  O   UNL     1     -10.436  -6.121  -6.859  1.00  0.00    -0.550 OA
ENDBRANCH   4   5
ENDBRANCH   3   4
ENDBRANCH   2   3
ENDBRANCH   1   2
BRANCH   1   8
ATOM      8  C   UNL     1     -12.144  -0.673 -10.330  1.00  0.00     0.000 C 
BRANCH   8   9
ATOM      9  C   UNL     1     -12.548   0.649  -9.657  1.00  0.00    -0.000 C 
BRANCH   9  10
ATOM     10  C   UNL     1     -14.068   0.886  -9.687  1.00  0.00    -0.000 C 
BRANCH  10  11
ATOM     11  C   UNL     1     -14.453   2.343  -9.372  1.00  0.00    -0.000 C 
BRANCH  11  12
ATOM     12  C   UNL     1     -13.284   3.242  -8.928  1.00  0.00    -0.003 C 
ATOM     13  C   UNL     1     -13.651   4.177  -7.777  1.00  0.00     0.004 C 
ENDBRANCH  11  12
ENDBRANCH  10  11
ENDBRANCH   9  10
ENDBRANCH   8   9
ENDBRANCH   1   8
TORSDOF 9
ENDMDL
MODEL 5
REMARK VINA RESULT:    -4.906      3.689      7.058
REMARK INTER + INTRA:          -7.949
REMARK INTER:                  -7.514
REMARK INTRA:                  -0.435
REMARK UNBOUND:                -0.463
REMARK SMILES CCCCCCCCCCC(=O)[O-]
REMARK SMILES IDX 7 1 8 2 9 3 10 4 11 5 12 6 13 7 6 8 5 9 4 10 3 11 2 12 1 13
REMARK H PARENT
REMARK Flexibility Score: inf
ROOT
ATOM      1  C   UNL     1     -11.072  -2.499  -9.459  1.00  0.00     0.000 C 
ENDROOT
BRANCH   1   2
ATOM      2  C   UNL     1     -10.998  -1.093 -10.067  1.00  0.00     0.000 C 
BRANCH   2   3
ATOM      3  C   UNL     1     -12.404  -0.523 -10.309  1.00  0.00     0.006 C 
BRANCH   3   4
ATOM      4  C   UNL     1     -12.615   0.821  -9.601  1.00  0.00     0.053 C 
BRANCH   4   5
ATOM      5  C   UNL     1     -14.048   1.256  -9.651  1.00  0.00     0.041 C 
ATOM      6  O   UNL     1     -14.381   2.394  -9.225  1.00  0.00    -0.550 OA
ATOM      7  O   UNL     1     -15.020   0.392 -10.136  1.00  0.00    -0.550 OA
ENDBRANCH   4   5
ENDBRANCH   3   4
ENDBRANCH   2   3
ENDBRANCH   1   2
BRANCH   1   8
ATOM      8  C   UNL     1      -9.947  -2.716  -8.436  1.00  0.00     0.000 C 
BRANCH   8   9
ATOM      9  C   UNL     1      -9.625  -4.202  -8.213  1.00  0.00    -0.000 C 
BRANCH   9  10
ATOM     10  C   UNL     1     -10.737  -5.131  -8.730  1.00  0.00    -0.000 C 
BRANCH  10  11
ATOM     11  C   UNL     1     -11.649  -5.656  -7.606  1.00  0.00    -0.000 C 
BRANCH  11  12
ATOM     12  C   UNL     1     -11.112  -5.439  -6.180  1.00  0.00    -0.003 C 
ATOM     13  C   UNL     1     -11.987  -6.083  -5.105  1.00  0.00     0.004 C 
ENDBRANCH  11  12
ENDBRANCH  10  11
ENDBRANCH   9  10
ENDBRANCH   8   9
ENDBRANCH   1   8
TORSDOF 9
ENDMDL
MODEL 6
REMARK VINA RESULT:    -4.786      2.609      4.379
REMARK INTER + INTRA:          -7.767
REMARK INTER:                  -7.238
REMARK INTRA:                  -0.529
REMARK UNBOUND:                -0.463
REMARK SMILES CCCCCCCCCCC(=O)[O-]
REMARK SMILES IDX 7 1 8 2 9 3 10 4 11 5 12 6 13 7 6 8 5 9 4 10 3 11 2 12 1 13
REMARK H PARENT
REMARK Flexibility Score: inf
ROOT
ATOM      1  C   UNL     1      -9.832  -4.648  -8.841  1.00  0.00     0.000 C 
ENDROOT
BRANCH   1   2
ATOM      2  C   UNL     1     -11.143  -4.740  -8.050  1.00  0.00     0.000 C 
BRANCH   2   3
ATOM      3  C   UNL     1     -10.880  -4.679  -6.538  1.00  0.00     0.006 C 
BRANCH   3   4
ATOM      4  C   UNL     1     -11.758  -5.664  -5.756  1.00  0.00     0.053 C 
BRANCH   4   5
ATOM      5  C   UNL     1     -11.660  -7.054  -6.305  1.00  0.00     0.041 C 
ATOM      6  O   UNL     1     -10.567  -7.680  -6.256  1.00  0.00    -0.550 OA
ATOM      7  O   UNL     1     -12.766  -7.646  -6.901  1.00  0.00    -0.550 OA
ENDBRANCH   4   5
ENDBRANCH   3   4
ENDBRANCH   2   3
ENDBRANCH   1   2
BRANCH   1   8
ATOM      8  C   UNL     1      -9.801  -3.380  -9.707  1.00  0.00     0.000 C 
BRANCH   8   9
ATOM      9  C   UNL     1     -11.118  -2.590  -9.653  1.00  0.00    -0.000 C 
BRANCH   9  10
ATOM     10  C   UNL     1     -10.897  -1.094  -9.366  1.00  0.00    -0.000 C 
BRANCH  10  11
ATOM     11  C   UNL     1     -11.896  -0.189 -10.110  1.00  0.00    -0.000 C 
BRANCH  11  12
ATOM     12  C   UNL     1     -13.261  -0.834 -10.407  1.00  0.00    -0.003 C 
ATOM     13  C   UNL     1     -14.431   0.135 -10.243  1.00  0.00     0.004 C 
ENDBRANCH  11  12
ENDBRANCH  10  11
ENDBRANCH   9  10
ENDBRANCH   8   9
ENDBRANCH   1   8
TORSDOF 9
ENDMDL
MODEL 7
REMARK VINA RESULT:    -4.752      2.031      3.424
REMARK INTER + INTRA:          -7.715
REMARK INTER:                  -7.320
REMARK INTRA:                  -0.395
REMARK UNBOUND:                -0.463
REMARK SMILES CCCCCCCCCCC(=O)[O-]
REMARK SMILES IDX 7 1 8 2 9 3 10 4 11 5 12 6 13 7 6 8 5 9 4 10 3 11 2 12 1 13
REMARK H PARENT
REMARK Flexibility Score: inf
ROOT
ATOM      1  C   UNL     1     -10.435  -2.793  -8.261  1.00  0.00     0.000 C 
ENDROOT
BRANCH   1   2
ATOM      2  C   UNL     1     -10.905  -3.933  -9.174  1.00  0.00     0.000 C 
BRANCH   2   3
ATOM      3  C   UNL     1     -10.790  -5.290  -8.465  1.00  0.00     0.006 C 
BRANCH   3   4
ATOM      4  C   UNL     1     -11.891  -5.492  -7.415  1.00  0.00     0.053 C 
BRANCH   4   5
ATOM      5  C   UNL     1     -11.371  -6.180  -6.190  1.00  0.00     0.041 C 
ATOM      6  O   UNL     1     -11.867  -5.925  -5.061  1.00  0.00    -0.550 OA
ATOM      7  O   UNL     1     -10.315  -7.076  -6.292  1.00  0.00    -0.550 OA
ENDBRANCH   4   5
ENDBRANCH   3   4
ENDBRANCH   2   3
ENDBRANCH   1   2
BRANCH   1   8
ATOM      8  C   UNL     1     -10.642  -1.428  -8.935  1.00  0.00     0.000 C 
BRANCH   8   9
ATOM      9  C   UNL     1     -11.674  -1.477 -10.072  1.00  0.00    -0.000 C 
BRANCH   9  10
ATOM     10  C   UNL     1     -12.577  -0.232 -10.103  1.00  0.00    -0.000 C 
BRANCH  10  11
ATOM     11  C   UNL     1     -14.016  -0.547 -10.554  1.00  0.00    -0.000 C 
BRANCH  11  12
ATOM     12  C   UNL     1     -15.111   0.281  -9.857  1.00  0.00    -0.003 C 
ATOM     13  C   UNL     1     -14.709   1.739  -9.633  1.00  0.00     0.004 C 
ENDBRANCH  11  12
ENDBRANCH  10  11
ENDBRANCH   9  10
ENDBRANCH   8   9
ENDBRANCH   1   8
TORSDOF 9
ENDMDL
MODEL 8
REMARK VINA RESULT:    -4.685      3.398      7.298
REMARK INTER + INTRA:          -7.613
REMARK INTER:                  -7.003
REMARK INTRA:                  -0.610
REMARK UNBOUND:                -0.463
REMARK SMILES CCCCCCCCCCC(=O)[O-]
REMARK SMILES IDX 7 1 8 2 9 3 10 4 11 5 12 6 13 7 6 8 5 9 4 10 3 11 2 12 1 13
REMARK H PARENT
REMARK Flexibility Score: inf
ROOT
ATOM      1  C   UNL     1     -10.610  -3.971  -7.651  1.00  0.00     0.000 C 
ENDROOT
BRANCH   1   2
ATOM      2  C   UNL     1     -10.220  -2.653  -8.331  1.00  0.00     0.000 C 
BRANCH   2   3
ATOM      3  C   UNL     1     -11.070  -2.410  -9.587  1.00  0.00     0.006 C 
BRANCH   3   4
ATOM      4  C   UNL     1     -10.916  -0.981 -10.125  1.00  0.00     0.053 C 
BRANCH   4   5
ATOM      5  C   UNL     1     -12.217  -0.238 -10.107  1.00  0.00     0.041 C 
ATOM      6  O   UNL     1     -13.212  -0.685 -10.738  1.00  0.00    -0.550 OA
ATOM      7  O   UNL     1     -12.321   0.965  -9.422  1.00  0.00    -0.550 OA
ENDBRANCH   4   5
ENDBRANCH   3   4
ENDBRANCH   2   3
ENDBRANCH   1   2
BRANCH   1   8
ATOM      8  C   UNL     1      -9.866  -5.157  -8.283  1.00  0.00     0.000 C 
BRANCH   8   9
ATOM      9  C   UNL     1     -10.810  -6.294  -8.704  1.00  0.00    -0.000 C 
BRANCH   9  10
ATOM     10  C   UNL     1     -10.691  -7.529  -7.793  1.00  0.00    -0.000 C 
BRANCH  10  11
ATOM     11  C   UNL     1     -12.008  -7.868  -7.071  1.00  0.00    -0.000 C 
BRANCH  11  12
ATOM     12  C   UNL     1     -12.637  -6.703  -6.285  1.00  0.00    -0.003 C 
ATOM     13  C   UNL     1     -11.815  -6.292  -5.063  1.00  0.00     0.004 C 
ENDBRANCH  11  12
ENDBRANCH  10  11
ENDBRANCH   9  10
ENDBRANCH   8   9
ENDBRANCH   1   8
TORSDOF 9
ENDMDL
MODEL 9
REMARK VINA RESULT:    -4.594      4.794      7.420
REMARK INTER + INTRA:          -7.473
REMARK INTER:                  -6.274
REMARK INTRA:                  -1.199
REMARK UNBOUND:                -0.463
REMARK SMILES CCCCCCCCCCC(=O)[O-]
REMARK SMILES IDX 7 1 8 2 9 3 10 4 11 5 12 6 13 7 6 8 5 9 4 10 3 11 2 12 1 13
REMARK H PARENT
REMARK Flexibility Score: inf
ROOT
ATOM      1  C   UNL     1     -10.981  -5.289  -6.220  1.00  0.00     0.000 C 
ENDROOT
BRANCH   1   2
ATOM      2  C   UNL     1     -10.467  -6.332  -7.220  1.00  0.00     0.000 C 
BRANCH   2   3
ATOM      3  C   UNL     1     -10.785  -5.914  -8.664  1.00  0.00     0.006 C 
BRANCH   3   4
ATOM      4  C   UNL     1     -11.499  -4.559  -8.732  1.00  0.00     0.053 C 
BRANCH   4   5
ATOM      5  C   UNL     1     -10.602  -3.484  -9.263  1.00  0.00     0.041 C 
ATOM      6  O   UNL     1     -10.014  -3.635 -10.367  1.00  0.00    -0.550 OA
ATOM      7  O   UNL     1     -10.388  -2.328  -8.523  1.00  0.00    -0.550 OA
ENDBRANCH   4   5
ENDBRANCH   3   4
ENDBRANCH   2   3
ENDBRANCH   1   2
BRANCH   1   8
ATOM      8  C   UNL     1     -11.852  -5.947  -5.139  1.00  0.00     0.000 C 
BRANCH   8   9
ATOM      9  C   UNL     1     -11.923  -7.476  -5.281  1.00  0.00    -0.000 C 
BRANCH   9  10
ATOM     10  C   UNL     1     -13.340  -7.972  -5.619  1.00  0.00    -0.000 C 
BRANCH  10  11
ATOM     11  C   UNL     1     -14.344  -6.821  -5.820  1.00  0.00    -0.000 C 
BRANCH  11  12
ATOM     12  C   UNL     1     -14.661  -6.486  -7.289  1.00  0.00    -0.003 C 
ATOM     13  C   UNL     1     -14.140  -7.537  -8.269  1.00  0.00     0.004 C 
ENDBRANCH  11  12
ENDBRANCH  10  11
ENDBRANCH   9  10
ENDBRANCH   8   9
ENDBRANCH   1   8
TORSDOF 9
ENDMDL
