MODEL 1
REMARK VINA RESULT:    -4.028      0.000      0.000
REMARK INTER + INTRA:          -5.497
REMARK INTER:                  -5.676
REMARK INTRA:                   0.179
REMARK UNBOUND:                 0.179
REMARK SMILES CC1=CCC(=C(C)C)C(=O)CC(C)=CCC1
REMARK SMILES IDX 12 1 14 2 13 3 15 4 16 5 2 6 1 7 3 8 11 10 9 11 10 12 5 13
REMARK SMILES IDX 6 14 7 15 8 16 4 17
REMARK H PARENT
REMARK Flexibility Score: 60.00
ROOT
ATOM      1  C   UNL     1       6.073 -24.430  24.603  1.00  0.00    -0.070 C 
ATOM      2  C   UNL     1       5.413 -24.690  23.453  1.00  0.00    -0.027 C 
ATOM      3  C   UNL     1       7.375 -23.676  24.516  1.00  0.00     0.039 C 
ENDROOT
BRANCH   2   4
ATOM      4  C   UNL     1       4.053 -25.345  23.343  1.00  0.00     0.032 C 
BRANCH   4   5
ATOM      5  C   UNL     1       2.858 -24.375  23.432  1.00  0.00     0.034 C 
BRANCH   5   6
ATOM      6  C   UNL     1       1.831 -24.788  24.472  1.00  0.00    -0.077 C 
ATOM      7  C   UNL     1       0.924 -25.947  24.142  1.00  0.00     0.039 C 
ATOM      8  C   UNL     1       1.722 -24.229  25.703  1.00  0.00    -0.023 CG0
ATOM      9  G   UNL     1       2.506 -23.049  26.244  1.00  0.00     0.000 G0
ENDBRANCH   5   6
ENDBRANCH   4   5
ENDBRANCH   2   4
BRANCH   1  10
ATOM     10  C   UNL     1       5.523 -24.777  25.973  1.00  0.00     0.111 C 
BRANCH  10  11
ATOM     11  C   UNL     1       5.001 -23.556  26.686  1.00  0.00     0.163 C 
ATOM     12  O   UNL     1       5.760 -22.554  26.779  1.00  0.00    -0.294 OA
BRANCH  11  13
ATOM     13  C   UNL     1       3.610 -23.475  27.223  1.00  0.00    -0.002 C 
ATOM     14  C   UNL     1       3.359 -23.696  28.548  1.00  0.00    -0.069 C 
ATOM     15  C   UNL     1       1.991 -23.467  29.153  1.00  0.00     0.039 C 
ATOM     16  C   UNL     1       4.445 -24.180  29.482  1.00  0.00     0.039 C 
BRANCH  13  17
ATOM     17  C   UNL     1       2.516 -23.048  26.258  1.00  0.00     0.066 CG0
ATOM     18  G   UNL     1       1.731 -24.228  25.718  1.00  0.00     0.000 G0
ENDBRANCH  13  17
ENDBRANCH  11  13
ENDBRANCH  10  11
ENDBRANCH   1  10
TORSDOF 0
ENDMDL
MODEL 2
REMARK VINA RESULT:    -3.934      9.438     10.761
REMARK INTER + INTRA:          -5.366
REMARK INTER:                  -5.581
REMARK INTRA:                   0.215
REMARK UNBOUND:                 0.179
REMARK SMILES CC1=CCC(=C(C)C)C(=O)CC(C)=CCC1
REMARK SMILES IDX 12 1 14 2 13 3 15 4 16 5 2 6 1 7 3 8 11 10 9 11 10 12 5 13
REMARK SMILES IDX 6 14 7 15 8 16 4 17
REMARK H PARENT
REMARK Flexibility Score: 60.00
ROOT
ATOM      1  C   UNL     1       9.974 -12.708  24.267  1.00  0.00    -0.070 C 
ATOM      2  C   UNL     1      10.432 -13.323  23.154  1.00  0.00    -0.027 C 
ATOM      3  C   UNL     1      10.153 -11.214  24.372  1.00  0.00     0.039 C 
ENDROOT
BRANCH   2   4
ATOM      4  C   UNL     1      10.260 -14.789  22.822  1.00  0.00     0.032 C 
BRANCH   4   5
ATOM      5  C   UNL     1       8.835 -15.196  22.396  1.00  0.00     0.034 C 
BRANCH   5   6
ATOM      6  C   UNL     1       8.331 -16.438  23.108  1.00  0.00    -0.077 C 
ATOM      7  C   UNL     1       9.113 -17.716  22.930  1.00  0.00     0.039 C 
ATOM      8  C   UNL     1       7.266 -16.459  23.948  1.00  0.00    -0.023 CG0
ATOM      9  G   UNL     1       6.327 -15.311  24.262  1.00  0.00     0.000 G0
ENDBRANCH   5   6
ENDBRANCH   4   5
ENDBRANCH   2   4
BRANCH   1  10
ATOM     10  C   UNL     1       9.213 -13.428  25.362  1.00  0.00     0.111 C 
BRANCH  10  11
ATOM     11  C   UNL     1       7.724 -13.336  25.155  1.00  0.00     0.163 C 
ATOM     12  O   UNL     1       7.259 -12.274  24.658  1.00  0.00    -0.294 OA
BRANCH  11  13
ATOM     13  C   UNL     1       6.800 -14.469  25.458  1.00  0.00    -0.002 C 
ATOM     14  C   UNL     1       6.344 -14.679  26.729  1.00  0.00    -0.069 C 
ATOM     15  C   UNL     1       5.288 -15.717  27.040  1.00  0.00     0.039 C 
ATOM     16  C   UNL     1       6.876 -13.876  27.895  1.00  0.00     0.039 C 
BRANCH  13  17
ATOM     17  C   UNL     1       6.322 -15.308  24.283  1.00  0.00     0.066 CG0
ATOM     18  G   UNL     1       7.279 -16.437  23.955  1.00  0.00     0.000 G0
ENDBRANCH  13  17
ENDBRANCH  11  13
ENDBRANCH  10  11
ENDBRANCH   1  10
TORSDOF 0
ENDMDL
MODEL 3
REMARK VINA RESULT:    -3.908      9.365     11.897
REMARK INTER + INTRA:          -5.329
REMARK INTER:                  -5.501
REMARK INTRA:                   0.173
REMARK UNBOUND:                 0.179
REMARK SMILES CC1=CCC(=C(C)C)C(=O)CC(C)=CCC1
REMARK SMILES IDX 12 1 14 2 13 3 15 4 16 5 2 6 1 7 3 8 11 10 9 11 10 12 5 13
REMARK SMILES IDX 6 14 7 15 8 16 4 17
REMARK H PARENT
REMARK Flexibility Score: 60.00
ROOT
ATOM      1  C   UNL     1      14.052 -18.889  19.302  1.00  0.00    -0.070 C 
ATOM      2  C   UNL     1      14.048 -17.788  18.518  1.00  0.00    -0.027 C 
ATOM      3  C   UNL     1      15.386 -19.483  19.677  1.00  0.00     0.039 C 
ENDROOT
BRANCH   2   4
ATOM      4  C   UNL     1      12.823 -16.995  18.115  1.00  0.00     0.032 C 
BRANCH   4   5
ATOM      5  C   UNL     1      12.547 -15.747  18.977  1.00  0.00     0.034 C 
BRANCH   5   6
ATOM      6  C   UNL     1      11.109 -15.657  19.455  1.00  0.00    -0.077 C 
ATOM      7  C   UNL     1      10.097 -15.036  18.524  1.00  0.00     0.039 C 
ATOM      8  C   UNL     1      10.661 -16.159  20.632  1.00  0.00    -0.023 CG0
ATOM      9  G   UNL     1      11.491 -16.803  21.726  1.00  0.00     0.000 G0
ENDBRANCH   5   6
ENDBRANCH   4   5
ENDBRANCH   2   4
BRANCH   1  10
ATOM     10  C   UNL     1      12.794 -19.494  19.893  1.00  0.00     0.111 C 
BRANCH  10  11
ATOM     11  C   UNL     1      12.598 -19.074  21.326  1.00  0.00     0.163 C 
ATOM     12  O   UNL     1      13.511 -19.344  22.153  1.00  0.00    -0.294 OA
BRANCH  11  13
ATOM     13  C   UNL     1      11.402 -18.305  21.781  1.00  0.00    -0.002 C 
ATOM     14  C   UNL     1      10.307 -18.949  22.286  1.00  0.00    -0.069 C 
ATOM     15  C   UNL     1       9.146 -18.196  22.899  1.00  0.00     0.039 C 
ATOM     16  C   UNL     1      10.203 -20.458  22.259  1.00  0.00     0.039 C 
BRANCH  13  17
ATOM     17  C   UNL     1      11.495 -16.788  21.744  1.00  0.00     0.066 CG0
ATOM     18  G   UNL     1      10.666 -16.187  20.625  1.00  0.00     0.000 G0
ENDBRANCH  13  17
ENDBRANCH  11  13
ENDBRANCH  10  11
ENDBRANCH   1  10
TORSDOF 0
ENDMDL
MODEL 4
REMARK VINA RESULT:    -3.899      9.291     12.167
REMARK INTER + INTRA:          -5.317
REMARK INTER:                  -5.689
REMARK INTRA:                   0.372
REMARK UNBOUND:                 0.179
REMARK SMILES CC1=CCC(=C(C)C)C(=O)CC(C)=CCC1
REMARK SMILES IDX 12 1 14 2 13 3 15 4 16 5 2 6 1 7 3 8 11 10 9 11 10 12 5 13
REMARK SMILES IDX 6 14 7 15 8 16 4 17
REMARK H PARENT
REMARK Flexibility Score: 60.00
ROOT
ATOM      1  C   UNL     1      10.603 -19.532  21.638  1.00  0.00    -0.070 C 
ATOM      2  C   UNL     1      11.902 -19.303  21.931  1.00  0.00    -0.027 C 
ATOM      3  C   UNL     1       9.948 -20.750  22.238  1.00  0.00     0.039 C 
ENDROOT
BRANCH   2   4
ATOM      4  C   UNL     1      12.703 -18.091  21.507  1.00  0.00     0.032 C 
BRANCH   4   5
ATOM      5  C   UNL     1      12.943 -17.971  19.989  1.00  0.00     0.034 C 
BRANCH   5   6
ATOM      6  C   UNL     1      12.434 -16.665  19.405  1.00  0.00    -0.077 C 
ATOM      7  C   UNL     1      12.962 -15.380  19.993  1.00  0.00     0.039 C 
ATOM      8  C   UNL     1      11.593 -16.578  18.345  1.00  0.00    -0.023 CG0
ATOM      9  G   UNL     1      10.925 -17.724  17.611  1.00  0.00     0.000 G0
ENDBRANCH   5   6
ENDBRANCH   4   5
ENDBRANCH   2   4
BRANCH   1  10
ATOM     10  C   UNL     1       9.756 -18.580  20.817  1.00  0.00     0.111 C 
BRANCH  10  11
ATOM     11  C   UNL     1       9.611 -19.053  19.394  1.00  0.00     0.163 C 
ATOM     12  O   UNL     1       9.466 -20.289  19.191  1.00  0.00    -0.294 OA
BRANCH  11  13
ATOM     13  C   UNL     1       9.572 -18.112  18.236  1.00  0.00    -0.002 C 
ATOM     14  C   UNL     1       8.391 -17.561  17.822  1.00  0.00    -0.069 C 
ATOM     15  C   UNL     1       8.337 -16.486  16.759  1.00  0.00     0.039 C 
ATOM     16  C   UNL     1       7.071 -18.000  18.416  1.00  0.00     0.039 C 
BRANCH  13  17
ATOM     17  C   UNL     1      10.901 -17.727  17.607  1.00  0.00     0.066 CG0
ATOM     18  G   UNL     1      11.577 -16.586  18.342  1.00  0.00     0.000 G0
ENDBRANCH  13  17
ENDBRANCH  11  13
ENDBRANCH  10  11
ENDBRANCH   1  10
TORSDOF 0
ENDMDL
MODEL 5
REMARK VINA RESULT:    -3.829     10.049     11.665
REMARK INTER + INTRA:          -5.217
REMARK INTER:                  -5.338
REMARK INTRA:                   0.121
REMARK UNBOUND:                 0.179
REMARK SMILES CC1=CCC(=C(C)C)C(=O)CC(C)=CCC1
REMARK SMILES IDX 12 1 14 2 13 3 15 4 16 5 2 6 1 7 3 8 11 10 9 11 10 12 5 13
REMARK SMILES IDX 6 14 7 15 8 16 4 17
REMARK H PARENT
REMARK Flexibility Score: 60.00
ROOT
ATOM      1  C   UNL     1       8.070 -16.527  22.569  1.00  0.00    -0.070 C 
ATOM      2  C   UNL     1       7.033 -16.901  23.351  1.00  0.00    -0.027 C 
ATOM      3  C   UNL     1       8.122 -17.061  21.160  1.00  0.00     0.039 C 
ENDROOT
BRANCH   2   4
ATOM      4  C   UNL     1       6.755 -16.398  24.751  1.00  0.00     0.032 C 
BRANCH   4   5
ATOM      5  C   UNL     1       6.021 -15.044  24.819  1.00  0.00     0.034 C 
BRANCH   5   6
ATOM      6  C   UNL     1       6.651 -14.072  25.801  1.00  0.00    -0.077 C 
ATOM      7  C   UNL     1       6.550 -14.393  27.271  1.00  0.00     0.039 C 
ATOM      8  C   UNL     1       7.358 -12.972  25.440  1.00  0.00    -0.023 CG0
ATOM      9  G   UNL     1       7.575 -12.445  24.035  1.00  0.00     0.000 G0
ENDBRANCH   5   6
ENDBRANCH   4   5
ENDBRANCH   2   4
BRANCH   1  10
ATOM     10  C   UNL     1       9.125 -15.530  23.009  1.00  0.00     0.111 C 
BRANCH  10  11
ATOM     11  C   UNL     1       8.804 -14.137  22.532  1.00  0.00     0.163 C 
ATOM     12  O   UNL     1       8.396 -13.995  21.347  1.00  0.00    -0.294 OA
BRANCH  11  13
ATOM     13  C   UNL     1       8.893 -12.944  23.424  1.00  0.00    -0.002 C 
ATOM     14  C   UNL     1      10.083 -12.297  23.610  1.00  0.00    -0.069 C 
ATOM     15  C   UNL     1      10.177 -10.997  24.378  1.00  0.00     0.039 C 
ATOM     16  C   UNL     1      11.373 -12.853  23.050  1.00  0.00     0.039 C 
BRANCH  13  17
ATOM     17  C   UNL     1       7.597 -12.432  24.032  1.00  0.00     0.066 CG0
ATOM     18  G   UNL     1       7.361 -12.977  25.427  1.00  0.00     0.000 G0
ENDBRANCH  13  17
ENDBRANCH  11  13
ENDBRANCH  10  11
ENDBRANCH   1  10
TORSDOF 0
ENDMDL
MODEL 6
REMARK VINA RESULT:    -3.817      9.010     11.402
REMARK INTER + INTRA:          -5.200
REMARK INTER:                  -5.587
REMARK INTRA:                   0.387
REMARK UNBOUND:                 0.179
REMARK SMILES CC1=CCC(=C(C)C)C(=O)CC(C)=CCC1
REMARK SMILES IDX 12 1 14 2 13 3 15 4 16 5 2 6 1 7 3 8 11 10 9 11 10 12 5 13
REMARK SMILES IDX 6 14 7 15 8 16 4 17
REMARK H PARENT
REMARK Flexibility Score: 60.00
ROOT
ATOM      1  C   UNL     1      12.128 -17.136  18.013  1.00  0.00    -0.070 C 
ATOM      2  C   UNL     1      12.758 -17.843  18.977  1.00  0.00    -0.027 C 
ATOM      3  C   UNL     1      12.928 -16.108  17.254  1.00  0.00     0.039 C 
ENDROOT
BRANCH   2   4
ATOM      4  C   UNL     1      12.156 -18.978  19.777  1.00  0.00     0.032 C 
BRANCH   4   5
ATOM      5  C   UNL     1      11.577 -18.570  21.147  1.00  0.00     0.034 C 
BRANCH   5   6
ATOM      6  C   UNL     1      10.218 -19.185  21.427  1.00  0.00    -0.077 C 
ATOM      7  C   UNL     1      10.182 -20.585  21.987  1.00  0.00     0.039 C 
ATOM      8  C   UNL     1       9.038 -18.534  21.274  1.00  0.00    -0.023 CG0
ATOM      9  G   UNL     1       8.829 -17.140  20.714  1.00  0.00     0.000 G0
ENDBRANCH   5   6
ENDBRANCH   4   5
ENDBRANCH   2   4
BRANCH   1  10
ATOM     10  C   UNL     1      10.692 -17.391  17.599  1.00  0.00     0.111 C 
BRANCH  10  11
ATOM     11  C   UNL     1       9.728 -16.543  18.387  1.00  0.00     0.163 C 
ATOM     12  O   UNL     1       9.833 -15.290  18.299  1.00  0.00    -0.294 OA
BRANCH  11  13
ATOM     13  C   UNL     1       8.629 -17.131  19.209  1.00  0.00    -0.002 C 
ATOM     14  C   UNL     1       7.543 -17.710  18.613  1.00  0.00    -0.069 C 
ATOM     15  C   UNL     1       6.492 -18.451  19.409  1.00  0.00     0.039 C 
ATOM     16  C   UNL     1       7.340 -17.639  17.115  1.00  0.00     0.039 C 
BRANCH  13  17
ATOM     17  C   UNL     1       8.816 -17.139  20.718  1.00  0.00     0.066 CG0
ATOM     18  G   UNL     1       9.038 -18.536  21.262  1.00  0.00     0.000 G0
ENDBRANCH  13  17
ENDBRANCH  11  13
ENDBRANCH  10  11
ENDBRANCH   1  10
TORSDOF 0
ENDMDL
MODEL 7
REMARK VINA RESULT:    -3.760      9.719     11.369
REMARK INTER + INTRA:          -5.120
REMARK INTER:                  -5.448
REMARK INTRA:                   0.327
REMARK UNBOUND:                 0.179
REMARK SMILES CC1=CCC(=C(C)C)C(=O)CC(C)=CCC1
REMARK SMILES IDX 12 1 14 2 13 3 15 4 16 5 2 6 1 7 3 8 11 10 9 11 10 12 5 13
REMARK SMILES IDX 6 14 7 15 8 16 4 17
REMARK H PARENT
REMARK Flexibility Score: 60.00
ROOT
ATOM      1  C   UNL     1      12.777 -18.974  20.647  1.00  0.00    -0.070 C 
ATOM      2  C   UNL     1      12.459 -18.737  21.939  1.00  0.00    -0.027 C 
ATOM      3  C   UNL     1      13.726 -20.107  20.350  1.00  0.00     0.039 C 
ENDROOT
BRANCH   2   4
ATOM      4  C   UNL     1      11.456 -17.715  22.428  1.00  0.00     0.032 C 
BRANCH   4   5
ATOM      5  C   UNL     1       9.991 -18.198  22.441  1.00  0.00     0.034 C 
BRANCH   5   6
ATOM      6  C   UNL     1       9.005 -17.123  22.021  1.00  0.00    -0.077 C 
ATOM      7  C   UNL     1       8.774 -15.973  22.969  1.00  0.00     0.039 C 
ATOM      8  C   UNL     1       8.371 -17.093  20.822  1.00  0.00    -0.023 CG0
ATOM      9  G   UNL     1       8.434 -18.141  19.728  1.00  0.00     0.000 G0
ENDBRANCH   5   6
ENDBRANCH   4   5
ENDBRANCH   2   4
BRANCH   1  10
ATOM     10  C   UNL     1      12.158 -18.220  19.487  1.00  0.00     0.111 C 
BRANCH  10  11
ATOM     11  C   UNL     1      10.827 -18.807  19.092  1.00  0.00     0.163 C 
ATOM     12  O   UNL     1      10.720 -20.063  19.055  1.00  0.00    -0.294 OA
BRANCH  11  13
ATOM     13  C   UNL     1       9.631 -17.961  18.806  1.00  0.00    -0.002 C 
ATOM     14  C   UNL     1       9.602 -17.135  17.717  1.00  0.00    -0.069 C 
ATOM     15  C   UNL     1       8.351 -16.387  17.312  1.00  0.00     0.039 C 
ATOM     16  C   UNL     1      10.828 -16.931  16.856  1.00  0.00     0.039 C 
BRANCH  13  17
ATOM     17  C   UNL     1       8.426 -18.131  19.718  1.00  0.00     0.066 CG0
ATOM     18  G   UNL     1       8.383 -17.087  20.816  1.00  0.00     0.000 G0
ENDBRANCH  13  17
ENDBRANCH  11  13
ENDBRANCH  10  11
ENDBRANCH   1  10
TORSDOF 0
ENDMDL
MODEL 8
REMARK VINA RESULT:    -3.687      9.881     12.258
REMARK INTER + INTRA:          -5.017
REMARK INTER:                  -5.260
REMARK INTRA:                   0.244
REMARK UNBOUND:                 0.179
REMARK SMILES CC1=CCC(=C(C)C)C(=O)CC(C)=CCC1
REMARK SMILES IDX 12 1 14 2 13 3 15 4 16 5 2 6 1 7 3 8 11 10 9 11 10 12 5 13
REMARK SMILES IDX 6 14 7 15 8 16 4 17
REMARK H PARENT
REMARK Flexibility Score: 60.00
ROOT
ATOM      1  C   UNL     1      11.147 -17.662  21.966  1.00  0.00    -0.070 C 
ATOM      2  C   UNL     1      12.368 -17.335  21.487  1.00  0.00    -0.027 C 
ATOM      3  C   UNL     1      10.879 -17.432  23.432  1.00  0.00     0.039 C 
ENDROOT
BRANCH   2   4
ATOM      4  C   UNL     1      12.793 -17.401  20.036  1.00  0.00     0.032 C 
BRANCH   4   5
ATOM      5  C   UNL     1      12.438 -16.156  19.199  1.00  0.00     0.034 C 
BRANCH   5   6
ATOM      6  C   UNL     1      11.930 -16.496  17.809  1.00  0.00    -0.077 C 
ATOM      7  C   UNL     1      12.922 -17.044  16.814  1.00  0.00     0.039 C 
ATOM      8  C   UNL     1      10.632 -16.406  17.426  1.00  0.00    -0.023 CG0
ATOM      9  G   UNL     1       9.473 -15.869  18.242  1.00  0.00     0.000 G0
ENDBRANCH   5   6
ENDBRANCH   4   5
ENDBRANCH   2   4
BRANCH   1  10
ATOM     10  C   UNL     1      10.014 -18.156  21.089  1.00  0.00     0.111 C 
BRANCH  10  11
ATOM     11  C   UNL     1       9.204 -17.014  20.533  1.00  0.00     0.163 C 
ATOM     12  O   UNL     1       8.899 -16.070  21.311  1.00  0.00    -0.294 OA
BRANCH  11  13
ATOM     13  C   UNL     1       8.809 -16.935  19.096  1.00  0.00    -0.002 C 
ATOM     14  C   UNL     1       7.829 -17.746  18.594  1.00  0.00    -0.069 C 
ATOM     15  C   UNL     1       7.297 -17.583  17.187  1.00  0.00     0.039 C 
ATOM     16  C   UNL     1       7.222 -18.851  19.430  1.00  0.00     0.039 C 
BRANCH  13  17
ATOM     17  C   UNL     1       9.473 -15.860  18.250  1.00  0.00     0.066 CG0
ATOM     18  G   UNL     1      10.627 -16.404  17.430  1.00  0.00     0.000 G0
ENDBRANCH  13  17
ENDBRANCH  11  13
ENDBRANCH  10  11
ENDBRANCH   1  10
TORSDOF 0
ENDMDL
MODEL 9
REMARK VINA RESULT:    -3.649     10.207     12.287
REMARK INTER + INTRA:          -4.964
REMARK INTER:                  -5.139
REMARK INTRA:                   0.175
REMARK UNBOUND:                 0.179
REMARK SMILES CC1=CCC(=C(C)C)C(=O)CC(C)=CCC1
REMARK SMILES IDX 12 1 14 2 13 3 15 4 16 5 2 6 1 7 3 8 11 10 9 11 10 12 5 13
REMARK SMILES IDX 6 14 7 15 8 16 4 17
REMARK H PARENT
REMARK Flexibility Score: 60.00
ROOT
ATOM      1  C   UNL     1       8.503 -16.374  22.262  1.00  0.00    -0.070 C 
ATOM      2  C   UNL     1       9.275 -17.018  23.165  1.00  0.00    -0.027 C 
ATOM      3  C   UNL     1       7.702 -15.188  22.737  1.00  0.00     0.039 C 
ENDROOT
BRANCH   2   4
ATOM      4  C   UNL     1      10.219 -18.162  22.864  1.00  0.00     0.032 C 
BRANCH   4   5
ATOM      5  C   UNL     1      11.672 -17.741  22.563  1.00  0.00     0.034 C 
BRANCH   5   6
ATOM      6  C   UNL     1      12.245 -18.415  21.329  1.00  0.00    -0.077 C 
ATOM      7  C   UNL     1      12.732 -19.836  21.467  1.00  0.00     0.039 C 
ATOM      8  C   UNL     1      12.284 -17.849  20.097  1.00  0.00    -0.023 CG0
ATOM      9  G   UNL     1      11.872 -16.438  19.726  1.00  0.00     0.000 G0
ENDBRANCH   5   6
ENDBRANCH   4   5
ENDBRANCH   2   4
BRANCH   1  10
ATOM     10  C   UNL     1       8.477 -16.726  20.789  1.00  0.00     0.111 C 
BRANCH  10  11
ATOM     11  C   UNL     1       9.392 -15.836  19.989  1.00  0.00     0.163 C 
ATOM     12  O   UNL     1       9.257 -14.588  20.107  1.00  0.00    -0.294 OA
BRANCH  11  13
ATOM     13  C   UNL     1      10.480 -16.376  19.121  1.00  0.00    -0.002 C 
ATOM     14  C   UNL     1      10.234 -16.716  17.820  1.00  0.00    -0.069 C 
ATOM     15  C   UNL     1      11.343 -17.115  16.873  1.00  0.00     0.039 C 
ATOM     16  C   UNL     1       8.829 -16.707  17.261  1.00  0.00     0.039 C 
BRANCH  13  17
ATOM     17  C   UNL     1      11.878 -16.439  19.717  1.00  0.00     0.066 CG0
ATOM     18  G   UNL     1      12.275 -17.850  20.105  1.00  0.00     0.000 G0
ENDBRANCH  13  17
ENDBRANCH  11  13
ENDBRANCH  10  11
ENDBRANCH   1  10
TORSDOF 0
ENDMDL
