MODEL 1
REMARK VINA RESULT:    -3.367      0.000      0.000
REMARK INTER + INTRA:          -4.558
REMARK INTER:                  -4.744
REMARK INTRA:                   0.187
REMARK UNBOUND:                 0.187
REMARK SMILES CC1=CCC(=C(C)C)C(=O)CC(C)=CCC1
REMARK SMILES IDX 12 1 14 2 13 3 15 4 16 5 2 6 1 7 3 8 11 10 9 11 10 12 5 13
REMARK SMILES IDX 6 14 7 15 8 16 4 17
REMARK H PARENT
REMARK Flexibility Score: 60.00
ROOT
ATOM      1  C   UNL     1      15.302  62.072  20.873  1.00  0.00    -0.070 C 
ATOM      2  C   UNL     1      13.970  62.093  20.611  1.00  0.00    -0.027 C 
ATOM      3  C   UNL     1      16.153  61.134  20.051  1.00  0.00     0.039 C 
ENDROOT
BRANCH   2   4
ATOM      4  C   UNL     1      12.924  62.873  21.371  1.00  0.00     0.032 C 
BRANCH   4   5
ATOM      5  C   UNL     1      12.716  62.370  22.806  1.00  0.00     0.034 C 
BRANCH   5   6
ATOM      6  C   UNL     1      12.854  63.517  23.788  1.00  0.00    -0.077 C 
ATOM      7  C   UNL     1      11.899  64.677  23.672  1.00  0.00     0.039 C 
ATOM      8  C   UNL     1      13.742  63.519  24.811  1.00  0.00    -0.023 CG0
ATOM      9  G   UNL     1      14.783  62.458  25.077  1.00  0.00     0.000 G0
ENDBRANCH   5   6
ENDBRANCH   4   5
ENDBRANCH   2   4
BRANCH   1  10
ATOM     10  C   UNL     1      15.998  62.983  21.879  1.00  0.00     0.111 C 
BRANCH  10  11
ATOM     11  C   UNL     1      16.477  62.273  23.121  1.00  0.00     0.163 C 
ATOM     12  O   UNL     1      17.207  61.256  22.967  1.00  0.00    -0.294 OA
BRANCH  11  13
ATOM     13  C   UNL     1      16.167  62.763  24.505  1.00  0.00    -0.002 C 
ATOM     14  C   UNL     1      17.110  63.435  25.237  1.00  0.00    -0.069 C 
ATOM     15  C   UNL     1      16.856  63.853  26.669  1.00  0.00     0.039 C 
ATOM     16  C   UNL     1      18.439  63.842  24.640  1.00  0.00     0.039 C 
BRANCH  13  17
ATOM     17  C   UNL     1      14.798  62.448  25.107  1.00  0.00     0.066 CG0
ATOM     18  G   UNL     1      13.777  63.515  24.794  1.00  0.00     0.000 G0
ENDBRANCH  13  17
ENDBRANCH  11  13
ENDBRANCH  10  11
ENDBRANCH   1  10
TORSDOF 0
ENDMDL
MODEL 2
REMARK VINA RESULT:    -3.343     13.869     15.197
REMARK INTER + INTRA:          -4.524
REMARK INTER:                  -4.731
REMARK INTRA:                   0.207
REMARK UNBOUND:                 0.187
REMARK SMILES CC1=CCC(=C(C)C)C(=O)CC(C)=CCC1
REMARK SMILES IDX 12 1 14 2 13 3 15 4 16 5 2 6 1 7 3 8 11 10 9 11 10 12 5 13
REMARK SMILES IDX 6 14 7 15 8 16 4 17
REMARK H PARENT
REMARK Flexibility Score: 60.00
ROOT
ATOM      1  C   UNL     1      19.535  52.837  33.629  1.00  0.00    -0.070 C 
ATOM      2  C   UNL     1      19.434  53.263  34.914  1.00  0.00    -0.027 C 
ATOM      3  C   UNL     1      20.720  53.326  32.830  1.00  0.00     0.039 C 
ENDROOT
BRANCH   2   4
ATOM      4  C   UNL     1      18.289  52.984  35.858  1.00  0.00     0.032 C 
BRANCH   4   5
ATOM      5  C   UNL     1      16.976  53.657  35.434  1.00  0.00     0.034 C 
BRANCH   5   6
ATOM      6  C   UNL     1      15.821  52.684  35.571  1.00  0.00    -0.077 C 
ATOM      7  C   UNL     1      15.549  52.082  36.927  1.00  0.00     0.039 C 
ATOM      8  C   UNL     1      14.974  52.384  34.558  1.00  0.00    -0.023 CG0
ATOM      9  G   UNL     1      15.094  52.875  33.135  1.00  0.00     0.000 G0
ENDBRANCH   5   6
ENDBRANCH   4   5
ENDBRANCH   2   4
BRANCH   1  10
ATOM     10  C   UNL     1      18.582  51.844  32.971  1.00  0.00     0.111 C 
BRANCH  10  11
ATOM     11  C   UNL     1      17.477  52.491  32.174  1.00  0.00     0.163 C 
ATOM     12  O   UNL     1      17.797  53.404  31.365  1.00  0.00    -0.294 OA
BRANCH  11  13
ATOM     13  C   UNL     1      16.045  52.050  32.269  1.00  0.00    -0.002 C 
ATOM     14  C   UNL     1      15.599  50.963  31.565  1.00  0.00    -0.069 C 
ATOM     15  C   UNL     1      14.141  50.557  31.566  1.00  0.00     0.039 C 
ATOM     16  C   UNL     1      16.547  50.075  30.788  1.00  0.00     0.039 C 
BRANCH  13  17
ATOM     17  C   UNL     1      15.078  52.873  33.120  1.00  0.00     0.066 CG0
ATOM     18  G   UNL     1      14.994  52.367  34.540  1.00  0.00     0.000 G0
ENDBRANCH  13  17
ENDBRANCH  11  13
ENDBRANCH  10  11
ENDBRANCH   1  10
TORSDOF 0
ENDMDL
MODEL 3
REMARK VINA RESULT:    -3.298      1.650      3.682
REMARK INTER + INTRA:          -4.461
REMARK INTER:                  -4.526
REMARK INTRA:                   0.065
REMARK UNBOUND:                 0.187
REMARK SMILES CC1=CCC(=C(C)C)C(=O)CC(C)=CCC1
REMARK SMILES IDX 12 1 14 2 13 3 15 4 16 5 2 6 1 7 3 8 11 10 9 11 10 12 5 13
REMARK SMILES IDX 6 14 7 15 8 16 4 17
REMARK H PARENT
REMARK Flexibility Score: 60.00
ROOT
ATOM      1  C   UNL     1      13.540  62.238  20.695  1.00  0.00    -0.070 C 
ATOM      2  C   UNL     1      14.747  61.637  20.536  1.00  0.00    -0.027 C 
ATOM      3  C   UNL     1      12.425  61.800  19.776  1.00  0.00     0.039 C 
ENDROOT
BRANCH   2   4
ATOM      4  C   UNL     1      16.020  61.987  21.271  1.00  0.00     0.032 C 
BRANCH   4   5
ATOM      5  C   UNL     1      16.127  61.322  22.650  1.00  0.00     0.034 C 
BRANCH   5   6
ATOM      6  C   UNL     1      16.589  62.331  23.683  1.00  0.00    -0.077 C 
ATOM      7  C   UNL     1      17.957  62.944  23.523  1.00  0.00     0.039 C 
ATOM      8  C   UNL     1      15.808  62.766  24.700  1.00  0.00    -0.023 CG0
ATOM      9  G   UNL     1      14.424  62.260  25.028  1.00  0.00     0.000 G0
ENDBRANCH   5   6
ENDBRANCH   4   5
ENDBRANCH   2   4
BRANCH   1  10
ATOM     10  C   UNL     1      13.219  63.258  21.782  1.00  0.00     0.111 C 
BRANCH  10  11
ATOM     11  C   UNL     1      12.756  62.646  23.081  1.00  0.00     0.163 C 
ATOM     12  O   UNL     1      11.923  61.701  23.016  1.00  0.00    -0.294 OA
BRANCH  11  13
ATOM     13  C   UNL     1      13.288  63.077  24.416  1.00  0.00    -0.002 C 
ATOM     14  C   UNL     1      12.816  64.210  25.025  1.00  0.00    -0.069 C 
ATOM     15  C   UNL     1      13.403  64.719  26.323  1.00  0.00     0.039 C 
ATOM     16  C   UNL     1      11.647  64.987  24.462  1.00  0.00     0.039 C 
BRANCH  13  17
ATOM     17  C   UNL     1      14.409  62.261  25.059  1.00  0.00     0.066 CG0
ATOM     18  G   UNL     1      15.778  62.786  24.697  1.00  0.00     0.000 G0
ENDBRANCH  13  17
ENDBRANCH  11  13
ENDBRANCH  10  11
ENDBRANCH   1  10
TORSDOF 0
ENDMDL
MODEL 4
REMARK VINA RESULT:    -3.225     12.460     14.289
REMARK INTER + INTRA:          -4.358
REMARK INTER:                  -4.511
REMARK INTRA:                   0.154
REMARK UNBOUND:                 0.187
REMARK SMILES CC1=CCC(=C(C)C)C(=O)CC(C)=CCC1
REMARK SMILES IDX 12 1 14 2 13 3 15 4 16 5 2 6 1 7 3 8 11 10 9 11 10 12 5 13
REMARK SMILES IDX 6 14 7 15 8 16 4 17
REMARK H PARENT
REMARK Flexibility Score: 60.00
ROOT
ATOM      1  C   UNL     1      18.852  53.765  33.929  1.00  0.00    -0.070 C 
ATOM      2  C   UNL     1      18.380  52.533  34.252  1.00  0.00    -0.027 C 
ATOM      3  C   UNL     1      19.884  53.844  32.829  1.00  0.00     0.039 C 
ENDROOT
BRANCH   2   4
ATOM      4  C   UNL     1      17.428  52.211  35.378  1.00  0.00     0.032 C 
BRANCH   4   5
ATOM      5  C   UNL     1      15.956  52.459  35.019  1.00  0.00     0.034 C 
BRANCH   5   6
ATOM      6  C   UNL     1      15.296  53.315  36.082  1.00  0.00    -0.077 C 
ATOM      7  C   UNL     1      15.205  52.772  37.485  1.00  0.00     0.039 C 
ATOM      8  C   UNL     1      14.850  54.574  35.854  1.00  0.00    -0.023 CG0
ATOM      9  G   UNL     1      14.842  55.278  34.519  1.00  0.00     0.000 G0
ENDBRANCH   5   6
ENDBRANCH   4   5
ENDBRANCH   2   4
BRANCH   1  10
ATOM     10  C   UNL     1      18.353  55.069  34.544  1.00  0.00     0.111 C 
BRANCH  10  11
ATOM     11  C   UNL     1      17.280  55.757  33.738  1.00  0.00     0.163 C 
ATOM     12  O   UNL     1      17.463  55.864  32.495  1.00  0.00    -0.294 OA
BRANCH  11  13
ATOM     13  C   UNL     1      16.002  56.257  34.347  1.00  0.00    -0.002 C 
ATOM     14  C   UNL     1      15.898  57.548  34.793  1.00  0.00    -0.069 C 
ATOM     15  C   UNL     1      14.656  58.048  35.498  1.00  0.00     0.039 C 
ATOM     16  C   UNL     1      16.997  58.562  34.560  1.00  0.00     0.039 C 
BRANCH  13  17
ATOM     17  C   UNL     1      14.838  55.281  34.515  1.00  0.00     0.066 CG0
ATOM     18  G   UNL     1      14.871  54.576  35.849  1.00  0.00     0.000 G0
ENDBRANCH  13  17
ENDBRANCH  11  13
ENDBRANCH  10  11
ENDBRANCH   1  10
TORSDOF 0
ENDMDL
MODEL 5
REMARK VINA RESULT:    -3.192     12.542     14.687
REMARK INTER + INTRA:          -4.312
REMARK INTER:                  -4.855
REMARK INTRA:                   0.543
REMARK UNBOUND:                 0.187
REMARK SMILES CC1=CCC(=C(C)C)C(=O)CC(C)=CCC1
REMARK SMILES IDX 12 1 14 2 13 3 15 4 16 5 2 6 1 7 3 8 11 10 9 11 10 12 5 13
REMARK SMILES IDX 6 14 7 15 8 16 4 17
REMARK H PARENT
REMARK Flexibility Score: 60.00
ROOT
ATOM      1  C   UNL     1      16.201  52.528  35.503  1.00  0.00    -0.070 C 
ATOM      2  C   UNL     1      17.505  52.152  35.527  1.00  0.00    -0.027 C 
ATOM      3  C   UNL     1      15.300  51.966  36.576  1.00  0.00     0.039 C 
ENDROOT
BRANCH   2   4
ATOM      4  C   UNL     1      18.555  52.508  34.501  1.00  0.00     0.032 C 
BRANCH   4   5
ATOM      5  C   UNL     1      19.520  53.603  34.975  1.00  0.00     0.034 C 
BRANCH   5   6
ATOM      6  C   UNL     1      19.456  54.796  34.041  1.00  0.00    -0.077 C 
ATOM      7  C   UNL     1      20.353  54.804  32.828  1.00  0.00     0.039 C 
ATOM      8  C   UNL     1      18.583  55.820  34.196  1.00  0.00    -0.023 CG0
ATOM      9  G   UNL     1      17.624  55.992  35.349  1.00  0.00     0.000 G0
ENDBRANCH   5   6
ENDBRANCH   4   5
ENDBRANCH   2   4
BRANCH   1  10
ATOM     10  C   UNL     1      15.610  53.532  34.518  1.00  0.00     0.111 C 
BRANCH  10  11
ATOM     11  C   UNL     1      15.291  54.874  35.128  1.00  0.00     0.163 C 
ATOM     12  O   UNL     1      14.269  54.952  35.864  1.00  0.00    -0.294 OA
BRANCH  11  13
ATOM     13  C   UNL     1      16.165  56.079  34.939  1.00  0.00    -0.002 C 
ATOM     14  C   UNL     1      15.675  57.211  34.343  1.00  0.00    -0.069 C 
ATOM     15  C   UNL     1      16.560  58.404  34.052  1.00  0.00     0.039 C 
ATOM     16  C   UNL     1      14.211  57.355  33.987  1.00  0.00     0.039 C 
BRANCH  13  17
ATOM     17  C   UNL     1      17.628  56.001  35.371  1.00  0.00     0.066 CG0
ATOM     18  G   UNL     1      18.561  55.822  34.198  1.00  0.00     0.000 G0
ENDBRANCH  13  17
ENDBRANCH  11  13
ENDBRANCH  10  11
ENDBRANCH   1  10
TORSDOF 0
ENDMDL
MODEL 6
REMARK VINA RESULT:    -3.037      2.207      3.524
REMARK INTER + INTRA:          -4.092
REMARK INTER:                  -4.316
REMARK INTRA:                   0.224
REMARK UNBOUND:                 0.187
REMARK SMILES CC1=CCC(=C(C)C)C(=O)CC(C)=CCC1
REMARK SMILES IDX 12 1 14 2 13 3 15 4 16 5 2 6 1 7 3 8 11 10 9 11 10 12 5 13
REMARK SMILES IDX 6 14 7 15 8 16 4 17
REMARK H PARENT
REMARK Flexibility Score: 60.00
ROOT
ATOM      1  C   UNL     1      12.787  59.638  22.667  1.00  0.00    -0.070 C 
ATOM      2  C   UNL     1      12.131  59.942  23.817  1.00  0.00    -0.027 C 
ATOM      3  C   UNL     1      13.674  58.415  22.681  1.00  0.00     0.039 C 
ENDROOT
BRANCH   2   4
ATOM      4  C   UNL     1      11.278  61.165  24.059  1.00  0.00     0.032 C 
BRANCH   4   5
ATOM      5  C   UNL     1      11.923  62.174  25.020  1.00  0.00     0.034 C 
BRANCH   5   6
ATOM      6  C   UNL     1      12.365  63.409  24.261  1.00  0.00    -0.077 C 
ATOM      7  C   UNL     1      11.465  64.619  24.276  1.00  0.00     0.039 C 
ATOM      8  C   UNL     1      13.560  63.510  23.632  1.00  0.00    -0.023 CG0
ATOM      9  G   UNL     1      14.581  62.406  23.498  1.00  0.00     0.000 G0
ENDBRANCH   5   6
ENDBRANCH   4   5
ENDBRANCH   2   4
BRANCH   1  10
ATOM     10  C   UNL     1      12.626  60.397  21.354  1.00  0.00     0.111 C 
BRANCH  10  11
ATOM     11  C   UNL     1      13.438  61.666  21.276  1.00  0.00     0.163 C 
ATOM     12  O   UNL     1      12.997  62.597  20.548  1.00  0.00    -0.294 OA
BRANCH  11  13
ATOM     13  C   UNL     1      14.697  61.873  22.067  1.00  0.00    -0.002 C 
ATOM     14  C   UNL     1      15.916  61.530  21.543  1.00  0.00    -0.069 C 
ATOM     15  C   UNL     1      17.189  61.638  22.355  1.00  0.00     0.039 C 
ATOM     16  C   UNL     1      16.066  61.075  20.108  1.00  0.00     0.039 C 
BRANCH  13  17
ATOM     17  C   UNL     1      14.590  62.419  23.490  1.00  0.00     0.066 CG0
ATOM     18  G   UNL     1      13.548  63.505  23.608  1.00  0.00     0.000 G0
ENDBRANCH  13  17
ENDBRANCH  11  13
ENDBRANCH  10  11
ENDBRANCH   1  10
TORSDOF 0
ENDMDL
MODEL 7
REMARK VINA RESULT:    -3.018      2.238      2.740
REMARK INTER + INTRA:          -4.066
REMARK INTER:                  -4.298
REMARK INTRA:                   0.232
REMARK UNBOUND:                 0.187
REMARK SMILES CC1=CCC(=C(C)C)C(=O)CC(C)=CCC1
REMARK SMILES IDX 12 1 14 2 13 3 15 4 16 5 2 6 1 7 3 8 11 10 9 11 10 12 5 13
REMARK SMILES IDX 6 14 7 15 8 16 4 17
REMARK H PARENT
REMARK Flexibility Score: 60.00
ROOT
ATOM      1  C   UNL     1      15.576  61.926  20.740  1.00  0.00    -0.070 C 
ATOM      2  C   UNL     1      14.337  61.539  20.340  1.00  0.00    -0.027 C 
ATOM      3  C   UNL     1      16.749  61.437  19.924  1.00  0.00     0.039 C 
ENDROOT
BRANCH   2   4
ATOM      4  C   UNL     1      13.040  61.823  21.059  1.00  0.00     0.032 C 
BRANCH   4   5
ATOM      5  C   UNL     1      12.518  60.626  21.866  1.00  0.00     0.034 C 
BRANCH   5   6
ATOM      6  C   UNL     1      12.689  60.881  23.350  1.00  0.00    -0.077 C 
ATOM      7  C   UNL     1      11.569  61.563  24.093  1.00  0.00     0.039 C 
ATOM      8  C   UNL     1      13.764  60.461  24.060  1.00  0.00    -0.023 CG0
ATOM      9  G   UNL     1      14.984  59.777  23.491  1.00  0.00     0.000 G0
ENDBRANCH   5   6
ENDBRANCH   4   5
ENDBRANCH   2   4
BRANCH   1  10
ATOM     10  C   UNL     1      15.851  62.877  21.900  1.00  0.00     0.111 C 
BRANCH  10  11
ATOM     11  C   UNL     1      15.939  62.196  23.243  1.00  0.00     0.163 C 
ATOM     12  O   UNL     1      15.738  62.901  24.269  1.00  0.00    -0.294 OA
BRANCH  11  13
ATOM     13  C   UNL     1      16.193  60.724  23.391  1.00  0.00    -0.002 C 
ATOM     14  C   UNL     1      17.472  60.232  23.390  1.00  0.00    -0.069 C 
ATOM     15  C   UNL     1      17.752  58.745  23.440  1.00  0.00     0.039 C 
ATOM     16  C   UNL     1      18.677  61.146  23.390  1.00  0.00     0.039 C 
BRANCH  13  17
ATOM     17  C   UNL     1      14.997  59.777  23.486  1.00  0.00     0.066 CG0
ATOM     18  G   UNL     1      13.772  60.459  24.045  1.00  0.00     0.000 G0
ENDBRANCH  13  17
ENDBRANCH  11  13
ENDBRANCH  10  11
ENDBRANCH   1  10
TORSDOF 0
ENDMDL
MODEL 8
REMARK VINA RESULT:    -3.006      1.665      3.137
REMARK INTER + INTRA:          -4.049
REMARK INTER:                  -4.300
REMARK INTRA:                   0.251
REMARK UNBOUND:                 0.187
REMARK SMILES CC1=CCC(=C(C)C)C(=O)CC(C)=CCC1
REMARK SMILES IDX 12 1 14 2 13 3 15 4 16 5 2 6 1 7 3 8 11 10 9 11 10 12 5 13
REMARK SMILES IDX 6 14 7 15 8 16 4 17
REMARK H PARENT
REMARK Flexibility Score: 60.00
ROOT
ATOM      1  C   UNL     1      13.278  62.829  22.197  1.00  0.00    -0.070 C 
ATOM      2  C   UNL     1      12.681  63.575  23.161  1.00  0.00    -0.027 C 
ATOM      3  C   UNL     1      12.776  62.997  20.783  1.00  0.00     0.039 C 
ENDROOT
BRANCH   2   4
ATOM      4  C   UNL     1      12.950  63.496  24.645  1.00  0.00     0.032 C 
BRANCH   4   5
ATOM      5  C   UNL     1      14.123  64.378  25.097  1.00  0.00     0.034 C 
BRANCH   5   6
ATOM      6  C   UNL     1      15.125  63.554  25.881  1.00  0.00    -0.077 C 
ATOM      7  C   UNL     1      14.712  63.015  27.227  1.00  0.00     0.039 C 
ATOM      8  C   UNL     1      16.346  63.212  25.404  1.00  0.00    -0.023 CG0
ATOM      9  G   UNL     1      16.937  63.667  24.091  1.00  0.00     0.000 G0
ENDBRANCH   5   6
ENDBRANCH   4   5
ENDBRANCH   2   4
BRANCH   1  10
ATOM     10  C   UNL     1      14.463  61.899  22.435  1.00  0.00     0.111 C 
BRANCH  10  11
ATOM     11  C   UNL     1      15.797  62.499  22.066  1.00  0.00     0.163 C 
ATOM     12  O   UNL     1      15.915  62.995  20.912  1.00  0.00    -0.294 OA
BRANCH  11  13
ATOM     13  C   UNL     1      16.947  62.576  23.028  1.00  0.00    -0.002 C 
ATOM     14  C   UNL     1      17.950  61.644  22.996  1.00  0.00    -0.069 C 
ATOM     15  C   UNL     1      19.067  61.642  24.016  1.00  0.00     0.039 C 
ATOM     16  C   UNL     1      18.026  60.594  21.908  1.00  0.00     0.039 C 
BRANCH  13  17
ATOM     17  C   UNL     1      16.948  63.681  24.084  1.00  0.00     0.066 CG0
ATOM     18  G   UNL     1      16.356  63.219  25.394  1.00  0.00     0.000 G0
ENDBRANCH  13  17
ENDBRANCH  11  13
ENDBRANCH  10  11
ENDBRANCH   1  10
TORSDOF 0
ENDMDL
MODEL 9
REMARK VINA RESULT:    -2.938     13.126     14.983
REMARK INTER + INTRA:          -3.954
REMARK INTER:                  -4.279
REMARK INTRA:                   0.325
REMARK UNBOUND:                 0.187
REMARK SMILES CC1=CCC(=C(C)C)C(=O)CC(C)=CCC1
REMARK SMILES IDX 12 1 14 2 13 3 15 4 16 5 2 6 1 7 3 8 11 10 9 11 10 12 5 13
REMARK SMILES IDX 6 14 7 15 8 16 4 17
REMARK H PARENT
REMARK Flexibility Score: 60.00
ROOT
ATOM      1  C   UNL     1      16.714  53.181  36.006  1.00  0.00    -0.070 C 
ATOM      2  C   UNL     1      17.980  52.696  35.931  1.00  0.00    -0.027 C 
ATOM      3  C   UNL     1      15.692  52.338  36.730  1.00  0.00     0.039 C 
ENDROOT
BRANCH   2   4
ATOM      4  C   UNL     1      19.129  53.317  35.174  1.00  0.00     0.032 C 
BRANCH   4   5
ATOM      5  C   UNL     1      19.377  52.668  33.805  1.00  0.00     0.034 C 
BRANCH   5   6
ATOM      6  C   UNL     1      18.949  53.608  32.695  1.00  0.00    -0.077 C 
ATOM      7  C   UNL     1      19.944  54.622  32.192  1.00  0.00     0.039 C 
ATOM      8  C   UNL     1      17.744  53.536  32.080  1.00  0.00    -0.023 CG0
ATOM      9  G   UNL     1      16.619  52.601  32.453  1.00  0.00     0.000 G0
ENDBRANCH   5   6
ENDBRANCH   4   5
ENDBRANCH   2   4
BRANCH   1  10
ATOM     10  C   UNL     1      16.280  54.546  35.480  1.00  0.00     0.111 C 
BRANCH  10  11
ATOM     11  C   UNL     1      15.890  54.546  34.023  1.00  0.00     0.163 C 
ATOM     12  O   UNL     1      15.921  55.649  33.411  1.00  0.00    -0.294 OA
BRANCH  11  13
ATOM     13  C   UNL     1      15.532  53.293  33.279  1.00  0.00    -0.002 C 
ATOM     14  C   UNL     1      14.274  52.758  33.375  1.00  0.00    -0.069 C 
ATOM     15  C   UNL     1      13.915  51.445  32.715  1.00  0.00     0.039 C 
ATOM     16  C   UNL     1      13.158  53.475  34.103  1.00  0.00     0.039 C 
BRANCH  13  17
ATOM     17  C   UNL     1      16.612  52.591  32.458  1.00  0.00     0.066 CG0
ATOM     18  G   UNL     1      17.733  53.525  32.072  1.00  0.00     0.000 G0
ENDBRANCH  13  17
ENDBRANCH  11  13
ENDBRANCH  10  11
ENDBRANCH   1  10
TORSDOF 0
ENDMDL
