MODEL 1
REMARK VINA RESULT:    -3.544      0.000      0.000
REMARK INTER + INTRA:          -4.719
REMARK INTER:                  -4.994
REMARK INTRA:                   0.276
REMARK UNBOUND:                 0.276
REMARK SMILES CC1=CCC(=C(C)C)C(=O)CC(C)=CCC1
REMARK SMILES IDX 12 1 14 2 13 3 15 4 16 5 2 6 1 7 3 8 11 10 9 11 10 12 5 13
REMARK SMILES IDX 6 14 7 15 8 16 4 17
REMARK H PARENT
REMARK Flexibility Score: 60.00
ROOT
ATOM      1  C   UNL     1     -14.140  26.868  14.778  1.00  0.00    -0.070 C 
ATOM      2  C   UNL     1     -14.366  25.537  14.847  1.00  0.00    -0.027 C 
ATOM      3  C   UNL     1     -14.436  27.567  13.475  1.00  0.00     0.039 C 
ENDROOT
BRANCH   2   4
ATOM      4  C   UNL     1     -14.224  24.680  16.086  1.00  0.00     0.032 C 
BRANCH   4   5
ATOM      5  C   UNL     1     -15.525  24.484  16.892  1.00  0.00     0.034 C 
BRANCH   5   6
ATOM      6  C   UNL     1     -15.312  24.545  18.394  1.00  0.00    -0.077 C 
ATOM      7  C   UNL     1     -14.746  23.324  19.072  1.00  0.00     0.039 C 
ATOM      8  C   UNL     1     -15.532  25.647  19.153  1.00  0.00    -0.023 CG0
ATOM      9  G   UNL     1     -16.111  26.972  18.695  1.00  0.00     0.000 G0
ENDBRANCH   5   6
ENDBRANCH   4   5
ENDBRANCH   2   4
BRANCH   1  10
ATOM     10  C   UNL     1     -13.698  27.698  15.965  1.00  0.00     0.111 C 
BRANCH  10  11
ATOM     11  C   UNL     1     -14.874  28.194  16.766  1.00  0.00     0.163 C 
ATOM     12  O   UNL     1     -15.797  28.796  16.153  1.00  0.00    -0.294 OA
BRANCH  11  13
ATOM     13  C   UNL     1     -15.008  27.944  18.231  1.00  0.00    -0.002 C 
ATOM     14  C   UNL     1     -14.237  28.629  19.130  1.00  0.00    -0.069 C 
ATOM     15  C   UNL     1     -13.120  29.541  18.672  1.00  0.00     0.039 C 
ATOM     16  C   UNL     1     -14.457  28.516  20.623  1.00  0.00     0.039 C 
BRANCH  13  17
ATOM     17  C   UNL     1     -16.093  26.977  18.676  1.00  0.00     0.066 CG0
ATOM     18  G   UNL     1     -15.525  25.659  19.164  1.00  0.00     0.000 G0
ENDBRANCH  13  17
ENDBRANCH  11  13
ENDBRANCH  10  11
ENDBRANCH   1  10
TORSDOF 0
ENDMDL
MODEL 2
REMARK VINA RESULT:    -3.494      1.416      3.930
REMARK INTER + INTRA:          -4.648
REMARK INTER:                  -5.157
REMARK INTRA:                   0.509
REMARK UNBOUND:                 0.276
REMARK SMILES CC1=CCC(=C(C)C)C(=O)CC(C)=CCC1
REMARK SMILES IDX 12 1 14 2 13 3 15 4 16 5 2 6 1 7 3 8 11 10 9 11 10 12 5 13
REMARK SMILES IDX 6 14 7 15 8 16 4 17
REMARK H PARENT
REMARK Flexibility Score: 60.00
ROOT
ATOM      1  C   UNL     1     -13.952  28.676  16.050  1.00  0.00    -0.070 C 
ATOM      2  C   UNL     1     -13.757  29.477  17.121  1.00  0.00    -0.027 C 
ATOM      3  C   UNL     1     -14.116  29.330  14.701  1.00  0.00     0.039 C 
ENDROOT
BRANCH   2   4
ATOM      4  C   UNL     1     -13.477  29.011  18.533  1.00  0.00     0.032 C 
BRANCH   4   5
ATOM      5  C   UNL     1     -14.489  29.500  19.590  1.00  0.00     0.034 C 
BRANCH   5   6
ATOM      6  C   UNL     1     -15.914  29.063  19.299  1.00  0.00    -0.077 C 
ATOM      7  C   UNL     1     -16.964  30.138  19.169  1.00  0.00     0.039 C 
ATOM      8  C   UNL     1     -16.291  27.779  19.079  1.00  0.00    -0.023 CG0
ATOM      9  G   UNL     1     -15.420  26.542  19.174  1.00  0.00     0.000 G0
ENDBRANCH   5   6
ENDBRANCH   4   5
ENDBRANCH   2   4
BRANCH   1  10
ATOM     10  C   UNL     1     -13.921  27.164  16.126  1.00  0.00     0.111 C 
BRANCH  10  11
ATOM     11  C   UNL     1     -15.230  26.604  16.617  1.00  0.00     0.163 C 
ATOM     12  O   UNL     1     -16.258  26.795  15.911  1.00  0.00    -0.294 OA
BRANCH  11  13
ATOM     13  C   UNL     1     -15.337  25.790  17.864  1.00  0.00    -0.002 C 
ATOM     14  C   UNL     1     -15.268  24.425  17.815  1.00  0.00    -0.069 C 
ATOM     15  C   UNL     1     -15.241  23.687  16.494  1.00  0.00     0.039 C 
ATOM     16  C   UNL     1     -15.214  23.581  19.070  1.00  0.00     0.039 C 
BRANCH  13  17
ATOM     17  C   UNL     1     -15.427  26.544  19.181  1.00  0.00     0.066 CG0
ATOM     18  G   UNL     1     -16.304  27.776  19.080  1.00  0.00     0.000 G0
ENDBRANCH  13  17
ENDBRANCH  11  13
ENDBRANCH  10  11
ENDBRANCH   1  10
TORSDOF 0
ENDMDL
MODEL 3
REMARK VINA RESULT:    -3.391      1.689      3.994
REMARK INTER + INTRA:          -4.503
REMARK INTER:                  -4.961
REMARK INTRA:                   0.458
REMARK UNBOUND:                 0.276
REMARK SMILES CC1=CCC(=C(C)C)C(=O)CC(C)=CCC1
REMARK SMILES IDX 12 1 14 2 13 3 15 4 16 5 2 6 1 7 3 8 11 10 9 11 10 12 5 13
REMARK SMILES IDX 6 14 7 15 8 16 4 17
REMARK H PARENT
REMARK Flexibility Score: 60.00
ROOT
ATOM      1  C   UNL     1     -14.737  27.321  19.474  1.00  0.00    -0.070 C 
ATOM      2  C   UNL     1     -14.877  26.046  19.900  1.00  0.00    -0.027 C 
ATOM      3  C   UNL     1     -13.878  28.249  20.296  1.00  0.00     0.039 C 
ENDROOT
BRANCH   2   4
ATOM      4  C   UNL     1     -15.613  24.946  19.166  1.00  0.00     0.032 C 
BRANCH   4   5
ATOM      5  C   UNL     1     -14.738  24.098  18.222  1.00  0.00     0.034 C 
BRANCH   5   6
ATOM      6  C   UNL     1     -15.153  24.204  16.766  1.00  0.00    -0.077 C 
ATOM      7  C   UNL     1     -16.272  23.311  16.289  1.00  0.00     0.039 C 
ATOM      8  C   UNL     1     -14.635  25.094  15.884  1.00  0.00    -0.023 CG0
ATOM      9  G   UNL     1     -13.500  26.069  16.131  1.00  0.00     0.000 G0
ENDBRANCH   5   6
ENDBRANCH   4   5
ENDBRANCH   2   4
BRANCH   1  10
ATOM     10  C   UNL     1     -15.318  27.832  18.172  1.00  0.00     0.111 C 
BRANCH  10  11
ATOM     11  C   UNL     1     -14.240  28.275  17.217  1.00  0.00     0.163 C 
ATOM     12  O   UNL     1     -13.561  29.293  17.521  1.00  0.00    -0.294 OA
BRANCH  11  13
ATOM     13  C   UNL     1     -13.915  27.522  15.970  1.00  0.00    -0.002 C 
ATOM     14  C   UNL     1     -13.920  28.148  14.754  1.00  0.00    -0.069 C 
ATOM     15  C   UNL     1     -14.404  29.574  14.608  1.00  0.00     0.039 C 
ATOM     16  C   UNL     1     -13.444  27.456  13.496  1.00  0.00     0.039 C 
BRANCH  13  17
ATOM     17  C   UNL     1     -13.490  26.070  16.125  1.00  0.00     0.066 CG0
ATOM     18  G   UNL     1     -14.636  25.107  15.886  1.00  0.00     0.000 G0
ENDBRANCH  13  17
ENDBRANCH  11  13
ENDBRANCH  10  11
ENDBRANCH   1  10
TORSDOF 0
ENDMDL
MODEL 4
REMARK VINA RESULT:    -3.360      3.272      5.396
REMARK INTER + INTRA:          -4.459
REMARK INTER:                  -4.576
REMARK INTRA:                   0.117
REMARK UNBOUND:                 0.276
REMARK SMILES CC1=CCC(=C(C)C)C(=O)CC(C)=CCC1
REMARK SMILES IDX 12 1 14 2 13 3 15 4 16 5 2 6 1 7 3 8 11 10 9 11 10 12 5 13
REMARK SMILES IDX 6 14 7 15 8 16 4 17
REMARK H PARENT
REMARK Flexibility Score: 60.00
ROOT
ATOM      1  C   UNL     1     -13.850  28.270  16.586  1.00  0.00    -0.070 C 
ATOM      2  C   UNL     1     -13.631  28.432  17.910  1.00  0.00    -0.027 C 
ATOM      3  C   UNL     1     -13.828  26.866  16.035  1.00  0.00     0.039 C 
ENDROOT
BRANCH   2   4
ATOM      4  C   UNL     1     -13.708  29.742  18.664  1.00  0.00     0.032 C 
BRANCH   4   5
ATOM      5  C   UNL     1     -15.110  30.101  19.198  1.00  0.00     0.034 C 
BRANCH   5   6
ATOM      6  C   UNL     1     -15.529  31.522  18.866  1.00  0.00    -0.077 C 
ATOM      7  C   UNL     1     -14.911  32.641  19.666  1.00  0.00     0.039 C 
ATOM      8  C   UNL     1     -16.369  31.855  17.854  1.00  0.00    -0.023 CG0
ATOM      9  G   UNL     1     -17.117  30.907  16.938  1.00  0.00     0.000 G0
ENDBRANCH   5   6
ENDBRANCH   4   5
ENDBRANCH   2   4
BRANCH   1  10
ATOM     10  C   UNL     1     -14.206  29.411  15.656  1.00  0.00     0.111 C 
BRANCH  10  11
ATOM     11  C   UNL     1     -15.688  29.471  15.392  1.00  0.00     0.163 C 
ATOM     12  O   UNL     1     -16.271  28.409  15.042  1.00  0.00    -0.294 OA
BRANCH  11  13
ATOM     13  C   UNL     1     -16.487  30.716  15.587  1.00  0.00    -0.002 C 
ATOM     14  C   UNL     1     -16.684  31.590  14.554  1.00  0.00    -0.069 C 
ATOM     15  C   UNL     1     -15.974  31.411  13.229  1.00  0.00     0.039 C 
ATOM     16  C   UNL     1     -17.616  32.776  14.674  1.00  0.00     0.039 C 
BRANCH  13  17
ATOM     17  C   UNL     1     -17.144  30.915  16.944  1.00  0.00     0.066 CG0
ATOM     18  G   UNL     1     -16.355  31.856  17.833  1.00  0.00     0.000 G0
ENDBRANCH  13  17
ENDBRANCH  11  13
ENDBRANCH  10  11
ENDBRANCH   1  10
TORSDOF 0
ENDMDL
MODEL 5
REMARK VINA RESULT:    -3.336      2.040      4.037
REMARK INTER + INTRA:          -4.425
REMARK INTER:                  -4.575
REMARK INTRA:                   0.150
REMARK UNBOUND:                 0.276
REMARK SMILES CC1=CCC(=C(C)C)C(=O)CC(C)=CCC1
REMARK SMILES IDX 12 1 14 2 13 3 15 4 16 5 2 6 1 7 3 8 11 10 9 11 10 12 5 13
REMARK SMILES IDX 6 14 7 15 8 16 4 17
REMARK H PARENT
REMARK Flexibility Score: 60.00
ROOT
ATOM      1  C   UNL     1     -15.262  24.880  17.833  1.00  0.00    -0.070 C 
ATOM      2  C   UNL     1     -14.507  24.561  16.758  1.00  0.00    -0.027 C 
ATOM      3  C   UNL     1     -15.213  23.958  19.026  1.00  0.00     0.039 C 
ENDROOT
BRANCH   2   4
ATOM      4  C   UNL     1     -14.346  25.404  15.511  1.00  0.00     0.032 C 
BRANCH   4   5
ATOM      5  C   UNL     1     -13.356  26.579  15.646  1.00  0.00     0.034 C 
BRANCH   5   6
ATOM      6  C   UNL     1     -13.903  27.886  15.102  1.00  0.00    -0.077 C 
ATOM      7  C   UNL     1     -14.150  27.980  13.617  1.00  0.00     0.039 C 
ATOM      8  C   UNL     1     -14.249  28.949  15.870  1.00  0.00    -0.023 CG0
ATOM      9  G   UNL     1     -14.075  29.088  17.369  1.00  0.00     0.000 G0
ENDBRANCH   5   6
ENDBRANCH   4   5
ENDBRANCH   2   4
BRANCH   1  10
ATOM     10  C   UNL     1     -16.073  26.155  17.932  1.00  0.00     0.111 C 
BRANCH  10  11
ATOM     11  C   UNL     1     -15.311  27.245  18.638  1.00  0.00     0.163 C 
ATOM     12  O   UNL     1     -14.625  26.930  19.649  1.00  0.00    -0.294 OA
BRANCH  11  13
ATOM     13  C   UNL     1     -15.293  28.656  18.151  1.00  0.00    -0.002 C 
ATOM     14  C   UNL     1     -16.300  29.522  18.480  1.00  0.00    -0.069 C 
ATOM     15  C   UNL     1     -17.537  29.046  19.210  1.00  0.00     0.039 C 
ATOM     16  C   UNL     1     -16.233  30.994  18.137  1.00  0.00     0.039 C 
BRANCH  13  17
ATOM     17  C   UNL     1     -14.072  29.105  17.365  1.00  0.00     0.066 CG0
ATOM     18  G   UNL     1     -14.256  28.936  15.870  1.00  0.00     0.000 G0
ENDBRANCH  13  17
ENDBRANCH  11  13
ENDBRANCH  10  11
ENDBRANCH   1  10
TORSDOF 0
ENDMDL
MODEL 6
REMARK VINA RESULT:    -3.318      1.514      3.946
REMARK INTER + INTRA:          -4.400
REMARK INTER:                  -5.000
REMARK INTRA:                   0.600
REMARK UNBOUND:                 0.276
REMARK SMILES CC1=CCC(=C(C)C)C(=O)CC(C)=CCC1
REMARK SMILES IDX 12 1 14 2 13 3 15 4 16 5 2 6 1 7 3 8 11 10 9 11 10 12 5 13
REMARK SMILES IDX 6 14 7 15 8 16 4 17
REMARK H PARENT
REMARK Flexibility Score: 60.00
ROOT
ATOM      1  C   UNL     1     -14.689  26.486  16.070  1.00  0.00    -0.070 C 
ATOM      2  C   UNL     1     -13.771  27.477  16.114  1.00  0.00    -0.027 C 
ATOM      3  C   UNL     1     -14.197  25.079  15.836  1.00  0.00     0.039 C 
ENDROOT
BRANCH   2   4
ATOM      4  C   UNL     1     -14.054  28.929  16.431  1.00  0.00     0.032 C 
BRANCH   4   5
ATOM      5  C   UNL     1     -13.430  29.439  17.747  1.00  0.00     0.034 C 
BRANCH   5   6
ATOM      6  C   UNL     1     -14.442  29.595  18.867  1.00  0.00    -0.077 C 
ATOM      7  C   UNL     1     -14.978  30.978  19.141  1.00  0.00     0.039 C 
ATOM      8  C   UNL     1     -14.948  28.565  19.591  1.00  0.00    -0.023 CG0
ATOM      9  G   UNL     1     -14.548  27.105  19.504  1.00  0.00     0.000 G0
ENDBRANCH   5   6
ENDBRANCH   4   5
ENDBRANCH   2   4
BRANCH   1  10
ATOM     10  C   UNL     1     -16.164  26.706  16.335  1.00  0.00     0.111 C 
BRANCH  10  11
ATOM     11  C   UNL     1     -16.445  26.879  17.805  1.00  0.00     0.163 C 
ATOM     12  O   UNL     1     -17.457  27.552  18.140  1.00  0.00    -0.294 OA
BRANCH  11  13
ATOM     13  C   UNL     1     -15.609  26.236  18.862  1.00  0.00    -0.002 C 
ATOM     14  C   UNL     1     -15.749  24.906  19.150  1.00  0.00    -0.069 C 
ATOM     15  C   UNL     1     -16.853  24.080  18.529  1.00  0.00     0.039 C 
ATOM     16  C   UNL     1     -14.813  24.191  20.100  1.00  0.00     0.039 C 
BRANCH  13  17
ATOM     17  C   UNL     1     -14.543  27.094  19.524  1.00  0.00     0.066 CG0
ATOM     18  G   UNL     1     -14.949  28.552  19.608  1.00  0.00     0.000 G0
ENDBRANCH  13  17
ENDBRANCH  11  13
ENDBRANCH  10  11
ENDBRANCH   1  10
TORSDOF 0
ENDMDL
MODEL 7
REMARK VINA RESULT:    -3.303      2.612      4.360
REMARK INTER + INTRA:          -4.378
REMARK INTER:                  -4.726
REMARK INTRA:                   0.347
REMARK UNBOUND:                 0.276
REMARK SMILES CC1=CCC(=C(C)C)C(=O)CC(C)=CCC1
REMARK SMILES IDX 12 1 14 2 13 3 15 4 16 5 2 6 1 7 3 8 11 10 9 11 10 12 5 13
REMARK SMILES IDX 6 14 7 15 8 16 4 17
REMARK H PARENT
REMARK Flexibility Score: 60.00
ROOT
ATOM      1  C   UNL     1     -14.310  27.654  18.062  1.00  0.00    -0.070 C 
ATOM      2  C   UNL     1     -14.481  27.027  16.877  1.00  0.00    -0.027 C 
ATOM      3  C   UNL     1     -14.986  27.066  19.275  1.00  0.00     0.039 C 
ENDROOT
BRANCH   2   4
ATOM      4  C   UNL     1     -13.811  27.405  15.574  1.00  0.00     0.032 C 
BRANCH   4   5
ATOM      5  C   UNL     1     -14.293  28.735  14.959  1.00  0.00     0.034 C 
BRANCH   5   6
ATOM      6  C   UNL     1     -15.797  28.922  15.045  1.00  0.00    -0.077 C 
ATOM      7  C   UNL     1     -16.666  28.009  14.217  1.00  0.00     0.039 C 
ATOM      8  C   UNL     1     -16.412  29.808  15.867  1.00  0.00    -0.023 CG0
ATOM      9  G   UNL     1     -15.749  30.831  16.768  1.00  0.00     0.000 G0
ENDBRANCH   5   6
ENDBRANCH   4   5
ENDBRANCH   2   4
BRANCH   1  10
ATOM     10  C   UNL     1     -13.404  28.854  18.246  1.00  0.00     0.111 C 
BRANCH  10  11
ATOM     11  C   UNL     1     -14.177  30.074  18.672  1.00  0.00     0.163 C 
ATOM     12  O   UNL     1     -13.597  30.914  19.414  1.00  0.00    -0.294 OA
BRANCH  11  13
ATOM     13  C   UNL     1     -15.567  30.348  18.201  1.00  0.00    -0.002 C 
ATOM     14  C   UNL     1     -16.628  30.243  19.058  1.00  0.00    -0.069 C 
ATOM     15  C   UNL     1     -16.455  29.698  20.459  1.00  0.00     0.039 C 
ATOM     16  C   UNL     1     -18.025  30.665  18.656  1.00  0.00     0.039 C 
BRANCH  13  17
ATOM     17  C   UNL     1     -15.734  30.836  16.771  1.00  0.00     0.066 CG0
ATOM     18  G   UNL     1     -16.407  29.805  15.886  1.00  0.00     0.000 G0
ENDBRANCH  13  17
ENDBRANCH  11  13
ENDBRANCH  10  11
ENDBRANCH   1  10
TORSDOF 0
ENDMDL
MODEL 8
REMARK VINA RESULT:    -3.220      2.431      4.997
REMARK INTER + INTRA:          -4.262
REMARK INTER:                  -4.699
REMARK INTRA:                   0.437
REMARK UNBOUND:                 0.276
REMARK SMILES CC1=CCC(=C(C)C)C(=O)CC(C)=CCC1
REMARK SMILES IDX 12 1 14 2 13 3 15 4 16 5 2 6 1 7 3 8 11 10 9 11 10 12 5 13
REMARK SMILES IDX 6 14 7 15 8 16 4 17
REMARK H PARENT
REMARK Flexibility Score: 60.00
ROOT
ATOM      1  C   UNL     1     -15.601  31.127  19.477  1.00  0.00    -0.070 C 
ATOM      2  C   UNL     1     -14.335  30.686  19.303  1.00  0.00    -0.027 C 
ATOM      3  C   UNL     1     -15.911  32.550  19.085  1.00  0.00     0.039 C 
ENDROOT
BRANCH   2   4
ATOM      4  C   UNL     1     -13.852  29.272  19.544  1.00  0.00     0.032 C 
BRANCH   4   5
ATOM      5  C   UNL     1     -13.277  28.563  18.301  1.00  0.00     0.034 C 
BRANCH   5   6
ATOM      6  C   UNL     1     -14.236  28.549  17.124  1.00  0.00    -0.077 C 
ATOM      7  C   UNL     1     -13.750  29.125  15.818  1.00  0.00     0.039 C 
ATOM      8  C   UNL     1     -15.472  27.991  17.150  1.00  0.00    -0.023 CG0
ATOM      9  G   UNL     1     -16.171  27.376  18.346  1.00  0.00     0.000 G0
ENDBRANCH   5   6
ENDBRANCH   4   5
ENDBRANCH   2   4
BRANCH   1  10
ATOM     10  C   UNL     1     -16.732  30.241  19.954  1.00  0.00     0.111 C 
BRANCH  10  11
ATOM     11  C   UNL     1     -17.442  29.577  18.803  1.00  0.00     0.163 C 
ATOM     12  O   UNL     1     -17.955  30.315  17.918  1.00  0.00    -0.294 OA
BRANCH  11  13
ATOM     13  C   UNL     1     -17.503  28.094  18.647  1.00  0.00    -0.002 C 
ATOM     14  C   UNL     1     -18.700  27.435  18.694  1.00  0.00    -0.069 C 
ATOM     15  C   UNL     1     -19.979  28.156  19.060  1.00  0.00     0.039 C 
ATOM     16  C   UNL     1     -18.814  25.958  18.383  1.00  0.00     0.039 C 
BRANCH  13  17
ATOM     17  C   UNL     1     -16.200  27.372  18.341  1.00  0.00     0.066 CG0
ATOM     18  G   UNL     1     -15.472  27.977  17.158  1.00  0.00     0.000 G0
ENDBRANCH  13  17
ENDBRANCH  11  13
ENDBRANCH  10  11
ENDBRANCH   1  10
TORSDOF 0
ENDMDL
MODEL 9
REMARK VINA RESULT:    -3.162      2.748      4.703
REMARK INTER + INTRA:          -4.181
REMARK INTER:                  -4.375
REMARK INTRA:                   0.194
REMARK UNBOUND:                 0.276
REMARK SMILES CC1=CCC(=C(C)C)C(=O)CC(C)=CCC1
REMARK SMILES IDX 12 1 14 2 13 3 15 4 16 5 2 6 1 7 3 8 11 10 9 11 10 12 5 13
REMARK SMILES IDX 6 14 7 15 8 16 4 17
REMARK H PARENT
REMARK Flexibility Score: 60.00
ROOT
ATOM      1  C   UNL     1     -15.400  30.987  19.510  1.00  0.00    -0.070 C 
ATOM      2  C   UNL     1     -14.319  30.180  19.418  1.00  0.00    -0.027 C 
ATOM      3  C   UNL     1     -15.224  32.444  19.160  1.00  0.00     0.039 C 
ENDROOT
BRANCH   2   4
ATOM      4  C   UNL     1     -14.316  28.682  19.631  1.00  0.00     0.032 C 
BRANCH   4   5
ATOM      5  C   UNL     1     -14.793  27.853  18.421  1.00  0.00     0.034 C 
BRANCH   5   6
ATOM      6  C   UNL     1     -15.727  26.719  18.804  1.00  0.00    -0.077 C 
ATOM      7  C   UNL     1     -15.159  25.591  19.628  1.00  0.00     0.039 C 
ATOM      8  C   UNL     1     -17.051  26.688  18.515  1.00  0.00    -0.023 CG0
ATOM      9  G   UNL     1     -17.831  27.693  17.691  1.00  0.00     0.000 G0
ENDBRANCH   5   6
ENDBRANCH   4   5
ENDBRANCH   2   4
BRANCH   1  10
ATOM     10  C   UNL     1     -16.787  30.484  19.853  1.00  0.00     0.111 C 
BRANCH  10  11
ATOM     11  C   UNL     1     -17.556  30.091  18.619  1.00  0.00     0.163 C 
ATOM     12  O   UNL     1     -17.450  30.821  17.596  1.00  0.00    -0.294 OA
BRANCH  11  13
ATOM     13  C   UNL     1     -18.381  28.849  18.551  1.00  0.00    -0.002 C 
ATOM     14  C   UNL     1     -19.603  28.787  19.162  1.00  0.00    -0.069 C 
ATOM     15  C   UNL     1     -20.092  29.906  20.055  1.00  0.00     0.039 C 
ATOM     16  C   UNL     1     -20.530  27.604  18.980  1.00  0.00     0.039 C 
BRANCH  13  17
ATOM     17  C   UNL     1     -17.849  27.706  17.701  1.00  0.00     0.066 CG0
ATOM     18  G   UNL     1     -17.065  26.698  18.517  1.00  0.00     0.000 G0
ENDBRANCH  13  17
ENDBRANCH  11  13
ENDBRANCH  10  11
ENDBRANCH   1  10
TORSDOF 0
ENDMDL
