MODEL 1
REMARK VINA RESULT:     1.016      0.000      0.000
REMARK INTER + INTRA:           1.552
REMARK INTER:                   1.224
REMARK INTRA:                   0.328
REMARK UNBOUND:                 0.328
REMARK SMILES CC[C@H](C)[C@@H]([NH3+])C(=O)[O-]
REMARK SMILES IDX 3 1 4 2 5 3 6 4 7 8 8 9 9 10 2 11 1 12
REMARK H PARENT 6 5 6 6 6 7
REMARK Flexibility Score: inf
ROOT
ATOM      1  C   UNL     1       1.693   0.760  -5.850  1.00  0.00     0.050 C 
ATOM      2  C   UNL     1       2.302   1.550  -4.675  1.00  0.00     0.014 C 
ENDROOT
BRANCH   1   3
ATOM      3  C   UNL     1       2.752   0.520  -6.975  1.00  0.00     0.230 C 
BRANCH   3   4
ATOM      4  N   UNL     1       3.786  -0.443  -6.563  1.00  0.00    -0.350 N 
ATOM      5  H   UNL     1       3.349  -1.318  -6.190  1.00  0.00     0.345 HD
ATOM      6  H   UNL     1       4.405  -0.020  -5.835  1.00  0.00     0.345 HD
ATOM      7  H   UNL     1       4.396  -0.689  -7.377  1.00  0.00     0.345 HD
ENDBRANCH   3   4
BRANCH   3   8
ATOM      8  C   UNL     1       2.094   0.029  -8.239  1.00  0.00     0.099 C 
ATOM      9  O   UNL     1       1.072  -0.706  -8.178  1.00  0.00    -0.544 OA
ATOM     10  O   UNL     1       2.616   0.376  -9.479  1.00  0.00    -0.544 OA
ENDBRANCH   3   8
ENDBRANCH   1   3
BRANCH   1  11
ATOM     11  C   UNL     1       0.439   1.515  -6.385  1.00  0.00     0.006 C 
ATOM     12  C   UNL     1      -0.210   2.411  -5.328  1.00  0.00     0.004 C 
ENDBRANCH   1  11
TORSDOF 4
ENDMDL
MODEL 2
REMARK VINA RESULT:     1.177      2.138      3.448
REMARK INTER + INTRA:           1.746
REMARK INTER:                   1.831
REMARK INTRA:                  -0.085
REMARK UNBOUND:                 0.328
REMARK SMILES CC[C@H](C)[C@@H]([NH3+])C(=O)[O-]
REMARK SMILES IDX 3 1 4 2 5 3 6 4 7 8 8 9 9 10 2 11 1 12
REMARK H PARENT 6 5 6 6 6 7
REMARK Flexibility Score: inf
ROOT
ATOM      1  C   UNL     1       1.793   0.088  -8.217  1.00  0.00     0.050 C 
ATOM      2  C   UNL     1       3.008   0.543  -9.048  1.00  0.00     0.014 C 
ENDROOT
BRANCH   1   3
ATOM      3  C   UNL     1       2.187  -0.140  -6.722  1.00  0.00     0.230 C 
BRANCH   3   4
ATOM      4  N   UNL     1       3.638  -0.321  -6.555  1.00  0.00    -0.350 N 
ATOM      5  H   UNL     1       4.163   0.451  -7.027  1.00  0.00     0.345 HD
ATOM      6  H   UNL     1       3.935  -1.242  -6.947  1.00  0.00     0.345 HD
ATOM      7  H   UNL     1       3.886  -0.327  -5.538  1.00  0.00     0.345 HD
ENDBRANCH   3   4
BRANCH   3   8
ATOM      8  C   UNL     1       1.728   1.010  -5.861  1.00  0.00     0.099 C 
ATOM      9  O   UNL     1       0.606   1.545  -6.064  1.00  0.00    -0.544 OA
ATOM     10  O   UNL     1       2.546   1.492  -4.847  1.00  0.00    -0.544 OA
ENDBRANCH   3   8
ENDBRANCH   1   3
BRANCH   1  11
ATOM     11  C   UNL     1       1.179  -1.193  -8.858  1.00  0.00     0.006 C 
ATOM     12  C   UNL     1      -0.333  -1.085  -9.069  1.00  0.00     0.004 C 
ENDBRANCH   1  11
TORSDOF 4
ENDMDL
MODEL 3
REMARK VINA RESULT:     1.183      2.095      2.389
REMARK INTER + INTRA:           1.753
REMARK INTER:                   1.039
REMARK INTRA:                   0.714
REMARK UNBOUND:                 0.328
REMARK SMILES CC[C@H](C)[C@@H]([NH3+])C(=O)[O-]
REMARK SMILES IDX 3 1 4 2 5 3 6 4 7 8 8 9 9 10 2 11 1 12
REMARK H PARENT 6 5 6 6 6 7
REMARK Flexibility Score: inf
ROOT
ATOM      1  C   UNL     1       1.517   0.824  -5.513  1.00  0.00     0.050 C 
ATOM      2  C   UNL     1       2.454   1.891  -4.916  1.00  0.00     0.014 C 
ENDROOT
BRANCH   1   3
ATOM      3  C   UNL     1       2.295  -0.142  -6.463  1.00  0.00     0.230 C 
BRANCH   3   4
ATOM      4  N   UNL     1       2.058   0.169  -7.882  1.00  0.00    -0.350 N 
ATOM      5  H   UNL     1       2.679  -0.407  -8.496  1.00  0.00     0.345 HD
ATOM      6  H   UNL     1       2.227   1.184  -8.063  1.00  0.00     0.345 HD
ATOM      7  H   UNL     1       1.060  -0.024  -8.133  1.00  0.00     0.345 HD
ENDBRANCH   3   4
BRANCH   3   8
ATOM      8  C   UNL     1       3.776  -0.094  -6.187  1.00  0.00     0.099 C 
ATOM      9  O   UNL     1       4.600  -0.102  -7.140  1.00  0.00    -0.544 OA
ATOM     10  O   UNL     1       4.242  -0.051  -4.879  1.00  0.00    -0.544 OA
ENDBRANCH   3   8
ENDBRANCH   1   3
BRANCH   1  11
ATOM     11  C   UNL     1       0.333   1.528  -6.244  1.00  0.00     0.006 C 
ATOM     12  C   UNL     1      -0.414   2.517  -5.346  1.00  0.00     0.004 C 
ENDBRANCH   1  11
TORSDOF 4
ENDMDL
MODEL 4
REMARK VINA RESULT:     1.203      2.270      3.591
REMARK INTER + INTRA:           1.777
REMARK INTER:                   1.842
REMARK INTRA:                  -0.065
REMARK UNBOUND:                 0.328
REMARK SMILES CC[C@H](C)[C@@H]([NH3+])C(=O)[O-]
REMARK SMILES IDX 3 1 4 2 5 3 6 4 7 8 8 9 9 10 2 11 1 12
REMARK H PARENT 6 5 6 6 6 7
REMARK Flexibility Score: inf
ROOT
ATOM      1  C   UNL     1       1.884   0.367  -7.923  1.00  0.00     0.050 C 
ATOM      2  C   UNL     1       2.983   0.164  -8.983  1.00  0.00     0.014 C 
ENDROOT
BRANCH   1   3
ATOM      3  C   UNL     1       2.395  -0.026  -6.499  1.00  0.00     0.230 C 
BRANCH   3   4
ATOM      4  N   UNL     1       3.837  -0.322  -6.492  1.00  0.00    -0.350 N 
ATOM      5  H   UNL     1       4.392   0.540  -6.705  1.00  0.00     0.345 HD
ATOM      6  H   UNL     1       4.057  -1.065  -7.193  1.00  0.00     0.345 HD
ATOM      7  H   UNL     1       4.127  -0.690  -5.556  1.00  0.00     0.345 HD
ENDBRANCH   3   4
BRANCH   3   8
ATOM      8  C   UNL     1       2.110   1.067  -5.502  1.00  0.00     0.099 C 
ATOM      9  O   UNL     1       2.939   1.327  -4.590  1.00  0.00    -0.544 OA
ATOM     10  O   UNL     1       0.924   1.789  -5.575  1.00  0.00    -0.544 OA
ENDBRANCH   3   8
ENDBRANCH   1   3
BRANCH   1  11
ATOM     11  C   UNL     1       0.618  -0.446  -8.329  1.00  0.00     0.006 C 
ATOM     12  C   UNL     1       0.891  -1.446  -9.455  1.00  0.00     0.004 C 
ENDBRANCH   1  11
TORSDOF 4
ENDMDL
MODEL 5
REMARK VINA RESULT:     1.639      1.790      2.787
REMARK INTER + INTRA:           2.303
REMARK INTER:                   2.329
REMARK INTRA:                  -0.026
REMARK UNBOUND:                 0.328
REMARK SMILES CC[C@H](C)[C@@H]([NH3+])C(=O)[O-]
REMARK SMILES IDX 3 1 4 2 5 3 6 4 7 8 8 9 9 10 2 11 1 12
REMARK H PARENT 6 5 6 6 6 7
REMARK Flexibility Score: inf
ROOT
ATOM      1  C   UNL     1       2.709   0.813  -6.129  1.00  0.00     0.050 C 
ATOM      2  C   UNL     1       2.468   1.617  -4.837  1.00  0.00     0.014 C 
ENDROOT
BRANCH   1   3
ATOM      3  C   UNL     1       1.361   0.309  -6.739  1.00  0.00     0.230 C 
BRANCH   3   4
ATOM      4  N   UNL     1       0.288   1.308  -6.609  1.00  0.00    -0.350 N 
ATOM      5  H   UNL     1      -0.451   1.153  -7.333  1.00  0.00     0.345 HD
ATOM      6  H   UNL     1       0.679   2.272  -6.704  1.00  0.00     0.345 HD
ATOM      7  H   UNL     1      -0.149   1.248  -5.659  1.00  0.00     0.345 HD
ENDBRANCH   3   4
BRANCH   3   8
ATOM      8  C   UNL     1       1.527  -0.052  -8.193  1.00  0.00     0.099 C 
ATOM      9  O   UNL     1       0.745  -0.877  -8.735  1.00  0.00    -0.544 OA
ATOM     10  O   UNL     1       2.552   0.515  -8.941  1.00  0.00    -0.544 OA
ENDBRANCH   3   8
ENDBRANCH   1   3
BRANCH   1  11
ATOM     11  C   UNL     1       3.687  -0.363  -5.830  1.00  0.00     0.006 C 
ATOM     12  C   UNL     1       4.910  -0.366  -6.750  1.00  0.00     0.004 C 
ENDBRANCH   1  11
TORSDOF 4
ENDMDL
MODEL 6
REMARK VINA RESULT:     1.715      3.204      4.321
REMARK INTER + INTRA:           2.395
REMARK INTER:                   2.457
REMARK INTRA:                  -0.062
REMARK UNBOUND:                 0.328
REMARK SMILES CC[C@H](C)[C@@H]([NH3+])C(=O)[O-]
REMARK SMILES IDX 3 1 4 2 5 3 6 4 7 8 8 9 9 10 2 11 1 12
REMARK H PARENT 6 5 6 6 6 7
REMARK Flexibility Score: inf
ROOT
ATOM      1  C   UNL     1      -0.740   3.666  -4.776  1.00  0.00     0.050 C 
ATOM      2  C   UNL     1      -1.501   4.604  -5.733  1.00  0.00     0.014 C 
ENDROOT
BRANCH   1   3
ATOM      3  C   UNL     1      -0.652   2.218  -5.359  1.00  0.00     0.230 C 
BRANCH   3   4
ATOM      4  N   UNL     1      -1.383   2.089  -6.630  1.00  0.00    -0.350 N 
ATOM      5  H   UNL     1      -1.828   1.145  -6.705  1.00  0.00     0.345 HD
ATOM      6  H   UNL     1      -0.737   2.239  -7.436  1.00  0.00     0.345 HD
ATOM      7  H   UNL     1      -2.128   2.821  -6.694  1.00  0.00     0.345 HD
ENDBRANCH   3   4
BRANCH   3   8
ATOM      8  C   UNL     1       0.783   1.808  -5.570  1.00  0.00     0.099 C 
ATOM      9  O   UNL     1       1.092   1.049  -6.527  1.00  0.00    -0.544 OA
ATOM     10  O   UNL     1       1.773   2.256  -4.704  1.00  0.00    -0.544 OA
ENDBRANCH   3   8
ENDBRANCH   1   3
BRANCH   1  11
ATOM     11  C   UNL     1      -1.427   3.688  -3.377  1.00  0.00     0.006 C 
ATOM     12  C   UNL     1      -1.453   5.083  -2.751  1.00  0.00     0.004 C 
ENDBRANCH   1  11
TORSDOF 4
ENDMDL
MODEL 7
REMARK VINA RESULT:     2.059      7.162      8.136
REMARK INTER + INTRA:           2.809
REMARK INTER:                   2.878
REMARK INTRA:                  -0.069
REMARK UNBOUND:                 0.328
REMARK SMILES CC[C@H](C)[C@@H]([NH3+])C(=O)[O-]
REMARK SMILES IDX 3 1 4 2 5 3 6 4 7 8 8 9 9 10 2 11 1 12
REMARK H PARENT 6 5 6 6 6 7
REMARK Flexibility Score: inf
ROOT
ATOM      1  C   UNL     1      -1.588  -4.456 -11.199  1.00  0.00     0.050 C 
ATOM      2  C   UNL     1      -2.467  -5.301 -10.257  1.00  0.00     0.014 C 
ENDROOT
BRANCH   1   3
ATOM      3  C   UNL     1      -0.757  -5.367 -12.161  1.00  0.00     0.230 C 
BRANCH   3   4
ATOM      4  N   UNL     1      -1.268  -6.747 -12.193  1.00  0.00    -0.350 N 
ATOM      5  H   UNL     1      -2.313  -6.755 -12.141  1.00  0.00     0.345 HD
ATOM      6  H   UNL     1      -0.871  -7.298 -11.399  1.00  0.00     0.345 HD
ATOM      7  H   UNL     1      -0.968  -7.223 -13.075  1.00  0.00     0.345 HD
ENDBRANCH   3   4
BRANCH   3   8
ATOM      8  C   UNL     1      -0.751  -4.809 -13.561  1.00  0.00     0.099 C 
ATOM      9  O   UNL     1      -1.751  -4.181 -13.998  1.00  0.00    -0.544 OA
ATOM     10  O   UNL     1       0.356  -4.992 -14.381  1.00  0.00    -0.544 OA
ENDBRANCH   3   8
ENDBRANCH   1   3
BRANCH   1  11
ATOM     11  C   UNL     1      -0.673  -3.521 -10.352  1.00  0.00     0.006 C 
ATOM     12  C   UNL     1      -1.449  -2.391  -9.672  1.00  0.00     0.004 C 
ENDBRANCH   1  11
TORSDOF 4
ENDMDL
MODEL 8
REMARK VINA RESULT:     2.152      5.926      7.028
REMARK INTER + INTRA:           2.920
REMARK INTER:                   2.677
REMARK INTRA:                   0.243
REMARK UNBOUND:                 0.328
REMARK SMILES CC[C@H](C)[C@@H]([NH3+])C(=O)[O-]
REMARK SMILES IDX 3 1 4 2 5 3 6 4 7 8 8 9 9 10 2 11 1 12
REMARK H PARENT 6 5 6 6 6 7
REMARK Flexibility Score: inf
ROOT
ATOM      1  C   UNL     1      -1.107   4.227  -4.259  1.00  0.00     0.050 C 
ATOM      2  C   UNL     1      -1.729   3.784  -2.921  1.00  0.00     0.014 C 
ENDROOT
BRANCH   1   3
ATOM      3  C   UNL     1      -1.860   5.464  -4.848  1.00  0.00     0.230 C 
BRANCH   3   4
ATOM      4  N   UNL     1      -3.320   5.334  -4.720  1.00  0.00    -0.350 N 
ATOM      5  H   UNL     1      -3.769   6.275  -4.634  1.00  0.00     0.345 HD
ATOM      6  H   UNL     1      -3.560   4.751  -3.887  1.00  0.00     0.345 HD
ATOM      7  H   UNL     1      -3.714   4.846  -5.558  1.00  0.00     0.345 HD
ENDBRANCH   3   4
BRANCH   3   8
ATOM      8  C   UNL     1      -1.416   6.737  -4.173  1.00  0.00     0.099 C 
ATOM      9  O   UNL     1      -1.304   6.785  -2.920  1.00  0.00    -0.544 OA
ATOM     10  O   UNL     1      -1.138   7.869  -4.930  1.00  0.00    -0.544 OA
ENDBRANCH   3   8
ENDBRANCH   1   3
BRANCH   1  11
ATOM     11  C   UNL     1      -1.103   3.024  -5.251  1.00  0.00     0.006 C 
ATOM     12  C   UNL     1       0.231   2.275  -5.269  1.00  0.00     0.004 C 
ENDBRANCH   1  11
TORSDOF 4
ENDMDL
MODEL 9
REMARK VINA RESULT:     2.186      1.417      1.932
REMARK INTER + INTRA:           2.961
REMARK INTER:                   2.957
REMARK INTRA:                   0.004
REMARK UNBOUND:                 0.328
REMARK SMILES CC[C@H](C)[C@@H]([NH3+])C(=O)[O-]
REMARK SMILES IDX 3 1 4 2 5 3 6 4 7 8 8 9 9 10 2 11 1 12
REMARK H PARENT 6 5 6 6 6 7
REMARK Flexibility Score: inf
ROOT
ATOM      1  C   UNL     1       2.663   0.010  -6.421  1.00  0.00     0.050 C 
ATOM      2  C   UNL     1       4.150  -0.390  -6.373  1.00  0.00     0.014 C 
ENDROOT
BRANCH   1   3
ATOM      3  C   UNL     1       2.244   0.451  -7.861  1.00  0.00     0.230 C 
BRANCH   3   4
ATOM      4  N   UNL     1       3.363   0.362  -8.813  1.00  0.00    -0.350 N 
ATOM      5  H   UNL     1       3.573  -0.637  -9.045  1.00  0.00     0.345 HD
ATOM      6  H   UNL     1       4.215   0.816  -8.413  1.00  0.00     0.345 HD
ATOM      7  H   UNL     1       3.129   0.873  -9.695  1.00  0.00     0.345 HD
ENDBRANCH   3   4
BRANCH   3   8
ATOM      8  C   UNL     1       1.096  -0.383  -8.368  1.00  0.00     0.099 C 
ATOM      9  O   UNL     1      -0.080  -0.145  -7.983  1.00  0.00    -0.544 OA
ATOM     10  O   UNL     1       1.328  -1.427  -9.256  1.00  0.00    -0.544 OA
ENDBRANCH   3   8
ENDBRANCH   1   3
BRANCH   1  11
ATOM     11  C   UNL     1       2.395   1.131  -5.371  1.00  0.00     0.006 C 
ATOM     12  C   UNL     1       0.989   1.724  -5.482  1.00  0.00     0.004 C 
ENDBRANCH   1  11
TORSDOF 4
ENDMDL
