MODEL 1
REMARK VINA RESULT:    -5.699      0.000      0.000
REMARK INTER + INTRA:          -7.836
REMARK INTER:                  -7.698
REMARK INTRA:                  -0.138
REMARK UNBOUND:                -0.138
REMARK SMILES O=c1c(-c2ccc(O)cc2)coc2c([C@H]3O[C@H](CO)[C@@H](O)[C@@H](O)[C@@H]3O)c(O)ccc12
REMARK SMILES IDX 3 1 11 2 12 3 13 4 30 5 2 6 1 7 29 8 28 9 26 10 14 11 4 12
REMARK SMILES IDX 5 13 6 14 7 15 10 16 9 17 8 18 15 20 24 21 16 22 22 23 17 24
REMARK SMILES IDX 20 25 25 26 23 28 18 30 19 31 21 33 27 35
REMARK H PARENT 8 19 25 27 23 29 19 32 21 34 27 36
REMARK Flexibility Score: inf
ROOT
ATOM      1  C   UNL     1     -13.992  23.978  10.137  1.00  0.00     0.065 A 
ATOM      2  C   UNL     1     -14.767  25.132   9.953  1.00  0.00     0.208 A 
ATOM      3  O   UNL     1     -14.203  26.333   9.916  1.00  0.00    -0.463 OA
ATOM      4  C   UNL     1     -12.893  26.527  10.050  1.00  0.00     0.147 A 
ATOM      5  C   UNL     1     -12.037  25.417  10.241  1.00  0.00     0.066 A 
ATOM      6  C   UNL     1     -12.602  24.131  10.293  1.00  0.00     0.200 A 
ATOM      7  O   UNL     1     -11.871  23.121  10.495  1.00  0.00    -0.288 OA
ATOM      8  C   UNL     1     -10.655  25.623  10.375  1.00  0.00     0.020 A 
ATOM      9  C   UNL     1     -10.127  26.910  10.305  1.00  0.00     0.047 A 
ATOM     10  C   UNL     1     -10.963  28.015  10.111  1.00  0.00     0.125 A 
ATOM     11  C   UNL     1     -12.362  27.838   9.999  1.00  0.00     0.069 A 
ENDROOT
BRANCH   1  12
ATOM     12  C   UNL     1     -14.645  22.645  10.168  1.00  0.00    -0.011 A 
ATOM     13  C   UNL     1     -16.035  22.532   9.984  1.00  0.00     0.013 A 
ATOM     14  C   UNL     1     -16.651  21.277  10.003  1.00  0.00     0.047 A 
ATOM     15  C   UNL     1     -15.889  20.122  10.200  1.00  0.00     0.115 A 
ATOM     16  C   UNL     1     -13.885  21.478  10.359  1.00  0.00     0.013 A 
ATOM     17  C   UNL     1     -14.504  20.224  10.377  1.00  0.00     0.047 A 
BRANCH  15  18
ATOM     18  O   UNL     1     -16.518  18.878  10.217  1.00  0.00    -0.508 OA
ATOM     19  H   UNL     1     -16.130  18.096  10.734  1.00  0.00     0.293 HD
ENDBRANCH  15  18
ENDBRANCH   1  12
BRANCH  11  20
ATOM     20  C   UNL     1     -13.277  29.033   9.768  1.00  0.00     0.188 C 
ATOM     21  C   UNL     1     -13.195  29.481   8.288  1.00  0.00     0.179 C 
ATOM     22  O   UNL     1     -12.903  30.081  10.654  1.00  0.00    -0.362 OA
ATOM     23  C   UNL     1     -14.078  30.725   8.070  1.00  0.00     0.177 C 
ATOM     24  C   UNL     1     -13.724  31.237  10.533  1.00  0.00     0.176 C 
ATOM     25  C   UNL     1     -13.725  31.817   9.097  1.00  0.00     0.177 C 
BRANCH  21  26
ATOM     26  O   UNL     1     -13.581  28.444   7.420  1.00  0.00    -0.387 OA
ATOM     27  H   UNL     1     -13.119  27.615   7.715  1.00  0.00     0.211 HD
ENDBRANCH  21  26
BRANCH  23  28
ATOM     28  O   UNL     1     -13.968  31.211   6.754  1.00  0.00    -0.387 OA
ATOM     29  H   UNL     1     -14.418  30.567   6.147  1.00  0.00     0.211 HD
ENDBRANCH  23  28
BRANCH  24  30
ATOM     30  C   UNL     1     -15.140  31.030  11.110  1.00  0.00     0.191 C 
BRANCH  30  31
ATOM     31  O   UNL     1     -16.046  31.873  10.452  1.00  0.00    -0.394 OA
ATOM     32  H   UNL     1     -16.835  31.949  11.049  1.00  0.00     0.210 HD
ENDBRANCH  30  31
ENDBRANCH  24  30
BRANCH  25  33
ATOM     33  O   UNL     1     -12.455  32.345   8.806  1.00  0.00    -0.388 OA
ATOM     34  H   UNL     1     -12.408  33.238   9.240  1.00  0.00     0.211 HD
ENDBRANCH  25  33
ENDBRANCH  11  20
BRANCH  10  35
ATOM     35  O   UNL     1     -10.404  29.290  10.027  1.00  0.00    -0.507 OA
ATOM     36  H   UNL     1     -10.656  29.934   9.286  1.00  0.00     0.293 HD
ENDBRANCH  10  35
TORSDOF 9
ENDMDL
MODEL 2
REMARK VINA RESULT:    -5.657      3.451     11.033
REMARK INTER + INTRA:          -7.780
REMARK INTER:                  -7.086
REMARK INTRA:                  -0.694
REMARK UNBOUND:                -0.138
REMARK SMILES O=c1c(-c2ccc(O)cc2)coc2c([C@H]3O[C@H](CO)[C@@H](O)[C@@H](O)[C@@H]3O)c(O)ccc12
REMARK SMILES IDX 3 1 11 2 12 3 13 4 30 5 2 6 1 7 29 8 28 9 26 10 14 11 4 12
REMARK SMILES IDX 5 13 6 14 7 15 10 16 9 17 8 18 15 20 24 21 16 22 22 23 17 24
REMARK SMILES IDX 20 25 25 26 23 28 18 30 19 31 21 33 27 35
REMARK H PARENT 8 19 25 27 23 29 19 32 21 34 27 36
REMARK Flexibility Score: inf
ROOT
ATOM      1  C   UNL     1     -14.211  22.266  10.221  1.00  0.00     0.065 A 
ATOM      2  C   UNL     1     -13.261  21.255  10.017  1.00  0.00     0.208 A 
ATOM      3  O   UNL     1     -13.622  19.979   9.972  1.00  0.00    -0.463 OA
ATOM      4  C   UNL     1     -14.882  19.573  10.113  1.00  0.00     0.147 A 
ATOM      5  C   UNL     1     -15.905  20.527  10.323  1.00  0.00     0.066 A 
ATOM      6  C   UNL     1     -15.556  21.887  10.385  1.00  0.00     0.200 A 
ATOM      7  O   UNL     1     -16.439  22.763  10.603  1.00  0.00    -0.288 OA
ATOM      8  C   UNL     1     -17.234  20.098  10.464  1.00  0.00     0.020 A 
ATOM      9  C   UNL     1     -17.546  18.743  10.384  1.00  0.00     0.047 A 
ATOM     10  C   UNL     1     -16.544  17.790  10.172  1.00  0.00     0.125 A 
ATOM     11  C   UNL     1     -15.194  18.194  10.052  1.00  0.00     0.069 A 
ENDROOT
BRANCH   1  12
ATOM     12  C   UNL     1     -13.783  23.687  10.261  1.00  0.00    -0.011 A 
ATOM     13  C   UNL     1     -12.719  24.083  11.091  1.00  0.00     0.013 A 
ATOM     14  C   UNL     1     -12.308  25.419  11.125  1.00  0.00     0.047 A 
ATOM     15  C   UNL     1     -12.949  26.373  10.328  1.00  0.00     0.115 A 
ATOM     16  C   UNL     1     -14.418  24.650   9.458  1.00  0.00     0.013 A 
ATOM     17  C   UNL     1     -14.004  25.986   9.492  1.00  0.00     0.047 A 
BRANCH  15  18
ATOM     18  O   UNL     1     -12.528  27.701  10.372  1.00  0.00    -0.508 OA
ATOM     19  H   UNL     1     -12.357  28.230   9.524  1.00  0.00     0.293 HD
ENDBRANCH  15  18
ENDBRANCH   1  12
BRANCH  11  20
ATOM     20  C   UNL     1     -14.099  17.165   9.800  1.00  0.00     0.188 C 
ATOM     21  C   UNL     1     -14.008  16.850   8.287  1.00  0.00     0.179 C 
ATOM     22  O   UNL     1     -14.376  15.997  10.562  1.00  0.00    -0.362 OA
ATOM     23  C   UNL     1     -12.939  15.769   8.042  1.00  0.00     0.177 C 
ATOM     24  C   UNL     1     -13.388  14.984  10.417  1.00  0.00     0.176 C 
ATOM     25  C   UNL     1     -13.199  14.547   8.942  1.00  0.00     0.177 C 
BRANCH  21  26
ATOM     26  O   UNL     1     -13.718  18.008   7.543  1.00  0.00    -0.387 OA
ATOM     27  H   UNL     1     -14.287  18.744   7.894  1.00  0.00     0.211 HD
ENDBRANCH  21  26
BRANCH  23  28
ATOM     28  O   UNL     1     -12.883  15.397   6.686  1.00  0.00    -0.387 OA
ATOM     29  H   UNL     1     -13.807  15.406   6.324  1.00  0.00     0.211 HD
ENDBRANCH  23  28
BRANCH  24  30
ATOM     30  C   UNL     1     -12.062  15.333  11.125  1.00  0.00     0.191 C 
BRANCH  30  31
ATOM     31  O   UNL     1     -11.151  14.279  10.968  1.00  0.00    -0.394 OA
ATOM     32  H   UNL     1     -11.496  13.725  10.221  1.00  0.00     0.210 HD
ENDBRANCH  30  31
ENDBRANCH  24  30
BRANCH  25  33
ATOM     33  O   UNL     1     -14.354  13.875   8.504  1.00  0.00    -0.388 OA
ATOM     34  H   UNL     1     -14.211  12.908   8.683  1.00  0.00     0.211 HD
ENDBRANCH  25  33
ENDBRANCH  11  20
BRANCH  10  35
ATOM     35  O   UNL     1     -16.888  16.442  10.077  1.00  0.00    -0.507 OA
ATOM     36  H   UNL     1     -17.631  16.123   9.466  1.00  0.00     0.293 HD
ENDBRANCH  10  35
TORSDOF 9
ENDMDL
MODEL 3
REMARK VINA RESULT:    -4.612      3.810     10.972
REMARK INTER + INTRA:          -6.368
REMARK INTER:                  -7.389
REMARK INTRA:                   1.021
REMARK UNBOUND:                -0.138
REMARK SMILES O=c1c(-c2ccc(O)cc2)coc2c([C@H]3O[C@H](CO)[C@@H](O)[C@@H](O)[C@@H]3O)c(O)ccc12
REMARK SMILES IDX 3 1 11 2 12 3 13 4 30 5 2 6 1 7 29 8 28 9 26 10 14 11 4 12
REMARK SMILES IDX 5 13 6 14 7 15 10 16 9 17 8 18 15 20 24 21 16 22 22 23 17 24
REMARK SMILES IDX 20 25 25 26 23 28 18 30 19 31 21 33 27 35
REMARK H PARENT 8 19 25 27 23 29 19 32 21 34 27 36
REMARK Flexibility Score: inf
ROOT
ATOM      1  C   UNL     1     -13.767  21.935  10.328  1.00  0.00     0.065 A 
ATOM      2  C   UNL     1     -13.204  20.734   9.872  1.00  0.00     0.208 A 
ATOM      3  O   UNL     1     -13.939  19.634   9.765  1.00  0.00    -0.463 OA
ATOM      4  C   UNL     1     -15.233  19.589  10.075  1.00  0.00     0.147 A 
ATOM      5  C   UNL     1     -15.881  20.756  10.544  1.00  0.00     0.066 A 
ATOM      6  C   UNL     1     -15.130  21.937  10.678  1.00  0.00     0.200 A 
ATOM      7  O   UNL     1     -15.669  22.988  11.125  1.00  0.00    -0.288 OA
ATOM      8  C   UNL     1     -17.247  20.708  10.864  1.00  0.00     0.020 A 
ATOM      9  C   UNL     1     -17.964  19.525  10.707  1.00  0.00     0.047 A 
ATOM     10  C   UNL     1     -17.335  18.366  10.239  1.00  0.00     0.125 A 
ATOM     11  C   UNL     1     -15.954  18.380   9.934  1.00  0.00     0.069 A 
ENDROOT
BRANCH   1  12
ATOM     12  C   UNL     1     -12.926  23.154  10.434  1.00  0.00    -0.011 A 
ATOM     13  C   UNL     1     -11.593  23.059  10.872  1.00  0.00     0.013 A 
ATOM     14  C   UNL     1     -10.796  24.204  10.964  1.00  0.00     0.047 A 
ATOM     15  C   UNL     1     -11.317  25.454  10.615  1.00  0.00     0.115 A 
ATOM     16  C   UNL     1     -13.441  24.413  10.079  1.00  0.00     0.013 A 
ATOM     17  C   UNL     1     -12.640  25.556  10.170  1.00  0.00     0.047 A 
BRANCH  15  18
ATOM     18  O   UNL     1     -10.510  26.586  10.711  1.00  0.00    -0.508 OA
ATOM     19  H   UNL     1     -10.198  26.939  11.610  1.00  0.00     0.293 HD
ENDBRANCH  15  18
ENDBRANCH   1  12
BRANCH  11  20
ATOM     20  C   UNL     1     -15.266  17.128   9.405  1.00  0.00     0.188 C 
ATOM     21  C   UNL     1     -15.069  16.109  10.554  1.00  0.00     0.179 C 
ATOM     22  O   UNL     1     -14.028  17.495   8.812  1.00  0.00    -0.362 OA
ATOM     23  C   UNL     1     -14.322  14.868  10.029  1.00  0.00     0.177 C 
ATOM     24  C   UNL     1     -13.320  16.391   8.259  1.00  0.00     0.176 C 
ATOM     25  C   UNL     1     -13.029  15.288   9.307  1.00  0.00     0.177 C 
BRANCH  21  26
ATOM     26  O   UNL     1     -16.300  15.740  11.125  1.00  0.00    -0.387 OA
ATOM     27  H   UNL     1     -17.018  15.992  10.485  1.00  0.00     0.211 HD
ENDBRANCH  21  26
BRANCH  23  28
ATOM     28  O   UNL     1     -14.053  13.953  11.063  1.00  0.00    -0.387 OA
ATOM     29  H   UNL     1     -13.410  14.375  11.691  1.00  0.00     0.211 HD
ENDBRANCH  23  28
BRANCH  24  30
ATOM     30  C   UNL     1     -13.968  15.850   6.967  1.00  0.00     0.191 C 
BRANCH  30  31
ATOM     31  O   UNL     1     -13.305  16.376   5.850  1.00  0.00    -0.394 OA
ATOM     32  H   UNL     1     -12.858  15.608   5.408  1.00  0.00     0.210 HD
ENDBRANCH  30  31
ENDBRANCH  24  30
BRANCH  25  33
ATOM     33  O   UNL     1     -12.100  15.772  10.246  1.00  0.00    -0.388 OA
ATOM     34  H   UNL     1     -11.858  15.007  10.832  1.00  0.00     0.211 HD
ENDBRANCH  25  33
ENDBRANCH  11  20
BRANCH  10  35
ATOM     35  O   UNL     1     -18.082  17.200  10.073  1.00  0.00    -0.507 OA
ATOM     36  H   UNL     1     -17.785  16.460   9.449  1.00  0.00     0.293 HD
ENDBRANCH  10  35
TORSDOF 9
ENDMDL
MODEL 4
REMARK VINA RESULT:    -4.466      1.824      3.293
REMARK INTER + INTRA:          -6.170
REMARK INTER:                  -6.004
REMARK INTRA:                  -0.167
REMARK UNBOUND:                -0.138
REMARK SMILES O=c1c(-c2ccc(O)cc2)coc2c([C@H]3O[C@H](CO)[C@@H](O)[C@@H](O)[C@@H]3O)c(O)ccc12
REMARK SMILES IDX 3 1 11 2 12 3 13 4 30 5 2 6 1 7 29 8 28 9 26 10 14 11 4 12
REMARK SMILES IDX 5 13 6 14 7 15 10 16 9 17 8 18 15 20 24 21 16 22 22 23 17 24
REMARK SMILES IDX 20 25 25 26 23 28 18 30 19 31 21 33 27 35
REMARK H PARENT 8 19 25 27 23 29 19 32 21 34 27 36
REMARK Flexibility Score: inf
ROOT
ATOM      1  C   UNL     1     -13.087  26.581  10.024  1.00  0.00     0.065 A 
ATOM      2  C   UNL     1     -13.880  27.595   9.468  1.00  0.00     0.208 A 
ATOM      3  O   UNL     1     -13.467  28.857   9.462  1.00  0.00    -0.463 OA
ATOM      4  C   UNL     1     -12.299  29.243   9.971  1.00  0.00     0.147 A 
ATOM      5  C   UNL     1     -11.437  28.285  10.552  1.00  0.00     0.066 A 
ATOM      6  C   UNL     1     -11.847  26.940  10.583  1.00  0.00     0.200 A 
ATOM      7  O   UNL     1     -11.117  26.063  11.123  1.00  0.00    -0.288 OA
ATOM      8  C   UNL     1     -10.203  28.693  11.081  1.00  0.00     0.020 A 
ATOM      9  C   UNL     1      -9.823  30.031  11.022  1.00  0.00     0.047 A 
ATOM     10  C   UNL     1     -10.665  30.988  10.445  1.00  0.00     0.125 A 
ATOM     11  C   UNL     1     -11.924  30.608   9.927  1.00  0.00     0.069 A 
ENDROOT
BRANCH   1  12
ATOM     12  C   UNL     1     -13.568  25.176  10.013  1.00  0.00    -0.011 A 
ATOM     13  C   UNL     1     -14.736  24.821  10.713  1.00  0.00     0.013 A 
ATOM     14  C   UNL     1     -15.196  23.501  10.697  1.00  0.00     0.047 A 
ATOM     15  C   UNL     1     -14.501  22.522   9.980  1.00  0.00     0.115 A 
ATOM     16  C   UNL     1     -12.878  24.188   9.290  1.00  0.00     0.013 A 
ATOM     17  C   UNL     1     -13.342  22.868   9.275  1.00  0.00     0.047 A 
BRANCH  15  18
ATOM     18  O   UNL     1     -14.971  21.210   9.974  1.00  0.00    -0.508 OA
ATOM     19  H   UNL     1     -14.504  20.478  10.498  1.00  0.00     0.293 HD
ENDBRANCH  15  18
ENDBRANCH   1  12
BRANCH  11  20
ATOM     20  C   UNL     1     -12.838  31.639   9.279  1.00  0.00     0.188 C 
ATOM     21  C   UNL     1     -14.302  31.403   9.727  1.00  0.00     0.179 C 
ATOM     22  O   UNL     1     -12.703  31.556   7.866  1.00  0.00    -0.362 OA
ATOM     23  C   UNL     1     -15.232  32.412   9.026  1.00  0.00     0.177 C 
ATOM     24  C   UNL     1     -13.500  32.507   7.169  1.00  0.00     0.176 C 
ATOM     25  C   UNL     1     -15.007  32.376   7.503  1.00  0.00     0.177 C 
BRANCH  21  26
ATOM     26  O   UNL     1     -14.429  31.502  11.124  1.00  0.00    -0.387 OA
ATOM     27  H   UNL     1     -14.592  30.588  11.479  1.00  0.00     0.211 HD
ENDBRANCH  21  26
BRANCH  23  28
ATOM     28  O   UNL     1     -16.581  32.177   9.346  1.00  0.00    -0.387 OA
ATOM     29  H   UNL     1     -17.046  31.872   8.523  1.00  0.00     0.211 HD
ENDBRANCH  23  28
BRANCH  24  30
ATOM     30  C   UNL     1     -12.967  33.949   7.301  1.00  0.00     0.191 C 
BRANCH  30  31
ATOM     31  O   UNL     1     -11.770  34.078   6.584  1.00  0.00    -0.394 OA
ATOM     32  H   UNL     1     -11.104  33.512   7.054  1.00  0.00     0.210 HD
ENDBRANCH  30  31
ENDBRANCH  24  30
BRANCH  25  33
ATOM     33  O   UNL     1     -15.497  31.166   6.981  1.00  0.00    -0.388 OA
ATOM     34  H   UNL     1     -14.950  30.955   6.180  1.00  0.00     0.211 HD
ENDBRANCH  25  33
ENDBRANCH  11  20
BRANCH  10  35
ATOM     35  O   UNL     1     -10.249  32.319  10.382  1.00  0.00    -0.507 OA
ATOM     36  H   UNL     1     -10.787  33.023   9.892  1.00  0.00     0.293 HD
ENDBRANCH  10  35
TORSDOF 9
ENDMDL
MODEL 5
REMARK VINA RESULT:    -4.146      1.674      2.322
REMARK INTER + INTRA:          -5.738
REMARK INTER:                  -5.362
REMARK INTRA:                  -0.376
REMARK UNBOUND:                -0.138
REMARK SMILES O=c1c(-c2ccc(O)cc2)coc2c([C@H]3O[C@H](CO)[C@@H](O)[C@@H](O)[C@@H]3O)c(O)ccc12
REMARK SMILES IDX 3 1 11 2 12 3 13 4 30 5 2 6 1 7 29 8 28 9 26 10 14 11 4 12
REMARK SMILES IDX 5 13 6 14 7 15 10 16 9 17 8 18 15 20 24 21 16 22 22 23 17 24
REMARK SMILES IDX 20 25 25 26 23 28 18 30 19 31 21 33 27 35
REMARK H PARENT 8 19 25 27 23 29 19 32 21 34 27 36
REMARK Flexibility Score: inf
ROOT
ATOM      1  C   UNL     1     -13.455  26.195  10.221  1.00  0.00     0.065 A 
ATOM      2  C   UNL     1     -14.228  27.270   9.758  1.00  0.00     0.208 A 
ATOM      3  O   UNL     1     -13.739  28.503   9.735  1.00  0.00    -0.463 OA
ATOM      4  C   UNL     1     -12.507  28.805  10.140  1.00  0.00     0.147 A 
ATOM      5  C   UNL     1     -11.658  27.782  10.623  1.00  0.00     0.066 A 
ATOM      6  C   UNL     1     -12.148  26.465  10.669  1.00  0.00     0.200 A 
ATOM      7  O   UNL     1     -11.430  25.532  11.125  1.00  0.00    -0.288 OA
ATOM      8  C   UNL     1     -10.357  28.101  11.043  1.00  0.00     0.020 A 
ATOM      9  C   UNL     1      -9.899  29.414  10.971  1.00  0.00     0.047 A 
ATOM     10  C   UNL     1     -10.727  30.434  10.490  1.00  0.00     0.125 A 
ATOM     11  C   UNL     1     -12.051  30.144  10.085  1.00  0.00     0.069 A 
ENDROOT
BRANCH   1  12
ATOM     12  C   UNL     1     -14.023  24.824  10.232  1.00  0.00    -0.011 A 
ATOM     13  C   UNL     1     -15.082  24.502  11.099  1.00  0.00     0.013 A 
ATOM     14  C   UNL     1     -15.626  23.214  11.105  1.00  0.00     0.047 A 
ATOM     15  C   UNL     1     -15.124  22.235  10.242  1.00  0.00     0.115 A 
ATOM     16  C   UNL     1     -13.528  23.836   9.363  1.00  0.00     0.013 A 
ATOM     17  C   UNL     1     -14.075  22.549   9.370  1.00  0.00     0.047 A 
BRANCH  15  18
ATOM     18  O   UNL     1     -15.675  20.955  10.260  1.00  0.00    -0.508 OA
ATOM     19  H   UNL     1     -16.476  20.732  10.840  1.00  0.00     0.293 HD
ENDBRANCH  15  18
ENDBRANCH   1  12
BRANCH  11  20
ATOM     20  C   UNL     1     -12.952  31.245   9.541  1.00  0.00     0.188 C 
ATOM     21  C   UNL     1     -12.904  31.250   7.993  1.00  0.00     0.179 C 
ATOM     22  O   UNL     1     -12.537  32.492  10.082  1.00  0.00    -0.362 OA
ATOM     23  C   UNL     1     -13.771  32.400   7.448  1.00  0.00     0.177 C 
ATOM     24  C   UNL     1     -13.343  33.585   9.654  1.00  0.00     0.176 C 
ATOM     25  C   UNL     1     -13.373  33.730   8.112  1.00  0.00     0.177 C 
BRANCH  21  26
ATOM     26  O   UNL     1     -13.330  30.017   7.467  1.00  0.00    -0.387 OA
ATOM     27  H   UNL     1     -13.002  29.958   6.530  1.00  0.00     0.211 HD
ENDBRANCH  21  26
BRANCH  23  28
ATOM     28  O   UNL     1     -13.689  32.487   6.046  1.00  0.00    -0.387 OA
ATOM     29  H   UNL     1     -13.293  31.643   5.705  1.00  0.00     0.211 HD
ENDBRANCH  23  28
BRANCH  24  30
ATOM     30  C   UNL     1     -14.745  33.584  10.296  1.00  0.00     0.191 C 
BRANCH  30  31
ATOM     31  O   UNL     1     -15.695  34.004   9.356  1.00  0.00    -0.394 OA
ATOM     32  H   UNL     1     -15.185  34.266   8.546  1.00  0.00     0.210 HD
ENDBRANCH  30  31
ENDBRANCH  24  30
BRANCH  25  33
ATOM     33  O   UNL     1     -12.103  34.125   7.656  1.00  0.00    -0.388 OA
ATOM     34  H   UNL     1     -11.876  34.969   8.127  1.00  0.00     0.211 HD
ENDBRANCH  25  33
ENDBRANCH  11  20
BRANCH  10  35
ATOM     35  O   UNL     1     -10.235  31.737  10.411  1.00  0.00    -0.507 OA
ATOM     36  H   UNL     1     -10.363  32.401  11.165  1.00  0.00     0.293 HD
ENDBRANCH  10  35
TORSDOF 9
ENDMDL
MODEL 6
REMARK VINA RESULT:    -3.936      1.673      7.797
REMARK INTER + INTRA:          -5.454
REMARK INTER:                  -5.619
REMARK INTRA:                   0.164
REMARK UNBOUND:                -0.138
REMARK SMILES O=c1c(-c2ccc(O)cc2)coc2c([C@H]3O[C@H](CO)[C@@H](O)[C@@H](O)[C@@H]3O)c(O)ccc12
REMARK SMILES IDX 3 1 11 2 12 3 13 4 30 5 2 6 1 7 29 8 28 9 26 10 14 11 4 12
REMARK SMILES IDX 5 13 6 14 7 15 10 16 9 17 8 18 15 20 24 21 16 22 22 23 17 24
REMARK SMILES IDX 20 25 25 26 23 28 18 30 19 31 21 33 27 35
REMARK H PARENT 8 19 25 27 23 29 19 32 21 34 27 36
REMARK Flexibility Score: inf
ROOT
ATOM      1  C   UNL     1     -13.317  28.489   9.524  1.00  0.00     0.065 A 
ATOM      2  C   UNL     1     -14.175  27.396   9.336  1.00  0.00     0.208 A 
ATOM      3  O   UNL     1     -13.747  26.153   9.518  1.00  0.00    -0.463 OA
ATOM      4  C   UNL     1     -12.500  25.859   9.884  1.00  0.00     0.147 A 
ATOM      5  C   UNL     1     -11.568  26.901  10.095  1.00  0.00     0.066 A 
ATOM      6  C   UNL     1     -11.987  28.229   9.902  1.00  0.00     0.200 A 
ATOM      7  O   UNL     1     -11.172  29.183  10.050  1.00  0.00    -0.288 OA
ATOM      8  C   UNL     1     -10.257  26.589  10.487  1.00  0.00     0.020 A 
ATOM      9  C   UNL     1      -9.880  25.263  10.682  1.00  0.00     0.047 A 
ATOM     10  C   UNL     1     -10.795  24.223  10.481  1.00  0.00     0.125 A 
ATOM     11  C   UNL     1     -12.114  24.508  10.061  1.00  0.00     0.069 A 
ENDROOT
BRANCH   1  12
ATOM     12  C   UNL     1     -13.822  29.870   9.320  1.00  0.00    -0.011 A 
ATOM     13  C   UNL     1     -13.888  30.416   8.026  1.00  0.00     0.013 A 
ATOM     14  C   UNL     1     -14.371  31.714   7.830  1.00  0.00     0.047 A 
ATOM     15  C   UNL     1     -14.799  32.477   8.920  1.00  0.00     0.115 A 
ATOM     16  C   UNL     1     -14.261  30.641  10.410  1.00  0.00     0.013 A 
ATOM     17  C   UNL     1     -14.745  31.938  10.211  1.00  0.00     0.047 A 
BRANCH  15  18
ATOM     18  O   UNL     1     -15.279  33.769   8.709  1.00  0.00    -0.508 OA
ATOM     19  H   UNL     1     -15.220  34.213   7.799  1.00  0.00     0.293 HD
ENDBRANCH  15  18
ENDBRANCH   1  12
BRANCH  11  20
ATOM     20  C   UNL     1     -13.122  23.384   9.860  1.00  0.00     0.188 C 
ATOM     21  C   UNL     1     -14.234  23.841   8.884  1.00  0.00     0.179 C 
ATOM     22  O   UNL     1     -13.656  23.009  11.123  1.00  0.00    -0.362 OA
ATOM     23  C   UNL     1     -15.282  22.723   8.726  1.00  0.00     0.177 C 
ATOM     24  C   UNL     1     -14.590  21.938  11.042  1.00  0.00     0.176 C 
ATOM     25  C   UNL     1     -15.782  22.262  10.107  1.00  0.00     0.177 C 
BRANCH  21  26
ATOM     26  O   UNL     1     -13.698  24.196   7.633  1.00  0.00    -0.387 OA
ATOM     27  H   UNL     1     -12.710  24.112   7.691  1.00  0.00     0.211 HD
ENDBRANCH  21  26
BRANCH  23  28
ATOM     28  O   UNL     1     -16.351  23.131   7.908  1.00  0.00    -0.387 OA
ATOM     29  H   UNL     1     -16.728  23.968   8.285  1.00  0.00     0.211 HD
ENDBRANCH  23  28
BRANCH  24  30
ATOM     30  C   UNL     1     -13.923  20.582  10.734  1.00  0.00     0.191 C 
BRANCH  30  31
ATOM     31  O   UNL     1     -14.906  19.594  10.586  1.00  0.00    -0.394 OA
ATOM     32  H   UNL     1     -15.655  20.022  10.096  1.00  0.00     0.210 HD
ENDBRANCH  30  31
ENDBRANCH  24  30
BRANCH  25  33
ATOM     33  O   UNL     1     -16.568  23.273  10.687  1.00  0.00    -0.388 OA
ATOM     34  H   UNL     1     -17.517  23.006  10.567  1.00  0.00     0.211 HD
ENDBRANCH  25  33
ENDBRANCH  11  20
BRANCH  10  35
ATOM     35  O   UNL     1     -10.394  22.905  10.703  1.00  0.00    -0.507 OA
ATOM     36  H   UNL     1      -9.947  22.356   9.979  1.00  0.00     0.293 HD
ENDBRANCH  10  35
TORSDOF 9
ENDMDL
MODEL 7
REMARK VINA RESULT:    -3.015      2.334      5.007
REMARK INTER + INTRA:          -4.210
REMARK INTER:                  -4.112
REMARK INTRA:                  -0.098
REMARK UNBOUND:                -0.138
REMARK SMILES O=c1c(-c2ccc(O)cc2)coc2c([C@H]3O[C@H](CO)[C@@H](O)[C@@H](O)[C@@H]3O)c(O)ccc12
REMARK SMILES IDX 3 1 11 2 12 3 13 4 30 5 2 6 1 7 29 8 28 9 26 10 14 11 4 12
REMARK SMILES IDX 5 13 6 14 7 15 10 16 9 17 8 18 15 20 24 21 16 22 22 23 17 24
REMARK SMILES IDX 20 25 25 26 23 28 18 30 19 31 21 33 27 35
REMARK H PARENT 8 19 25 27 23 29 19 32 21 34 27 36
REMARK Flexibility Score: inf
ROOT
ATOM      1  C   UNL     1     -13.543  27.887   9.460  1.00  0.00     0.065 A 
ATOM      2  C   UNL     1     -12.857  28.705   8.551  1.00  0.00     0.208 A 
ATOM      3  O   UNL     1     -13.082  30.012   8.503  1.00  0.00    -0.463 OA
ATOM      4  C   UNL     1     -13.956  30.629   9.295  1.00  0.00     0.147 A 
ATOM      5  C   UNL     1     -14.693  29.881  10.243  1.00  0.00     0.066 A 
ATOM      6  C   UNL     1     -14.484  28.492  10.314  1.00  0.00     0.200 A 
ATOM      7  O   UNL     1     -15.149  27.788  11.125  1.00  0.00    -0.288 OA
ATOM      8  C   UNL     1     -15.608  30.534  11.082  1.00  0.00     0.020 A 
ATOM      9  C   UNL     1     -15.780  31.913  10.994  1.00  0.00     0.047 A 
ATOM     10  C   UNL     1     -15.053  32.665  10.065  1.00  0.00     0.125 A 
ATOM     11  C   UNL     1     -14.143  32.028   9.190  1.00  0.00     0.069 A 
ENDROOT
BRANCH   1  12
ATOM     12  C   UNL     1     -13.269  26.429   9.498  1.00  0.00    -0.011 A 
ATOM     13  C   UNL     1     -14.180  25.521   8.930  1.00  0.00     0.013 A 
ATOM     14  C   UNL     1     -13.920  24.148   8.956  1.00  0.00     0.047 A 
ATOM     15  C   UNL     1     -12.747  23.665   9.544  1.00  0.00     0.115 A 
ATOM     16  C   UNL     1     -12.088  25.937  10.081  1.00  0.00     0.013 A 
ATOM     17  C   UNL     1     -11.830  24.562  10.105  1.00  0.00     0.047 A 
BRANCH  15  18
ATOM     18  O   UNL     1     -12.502  22.293   9.563  1.00  0.00    -0.508 OA
ATOM     19  H   UNL     1     -11.793  21.874   8.971  1.00  0.00     0.293 HD
ENDBRANCH  15  18
ENDBRANCH   1  12
BRANCH  11  20
ATOM     20  C   UNL     1     -13.333  32.842   8.189  1.00  0.00     0.188 C 
ATOM     21  C   UNL     1     -14.158  33.061   6.897  1.00  0.00     0.179 C 
ATOM     22  O   UNL     1     -12.111  32.166   7.923  1.00  0.00    -0.362 OA
ATOM     23  C   UNL     1     -13.316  33.835   5.865  1.00  0.00     0.177 C 
ATOM     24  C   UNL     1     -11.268  32.867   7.016  1.00  0.00     0.176 C 
ATOM     25  C   UNL     1     -11.957  33.142   5.656  1.00  0.00     0.177 C 
BRANCH  21  26
ATOM     26  O   UNL     1     -15.357  33.743   7.168  1.00  0.00    -0.387 OA
ATOM     27  H   UNL     1     -15.488  33.747   8.153  1.00  0.00     0.211 HD
ENDBRANCH  21  26
BRANCH  23  28
ATOM     28  O   UNL     1     -14.003  33.984   4.646  1.00  0.00    -0.387 OA
ATOM     29  H   UNL     1     -13.516  34.650   4.095  1.00  0.00     0.211 HD
ENDBRANCH  23  28
BRANCH  24  30
ATOM     30  C   UNL     1     -10.628  34.124   7.642  1.00  0.00     0.191 C 
BRANCH  30  31
ATOM     31  O   UNL     1     -10.041  33.793   8.870  1.00  0.00    -0.394 OA
ATOM     32  H   UNL     1     -10.009  34.634   9.396  1.00  0.00     0.210 HD
ENDBRANCH  30  31
ENDBRANCH  24  30
BRANCH  25  33
ATOM     33  O   UNL     1     -12.147  31.926   4.976  1.00  0.00    -0.388 OA
ATOM     34  H   UNL     1     -13.111  31.700   5.051  1.00  0.00     0.211 HD
ENDBRANCH  25  33
ENDBRANCH  11  20
BRANCH  10  35
ATOM     35  O   UNL     1     -15.232  34.048  10.012  1.00  0.00    -0.507 OA
ATOM     36  H   UNL     1     -16.154  34.466  10.008  1.00  0.00     0.293 HD
ENDBRANCH  10  35
TORSDOF 9
ENDMDL
