MODEL 1
REMARK VINA RESULT:    -2.944      0.000      0.000
REMARK INTER + INTRA:          -3.920
REMARK INTER:                  -3.633
REMARK INTRA:                  -0.287
REMARK UNBOUND:                -0.287
REMARK SMILES C=CCc1ccc(OC)c(OC)c1
REMARK SMILES IDX 7 1 10 2 13 3 4 4 5 5 6 6 8 7 9 8 11 9 12 10 3 11 2 12 1 13
REMARK H PARENT
REMARK Flexibility Score: inf
ROOT
ATOM      1  C   UNL     1     108.346 112.177 109.230  1.00  0.00     0.160 A 
ATOM      2  C   UNL     1     109.471 113.005 109.095  1.00  0.00     0.160 A 
ATOM      3  C   UNL     1     109.376 114.193 108.343  1.00  0.00     0.054 A 
ATOM      4  C   UNL     1     108.165 114.558 107.736  1.00  0.00    -0.040 A 
ATOM      5  C   UNL     1     107.050 113.721 107.867  1.00  0.00     0.008 A 
ATOM      6  C   UNL     1     107.136 112.542 108.611  1.00  0.00     0.051 A 
ENDROOT
BRANCH   1   7
ATOM      7  O   UNL     1     108.471 111.000 109.985  1.00  0.00    -0.493 OA
ATOM      8  C   UNL     1     107.546 109.917 109.950  1.00  0.00     0.278 C 
ENDBRANCH   1   7
BRANCH   2   9
ATOM      9  O   UNL     1     110.667 112.612 109.718  1.00  0.00    -0.493 OA
ATOM     10  C   UNL     1     111.852 113.401 109.761  1.00  0.00     0.278 C 
ENDBRANCH   2   9
BRANCH   4  11
ATOM     11  C   UNL     1     108.081 115.814 106.911  1.00  0.00     0.062 C 
BRANCH  11  12
ATOM     12  C   UNL     1     108.034 117.030 107.793  1.00  0.00    -0.030 C 
ATOM     13  C   UNL     1     106.876 117.534 108.232  1.00  0.00     0.004 C 
ENDBRANCH  11  12
ENDBRANCH   4  11
TORSDOF 4
ENDMDL
MODEL 2
REMARK VINA RESULT:    -2.938     13.158     16.404
REMARK INTER + INTRA:          -3.912
REMARK INTER:                  -3.628
REMARK INTRA:                  -0.284
REMARK UNBOUND:                -0.287
REMARK SMILES C=CCc1ccc(OC)c(OC)c1
REMARK SMILES IDX 7 1 10 2 13 3 4 4 5 5 6 6 8 7 9 8 11 9 12 10 3 11 2 12 1 13
REMARK H PARENT
REMARK Flexibility Score: inf
ROOT
ATOM      1  C   UNL     1     123.629 119.822 109.164  1.00  0.00     0.160 A 
ATOM      2  C   UNL     1     122.495 118.998 109.091  1.00  0.00     0.160 A 
ATOM      3  C   UNL     1     122.555 117.793 108.364  1.00  0.00     0.054 A 
ATOM      4  C   UNL     1     123.740 117.407 107.719  1.00  0.00    -0.040 A 
ATOM      5  C   UNL     1     124.863 118.240 107.789  1.00  0.00     0.008 A 
ATOM      6  C   UNL     1     124.812 119.436 108.507  1.00  0.00     0.051 A 
ENDROOT
BRANCH   1   7
ATOM      7  O   UNL     1     123.538 121.017 109.896  1.00  0.00    -0.493 OA
ATOM      8  C   UNL     1     124.543 122.026 109.919  1.00  0.00     0.278 C 
ENDBRANCH   1   7
BRANCH   2   9
ATOM      9  O   UNL     1     121.326 119.412 109.751  1.00  0.00    -0.493 OA
ATOM     10  C   UNL     1     120.099 118.690 109.748  1.00  0.00     0.278 C 
ENDBRANCH   2   9
BRANCH   4  11
ATOM     11  C   UNL     1     123.786 116.131 106.921  1.00  0.00     0.062 C 
BRANCH  11  12
ATOM     12  C   UNL     1     123.933 114.941 107.825  1.00  0.00    -0.030 C 
ATOM     13  C   UNL     1     125.134 114.441 108.138  1.00  0.00     0.004 C 
ENDBRANCH  11  12
ENDBRANCH   4  11
TORSDOF 4
ENDMDL
MODEL 3
REMARK VINA RESULT:    -2.931      9.310     11.560
REMARK INTER + INTRA:          -3.904
REMARK INTER:                  -3.611
REMARK INTRA:                  -0.293
REMARK UNBOUND:                -0.287
REMARK SMILES C=CCc1ccc(OC)c(OC)c1
REMARK SMILES IDX 7 1 10 2 13 3 4 4 5 5 6 6 8 7 9 8 11 9 12 10 3 11 2 12 1 13
REMARK H PARENT
REMARK Flexibility Score: inf
ROOT
ATOM      1  C   UNL     1     119.786 108.360 109.197  1.00  0.00     0.160 A 
ATOM      2  C   UNL     1     118.963 109.493 109.097  1.00  0.00     0.160 A 
ATOM      3  C   UNL     1     117.775 109.427 108.342  1.00  0.00     0.054 A 
ATOM      4  C   UNL     1     117.406 108.237 107.695  1.00  0.00    -0.040 A 
ATOM      5  C   UNL     1     118.238 107.115 107.791  1.00  0.00     0.008 A 
ATOM      6  C   UNL     1     119.417 107.173 108.538  1.00  0.00     0.051 A 
ENDROOT
BRANCH   1   7
ATOM      7  O   UNL     1     120.962 108.456 109.957  1.00  0.00    -0.493 OA
ATOM      8  C   UNL     1     122.030 107.514 109.913  1.00  0.00     0.278 C 
ENDBRANCH   1   7
BRANCH   2   9
ATOM      9  O   UNL     1     119.359 110.666 109.760  1.00  0.00    -0.493 OA
ATOM     10  C   UNL     1     118.610 111.877 109.775  1.00  0.00     0.278 C 
ENDBRANCH   2   9
BRANCH   4  11
ATOM     11  C   UNL     1     116.150 108.185 106.867  1.00  0.00     0.062 C 
BRANCH  11  12
ATOM     12  C   UNL     1     114.931 108.172 107.745  1.00  0.00    -0.030 C 
ATOM     13  C   UNL     1     114.453 107.038 108.265  1.00  0.00     0.004 C 
ENDBRANCH  11  12
ENDBRANCH   4  11
TORSDOF 4
ENDMDL
MODEL 4
REMARK VINA RESULT:    -2.874      9.377     11.605
REMARK INTER + INTRA:          -3.833
REMARK INTER:                  -3.545
REMARK INTRA:                  -0.289
REMARK UNBOUND:                -0.287
REMARK SMILES C=CCc1ccc(OC)c(OC)c1
REMARK SMILES IDX 7 1 10 2 13 3 4 4 5 5 6 6 8 7 9 8 11 9 12 10 3 11 2 12 1 13
REMARK H PARENT
REMARK Flexibility Score: inf
ROOT
ATOM      1  C   UNL     1     112.154 123.655 109.131  1.00  0.00     0.160 A 
ATOM      2  C   UNL     1     112.978 122.529 108.987  1.00  0.00     0.160 A 
ATOM      3  C   UNL     1     114.165 122.626 108.234  1.00  0.00     0.054 A 
ATOM      4  C   UNL     1     114.532 123.840 107.633  1.00  0.00    -0.040 A 
ATOM      5  C   UNL     1     113.698 124.956 107.774  1.00  0.00     0.008 A 
ATOM      6  C   UNL     1     112.520 124.868 108.518  1.00  0.00     0.051 A 
ENDROOT
BRANCH   1   7
ATOM      7  O   UNL     1     110.978 123.527 109.888  1.00  0.00    -0.493 OA
ATOM      8  C   UNL     1     109.896 124.454 109.859  1.00  0.00     0.278 C 
ENDBRANCH   1   7
BRANCH   2   9
ATOM      9  O   UNL     1     112.584 121.330 109.603  1.00  0.00    -0.493 OA
ATOM     10  C   UNL     1     113.311 120.107 109.529  1.00  0.00     0.278 C 
ENDBRANCH   2   9
BRANCH   4  11
ATOM     11  C   UNL     1     115.787 123.927 106.806  1.00  0.00     0.062 C 
BRANCH  11  12
ATOM     12  C   UNL     1     117.007 123.896 107.683  1.00  0.00    -0.030 C 
ATOM     13  C   UNL     1     117.534 125.014 108.192  1.00  0.00     0.004 C 
ENDBRANCH  11  12
ENDBRANCH   4  11
TORSDOF 4
ENDMDL
MODEL 5
REMARK VINA RESULT:    -2.768     13.631     16.472
REMARK INTER + INTRA:          -3.703
REMARK INTER:                  -3.400
REMARK INTRA:                  -0.303
REMARK UNBOUND:                -0.287
REMARK SMILES C=CCc1ccc(OC)c(OC)c1
REMARK SMILES IDX 7 1 10 2 13 3 4 4 5 5 6 6 8 7 9 8 11 9 12 10 3 11 2 12 1 13
REMARK H PARENT
REMARK Flexibility Score: inf
ROOT
ATOM      1  C   UNL     1     123.453 118.212 108.115  1.00  0.00     0.160 A 
ATOM      2  C   UNL     1     122.540 118.691 109.067  1.00  0.00     0.160 A 
ATOM      3  C   UNL     1     122.786 119.920 109.711  1.00  0.00     0.054 A 
ATOM      4  C   UNL     1     123.931 120.671 109.402  1.00  0.00    -0.040 A 
ATOM      5  C   UNL     1     124.842 120.180 108.459  1.00  0.00     0.008 A 
ATOM      6  C   UNL     1     124.605 118.962 107.816  1.00  0.00     0.051 A 
ENDROOT
BRANCH   1   7
ATOM      7  O   UNL     1     123.180 116.984 107.489  1.00  0.00    -0.493 OA
ATOM      8  C   UNL     1     123.233 116.767 106.082  1.00  0.00     0.278 C 
ENDBRANCH   1   7
BRANCH   2   9
ATOM      9  O   UNL     1     121.403 117.917 109.349  1.00  0.00    -0.493 OA
ATOM     10  C   UNL     1     120.134 118.451 109.714  1.00  0.00     0.278 C 
ENDBRANCH   2   9
BRANCH   4  11
ATOM     11  C   UNL     1     124.200 121.968 110.117  1.00  0.00     0.062 C 
BRANCH  11  12
ATOM     12  C   UNL     1     125.621 122.027 110.600  1.00  0.00    -0.030 C 
ATOM     13  C   UNL     1     125.933 121.843 111.887  1.00  0.00     0.004 C 
ENDBRANCH  11  12
ENDBRANCH   4  11
TORSDOF 4
ENDMDL
MODEL 6
REMARK VINA RESULT:    -2.755      9.079     12.392
REMARK INTER + INTRA:          -3.687
REMARK INTER:                  -3.388
REMARK INTRA:                  -0.299
REMARK UNBOUND:                -0.287
REMARK SMILES C=CCc1ccc(OC)c(OC)c1
REMARK SMILES IDX 7 1 10 2 13 3 4 4 5 5 6 6 8 7 9 8 11 9 12 10 3 11 2 12 1 13
REMARK H PARENT
REMARK Flexibility Score: inf
ROOT
ATOM      1  C   UNL     1     117.699 109.107 108.214  1.00  0.00     0.160 A 
ATOM      2  C   UNL     1     118.555 109.631 109.194  1.00  0.00     0.160 A 
ATOM      3  C   UNL     1     119.824 109.051 109.392  1.00  0.00     0.054 A 
ATOM      4  C   UNL     1     120.240 107.960 108.613  1.00  0.00    -0.040 A 
ATOM      5  C   UNL     1     119.374 107.438 107.644  1.00  0.00     0.008 A 
ATOM      6  C   UNL     1     118.115 108.007 107.442  1.00  0.00     0.051 A 
ENDROOT
BRANCH   1   7
ATOM      7  O   UNL     1     116.441 109.707 108.039  1.00  0.00    -0.493 OA
ATOM      8  C   UNL     1     115.223 109.193 108.570  1.00  0.00     0.278 C 
ENDBRANCH   1   7
BRANCH   2   9
ATOM      9  O   UNL     1     118.110 110.725 109.954  1.00  0.00    -0.493 OA
ATOM     10  C   UNL     1     118.549 112.067 109.770  1.00  0.00     0.278 C 
ENDBRANCH   2   9
BRANCH   4  11
ATOM     11  C   UNL     1     121.586 107.329 108.851  1.00  0.00     0.062 C 
BRANCH  11  12
ATOM     12  C   UNL     1     121.993 107.470 110.291  1.00  0.00    -0.030 C 
ATOM     13  C   UNL     1     121.903 106.449 111.149  1.00  0.00     0.004 C 
ENDBRANCH  11  12
ENDBRANCH   4  11
TORSDOF 4
ENDMDL
MODEL 7
REMARK VINA RESULT:    -2.755      1.777      4.574
REMARK INTER + INTRA:          -3.687
REMARK INTER:                  -3.390
REMARK INTRA:                  -0.297
REMARK UNBOUND:                -0.287
REMARK SMILES C=CCc1ccc(OC)c(OC)c1
REMARK SMILES IDX 7 1 10 2 13 3 4 4 5 5 6 6 8 7 9 8 11 9 12 10 3 11 2 12 1 13
REMARK H PARENT
REMARK Flexibility Score: inf
ROOT
ATOM      1  C   UNL     1     108.550 113.786 108.127  1.00  0.00     0.160 A 
ATOM      2  C   UNL     1     109.451 113.295 109.084  1.00  0.00     0.160 A 
ATOM      3  C   UNL     1     109.195 112.061 109.714  1.00  0.00     0.054 A 
ATOM      4  C   UNL     1     108.050 111.318 109.388  1.00  0.00    -0.040 A 
ATOM      5  C   UNL     1     107.151 111.820 108.439  1.00  0.00     0.008 A 
ATOM      6  C   UNL     1     107.398 113.042 107.810  1.00  0.00     0.051 A 
ENDROOT
BRANCH   1   7
ATOM      7  O   UNL     1     108.834 115.018 107.516  1.00  0.00    -0.493 OA
ATOM      8  C   UNL     1     108.713 115.271 106.119  1.00  0.00     0.278 C 
ENDBRANCH   1   7
BRANCH   2   9
ATOM      9  O   UNL     1     110.589 114.062 109.385  1.00  0.00    -0.493 OA
ATOM     10  C   UNL     1     111.863 113.519 109.716  1.00  0.00     0.278 C 
ENDBRANCH   2   9
BRANCH   4  11
ATOM     11  C   UNL     1     107.769 110.015 110.088  1.00  0.00     0.062 C 
BRANCH  11  12
ATOM     12  C   UNL     1     106.344 109.959 110.561  1.00  0.00    -0.030 C 
ATOM     13  C   UNL     1     106.030 110.058 111.857  1.00  0.00     0.004 C 
ENDBRANCH  11  12
ENDBRANCH   4  11
TORSDOF 4
ENDMDL
MODEL 8
REMARK VINA RESULT:    -2.697     10.581     12.557
REMARK INTER + INTRA:          -3.615
REMARK INTER:                  -3.253
REMARK INTRA:                  -0.362
REMARK UNBOUND:                -0.287
REMARK SMILES C=CCc1ccc(OC)c(OC)c1
REMARK SMILES IDX 7 1 10 2 13 3 4 4 5 5 6 6 8 7 9 8 11 9 12 10 3 11 2 12 1 13
REMARK H PARENT
REMARK Flexibility Score: inf
ROOT
ATOM      1  C   UNL     1     114.944 122.185 108.243  1.00  0.00     0.160 A 
ATOM      2  C   UNL     1     114.430 123.382 107.721  1.00  0.00     0.160 A 
ATOM      3  C   UNL     1     115.281 124.493 107.558  1.00  0.00     0.054 A 
ATOM      4  C   UNL     1     116.638 124.410 107.907  1.00  0.00    -0.040 A 
ATOM      5  C   UNL     1     117.140 123.214 108.436  1.00  0.00     0.008 A 
ATOM      6  C   UNL     1     116.303 122.109 108.601  1.00  0.00     0.051 A 
ENDROOT
BRANCH   1   7
ATOM      7  O   UNL     1     114.072 121.094 108.393  1.00  0.00    -0.493 OA
ATOM      8  C   UNL     1     113.577 120.625 109.643  1.00  0.00     0.278 C 
ENDBRANCH   1   7
BRANCH   2   9
ATOM      9  O   UNL     1     113.069 123.430 107.379  1.00  0.00    -0.493 OA
ATOM     10  C   UNL     1     112.042 123.941 108.223  1.00  0.00     0.278 C 
ENDBRANCH   2   9
BRANCH   4  11
ATOM     11  C   UNL     1     117.533 125.611 107.757  1.00  0.00     0.062 C 
BRANCH  11  12
ATOM     12  C   UNL     1     117.764 125.926 106.306  1.00  0.00    -0.030 C 
ATOM     13  C   UNL     1     118.555 125.167 105.540  1.00  0.00     0.004 C 
ENDBRANCH  11  12
ENDBRANCH   4  11
TORSDOF 4
ENDMDL
MODEL 9
REMARK VINA RESULT:    -2.696      8.655     10.343
REMARK INTER + INTRA:          -3.614
REMARK INTER:                  -3.245
REMARK INTRA:                  -0.368
REMARK UNBOUND:                -0.287
REMARK SMILES C=CCc1ccc(OC)c(OC)c1
REMARK SMILES IDX 7 1 10 2 13 3 4 4 5 5 6 6 8 7 9 8 11 9 12 10 3 11 2 12 1 13
REMARK H PARENT
REMARK Flexibility Score: inf
ROOT
ATOM      1  C   UNL     1     117.082 109.860 108.253  1.00  0.00     0.160 A 
ATOM      2  C   UNL     1     117.587 108.648 107.756  1.00  0.00     0.160 A 
ATOM      3  C   UNL     1     116.728 107.541 107.614  1.00  0.00     0.054 A 
ATOM      4  C   UNL     1     115.372 107.641 107.959  1.00  0.00    -0.040 A 
ATOM      5  C   UNL     1     114.878 108.851 108.464  1.00  0.00     0.008 A 
ATOM      6  C   UNL     1     115.724 109.953 108.607  1.00  0.00     0.051 A 
ENDROOT
BRANCH   1   7
ATOM      7  O   UNL     1     117.962 110.946 108.382  1.00  0.00    -0.493 OA
ATOM      8  C   UNL     1     118.537 111.375 109.613  1.00  0.00     0.278 C 
ENDBRANCH   1   7
BRANCH   2   9
ATOM      9  O   UNL     1     118.948 108.583 107.416  1.00  0.00    -0.493 OA
ATOM     10  C   UNL     1     119.962 108.027 108.248  1.00  0.00     0.278 C 
ENDBRANCH   2   9
BRANCH   4  11
ATOM     11  C   UNL     1     114.468 106.444 107.832  1.00  0.00     0.062 C 
BRANCH  11  12
ATOM     12  C   UNL     1     114.242 106.098 106.387  1.00  0.00    -0.030 C 
ATOM     13  C   UNL     1     113.519 106.883 105.582  1.00  0.00     0.004 C 
ENDBRANCH  11  12
ENDBRANCH   4  11
TORSDOF 4
ENDMDL
