MODEL 1
REMARK VINA RESULT:    -2.454      0.000      0.000
REMARK INTER + INTRA:          -2.454
REMARK INTER:                  -2.454
REMARK INTRA:                   0.000
REMARK UNBOUND:                 0.000
REMARK SMILES CC(=O)[O-]
REMARK SMILES IDX 1 1 2 2 3 3 4 4
REMARK H PARENT
REMARK Flexibility Score: inf
ROOT
ATOM      1  C   UNL     1       2.581  -5.657  -8.261  1.00  0.00     0.063 C 
ATOM      2  C   UNL     1       1.854  -4.491  -7.683  1.00  0.00     0.038 C 
ATOM      3  O   UNL     1       1.428  -3.576  -8.435  1.00  0.00    -0.550 OA
ATOM      4  O   UNL     1       1.691  -4.384  -6.308  1.00  0.00    -0.550 OA
ENDROOT
TORSDOF 0
ENDMDL
MODEL 2
REMARK VINA RESULT:    -2.420     12.955     13.240
REMARK INTER + INTRA:          -2.420
REMARK INTER:                  -2.420
REMARK INTRA:                   0.000
REMARK UNBOUND:                 0.000
REMARK SMILES CC(=O)[O-]
REMARK SMILES IDX 1 1 2 2 3 3 4 4
REMARK H PARENT
REMARK Flexibility Score: inf
ROOT
ATOM      1  C   UNL     1      -1.277   6.010  -2.129  1.00  0.00     0.063 C 
ATOM      2  C   UNL     1      -0.780   6.347  -0.764  1.00  0.00     0.038 C 
ATOM      3  O   UNL     1      -1.535   6.212   0.234  1.00  0.00    -0.550 OA
ATOM      4  O   UNL     1       0.499   6.862  -0.596  1.00  0.00    -0.550 OA
ENDROOT
TORSDOF 0
ENDMDL
MODEL 3
REMARK VINA RESULT:    -2.323     10.581     10.938
REMARK INTER + INTRA:          -2.323
REMARK INTER:                  -2.323
REMARK INTRA:                   0.000
REMARK UNBOUND:                 0.000
REMARK SMILES CC(=O)[O-]
REMARK SMILES IDX 1 1 2 2 3 3 4 4
REMARK H PARENT
REMARK Flexibility Score: inf
ROOT
ATOM      1  C   UNL     1      -7.932  -4.990  -4.199  1.00  0.00     0.063 C 
ATOM      2  C   UNL     1      -8.236  -3.587  -3.798  1.00  0.00     0.038 C 
ATOM      3  O   UNL     1      -9.251  -3.336  -3.096  1.00  0.00    -0.550 OA
ATOM      4  O   UNL     1      -7.429  -2.546  -4.240  1.00  0.00    -0.550 OA
ENDROOT
TORSDOF 0
ENDMDL
MODEL 4
REMARK VINA RESULT:    -2.309      1.444      2.075
REMARK INTER + INTRA:          -2.309
REMARK INTER:                  -2.309
REMARK INTRA:                   0.000
REMARK UNBOUND:                 0.000
REMARK SMILES CC(=O)[O-]
REMARK SMILES IDX 1 1 2 2 3 3 4 4
REMARK H PARENT
REMARK Flexibility Score: inf
ROOT
ATOM      1  C   UNL     1       1.717  -4.422  -6.421  1.00  0.00     0.063 C 
ATOM      2  C   UNL     1       1.846  -4.538  -7.902  1.00  0.00     0.038 C 
ATOM      3  O   UNL     1       2.362  -5.567  -8.412  1.00  0.00    -0.550 OA
ATOM      4  O   UNL     1       1.447  -3.490  -8.720  1.00  0.00    -0.550 OA
ENDROOT
TORSDOF 0
ENDMDL
MODEL 5
REMARK VINA RESULT:    -2.290     15.368     16.050
REMARK INTER + INTRA:          -2.290
REMARK INTER:                  -2.290
REMARK INTRA:                   0.000
REMARK UNBOUND:                 0.000
REMARK SMILES CC(=O)[O-]
REMARK SMILES IDX 1 1 2 2 3 3 4 4
REMARK H PARENT
REMARK Flexibility Score: inf
ROOT
ATOM      1  C   UNL     1      -4.533  -7.460   7.736  1.00  0.00     0.063 C 
ATOM      2  C   UNL     1      -4.573  -8.118   6.398  1.00  0.00     0.038 C 
ATOM      3  O   UNL     1      -4.940  -9.318   6.295  1.00  0.00    -0.550 OA
ATOM      4  O   UNL     1      -4.154  -7.427   5.269  1.00  0.00    -0.550 OA
ENDROOT
TORSDOF 0
ENDMDL
MODEL 6
REMARK VINA RESULT:    -2.282     10.609     10.912
REMARK INTER + INTRA:          -2.282
REMARK INTER:                  -2.282
REMARK INTRA:                   0.000
REMARK UNBOUND:                 0.000
REMARK SMILES CC(=O)[O-]
REMARK SMILES IDX 1 1 2 2 3 3 4 4
REMARK H PARENT
REMARK Flexibility Score: inf
ROOT
ATOM      1  C   UNL     1      -7.860  -5.024  -4.123  1.00  0.00     0.063 C 
ATOM      2  C   UNL     1      -8.221  -3.617  -3.785  1.00  0.00     0.038 C 
ATOM      3  O   UNL     1      -7.468  -2.671  -4.135  1.00  0.00    -0.550 OA
ATOM      4  O   UNL     1      -9.360  -3.351  -3.036  1.00  0.00    -0.550 OA
ENDROOT
TORSDOF 0
ENDMDL
MODEL 7
REMARK VINA RESULT:    -2.222     12.683     12.980
REMARK INTER + INTRA:          -2.222
REMARK INTER:                  -2.222
REMARK INTRA:                   0.000
REMARK UNBOUND:                 0.000
REMARK SMILES CC(=O)[O-]
REMARK SMILES IDX 1 1 2 2 3 3 4 4
REMARK H PARENT
REMARK Flexibility Score: inf
ROOT
ATOM      1  C   UNL     1      -1.424   5.511  -1.393  1.00  0.00     0.063 C 
ATOM      2  C   UNL     1      -2.745   5.363  -0.718  1.00  0.00     0.038 C 
ATOM      3  O   UNL     1      -3.803   5.339  -1.399  1.00  0.00    -0.550 OA
ATOM      4  O   UNL     1      -2.816   5.305   0.668  1.00  0.00    -0.550 OA
ENDROOT
TORSDOF 0
ENDMDL
MODEL 8
REMARK VINA RESULT:    -2.219     12.678     13.090
REMARK INTER + INTRA:          -2.219
REMARK INTER:                  -2.219
REMARK INTRA:                   0.000
REMARK UNBOUND:                 0.000
REMARK SMILES CC(=O)[O-]
REMARK SMILES IDX 1 1 2 2 3 3 4 4
REMARK H PARENT
REMARK Flexibility Score: inf
ROOT
ATOM      1  C   UNL     1      -3.899   5.514  -1.591  1.00  0.00     0.063 C 
ATOM      2  C   UNL     1      -2.741   5.380  -0.662  1.00  0.00     0.038 C 
ATOM      3  O   UNL     1      -1.590   5.145  -1.117  1.00  0.00    -0.550 OA
ATOM      4  O   UNL     1      -2.936   5.460   0.710  1.00  0.00    -0.550 OA
ENDROOT
TORSDOF 0
ENDMDL
MODEL 9
REMARK VINA RESULT:    -2.199      7.783      8.036
REMARK INTER + INTRA:          -2.199
REMARK INTER:                  -2.199
REMARK INTRA:                   0.000
REMARK UNBOUND:                 0.000
REMARK SMILES CC(=O)[O-]
REMARK SMILES IDX 1 1 2 2 3 3 4 4
REMARK H PARENT
REMARK Flexibility Score: inf
ROOT
ATOM      1  C   UNL     1       9.166  -2.318  -3.376  1.00  0.00     0.063 C 
ATOM      2  C   UNL     1       7.844  -1.639  -3.253  1.00  0.00     0.038 C 
ATOM      3  O   UNL     1       7.760  -0.391  -3.398  1.00  0.00    -0.550 OA
ATOM      4  O   UNL     1       6.711  -2.373  -2.927  1.00  0.00    -0.550 OA
ENDROOT
TORSDOF 0
ENDMDL
