MODEL 1
REMARK VINA RESULT:    -5.325      0.000      0.000
REMARK INTER + INTRA:          -9.259
REMARK INTER:                  -8.283
REMARK INTRA:                  -0.976
REMARK UNBOUND:                -0.976
REMARK SMILES COc1cc(CNC(=O)CCCCC=CC(C)C)ccc1O
REMARK SMILES IDX 11 1 12 2 13 3 14 4 15 5 16 6 17 7 18 8 10 9 8 10 9 11 7 12
REMARK SMILES IDX 6 14 5 15 4 16 19 17 3 18 20 19 21 20 2 21 1 22 22 23
REMARK H PARENT 7 13 22 24
REMARK Flexibility Score: inf
ROOT
ATOM      1  C   UNL     1      -0.068  -2.406  43.065  1.00  0.00     0.010 C 
ENDROOT
BRANCH   1   2
ATOM      2  C   UNL     1       0.973  -3.148  42.205  1.00  0.00     0.005 C 
BRANCH   2   3
ATOM      3  C   UNL     1       0.369  -4.084  41.145  1.00  0.00     0.027 C 
BRANCH   3   4
ATOM      4  C   UNL     1       1.306  -4.273  39.982  1.00  0.00    -0.031 C 
ATOM      5  C   UNL     1       1.184  -3.724  38.754  1.00  0.00    -0.028 C 
BRANCH   5   6
ATOM      6  C   UNL     1       0.149  -2.720  38.273  1.00  0.00     0.005 C 
ATOM      7  C   UNL     1       0.262  -1.370  38.992  1.00  0.00     0.012 C 
ATOM      8  C   UNL     1      -1.286  -3.264  38.264  1.00  0.00     0.012 C 
ENDBRANCH   5   6
ENDBRANCH   3   4
ENDBRANCH   2   3
ENDBRANCH   1   2
BRANCH   1   9
ATOM      9  C   UNL     1       0.492  -1.244  43.909  1.00  0.00     0.100 C 
BRANCH   9  10
ATOM     10  C   UNL     1      -0.046  -1.236  45.313  1.00  0.00     0.220 C 
ATOM     11  O   UNL     1       0.688  -0.832  46.256  1.00  0.00    -0.275 OA
ATOM     12  N   UNL     1      -1.375  -1.705  45.579  1.00  0.00    -0.352 N 
ATOM     13  H   UNL     1      -2.010  -1.900  44.773  1.00  0.00     0.163 HD
BRANCH  12  14
ATOM     14  C   UNL     1      -1.775  -2.209  46.890  1.00  0.00     0.151 C 
BRANCH  14  15
ATOM     15  C   UNL     1      -1.275  -3.617  47.062  1.00  0.00    -0.025 A 
ATOM     16  C   UNL     1      -1.349  -4.530  45.998  1.00  0.00     0.056 A 
ATOM     17  C   UNL     1      -0.826  -4.054  48.316  1.00  0.00     0.009 A 
ATOM     18  C   UNL     1      -0.983  -5.878  46.186  1.00  0.00     0.160 A 
ATOM     19  C   UNL     1      -0.439  -5.383  48.501  1.00  0.00     0.050 A 
ATOM     20  C   UNL     1      -0.520  -6.296  47.442  1.00  0.00     0.157 A 
BRANCH  18  21
ATOM     21  O   UNL     1      -1.078  -6.829  45.159  1.00  0.00    -0.493 OA
ATOM     22  C   UNL     1      -1.298  -6.513  43.789  1.00  0.00     0.278 C 
ENDBRANCH  18  21
BRANCH  20  23
ATOM     23  O   UNL     1      -0.154  -7.628  47.633  1.00  0.00    -0.504 OA
ATOM     24  H   UNL     1       0.804  -7.937  47.511  1.00  0.00     0.293 HD
ENDBRANCH  20  23
ENDBRANCH  14  15
ENDBRANCH  12  14
ENDBRANCH   9  10
ENDBRANCH   1   9
TORSDOF 10
ENDMDL
MODEL 2
REMARK VINA RESULT:    -5.078     19.645     21.545
REMARK INTER + INTRA:          -8.874
REMARK INTER:                  -8.835
REMARK INTRA:                  -0.039
REMARK UNBOUND:                -0.976
REMARK SMILES COc1cc(CNC(=O)CCCCC=CC(C)C)ccc1O
REMARK SMILES IDX 11 1 12 2 13 3 14 4 15 5 16 6 17 7 18 8 10 9 8 10 9 11 7 12
REMARK SMILES IDX 6 14 5 15 4 16 19 17 3 18 20 19 21 20 2 21 1 22 22 23
REMARK H PARENT 7 13 22 24
REMARK Flexibility Score: inf
ROOT
ATOM      1  C   UNL     1      13.991  10.795  52.195  1.00  0.00     0.010 C 
ENDROOT
BRANCH   1   2
ATOM      2  C   UNL     1      13.457  10.935  50.755  1.00  0.00     0.005 C 
BRANCH   2   3
ATOM      3  C   UNL     1      13.415   9.617  49.963  1.00  0.00     0.027 C 
BRANCH   3   4
ATOM      4  C   UNL     1      14.752   8.925  49.979  1.00  0.00    -0.031 C 
ATOM      5  C   UNL     1      15.254   8.125  49.013  1.00  0.00    -0.028 C 
BRANCH   5   6
ATOM      6  C   UNL     1      14.655   7.806  47.652  1.00  0.00     0.005 C 
ATOM      7  C   UNL     1      14.294   6.323  47.503  1.00  0.00     0.012 C 
ATOM      8  C   UNL     1      15.480   8.335  46.471  1.00  0.00     0.012 C 
ENDBRANCH   5   6
ENDBRANCH   3   4
ENDBRANCH   2   3
ENDBRANCH   1   2
BRANCH   1   9
ATOM      9  C   UNL     1      13.633   9.471  52.897  1.00  0.00     0.100 C 
BRANCH   9  10
ATOM     10  C   UNL     1      13.688   9.577  54.396  1.00  0.00     0.220 C 
ATOM     11  O   UNL     1      14.590  10.274  54.936  1.00  0.00    -0.275 OA
ATOM     12  N   UNL     1      12.735   8.873  55.204  1.00  0.00    -0.352 N 
ATOM     13  H   UNL     1      11.917   8.421  54.738  1.00  0.00     0.163 HD
BRANCH  12  14
ATOM     14  C   UNL     1      13.011   8.503  56.590  1.00  0.00     0.151 C 
BRANCH  14  15
ATOM     15  C   UNL     1      14.384   7.897  56.685  1.00  0.00    -0.025 A 
ATOM     16  C   UNL     1      14.699   6.738  55.957  1.00  0.00     0.056 A 
ATOM     17  C   UNL     1      15.326   8.427  57.577  1.00  0.00     0.009 A 
ATOM     18  C   UNL     1      15.947   6.105  56.125  1.00  0.00     0.160 A 
ATOM     19  C   UNL     1      16.573   7.818  57.729  1.00  0.00     0.050 A 
ATOM     20  C   UNL     1      16.884   6.658  57.010  1.00  0.00     0.157 A 
BRANCH  18  21
ATOM     21  O   UNL     1      16.285   4.925  55.445  1.00  0.00    -0.493 OA
ATOM     22  C   UNL     1      16.273   4.782  54.028  1.00  0.00     0.278 C 
ENDBRANCH  18  21
BRANCH  20  23
ATOM     23  O   UNL     1      18.121   6.037  57.178  1.00  0.00    -0.504 OA
ATOM     24  H   UNL     1      18.784   6.356  57.875  1.00  0.00     0.293 HD
ENDBRANCH  20  23
ENDBRANCH  14  15
ENDBRANCH  12  14
ENDBRANCH   9  10
ENDBRANCH   1   9
TORSDOF 10
ENDMDL
MODEL 3
REMARK VINA RESULT:    -5.007      2.187      4.879
REMARK INTER + INTRA:          -8.764
REMARK INTER:                  -8.045
REMARK INTRA:                  -0.719
REMARK UNBOUND:                -0.976
REMARK SMILES COc1cc(CNC(=O)CCCCC=CC(C)C)ccc1O
REMARK SMILES IDX 11 1 12 2 13 3 14 4 15 5 16 6 17 7 18 8 10 9 8 10 9 11 7 12
REMARK SMILES IDX 6 14 5 15 4 16 19 17 3 18 20 19 21 20 2 21 1 22 22 23
REMARK H PARENT 7 13 22 24
REMARK Flexibility Score: inf
ROOT
ATOM      1  C   UNL     1       0.282  -2.890  40.482  1.00  0.00     0.010 C 
ENDROOT
BRANCH   1   2
ATOM      2  C   UNL     1      -0.172  -1.972  41.634  1.00  0.00     0.005 C 
BRANCH   2   3
ATOM      3  C   UNL     1       0.612  -2.162  42.943  1.00  0.00     0.027 C 
BRANCH   3   4
ATOM      4  C   UNL     1      -0.312  -2.431  44.101  1.00  0.00    -0.031 C 
ATOM      5  C   UNL     1      -0.399  -1.715  45.243  1.00  0.00    -0.028 C 
BRANCH   5   6
ATOM      6  C   UNL     1       0.325  -0.427  45.601  1.00  0.00     0.005 C 
ATOM      7  C   UNL     1       0.498   0.505  44.395  1.00  0.00     0.012 C 
ATOM      8  C   UNL     1       1.635  -0.644  46.371  1.00  0.00     0.012 C 
ENDBRANCH   5   6
ENDBRANCH   3   4
ENDBRANCH   2   3
ENDBRANCH   1   2
BRANCH   1   9
ATOM      9  C   UNL     1       0.615  -4.337  40.894  1.00  0.00     0.100 C 
BRANCH   9  10
ATOM     10  C   UNL     1      -0.595  -5.102  41.354  1.00  0.00     0.220 C 
ATOM     11  O   UNL     1      -1.604  -5.179  40.601  1.00  0.00    -0.275 OA
ATOM     12  N   UNL     1      -0.608  -5.719  42.649  1.00  0.00    -0.352 N 
ATOM     13  H   UNL     1       0.282  -5.764  43.194  1.00  0.00     0.163 HD
BRANCH  12  14
ATOM     14  C   UNL     1      -1.850  -6.010  43.361  1.00  0.00     0.151 C 
BRANCH  14  15
ATOM     15  C   UNL     1      -1.532  -6.590  44.711  1.00  0.00    -0.025 A 
ATOM     16  C   UNL     1      -0.965  -5.785  45.712  1.00  0.00     0.056 A 
ATOM     17  C   UNL     1      -1.706  -7.961  44.945  1.00  0.00     0.009 A 
ATOM     18  C   UNL     1      -0.566  -6.348  46.941  1.00  0.00     0.160 A 
ATOM     19  C   UNL     1      -1.334  -8.519  46.170  1.00  0.00     0.050 A 
ATOM     20  C   UNL     1      -0.762  -7.718  47.166  1.00  0.00     0.157 A 
BRANCH  18  21
ATOM     21  O   UNL     1       0.038  -5.585  47.952  1.00  0.00    -0.493 OA
ATOM     22  C   UNL     1      -0.676  -4.887  48.968  1.00  0.00     0.278 C 
ENDBRANCH  18  21
BRANCH  20  23
ATOM     23  O   UNL     1      -0.371  -8.279  48.381  1.00  0.00    -0.504 OA
ATOM     24  H   UNL     1       0.420  -8.911  48.443  1.00  0.00     0.293 HD
ENDBRANCH  20  23
ENDBRANCH  14  15
ENDBRANCH  12  14
ENDBRANCH   9  10
ENDBRANCH   1   9
TORSDOF 10
ENDMDL
MODEL 4
REMARK VINA RESULT:    -4.996      2.906      7.185
REMARK INTER + INTRA:          -8.747
REMARK INTER:                  -7.483
REMARK INTRA:                  -1.265
REMARK UNBOUND:                -0.976
REMARK SMILES COc1cc(CNC(=O)CCCCC=CC(C)C)ccc1O
REMARK SMILES IDX 11 1 12 2 13 3 14 4 15 5 16 6 17 7 18 8 10 9 8 10 9 11 7 12
REMARK SMILES IDX 6 14 5 15 4 16 19 17 3 18 20 19 21 20 2 21 1 22 22 23
REMARK H PARENT 7 13 22 24
REMARK Flexibility Score: inf
ROOT
ATOM      1  C   UNL     1      -1.141  -4.571  45.096  1.00  0.00     0.010 C 
ENDROOT
BRANCH   1   2
ATOM      2  C   UNL     1      -2.008  -3.890  46.173  1.00  0.00     0.005 C 
BRANCH   2   3
ATOM      3  C   UNL     1      -1.256  -2.870  47.043  1.00  0.00     0.027 C 
BRANCH   3   4
ATOM      4  C   UNL     1      -1.601  -1.457  46.653  1.00  0.00    -0.031 C 
ATOM      5  C   UNL     1      -0.817  -0.600  45.963  1.00  0.00    -0.028 C 
BRANCH   5   6
ATOM      6  C   UNL     1       0.541  -0.867  45.334  1.00  0.00     0.005 C 
ATOM      7  C   UNL     1       1.541   0.266  45.592  1.00  0.00     0.012 C 
ATOM      8  C   UNL     1       0.472  -1.268  43.854  1.00  0.00     0.012 C 
ENDBRANCH   5   6
ENDBRANCH   3   4
ENDBRANCH   2   3
ENDBRANCH   1   2
BRANCH   1   9
ATOM      9  C   UNL     1      -1.313  -6.099  44.990  1.00  0.00     0.100 C 
BRANCH   9  10
ATOM     10  C   UNL     1      -1.385  -6.575  43.565  1.00  0.00     0.220 C 
ATOM     11  O   UNL     1      -1.098  -7.774  43.297  1.00  0.00    -0.275 OA
ATOM     12  N   UNL     1      -1.757  -5.667  42.519  1.00  0.00    -0.352 N 
ATOM     13  H   UNL     1      -2.124  -4.724  42.779  1.00  0.00     0.163 HD
BRANCH  12  14
ATOM     14  C   UNL     1      -1.363  -5.877  41.129  1.00  0.00     0.151 C 
BRANCH  14  15
ATOM     15  C   UNL     1      -0.955  -4.565  40.517  1.00  0.00    -0.025 A 
ATOM     16  C   UNL     1       0.104  -4.511  39.597  1.00  0.00     0.056 A 
ATOM     17  C   UNL     1      -1.564  -3.375  40.938  1.00  0.00     0.009 A 
ATOM     18  C   UNL     1       0.560  -3.272  39.103  1.00  0.00     0.160 A 
ATOM     19  C   UNL     1      -1.132  -2.147  40.433  1.00  0.00     0.050 A 
ATOM     20  C   UNL     1      -0.070  -2.092  39.522  1.00  0.00     0.157 A 
BRANCH  18  21
ATOM     21  O   UNL     1       1.639  -3.174  38.211  1.00  0.00    -0.493 OA
ATOM     22  C   UNL     1       2.505  -4.252  37.875  1.00  0.00     0.278 C 
ENDBRANCH  18  21
BRANCH  20  23
ATOM     23  O   UNL     1       0.375  -0.864  39.034  1.00  0.00    -0.504 OA
ATOM     24  H   UNL     1      -0.261  -0.086  38.896  1.00  0.00     0.293 HD
ENDBRANCH  20  23
ENDBRANCH  14  15
ENDBRANCH  12  14
ENDBRANCH   9  10
ENDBRANCH   1   9
TORSDOF 10
ENDMDL
MODEL 5
REMARK VINA RESULT:    -4.869      2.516      6.134
REMARK INTER + INTRA:          -8.549
REMARK INTER:                  -7.208
REMARK INTRA:                  -1.341
REMARK UNBOUND:                -0.976
REMARK SMILES COc1cc(CNC(=O)CCCCC=CC(C)C)ccc1O
REMARK SMILES IDX 11 1 12 2 13 3 14 4 15 5 16 6 17 7 18 8 10 9 8 10 9 11 7 12
REMARK SMILES IDX 6 14 5 15 4 16 19 17 3 18 20 19 21 20 2 21 1 22 22 23
REMARK H PARENT 7 13 22 24
REMARK Flexibility Score: inf
ROOT
ATOM      1  C   UNL     1      -0.645  -4.193  47.549  1.00  0.00     0.010 C 
ENDROOT
BRANCH   1   2
ATOM      2  C   UNL     1      -1.731  -3.168  47.933  1.00  0.00     0.005 C 
BRANCH   2   3
ATOM      3  C   UNL     1      -1.980  -2.081  46.874  1.00  0.00     0.027 C 
BRANCH   3   4
ATOM      4  C   UNL     1      -1.212  -2.361  45.610  1.00  0.00    -0.031 C 
ATOM      5  C   UNL     1      -0.242  -1.590  45.072  1.00  0.00    -0.028 C 
BRANCH   5   6
ATOM      6  C   UNL     1       0.375  -0.323  45.642  1.00  0.00     0.005 C 
ATOM      7  C   UNL     1       0.560   0.769  44.582  1.00  0.00     0.012 C 
ATOM      8  C   UNL     1       1.647  -0.568  46.466  1.00  0.00     0.012 C 
ENDBRANCH   5   6
ENDBRANCH   3   4
ENDBRANCH   2   3
ENDBRANCH   1   2
BRANCH   1   9
ATOM      9  C   UNL     1      -0.599  -5.455  48.433  1.00  0.00     0.100 C 
BRANCH   9  10
ATOM     10  C   UNL     1      -0.960  -6.704  47.677  1.00  0.00     0.220 C 
ATOM     11  O   UNL     1      -0.637  -7.829  48.147  1.00  0.00    -0.275 OA
ATOM     12  N   UNL     1      -1.647  -6.613  46.421  1.00  0.00    -0.352 N 
ATOM     13  H   UNL     1      -2.028  -5.688  46.122  1.00  0.00     0.163 HD
BRANCH  12  14
ATOM     14  C   UNL     1      -1.573  -7.669  45.415  1.00  0.00     0.151 C 
BRANCH  14  15
ATOM     15  C   UNL     1      -1.448  -7.054  44.048  1.00  0.00    -0.025 A 
ATOM     16  C   UNL     1      -0.994  -5.734  43.904  1.00  0.00     0.056 A 
ATOM     17  C   UNL     1      -1.881  -7.762  42.918  1.00  0.00     0.009 A 
ATOM     18  C   UNL     1      -0.978  -5.117  42.637  1.00  0.00     0.160 A 
ATOM     19  C   UNL     1      -1.844  -7.163  41.657  1.00  0.00     0.050 A 
ATOM     20  C   UNL     1      -1.398  -5.844  41.514  1.00  0.00     0.157 A 
BRANCH  18  21
ATOM     21  O   UNL     1      -0.566  -3.788  42.457  1.00  0.00    -0.493 OA
ATOM     22  C   UNL     1       0.759  -3.396  42.115  1.00  0.00     0.278 C 
ENDBRANCH  18  21
BRANCH  20  23
ATOM     23  O   UNL     1      -1.382  -5.239  40.257  1.00  0.00    -0.504 OA
ATOM     24  H   UNL     1      -0.586  -5.331  39.635  1.00  0.00     0.293 HD
ENDBRANCH  20  23
ENDBRANCH  14  15
ENDBRANCH  12  14
ENDBRANCH   9  10
ENDBRANCH   1   9
TORSDOF 10
ENDMDL
MODEL 6
REMARK VINA RESULT:    -4.633      1.458      2.625
REMARK INTER + INTRA:          -8.182
REMARK INTER:                  -6.992
REMARK INTRA:                  -1.190
REMARK UNBOUND:                -0.976
REMARK SMILES COc1cc(CNC(=O)CCCCC=CC(C)C)ccc1O
REMARK SMILES IDX 11 1 12 2 13 3 14 4 15 5 16 6 17 7 18 8 10 9 8 10 9 11 7 12
REMARK SMILES IDX 6 14 5 15 4 16 19 17 3 18 20 19 21 20 2 21 1 22 22 23
REMARK H PARENT 7 13 22 24
REMARK Flexibility Score: inf
ROOT
ATOM      1  C   UNL     1       0.911  -0.624  44.663  1.00  0.00     0.010 C 
ENDROOT
BRANCH   1   2
ATOM      2  C   UNL     1       0.309  -1.151  43.345  1.00  0.00     0.005 C 
BRANCH   2   3
ATOM      3  C   UNL     1       0.749  -2.576  42.971  1.00  0.00     0.027 C 
BRANCH   3   4
ATOM      4  C   UNL     1      -0.357  -3.328  42.281  1.00  0.00    -0.031 C 
ATOM      5  C   UNL     1      -0.543  -3.440  40.948  1.00  0.00    -0.028 C 
BRANCH   5   6
ATOM      6  C   UNL     1       0.351  -2.929  39.829  1.00  0.00     0.005 C 
ATOM      7  C   UNL     1      -0.072  -1.544  39.325  1.00  0.00     0.012 C 
ATOM      8  C   UNL     1       0.555  -3.935  38.688  1.00  0.00     0.012 C 
ENDBRANCH   5   6
ENDBRANCH   3   4
ENDBRANCH   2   3
ENDBRANCH   1   2
BRANCH   1   9
ATOM      9  C   UNL     1      -0.111  -0.356  45.785  1.00  0.00     0.100 C 
BRANCH   9  10
ATOM     10  C   UNL     1      -0.891  -1.585  46.163  1.00  0.00     0.220 C 
ATOM     11  O   UNL     1      -2.125  -1.639  45.907  1.00  0.00    -0.275 OA
ATOM     12  N   UNL     1      -0.240  -2.675  46.830  1.00  0.00    -0.352 N 
ATOM     13  H   UNL     1       0.802  -2.669  46.905  1.00  0.00     0.163 HD
BRANCH  12  14
ATOM     14  C   UNL     1      -0.971  -3.625  47.665  1.00  0.00     0.151 C 
BRANCH  14  15
ATOM     15  C   UNL     1      -1.176  -4.908  46.906  1.00  0.00    -0.025 A 
ATOM     16  C   UNL     1      -1.336  -6.120  47.595  1.00  0.00     0.056 A 
ATOM     17  C   UNL     1      -1.109  -4.914  45.506  1.00  0.00     0.009 A 
ATOM     18  C   UNL     1      -1.421  -7.338  46.891  1.00  0.00     0.160 A 
ATOM     19  C   UNL     1      -1.216  -6.115  44.802  1.00  0.00     0.050 A 
ATOM     20  C   UNL     1      -1.368  -7.325  45.489  1.00  0.00     0.157 A 
BRANCH  18  21
ATOM     21  O   UNL     1      -1.543  -8.573  47.544  1.00  0.00    -0.493 OA
ATOM     22  C   UNL     1      -0.667  -9.032  48.567  1.00  0.00     0.278 C 
ENDBRANCH  18  21
BRANCH  20  23
ATOM     23  O   UNL     1      -1.454  -8.527  44.787  1.00  0.00    -0.504 OA
ATOM     24  H   UNL     1      -1.434  -9.422  45.263  1.00  0.00     0.293 HD
ENDBRANCH  20  23
ENDBRANCH  14  15
ENDBRANCH  12  14
ENDBRANCH   9  10
ENDBRANCH   1   9
TORSDOF 10
ENDMDL
MODEL 7
REMARK VINA RESULT:    -4.576      2.611      6.329
REMARK INTER + INTRA:          -8.094
REMARK INTER:                  -6.662
REMARK INTRA:                  -1.432
REMARK UNBOUND:                -0.976
REMARK SMILES COc1cc(CNC(=O)CCCCC=CC(C)C)ccc1O
REMARK SMILES IDX 11 1 12 2 13 3 14 4 15 5 16 6 17 7 18 8 10 9 8 10 9 11 7 12
REMARK SMILES IDX 6 14 5 15 4 16 19 17 3 18 20 19 21 20 2 21 1 22 22 23
REMARK H PARENT 7 13 22 24
REMARK Flexibility Score: inf
ROOT
ATOM      1  C   UNL     1      -1.150  -2.835  47.601  1.00  0.00     0.010 C 
ENDROOT
BRANCH   1   2
ATOM      2  C   UNL     1      -1.356  -4.359  47.707  1.00  0.00     0.005 C 
BRANCH   2   3
ATOM      3  C   UNL     1      -0.690  -5.169  46.583  1.00  0.00     0.027 C 
BRANCH   3   4
ATOM      4  C   UNL     1      -1.545  -6.336  46.167  1.00  0.00    -0.031 C 
ATOM      5  C   UNL     1      -1.825  -6.717  44.902  1.00  0.00    -0.028 C 
BRANCH   5   6
ATOM      6  C   UNL     1      -1.282  -6.137  43.605  1.00  0.00     0.005 C 
ATOM      7  C   UNL     1      -2.125  -4.965  43.088  1.00  0.00     0.012 C 
ATOM      8  C   UNL     1      -1.007  -7.189  42.522  1.00  0.00     0.012 C 
ENDBRANCH   5   6
ENDBRANCH   3   4
ENDBRANCH   2   3
ENDBRANCH   1   2
BRANCH   1   9
ATOM      9  C   UNL     1      -1.616  -2.204  46.274  1.00  0.00     0.100 C 
BRANCH   9  10
ATOM     10  C   UNL     1      -0.472  -1.682  45.449  1.00  0.00     0.220 C 
ATOM     11  O   UNL     1       0.236  -0.739  45.896  1.00  0.00    -0.275 OA
ATOM     12  N   UNL     1      -0.205  -2.238  44.154  1.00  0.00    -0.352 N 
ATOM     13  H   UNL     1      -0.710  -3.105  43.865  1.00  0.00     0.163 HD
BRANCH  12  14
ATOM     14  C   UNL     1       0.499  -1.490  43.115  1.00  0.00     0.151 C 
BRANCH  14  15
ATOM     15  C   UNL     1       0.433  -2.247  41.817  1.00  0.00    -0.025 A 
ATOM     16  C   UNL     1      -0.248  -1.706  40.716  1.00  0.00     0.056 A 
ATOM     17  C   UNL     1       0.965  -3.541  41.731  1.00  0.00     0.009 A 
ATOM     18  C   UNL     1      -0.406  -2.456  39.533  1.00  0.00     0.160 A 
ATOM     19  C   UNL     1       0.833  -4.279  40.553  1.00  0.00     0.050 A 
ATOM     20  C   UNL     1       0.146  -3.743  39.457  1.00  0.00     0.157 A 
BRANCH  18  21
ATOM     21  O   UNL     1      -1.112  -1.965  38.425  1.00  0.00    -0.493 OA
ATOM     22  C   UNL     1      -1.910  -0.786  38.437  1.00  0.00     0.278 C 
ENDBRANCH  18  21
BRANCH  20  23
ATOM     23  O   UNL     1      -0.005  -4.488  38.289  1.00  0.00    -0.504 OA
ATOM     24  H   UNL     1      -0.873  -4.484  37.765  1.00  0.00     0.293 HD
ENDBRANCH  20  23
ENDBRANCH  14  15
ENDBRANCH  12  14
ENDBRANCH   9  10
ENDBRANCH   1   9
TORSDOF 10
ENDMDL
MODEL 8
REMARK VINA RESULT:    -4.567      2.467      4.962
REMARK INTER + INTRA:          -8.080
REMARK INTER:                  -7.429
REMARK INTRA:                  -0.651
REMARK UNBOUND:                -0.976
REMARK SMILES COc1cc(CNC(=O)CCCCC=CC(C)C)ccc1O
REMARK SMILES IDX 11 1 12 2 13 3 14 4 15 5 16 6 17 7 18 8 10 9 8 10 9 11 7 12
REMARK SMILES IDX 6 14 5 15 4 16 19 17 3 18 20 19 21 20 2 21 1 22 22 23
REMARK H PARENT 7 13 22 24
REMARK Flexibility Score: inf
ROOT
ATOM      1  C   UNL     1       0.468  -3.975  41.803  1.00  0.00     0.010 C 
ENDROOT
BRANCH   1   2
ATOM      2  C   UNL     1       0.027  -2.499  41.734  1.00  0.00     0.005 C 
BRANCH   2   3
ATOM      3  C   UNL     1       0.550  -1.625  42.885  1.00  0.00     0.027 C 
BRANCH   3   4
ATOM      4  C   UNL     1      -0.112  -1.982  44.189  1.00  0.00    -0.031 C 
ATOM      5  C   UNL     1      -0.017  -1.300  45.351  1.00  0.00    -0.028 C 
BRANCH   5   6
ATOM      6  C   UNL     1       0.686   0.023  45.609  1.00  0.00     0.005 C 
ATOM      7  C   UNL     1       0.593   0.981  44.415  1.00  0.00     0.012 C 
ATOM      8  C   UNL     1       2.121  -0.128  46.134  1.00  0.00     0.012 C 
ENDBRANCH   5   6
ENDBRANCH   3   4
ENDBRANCH   2   3
ENDBRANCH   1   2
BRANCH   1   9
ATOM      9  C   UNL     1      -0.406  -4.955  40.997  1.00  0.00     0.100 C 
BRANCH   9  10
ATOM     10  C   UNL     1      -1.019  -6.026  41.857  1.00  0.00     0.220 C 
ATOM     11  O   UNL     1      -1.744  -6.909  41.325  1.00  0.00    -0.275 OA
ATOM     12  N   UNL     1      -0.796  -6.027  43.274  1.00  0.00    -0.352 N 
ATOM     13  H   UNL     1      -0.083  -5.375  43.672  1.00  0.00     0.163 HD
BRANCH  12  14
ATOM     14  C   UNL     1      -1.720  -6.665  44.207  1.00  0.00     0.151 C 
BRANCH  14  15
ATOM     15  C   UNL     1      -1.399  -6.230  45.611  1.00  0.00    -0.025 A 
ATOM     16  C   UNL     1      -1.594  -7.110  46.687  1.00  0.00     0.056 A 
ATOM     17  C   UNL     1      -0.998  -4.911  45.863  1.00  0.00     0.009 A 
ATOM     18  C   UNL     1      -1.398  -6.673  48.013  1.00  0.00     0.160 A 
ATOM     19  C   UNL     1      -0.779  -4.480  47.173  1.00  0.00     0.050 A 
ATOM     20  C   UNL     1      -0.981  -5.355  48.247  1.00  0.00     0.157 A 
BRANCH  18  21
ATOM     21  O   UNL     1      -1.619  -7.511  49.117  1.00  0.00    -0.493 OA
ATOM     22  C   UNL     1      -1.418  -8.920  49.110  1.00  0.00     0.278 C 
ENDBRANCH  18  21
BRANCH  20  23
ATOM     23  O   UNL     1      -0.784  -4.918  49.556  1.00  0.00    -0.504 OA
ATOM     24  H   UNL     1      -1.547  -4.876  50.222  1.00  0.00     0.293 HD
ENDBRANCH  20  23
ENDBRANCH  14  15
ENDBRANCH  12  14
ENDBRANCH   9  10
ENDBRANCH   1   9
TORSDOF 10
ENDMDL
MODEL 9
REMARK VINA RESULT:    -4.380      2.249      3.390
REMARK INTER + INTRA:          -7.789
REMARK INTER:                  -7.109
REMARK INTRA:                  -0.680
REMARK UNBOUND:                -0.976
REMARK SMILES COc1cc(CNC(=O)CCCCC=CC(C)C)ccc1O
REMARK SMILES IDX 11 1 12 2 13 3 14 4 15 5 16 6 17 7 18 8 10 9 8 10 9 11 7 12
REMARK SMILES IDX 6 14 5 15 4 16 19 17 3 18 20 19 21 20 2 21 1 22 22 23
REMARK H PARENT 7 13 22 24
REMARK Flexibility Score: inf
ROOT
ATOM      1  C   UNL     1       0.819  -3.079  41.531  1.00  0.00     0.010 C 
ENDROOT
BRANCH   1   2
ATOM      2  C   UNL     1       0.927  -4.221  40.501  1.00  0.00     0.005 C 
BRANCH   2   3
ATOM      3  C   UNL     1       0.225  -3.938  39.163  1.00  0.00     0.027 C 
BRANCH   3   4
ATOM      4  C   UNL     1       1.049  -3.024  38.294  1.00  0.00    -0.031 C 
ATOM      5  C   UNL     1       0.716  -1.776  37.899  1.00  0.00    -0.028 C 
BRANCH   5   6
ATOM      6  C   UNL     1      -0.500  -0.956  38.300  1.00  0.00     0.005 C 
ATOM      7  C   UNL     1      -0.408  -0.436  39.740  1.00  0.00     0.012 C 
ATOM      8  C   UNL     1      -1.839  -1.647  38.006  1.00  0.00     0.012 C 
ENDBRANCH   5   6
ENDBRANCH   3   4
ENDBRANCH   2   3
ENDBRANCH   1   2
BRANCH   1   9
ATOM      9  C   UNL     1       0.306  -3.502  42.921  1.00  0.00     0.100 C 
BRANCH   9  10
ATOM     10  C   UNL     1      -0.878  -4.426  42.845  1.00  0.00     0.220 C 
ATOM     11  O   UNL     1      -2.015  -3.956  42.571  1.00  0.00    -0.275 OA
ATOM     12  N   UNL     1      -0.715  -5.827  43.104  1.00  0.00    -0.352 N 
ATOM     13  H   UNL     1       0.251  -6.215  43.189  1.00  0.00     0.163 HD
BRANCH  12  14
ATOM     14  C   UNL     1      -1.821  -6.669  43.554  1.00  0.00     0.151 C 
BRANCH  14  15
ATOM     15  C   UNL     1      -1.511  -7.221  44.918  1.00  0.00    -0.025 A 
ATOM     16  C   UNL     1      -1.179  -6.356  45.973  1.00  0.00     0.056 A 
ATOM     17  C   UNL     1      -1.454  -8.607  45.119  1.00  0.00     0.009 A 
ATOM     18  C   UNL     1      -0.783  -6.872  47.223  1.00  0.00     0.160 A 
ATOM     19  C   UNL     1      -1.085  -9.123  46.363  1.00  0.00     0.050 A 
ATOM     20  C   UNL     1      -0.746  -8.261  47.413  1.00  0.00     0.157 A 
BRANCH  18  21
ATOM     21  O   UNL     1      -0.407  -6.042  48.290  1.00  0.00    -0.493 OA
ATOM     22  C   UNL     1      -0.687  -4.648  48.362  1.00  0.00     0.278 C 
ENDBRANCH  18  21
BRANCH  20  23
ATOM     23  O   UNL     1      -0.358  -8.777  48.649  1.00  0.00    -0.504 OA
ATOM     24  H   UNL     1       0.042  -8.185  49.368  1.00  0.00     0.293 HD
ENDBRANCH  20  23
ENDBRANCH  14  15
ENDBRANCH  12  14
ENDBRANCH   9  10
ENDBRANCH   1   9
TORSDOF 10
ENDMDL
