MODEL 1
REMARK VINA RESULT:    -5.148      0.000      0.000
REMARK INTER + INTRA:          -6.510
REMARK INTER:                  -6.201
REMARK INTRA:                  -0.309
REMARK UNBOUND:                -0.309
REMARK SMILES O=c1c(O)c(-c2ccc(O)c(O)c2)oc2cc(O)cc(O)c12
REMARK SMILES IDX 5 1 3 2 2 3 1 4 22 5 20 6 19 7 17 8 16 9 15 10 14 11 6 12
REMARK SMILES IDX 7 13 8 14 9 15 13 16 11 17 10 18 12 20 4 22 21 24 18 26
REMARK H PARENT 10 19 12 21 4 23 21 25 18 27
REMARK Flexibility Score: inf
ROOT
ATOM      1  C   UNL     1     111.812 106.083  94.557  1.00  0.00     0.180 A 
ATOM      2  C   UNL     1     113.217 106.099  94.516  1.00  0.00     0.208 A 
ATOM      3  C   UNL     1     113.869 105.670  93.348  1.00  0.00     0.238 A 
ATOM      4  O   UNL     1     115.125 105.739  93.297  1.00  0.00    -0.285 OA
ATOM      5  C   UNL     1     113.109 105.215  92.243  1.00  0.00     0.111 A 
ATOM      6  C   UNL     1     113.665 104.721  91.026  1.00  0.00     0.134 A 
ATOM      7  C   UNL     1     112.818 104.421  89.951  1.00  0.00     0.093 A 
ATOM      8  C   UNL     1     111.434 104.534  90.072  1.00  0.00     0.123 A 
ATOM      9  C   UNL     1     110.875 104.960  91.278  1.00  0.00     0.094 A 
ATOM     10  C   UNL     1     111.696 105.301  92.356  1.00  0.00     0.146 A 
ATOM     11  O   UNL     1     111.126 105.712  93.482  1.00  0.00    -0.452 OA
ENDROOT
BRANCH   1  12
ATOM     12  C   UNL     1     111.055 106.496  95.761  1.00  0.00     0.025 A 
ATOM     13  C   UNL     1     110.560 107.804  95.900  1.00  0.00     0.016 A 
ATOM     14  C   UNL     1     109.869 108.178  97.056  1.00  0.00     0.051 A 
ATOM     15  C   UNL     1     109.675 107.257  98.093  1.00  0.00     0.157 A 
ATOM     16  C   UNL     1     110.876 105.582  96.812  1.00  0.00     0.062 A 
ATOM     17  C   UNL     1     110.182 105.957  97.972  1.00  0.00     0.158 A 
BRANCH  15  18
ATOM     18  O   UNL     1     108.985 107.626  99.247  1.00  0.00    -0.504 OA
ATOM     19  H   UNL     1     109.445 108.113 100.007  1.00  0.00     0.293 HD
ENDBRANCH  15  18
BRANCH  17  20
ATOM     20  O   UNL     1     109.995 105.044  99.009  1.00  0.00    -0.504 OA
ATOM     21  H   UNL     1     109.088 104.914  99.443  1.00  0.00     0.293 HD
ENDBRANCH  17  20
ENDBRANCH   1  12
BRANCH   2  22
ATOM     22  O   UNL     1     113.947 106.572  95.609  1.00  0.00    -0.502 OA
ATOM     23  H   UNL     1     113.595 107.295  96.226  1.00  0.00     0.293 HD
ENDBRANCH   2  22
BRANCH   6  24
ATOM     24  O   UNL     1     115.028 104.483  90.831  1.00  0.00    -0.507 OA
ATOM     25  H   UNL     1     115.410 103.666  90.377  1.00  0.00     0.293 HD
ENDBRANCH   6  24
BRANCH   8  26
ATOM     26  O   UNL     1     110.621 104.211  88.988  1.00  0.00    -0.508 OA
ATOM     27  H   UNL     1     109.627 104.044  89.102  1.00  0.00     0.293 HD
ENDBRANCH   8  26
TORSDOF 6
ENDMDL
MODEL 2
REMARK VINA RESULT:    -5.001      1.296      2.911
REMARK INTER + INTRA:          -6.334
REMARK INTER:                  -6.020
REMARK INTRA:                  -0.314
REMARK UNBOUND:                -0.309
REMARK SMILES O=c1c(O)c(-c2ccc(O)c(O)c2)oc2cc(O)cc(O)c12
REMARK SMILES IDX 5 1 3 2 2 3 1 4 22 5 20 6 19 7 17 8 16 9 15 10 14 11 6 12
REMARK SMILES IDX 7 13 8 14 9 15 13 16 11 17 10 18 12 20 4 22 21 24 18 26
REMARK H PARENT 10 19 12 21 4 23 21 25 18 27
REMARK Flexibility Score: inf
ROOT
ATOM      1  C   UNL     1     110.990 105.887  93.714  1.00  0.00     0.180 A 
ATOM      2  C   UNL     1     110.023 105.333  92.858  1.00  0.00     0.208 A 
ATOM      3  C   UNL     1     110.427 104.820  91.614  1.00  0.00     0.238 A 
ATOM      4  O   UNL     1     109.565 104.276  90.876  1.00  0.00    -0.285 OA
ATOM      5  C   UNL     1     111.790 104.883  91.236  1.00  0.00     0.111 A 
ATOM      6  C   UNL     1     112.305 104.431  89.984  1.00  0.00     0.134 A 
ATOM      7  C   UNL     1     113.689 104.423  89.770  1.00  0.00     0.093 A 
ATOM      8  C   UNL     1     114.570 104.910  90.733  1.00  0.00     0.123 A 
ATOM      9  C   UNL     1     114.074 105.410  91.938  1.00  0.00     0.094 A 
ATOM     10  C   UNL     1     112.701 105.398  92.196  1.00  0.00     0.146 A 
ATOM     11  O   UNL     1     112.270 105.872  93.358  1.00  0.00    -0.452 OA
ENDROOT
BRANCH   1  12
ATOM     12  C   UNL     1     110.638 106.470  95.029  1.00  0.00     0.025 A 
ATOM     13  C   UNL     1     110.436 107.852  95.187  1.00  0.00     0.016 A 
ATOM     14  C   UNL     1     110.128 108.383  96.442  1.00  0.00     0.051 A 
ATOM     15  C   UNL     1     110.030 107.543  97.559  1.00  0.00     0.157 A 
ATOM     16  C   UNL     1     110.559 105.635  96.156  1.00  0.00     0.062 A 
ATOM     17  C   UNL     1     110.249 106.167  97.416  1.00  0.00     0.158 A 
BRANCH  15  18
ATOM     18  O   UNL     1     109.722 108.068  98.813  1.00  0.00    -0.504 OA
ATOM     19  H   UNL     1     108.884 108.617  98.966  1.00  0.00     0.293 HD
ENDBRANCH  15  18
BRANCH  17  20
ATOM     20  O   UNL     1     110.159 105.335  98.531  1.00  0.00    -0.504 OA
ATOM     21  H   UNL     1     109.318 104.805  98.730  1.00  0.00     0.293 HD
ENDBRANCH  17  20
ENDBRANCH   1  12
BRANCH   2  22
ATOM     22  O   UNL     1     108.687 105.261  93.261  1.00  0.00    -0.502 OA
ATOM     23  H   UNL     1     107.930 105.641  92.704  1.00  0.00     0.293 HD
ENDBRANCH   2  22
BRANCH   6  24
ATOM     24  O   UNL     1     111.505 104.010  88.918  1.00  0.00    -0.507 OA
ATOM     25  H   UNL     1     111.729 104.143  87.943  1.00  0.00     0.293 HD
ENDBRANCH   6  24
BRANCH   8  26
ATOM     26  O   UNL     1     115.940 104.901  90.479  1.00  0.00    -0.508 OA
ATOM     27  H   UNL     1     116.472 105.761  90.412  1.00  0.00     0.293 HD
ENDBRANCH   8  26
TORSDOF 6
ENDMDL
MODEL 3
REMARK VINA RESULT:    -4.915      1.550      7.119
REMARK INTER + INTRA:          -6.229
REMARK INTER:                  -5.895
REMARK INTRA:                  -0.334
REMARK UNBOUND:                -0.309
REMARK SMILES O=c1c(O)c(-c2ccc(O)c(O)c2)oc2cc(O)cc(O)c12
REMARK SMILES IDX 5 1 3 2 2 3 1 4 22 5 20 6 19 7 17 8 16 9 15 10 14 11 6 12
REMARK SMILES IDX 7 13 8 14 9 15 13 16 11 17 10 18 12 20 4 22 21 24 18 26
REMARK H PARENT 10 19 12 21 4 23 21 25 18 27
REMARK Flexibility Score: inf
ROOT
ATOM      1  C   UNL     1     110.743 106.080  94.765  1.00  0.00     0.180 A 
ATOM      2  C   UNL     1     110.611 107.460  94.998  1.00  0.00     0.208 A 
ATOM      3  C   UNL     1     110.378 107.910  96.308  1.00  0.00     0.238 A 
ATOM      4  O   UNL     1     110.315 109.149  96.519  1.00  0.00    -0.285 OA
ATOM      5  C   UNL     1     110.265 106.974  97.365  1.00  0.00     0.111 A 
ATOM      6  C   UNL     1     109.991 107.316  98.723  1.00  0.00     0.134 A 
ATOM      7  C   UNL     1     110.031 106.320  99.707  1.00  0.00     0.093 A 
ATOM      8  C   UNL     1     110.269 104.987  99.374  1.00  0.00     0.123 A 
ATOM      9  C   UNL     1     110.480 104.633  98.041  1.00  0.00     0.094 A 
ATOM     10  C   UNL     1     110.482 105.609  97.041  1.00  0.00     0.146 A 
ATOM     11  O   UNL     1     110.697 105.232  95.787  1.00  0.00    -0.452 OA
ENDROOT
BRANCH   1  12
ATOM     12  C   UNL     1     110.964 105.527  93.409  1.00  0.00     0.025 A 
ATOM     13  C   UNL     1     109.886 105.201  92.567  1.00  0.00     0.016 A 
ATOM     14  C   UNL     1     110.118 104.658  91.301  1.00  0.00     0.051 A 
ATOM     15  C   UNL     1     111.427 104.421  90.862  1.00  0.00     0.157 A 
ATOM     16  C   UNL     1     112.274 105.268  92.973  1.00  0.00     0.062 A 
ATOM     17  C   UNL     1     112.507 104.723  91.702  1.00  0.00     0.158 A 
BRANCH  15  18
ATOM     18  O   UNL     1     111.663 103.881  89.599  1.00  0.00    -0.504 OA
ATOM     19  H   UNL     1     111.137 103.086  89.256  1.00  0.00     0.293 HD
ENDBRANCH  15  18
BRANCH  17  20
ATOM     20  O   UNL     1     113.809 104.479  91.266  1.00  0.00    -0.504 OA
ATOM     21  H   UNL     1     114.119 103.546  91.021  1.00  0.00     0.293 HD
ENDBRANCH  17  20
ENDBRANCH   1  12
BRANCH   2  22
ATOM     22  O   UNL     1     110.747 108.366  93.944  1.00  0.00    -0.502 OA
ATOM     23  H   UNL     1     111.649 108.711  93.636  1.00  0.00     0.293 HD
ENDBRANCH   2  22
BRANCH   6  24
ATOM     24  O   UNL     1     109.649 108.602  99.150  1.00  0.00    -0.507 OA
ATOM     25  H   UNL     1     109.289 108.827 100.065  1.00  0.00     0.293 HD
ENDBRANCH   6  24
BRANCH   8  26
ATOM     26  O   UNL     1     110.286 104.021 100.377  1.00  0.00    -0.508 OA
ATOM     27  H   UNL     1     111.098 103.435 100.534  1.00  0.00     0.293 HD
ENDBRANCH   8  26
TORSDOF 6
ENDMDL
MODEL 4
REMARK VINA RESULT:    -4.909      3.048      6.620
REMARK INTER + INTRA:          -6.223
REMARK INTER:                  -6.167
REMARK INTRA:                  -0.056
REMARK UNBOUND:                -0.309
REMARK SMILES O=c1c(O)c(-c2ccc(O)c(O)c2)oc2cc(O)cc(O)c12
REMARK SMILES IDX 5 1 3 2 2 3 1 4 22 5 20 6 19 7 17 8 16 9 15 10 14 11 6 12
REMARK SMILES IDX 7 13 8 14 9 15 13 16 11 17 10 18 12 20 4 22 21 24 18 26
REMARK H PARENT 10 19 12 21 4 23 21 25 18 27
REMARK Flexibility Score: inf
ROOT
ATOM      1  C   UNL     1     111.031 106.604  91.757  1.00  0.00     0.180 A 
ATOM      2  C   UNL     1     110.149 105.964  92.645  1.00  0.00     0.208 A 
ATOM      3  C   UNL     1     110.671 105.339  93.790  1.00  0.00     0.238 A 
ATOM      4  O   UNL     1     109.872 104.816  94.610  1.00  0.00    -0.285 OA
ATOM      5  C   UNL     1     112.068 105.348  94.023  1.00  0.00     0.111 A 
ATOM      6  C   UNL     1     112.708 104.712  95.129  1.00  0.00     0.134 A 
ATOM      7  C   UNL     1     114.082 104.897  95.329  1.00  0.00     0.093 A 
ATOM      8  C   UNL     1     114.849 105.637  94.430  1.00  0.00     0.123 A 
ATOM      9  C   UNL     1     114.243 106.213  93.313  1.00  0.00     0.094 A 
ATOM     10  C   UNL     1     112.868 106.078  93.105  1.00  0.00     0.146 A 
ATOM     11  O   UNL     1     112.329 106.651  92.037  1.00  0.00    -0.452 OA
ENDROOT
BRANCH   1  12
ATOM     12  C   UNL     1     110.559 107.262  90.517  1.00  0.00     0.025 A 
ATOM     13  C   UNL     1     111.079 106.910  89.259  1.00  0.00     0.016 A 
ATOM     14  C   UNL     1     110.637 107.562  88.104  1.00  0.00     0.051 A 
ATOM     15  C   UNL     1     109.681 108.582  88.191  1.00  0.00     0.157 A 
ATOM     16  C   UNL     1     109.617 108.300  90.600  1.00  0.00     0.062 A 
ATOM     17  C   UNL     1     109.172 108.954  89.442  1.00  0.00     0.158 A 
BRANCH  15  18
ATOM     18  O   UNL     1     109.236 109.233  87.042  1.00  0.00    -0.504 OA
ATOM     19  H   UNL     1     109.751 110.006  86.638  1.00  0.00     0.293 HD
ENDBRANCH  15  18
BRANCH  17  20
ATOM     20  O   UNL     1     108.227 109.975  89.526  1.00  0.00    -0.504 OA
ATOM     21  H   UNL     1     107.703 110.143  90.378  1.00  0.00     0.293 HD
ENDBRANCH  17  20
ENDBRANCH   1  12
BRANCH   2  22
ATOM     22  O   UNL     1     108.773 105.987  92.407  1.00  0.00    -0.502 OA
ATOM     23  H   UNL     1     108.382 105.969  91.472  1.00  0.00     0.293 HD
ENDBRANCH   2  22
BRANCH   6  24
ATOM     24  O   UNL     1     112.052 103.875  96.035  1.00  0.00    -0.507 OA
ATOM     25  H   UNL     1     111.342 104.176  96.686  1.00  0.00     0.293 HD
ENDBRANCH   6  24
BRANCH   8  26
ATOM     26  O   UNL     1     116.216 105.786  94.653  1.00  0.00    -0.508 OA
ATOM     27  H   UNL     1     116.665 106.693  94.602  1.00  0.00     0.293 HD
ENDBRANCH   8  26
TORSDOF 6
ENDMDL
MODEL 5
REMARK VINA RESULT:    -4.751      3.076      6.970
REMARK INTER + INTRA:          -6.032
REMARK INTER:                  -5.721
REMARK INTRA:                  -0.312
REMARK UNBOUND:                -0.309
REMARK SMILES O=c1c(O)c(-c2ccc(O)c(O)c2)oc2cc(O)cc(O)c12
REMARK SMILES IDX 5 1 3 2 2 3 1 4 22 5 20 6 19 7 17 8 16 9 15 10 14 11 6 12
REMARK SMILES IDX 7 13 8 14 9 15 13 16 11 17 10 18 12 20 4 22 21 24 18 26
REMARK H PARENT 10 19 12 21 4 23 21 25 18 27
REMARK Flexibility Score: inf
ROOT
ATOM      1  C   UNL     1     110.604 106.827  92.088  1.00  0.00     0.180 A 
ATOM      2  C   UNL     1     110.067 105.597  92.508  1.00  0.00     0.208 A 
ATOM      3  C   UNL     1     110.390 105.116  93.788  1.00  0.00     0.238 A 
ATOM      4  O   UNL     1     109.863 104.042  94.180  1.00  0.00    -0.285 OA
ATOM      5  C   UNL     1     111.256 105.863  94.624  1.00  0.00     0.111 A 
ATOM      6  C   UNL     1     111.681 105.451  95.922  1.00  0.00     0.134 A 
ATOM      7  C   UNL     1     112.433 106.330  96.712  1.00  0.00     0.093 A 
ATOM      8  C   UNL     1     112.831 107.575  96.227  1.00  0.00     0.123 A 
ATOM      9  C   UNL     1     112.471 107.962  94.936  1.00  0.00     0.094 A 
ATOM     10  C   UNL     1     111.690 107.124  94.137  1.00  0.00     0.146 A 
ATOM     11  O   UNL     1     111.360 107.534  92.919  1.00  0.00    -0.452 OA
ENDROOT
BRANCH   1  12
ATOM     12  C   UNL     1     110.331 107.386  90.744  1.00  0.00     0.025 A 
ATOM     13  C   UNL     1     111.028 106.937  89.609  1.00  0.00     0.016 A 
ATOM     14  C   UNL     1     110.771 107.497  88.354  1.00  0.00     0.051 A 
ATOM     15  C   UNL     1     109.825 108.521  88.218  1.00  0.00     0.157 A 
ATOM     16  C   UNL     1     109.399 108.428  90.605  1.00  0.00     0.062 A 
ATOM     17  C   UNL     1     109.140 108.990  89.346  1.00  0.00     0.158 A 
BRANCH  15  18
ATOM     18  O   UNL     1     109.565 109.081  86.968  1.00  0.00    -0.504 OA
ATOM     19  H   UNL     1     109.189 108.528  86.207  1.00  0.00     0.293 HD
ENDBRANCH  15  18
BRANCH  17  20
ATOM     20  O   UNL     1     108.205 110.015  89.209  1.00  0.00    -0.504 OA
ATOM     21  H   UNL     1     107.210 109.825  89.186  1.00  0.00     0.293 HD
ENDBRANCH  17  20
ENDBRANCH   1  12
BRANCH   2  22
ATOM     22  O   UNL     1     109.198 104.888  91.676  1.00  0.00    -0.502 OA
ATOM     23  H   UNL     1     108.733 104.038  91.973  1.00  0.00     0.293 HD
ENDBRANCH   2  22
BRANCH   6  24
ATOM     24  O   UNL     1     111.416 104.192  96.468  1.00  0.00    -0.507 OA
ATOM     25  H   UNL     1     110.743 103.537  96.101  1.00  0.00     0.293 HD
ENDBRANCH   6  24
BRANCH   8  26
ATOM     26  O   UNL     1     113.593 108.415  97.035  1.00  0.00    -0.508 OA
ATOM     27  H   UNL     1     114.087 109.213  96.651  1.00  0.00     0.293 HD
ENDBRANCH   8  26
TORSDOF 6
ENDMDL
MODEL 6
REMARK VINA RESULT:    -4.683      9.693     11.170
REMARK INTER + INTRA:          -5.950
REMARK INTER:                  -5.717
REMARK INTRA:                  -0.233
REMARK UNBOUND:                -0.309
REMARK SMILES O=c1c(O)c(-c2ccc(O)c(O)c2)oc2cc(O)cc(O)c12
REMARK SMILES IDX 5 1 3 2 2 3 1 4 22 5 20 6 19 7 17 8 16 9 15 10 14 11 6 12
REMARK SMILES IDX 7 13 8 14 9 15 13 16 11 17 10 18 12 20 4 22 21 24 18 26
REMARK H PARENT 10 19 12 21 4 23 21 25 18 27
REMARK Flexibility Score: inf
ROOT
ATOM      1  C   UNL     1     111.986 107.816 103.884  1.00  0.00     0.180 A 
ATOM      2  C   UNL     1     112.024 108.799 102.880  1.00  0.00     0.208 A 
ATOM      3  C   UNL     1     113.232 109.471 102.632  1.00  0.00     0.238 A 
ATOM      4  O   UNL     1     113.274 110.311 101.695  1.00  0.00    -0.285 OA
ATOM      5  C   UNL     1     114.381 109.163 103.400  1.00  0.00     0.111 A 
ATOM      6  C   UNL     1     115.645 109.810 103.261  1.00  0.00     0.134 A 
ATOM      7  C   UNL     1     116.747 109.334 103.984  1.00  0.00     0.093 A 
ATOM      8  C   UNL     1     116.615 108.281 104.888  1.00  0.00     0.123 A 
ATOM      9  C   UNL     1     115.370 107.681 105.076  1.00  0.00     0.094 A 
ATOM     10  C   UNL     1     114.260 108.108 104.343  1.00  0.00     0.146 A 
ATOM     11  O   UNL     1     113.096 107.504 104.543  1.00  0.00    -0.452 OA
ENDROOT
BRANCH   1  12
ATOM     12  C   UNL     1     110.744 107.082 104.222  1.00  0.00     0.025 A 
ATOM     13  C   UNL     1     110.562 105.740 103.846  1.00  0.00     0.016 A 
ATOM     14  C   UNL     1     109.372 105.075 104.153  1.00  0.00     0.051 A 
ATOM     15  C   UNL     1     108.342 105.745 104.828  1.00  0.00     0.157 A 
ATOM     16  C   UNL     1     109.701 107.755 104.879  1.00  0.00     0.062 A 
ATOM     17  C   UNL     1     108.506 107.088 105.189  1.00  0.00     0.158 A 
BRANCH  15  18
ATOM     18  O   UNL     1     107.155 105.085 105.138  1.00  0.00    -0.504 OA
ATOM     19  H   UNL     1     107.130 104.324 105.806  1.00  0.00     0.293 HD
ENDBRANCH  15  18
BRANCH  17  20
ATOM     20  O   UNL     1     107.478 107.755 105.853  1.00  0.00    -0.504 OA
ATOM     21  H   UNL     1     106.691 107.254 106.249  1.00  0.00     0.293 HD
ENDBRANCH  17  20
ENDBRANCH   1  12
BRANCH   2  22
ATOM     22  O   UNL     1     110.884 109.071 102.120  1.00  0.00    -0.502 OA
ATOM     23  H   UNL     1     110.935 109.401 101.163  1.00  0.00     0.293 HD
ENDBRANCH   2  22
BRANCH   6  24
ATOM     24  O   UNL     1     115.865 110.929 102.454  1.00  0.00    -0.507 OA
ATOM     25  H   UNL     1     116.459 110.943 101.638  1.00  0.00     0.293 HD
ENDBRANCH   6  24
BRANCH   8  26
ATOM     26  O   UNL     1     117.729 107.845 105.601  1.00  0.00    -0.508 OA
ATOM     27  H   UNL     1     117.843 106.872 105.863  1.00  0.00     0.293 HD
ENDBRANCH   8  26
TORSDOF 6
ENDMDL
MODEL 7
REMARK VINA RESULT:    -4.651      2.819      6.835
REMARK INTER + INTRA:          -5.911
REMARK INTER:                  -5.610
REMARK INTRA:                  -0.301
REMARK UNBOUND:                -0.309
REMARK SMILES O=c1c(O)c(-c2ccc(O)c(O)c2)oc2cc(O)cc(O)c12
REMARK SMILES IDX 5 1 3 2 2 3 1 4 22 5 20 6 19 7 17 8 16 9 15 10 14 11 6 12
REMARK SMILES IDX 7 13 8 14 9 15 13 16 11 17 10 18 12 20 4 22 21 24 18 26
REMARK H PARENT 10 19 12 21 4 23 21 25 18 27
REMARK Flexibility Score: inf
ROOT
ATOM      1  C   UNL     1     110.691 107.129  94.091  1.00  0.00     0.180 A 
ATOM      2  C   UNL     1     111.059 105.776  94.177  1.00  0.00     0.208 A 
ATOM      3  C   UNL     1     111.013 105.136  95.426  1.00  0.00     0.238 A 
ATOM      4  O   UNL     1     111.291 103.909  95.488  1.00  0.00    -0.285 OA
ATOM      5  C   UNL     1     110.615 105.861  96.575  1.00  0.00     0.111 A 
ATOM      6  C   UNL     1     110.570 105.324  97.897  1.00  0.00     0.134 A 
ATOM      7  C   UNL     1     110.036 106.096  98.937  1.00  0.00     0.093 A 
ATOM      8  C   UNL     1     109.608 107.404  98.717  1.00  0.00     0.123 A 
ATOM      9  C   UNL     1     109.702 107.959  97.441  1.00  0.00     0.094 A 
ATOM     10  C   UNL     1     110.196 107.203  96.375  1.00  0.00     0.146 A 
ATOM     11  O   UNL     1     110.260 107.765  95.175  1.00  0.00    -0.452 OA
ENDROOT
BRANCH   1  12
ATOM     12  C   UNL     1     110.738 107.879  92.814  1.00  0.00     0.025 A 
ATOM     13  C   UNL     1     111.950 108.371  92.299  1.00  0.00     0.016 A 
ATOM     14  C   UNL     1     111.967 109.097  91.105  1.00  0.00     0.051 A 
ATOM     15  C   UNL     1     110.774 109.353  90.416  1.00  0.00     0.157 A 
ATOM     16  C   UNL     1     109.542 108.156  92.131  1.00  0.00     0.062 A 
ATOM     17  C   UNL     1     109.559 108.884  90.932  1.00  0.00     0.158 A 
BRANCH  15  18
ATOM     18  O   UNL     1     110.788 110.075  89.224  1.00  0.00    -0.504 OA
ATOM     19  H   UNL     1     109.951 110.517  88.863  1.00  0.00     0.293 HD
ENDBRANCH  15  18
BRANCH  17  20
ATOM     20  O   UNL     1     108.373 109.146  90.249  1.00  0.00    -0.504 OA
ATOM     21  H   UNL     1     107.468 108.996  90.681  1.00  0.00     0.293 HD
ENDBRANCH  17  20
ENDBRANCH   1  12
BRANCH   2  22
ATOM     22  O   UNL     1     111.427 105.073  93.027  1.00  0.00    -0.502 OA
ATOM     23  H   UNL     1     112.356 105.134  92.627  1.00  0.00     0.293 HD
ENDBRANCH   2  22
BRANCH   6  24
ATOM     24  O   UNL     1     111.058 104.061  98.243  1.00  0.00    -0.507 OA
ATOM     25  H   UNL     1     111.897 103.896  98.779  1.00  0.00     0.293 HD
ENDBRANCH   6  24
BRANCH   8  26
ATOM     26  O   UNL     1     109.097 108.146  99.780  1.00  0.00    -0.508 OA
ATOM     27  H   UNL     1     108.135 108.044 100.083  1.00  0.00     0.293 HD
ENDBRANCH   8  26
TORSDOF 6
ENDMDL
MODEL 8
REMARK VINA RESULT:    -4.536      3.025      5.612
REMARK INTER + INTRA:          -5.773
REMARK INTER:                  -5.540
REMARK INTRA:                  -0.233
REMARK UNBOUND:                -0.309
REMARK SMILES O=c1c(O)c(-c2ccc(O)c(O)c2)oc2cc(O)cc(O)c12
REMARK SMILES IDX 5 1 3 2 2 3 1 4 22 5 20 6 19 7 17 8 16 9 15 10 14 11 6 12
REMARK SMILES IDX 7 13 8 14 9 15 13 16 11 17 10 18 12 20 4 22 21 24 18 26
REMARK H PARENT 10 19 12 21 4 23 21 25 18 27
REMARK Flexibility Score: inf
ROOT
ATOM      1  C   UNL     1     112.682 106.276  94.920  1.00  0.00     0.180 A 
ATOM      2  C   UNL     1     112.657 107.287  95.897  1.00  0.00     0.208 A 
ATOM      3  C   UNL     1     113.872 107.756  96.422  1.00  0.00     0.238 A 
ATOM      4  O   UNL     1     113.846 108.699  97.256  1.00  0.00    -0.285 OA
ATOM      5  C   UNL     1     115.095 107.200  95.975  1.00  0.00     0.111 A 
ATOM      6  C   UNL     1     116.382 107.572  96.467  1.00  0.00     0.134 A 
ATOM      7  C   UNL     1     117.530 107.049  95.860  1.00  0.00     0.093 A 
ATOM      8  C   UNL     1     117.438 106.119  94.825  1.00  0.00     0.123 A 
ATOM      9  C   UNL     1     116.185 105.703  94.377  1.00  0.00     0.094 A 
ATOM     10  C   UNL     1     115.021 106.234  94.937  1.00  0.00     0.146 A 
ATOM     11  O   UNL     1     113.848 105.820  94.475  1.00  0.00    -0.452 OA
ENDROOT
BRANCH   1  12
ATOM     12  C   UNL     1     111.443 105.712  94.338  1.00  0.00     0.025 A 
ATOM     13  C   UNL     1     111.021 104.405  94.642  1.00  0.00     0.016 A 
ATOM     14  C   UNL     1     109.861 103.885  94.061  1.00  0.00     0.051 A 
ATOM     15  C   UNL     1     109.114 104.656  93.162  1.00  0.00     0.157 A 
ATOM     16  C   UNL     1     110.702 106.473  93.419  1.00  0.00     0.062 A 
ATOM     17  C   UNL     1     109.537 105.951  92.837  1.00  0.00     0.158 A 
BRANCH  15  18
ATOM     18  O   UNL     1     107.956 104.141  92.582  1.00  0.00    -0.504 OA
ATOM     19  H   UNL     1     107.498 103.317  92.954  1.00  0.00     0.293 HD
ENDBRANCH  15  18
BRANCH  17  20
ATOM     20  O   UNL     1     108.796 106.713  91.935  1.00  0.00    -0.504 OA
ATOM     21  H   UNL     1     108.985 106.688  90.940  1.00  0.00     0.293 HD
ENDBRANCH  17  20
ENDBRANCH   1  12
BRANCH   2  22
ATOM     22  O   UNL     1     111.440 107.837  96.307  1.00  0.00    -0.502 OA
ATOM     23  H   UNL     1     111.253 108.084  97.272  1.00  0.00     0.293 HD
ENDBRANCH   2  22
BRANCH   6  24
ATOM     24  O   UNL     1     116.584 108.423  97.557  1.00  0.00    -0.507 OA
ATOM     25  H   UNL     1     116.046 109.256  97.745  1.00  0.00     0.293 HD
ENDBRANCH   6  24
BRANCH   8  26
ATOM     26  O   UNL     1     118.603 105.608  94.256  1.00  0.00    -0.508 OA
ATOM     27  H   UNL     1     119.172 104.923  94.741  1.00  0.00     0.293 HD
ENDBRANCH   8  26
TORSDOF 6
ENDMDL
MODEL 9
REMARK VINA RESULT:    -4.529      3.233      5.782
REMARK INTER + INTRA:          -5.764
REMARK INTER:                  -5.468
REMARK INTRA:                  -0.297
REMARK UNBOUND:                -0.309
REMARK SMILES O=c1c(O)c(-c2ccc(O)c(O)c2)oc2cc(O)cc(O)c12
REMARK SMILES IDX 5 1 3 2 2 3 1 4 22 5 20 6 19 7 17 8 16 9 15 10 14 11 6 12
REMARK SMILES IDX 7 13 8 14 9 15 13 16 11 17 10 18 12 20 4 22 21 24 18 26
REMARK H PARENT 10 19 12 21 4 23 21 25 18 27
REMARK Flexibility Score: inf
ROOT
ATOM      1  C   UNL     1     113.079 106.138  94.131  1.00  0.00     0.180 A 
ATOM      2  C   UNL     1     114.212 105.836  93.357  1.00  0.00     0.208 A 
ATOM      3  C   UNL     1     115.456 106.365  93.736  1.00  0.00     0.238 A 
ATOM      4  O   UNL     1     116.477 106.047  93.071  1.00  0.00    -0.285 OA
ATOM      5  C   UNL     1     115.549 107.201  94.876  1.00  0.00     0.111 A 
ATOM      6  C   UNL     1     116.751 107.823  95.328  1.00  0.00     0.134 A 
ATOM      7  C   UNL     1     116.751 108.523  96.542  1.00  0.00     0.093 A 
ATOM      8  C   UNL     1     115.581 108.679  97.283  1.00  0.00     0.123 A 
ATOM      9  C   UNL     1     114.387 108.125  96.820  1.00  0.00     0.094 A 
ATOM     10  C   UNL     1     114.362 107.390  95.632  1.00  0.00     0.146 A 
ATOM     11  O   UNL     1     113.209 106.871  95.231  1.00  0.00    -0.452 OA
ENDROOT
BRANCH   1  12
ATOM     12  C   UNL     1     111.729 105.638  93.780  1.00  0.00     0.025 A 
ATOM     13  C   UNL     1     111.323 104.334  94.111  1.00  0.00     0.016 A 
ATOM     14  C   UNL     1     110.054 103.875  93.747  1.00  0.00     0.051 A 
ATOM     15  C   UNL     1     109.178 104.708  93.039  1.00  0.00     0.157 A 
ATOM     16  C   UNL     1     110.855 106.462  93.051  1.00  0.00     0.062 A 
ATOM     17  C   UNL     1     109.581 106.003  92.688  1.00  0.00     0.158 A 
BRANCH  15  18
ATOM     18  O   UNL     1     107.910 104.255  92.677  1.00  0.00    -0.504 OA
ATOM     19  H   UNL     1     107.249 103.922  93.368  1.00  0.00     0.293 HD
ENDBRANCH  15  18
BRANCH  17  20
ATOM     20  O   UNL     1     108.711 106.827  91.976  1.00  0.00    -0.504 OA
ATOM     21  H   UNL     1     108.672 106.808  90.963  1.00  0.00     0.293 HD
ENDBRANCH  17  20
ENDBRANCH   1  12
BRANCH   2  22
ATOM     22  O   UNL     1     114.102 104.992  92.249  1.00  0.00    -0.502 OA
ATOM     23  H   UNL     1     113.231 104.540  91.994  1.00  0.00     0.293 HD
ENDBRANCH   2  22
BRANCH   6  24
ATOM     24  O   UNL     1     117.954 107.806  94.617  1.00  0.00    -0.507 OA
ATOM     25  H   UNL     1     118.226 108.495  93.932  1.00  0.00     0.293 HD
ENDBRANCH   6  24
BRANCH   8  26
ATOM     26  O   UNL     1     115.616 109.395  98.478  1.00  0.00    -0.508 OA
ATOM     27  H   UNL     1     116.475 109.809  98.822  1.00  0.00     0.293 HD
ENDBRANCH   8  26
TORSDOF 6
ENDMDL
