MODEL 1
REMARK VINA RESULT:    -6.020      0.000      0.000
REMARK INTER + INTRA:          -6.020
REMARK INTER:                  -6.020
REMARK INTRA:                   0.000
REMARK UNBOUND:                 0.000
REMARK SMILES CC(C)=C1CC[C@H](C)CC1=O
REMARK SMILES IDX 8 1 7 2 6 3 5 4 4 5 2 6 1 7 3 8 10 9 11 10 9 11
REMARK H PARENT
REMARK Flexibility Score: inf
ROOT
ATOM      1  C   UNL     1      30.545  18.563  14.911  1.00  0.00     0.008 C 
ATOM      2  C   UNL     1      31.264  17.985  16.141  1.00  0.00    -0.006 C 
ATOM      3  C   UNL     1      32.631  17.375  15.784  1.00  0.00     0.008 C 
ATOM      4  C   UNL     1      33.656  18.423  15.321  1.00  0.00     0.039 C 
ATOM      5  C   UNL     1      33.748  19.618  16.260  1.00  0.00    -0.006 C 
ATOM      6  C   UNL     1      34.913  20.316  16.404  1.00  0.00    -0.070 C 
ATOM      7  C   UNL     1      35.037  21.470  17.372  1.00  0.00     0.039 C 
ATOM      8  C   UNL     1      36.153  19.939  15.624  1.00  0.00     0.039 C 
ATOM      9  C   UNL     1      32.475  20.049  16.910  1.00  0.00     0.159 C 
ATOM     10  O   UNL     1      32.250  21.261  17.172  1.00  0.00    -0.295 OA
ATOM     11  C   UNL     1      31.424  19.033  17.252  1.00  0.00     0.084 C 
ENDROOT
TORSDOF 0
ENDMDL
MODEL 2
REMARK VINA RESULT:    -5.776      1.658      2.269
REMARK INTER + INTRA:          -5.776
REMARK INTER:                  -5.776
REMARK INTRA:                   0.000
REMARK UNBOUND:                 0.000
REMARK SMILES CC(C)=C1CC[C@H](C)CC1=O
REMARK SMILES IDX 8 1 7 2 6 3 5 4 4 5 2 6 1 7 3 8 10 9 11 10 9 11
REMARK H PARENT
REMARK Flexibility Score: inf
ROOT
ATOM      1  C   UNL     1      30.451  20.069  14.875  1.00  0.00     0.008 C 
ATOM      2  C   UNL     1      31.539  19.041  15.224  1.00  0.00    -0.006 C 
ATOM      3  C   UNL     1      32.958  19.610  15.044  1.00  0.00     0.008 C 
ATOM      4  C   UNL     1      33.290  20.728  16.045  1.00  0.00     0.039 C 
ATOM      5  C   UNL     1      32.961  20.353  17.484  1.00  0.00    -0.006 C 
ATOM      6  C   UNL     1      33.674  20.868  18.530  1.00  0.00    -0.070 C 
ATOM      7  C   UNL     1      33.397  20.464  19.959  1.00  0.00     0.039 C 
ATOM      8  C   UNL     1      34.806  21.843  18.299  1.00  0.00     0.039 C 
ATOM      9  C   UNL     1      31.754  19.498  17.687  1.00  0.00     0.159 C 
ATOM     10  O   UNL     1      31.035  19.612  18.716  1.00  0.00    -0.295 OA
ATOM     11  C   UNL     1      31.365  18.488  16.646  1.00  0.00     0.084 C 
ENDROOT
TORSDOF 0
ENDMDL
MODEL 3
REMARK VINA RESULT:    -5.731     11.359     12.943
REMARK INTER + INTRA:          -5.731
REMARK INTER:                  -5.731
REMARK INTRA:                   0.000
REMARK UNBOUND:                 0.000
REMARK SMILES CC(C)=C1CC[C@H](C)CC1=O
REMARK SMILES IDX 8 1 7 2 6 3 5 4 4 5 2 6 1 7 3 8 10 9 11 10 9 11
REMARK H PARENT
REMARK Flexibility Score: inf
ROOT
ATOM      1  C   UNL     1      24.875  20.269  27.758  1.00  0.00     0.008 C 
ATOM      2  C   UNL     1      26.120  21.099  28.109  1.00  0.00    -0.006 C 
ATOM      3  C   UNL     1      26.833  20.577  29.369  1.00  0.00     0.008 C 
ATOM      4  C   UNL     1      27.461  19.187  29.175  1.00  0.00     0.039 C 
ATOM      5  C   UNL     1      28.307  19.090  27.912  1.00  0.00    -0.006 C 
ATOM      6  C   UNL     1      29.379  18.246  27.843  1.00  0.00    -0.070 C 
ATOM      7  C   UNL     1      30.261  18.178  26.618  1.00  0.00     0.039 C 
ATOM      8  C   UNL     1      29.757  17.364  29.011  1.00  0.00     0.039 C 
ATOM      9  C   UNL     1      27.827  19.869  26.732  1.00  0.00     0.159 C 
ATOM     10  O   UNL     1      28.003  19.452  25.556  1.00  0.00    -0.295 OA
ATOM     11  C   UNL     1      27.106  21.171  26.933  1.00  0.00     0.084 C 
ENDROOT
TORSDOF 0
ENDMDL
MODEL 4
REMARK VINA RESULT:    -5.659     11.665     13.137
REMARK INTER + INTRA:          -5.659
REMARK INTER:                  -5.659
REMARK INTRA:                   0.000
REMARK UNBOUND:                 0.000
REMARK SMILES CC(C)=C1CC[C@H](C)CC1=O
REMARK SMILES IDX 8 1 7 2 6 3 5 4 4 5 2 6 1 7 3 8 10 9 11 10 9 11
REMARK H PARENT
REMARK Flexibility Score: inf
ROOT
ATOM      1  C   UNL     1      26.635  22.232  28.069  1.00  0.00     0.008 C 
ATOM      2  C   UNL     1      26.035  20.829  27.884  1.00  0.00    -0.006 C 
ATOM      3  C   UNL     1      26.530  20.149  26.594  1.00  0.00     0.008 C 
ATOM      4  C   UNL     1      28.030  19.817  26.625  1.00  0.00     0.039 C 
ATOM      5  C   UNL     1      28.452  19.092  27.896  1.00  0.00    -0.006 C 
ATOM      6  C   UNL     1      29.496  18.211  27.895  1.00  0.00    -0.070 C 
ATOM      7  C   UNL     1      29.892  17.443  29.134  1.00  0.00     0.039 C 
ATOM      8  C   UNL     1      30.284  17.934  26.635  1.00  0.00     0.039 C 
ATOM      9  C   UNL     1      27.744  19.488  29.150  1.00  0.00     0.159 C 
ATOM     10  O   UNL     1      28.331  19.476  30.265  1.00  0.00    -0.295 OA
ATOM     11  C   UNL     1      26.310  19.928  29.097  1.00  0.00     0.084 C 
ENDROOT
TORSDOF 0
ENDMDL
MODEL 5
REMARK VINA RESULT:    -5.510      1.612      2.633
REMARK INTER + INTRA:          -5.510
REMARK INTER:                  -5.510
REMARK INTRA:                   0.000
REMARK UNBOUND:                 0.000
REMARK SMILES CC(C)=C1CC[C@H](C)CC1=O
REMARK SMILES IDX 8 1 7 2 6 3 5 4 4 5 2 6 1 7 3 8 10 9 11 10 9 11
REMARK H PARENT
REMARK Flexibility Score: inf
ROOT
ATOM      1  C   UNL     1      31.701  17.602  15.647  1.00  0.00     0.008 C 
ATOM      2  C   UNL     1      31.367  19.096  15.515  1.00  0.00    -0.006 C 
ATOM      3  C   UNL     1      30.887  19.706  16.845  1.00  0.00     0.008 C 
ATOM      4  C   UNL     1      31.986  19.753  17.918  1.00  0.00     0.039 C 
ATOM      5  C   UNL     1      33.289  20.354  17.406  1.00  0.00    -0.006 C 
ATOM      6  C   UNL     1      34.134  21.026  18.243  1.00  0.00    -0.070 C 
ATOM      7  C   UNL     1      35.403  21.676  17.741  1.00  0.00     0.039 C 
ATOM      8  C   UNL     1      33.817  21.185  19.713  1.00  0.00     0.039 C 
ATOM      9  C   UNL     1      33.639  20.063  15.984  1.00  0.00     0.159 C 
ATOM     10  O   UNL     1      34.838  19.938  15.617  1.00  0.00    -0.295 OA
ATOM     11  C   UNL     1      32.553  19.899  14.961  1.00  0.00     0.084 C 
ENDROOT
TORSDOF 0
ENDMDL
MODEL 6
REMARK VINA RESULT:    -5.319      1.191      3.735
REMARK INTER + INTRA:          -5.319
REMARK INTER:                  -5.319
REMARK INTRA:                   0.000
REMARK UNBOUND:                 0.000
REMARK SMILES CC(C)=C1CC[C@H](C)CC1=O
REMARK SMILES IDX 8 1 7 2 6 3 5 4 4 5 2 6 1 7 3 8 10 9 11 10 9 11
REMARK H PARENT
REMARK Flexibility Score: inf
ROOT
ATOM      1  C   UNL     1      34.591  21.606  18.805  1.00  0.00     0.008 C 
ATOM      2  C   UNL     1      34.207  21.850  17.337  1.00  0.00    -0.006 C 
ATOM      3  C   UNL     1      35.144  21.118  16.359  1.00  0.00     0.008 C 
ATOM      4  C   UNL     1      35.019  19.588  16.437  1.00  0.00     0.039 C 
ATOM      5  C   UNL     1      33.575  19.107  16.373  1.00  0.00    -0.006 C 
ATOM      6  C   UNL     1      33.258  17.891  15.838  1.00  0.00    -0.070 C 
ATOM      7  C   UNL     1      31.827  17.422  15.717  1.00  0.00     0.039 C 
ATOM      8  C   UNL     1      34.330  16.968  15.302  1.00  0.00     0.039 C 
ATOM      9  C   UNL     1      32.557  19.978  17.032  1.00  0.00     0.159 C 
ATOM     10  O   UNL     1      31.536  19.489  17.586  1.00  0.00    -0.295 OA
ATOM     11  C   UNL     1      32.746  21.467  17.059  1.00  0.00     0.084 C 
ENDROOT
TORSDOF 0
ENDMDL
MODEL 7
REMARK VINA RESULT:    -5.215      1.544      2.637
REMARK INTER + INTRA:          -5.215
REMARK INTER:                  -5.215
REMARK INTRA:                   0.000
REMARK UNBOUND:                 0.000
REMARK SMILES CC(C)=C1CC[C@H](C)CC1=O
REMARK SMILES IDX 8 1 7 2 6 3 5 4 4 5 2 6 1 7 3 8 10 9 11 10 9 11
REMARK H PARENT
REMARK Flexibility Score: inf
ROOT
ATOM      1  C   UNL     1      30.894  18.871  18.559  1.00  0.00     0.008 C 
ATOM      2  C   UNL     1      30.829  19.303  17.086  1.00  0.00    -0.006 C 
ATOM      3  C   UNL     1      31.170  20.793  16.899  1.00  0.00     0.008 C 
ATOM      4  C   UNL     1      32.635  21.121  17.229  1.00  0.00     0.039 C 
ATOM      5  C   UNL     1      33.621  20.180  16.550  1.00  0.00    -0.006 C 
ATOM      6  C   UNL     1      34.874  20.599  16.203  1.00  0.00    -0.070 C 
ATOM      7  C   UNL     1      35.845  19.695  15.480  1.00  0.00     0.039 C 
ATOM      8  C   UNL     1      35.336  22.009  16.495  1.00  0.00     0.039 C 
ATOM      9  C   UNL     1      33.185  18.760  16.400  1.00  0.00     0.159 C 
ATOM     10  O   UNL     1      34.013  17.811  16.452  1.00  0.00    -0.295 OA
ATOM     11  C   UNL     1      31.733  18.437  16.197  1.00  0.00     0.084 C 
ENDROOT
TORSDOF 0
ENDMDL
MODEL 8
REMARK VINA RESULT:    -4.985      9.958     10.809
REMARK INTER + INTRA:          -4.985
REMARK INTER:                  -4.985
REMARK INTRA:                   0.000
REMARK UNBOUND:                 0.000
REMARK SMILES CC(C)=C1CC[C@H](C)CC1=O
REMARK SMILES IDX 8 1 7 2 6 3 5 4 4 5 2 6 1 7 3 8 10 9 11 10 9 11
REMARK H PARENT
REMARK Flexibility Score: inf
ROOT
ATOM      1  C   UNL     1      36.243  20.872  25.188  1.00  0.00     0.008 C 
ATOM      2  C   UNL     1      36.864  20.126  26.380  1.00  0.00    -0.006 C 
ATOM      3  C   UNL     1      36.457  18.641  26.414  1.00  0.00     0.008 C 
ATOM      4  C   UNL     1      37.031  17.832  25.240  1.00  0.00     0.039 C 
ATOM      5  C   UNL     1      38.526  18.051  25.044  1.00  0.00    -0.006 C 
ATOM      6  C   UNL     1      39.322  17.068  24.527  1.00  0.00    -0.070 C 
ATOM      7  C   UNL     1      40.815  17.249  24.377  1.00  0.00     0.039 C 
ATOM      8  C   UNL     1      38.748  15.732  24.114  1.00  0.00     0.039 C 
ATOM      9  C   UNL     1      39.038  19.423  25.332  1.00  0.00     0.159 C 
ATOM     10  O   UNL     1      40.002  19.912  24.683  1.00  0.00    -0.295 OA
ATOM     11  C   UNL     1      38.394  20.257  26.401  1.00  0.00     0.084 C 
ENDROOT
TORSDOF 0
ENDMDL
MODEL 9
REMARK VINA RESULT:    -4.913     10.225     11.919
REMARK INTER + INTRA:          -4.913
REMARK INTER:                  -4.913
REMARK INTRA:                   0.000
REMARK UNBOUND:                 0.000
REMARK SMILES CC(C)=C1CC[C@H](C)CC1=O
REMARK SMILES IDX 8 1 7 2 6 3 5 4 4 5 2 6 1 7 3 8 10 9 11 10 9 11
REMARK H PARENT
REMARK Flexibility Score: inf
ROOT
ATOM      1  C   UNL     1      36.856  18.273  25.675  1.00  0.00     0.008 C 
ATOM      2  C   UNL     1      37.778  19.357  25.093  1.00  0.00    -0.006 C 
ATOM      3  C   UNL     1      37.016  20.650  24.752  1.00  0.00     0.008 C 
ATOM      4  C   UNL     1      36.472  21.374  25.993  1.00  0.00     0.039 C 
ATOM      5  C   UNL     1      37.522  21.555  27.082  1.00  0.00    -0.006 C 
ATOM      6  C   UNL     1      37.476  22.618  27.939  1.00  0.00    -0.070 C 
ATOM      7  C   UNL     1      38.540  22.841  28.989  1.00  0.00     0.039 C 
ATOM      8  C   UNL     1      36.372  23.647  27.850  1.00  0.00     0.039 C 
ATOM      9  C   UNL     1      38.517  20.452  27.232  1.00  0.00     0.159 C 
ATOM     10  O   UNL     1      38.996  20.150  28.358  1.00  0.00    -0.295 OA
ATOM     11  C   UNL     1      38.955  19.666  26.030  1.00  0.00     0.084 C 
ENDROOT
TORSDOF 0
ENDMDL
