MODEL 1
REMARK VINA RESULT:    -7.193      0.000      0.000
REMARK INTER + INTRA:          -8.997
REMARK INTER:                  -8.664
REMARK INTRA:                  -0.333
REMARK UNBOUND:                -0.333
REMARK SMILES O=c1c(O)c(-c2ccc(O)c(O)c2)oc2cc(O)cc(O)c12
REMARK SMILES IDX 5 1 3 2 2 3 1 4 22 5 20 6 19 7 17 8 16 9 15 10 14 11 6 12
REMARK SMILES IDX 7 13 8 14 9 15 13 16 11 17 10 18 12 20 4 22 21 24 18 26
REMARK H PARENT 10 19 12 21 4 23 21 25 18 27
REMARK Flexibility Score: inf
ROOT
ATOM      1  C   UNL     1       9.730  11.570 -16.088  1.00  0.00     0.180 A 
ATOM      2  C   UNL     1      10.472  10.414 -16.388  1.00  0.00     0.208 A 
ATOM      3  C   UNL     1      10.179   9.222 -15.707  1.00  0.00     0.238 A 
ATOM      4  O   UNL     1      10.882   8.205 -15.941  1.00  0.00    -0.285 OA
ATOM      5  C   UNL     1       9.138   9.196 -14.748  1.00  0.00     0.111 A 
ATOM      6  C   UNL     1       8.729   8.034 -14.028  1.00  0.00     0.134 A 
ATOM      7  C   UNL     1       7.776   8.153 -13.009  1.00  0.00     0.093 A 
ATOM      8  C   UNL     1       7.170   9.377 -12.728  1.00  0.00     0.123 A 
ATOM      9  C   UNL     1       7.520  10.509 -13.467  1.00  0.00     0.094 A 
ATOM     10  C   UNL     1       8.494  10.429 -14.465  1.00  0.00     0.146 A 
ATOM     11  O   UNL     1       8.805  11.530 -15.138  1.00  0.00    -0.452 OA
ENDROOT
BRANCH   1  12
ATOM     12  C   UNL     1       9.964  12.857 -16.782  1.00  0.00     0.025 A 
ATOM     13  C   UNL     1      10.797  13.820 -16.190  1.00  0.00     0.016 A 
ATOM     14  C   UNL     1      11.016  15.050 -16.817  1.00  0.00     0.051 A 
ATOM     15  C   UNL     1      10.394  15.342 -18.034  1.00  0.00     0.157 A 
ATOM     16  C   UNL     1       9.322  13.163 -17.996  1.00  0.00     0.062 A 
ATOM     17  C   UNL     1       9.539  14.398 -18.627  1.00  0.00     0.158 A 
BRANCH  15  18
ATOM     18  O   UNL     1      10.632  16.578 -18.638  1.00  0.00    -0.504 OA
ATOM     19  H   UNL     1      10.018  16.956 -19.349  1.00  0.00     0.293 HD
ENDBRANCH  15  18
BRANCH  17  20
ATOM     20  O   UNL     1       8.904  14.689 -19.833  1.00  0.00    -0.504 OA
ATOM     21  H   UNL     1       8.219  14.062 -20.237  1.00  0.00     0.293 HD
ENDBRANCH  17  20
ENDBRANCH   1  12
BRANCH   2  22
ATOM     22  O   UNL     1      11.510  10.468 -17.322  1.00  0.00    -0.502 OA
ATOM     23  H   UNL     1      12.458  10.190 -17.099  1.00  0.00     0.293 HD
ENDBRANCH   2  22
BRANCH   6  24
ATOM     24  O   UNL     1       9.204   6.745 -14.290  1.00  0.00    -0.507 OA
ATOM     25  H   UNL     1       9.898   6.520 -14.986  1.00  0.00     0.293 HD
ENDBRANCH   6  24
BRANCH   8  26
ATOM     26  O   UNL     1       6.214   9.457 -11.718  1.00  0.00    -0.508 OA
ATOM     27  H   UNL     1       6.420   9.889 -10.825  1.00  0.00     0.293 HD
ENDBRANCH   8  26
TORSDOF 6
ENDMDL
MODEL 2
REMARK VINA RESULT:    -7.014      1.665      7.302
REMARK INTER + INTRA:          -8.781
REMARK INTER:                  -8.448
REMARK INTRA:                  -0.333
REMARK UNBOUND:                -0.333
REMARK SMILES O=c1c(O)c(-c2ccc(O)c(O)c2)oc2cc(O)cc(O)c12
REMARK SMILES IDX 5 1 3 2 2 3 1 4 22 5 20 6 19 7 17 8 16 9 15 10 14 11 6 12
REMARK SMILES IDX 7 13 8 14 9 15 13 16 11 17 10 18 12 20 4 22 21 24 18 26
REMARK H PARENT 10 19 12 21 4 23 21 25 18 27
REMARK Flexibility Score: inf
ROOT
ATOM      1  C   UNL     1       9.878  12.472 -17.059  1.00  0.00     0.180 A 
ATOM      2  C   UNL     1      10.619  13.567 -16.582  1.00  0.00     0.208 A 
ATOM      3  C   UNL     1      10.621  14.761 -17.320  1.00  0.00     0.238 A 
ATOM      4  O   UNL     1      11.330  15.720 -16.916  1.00  0.00    -0.285 OA
ATOM      5  C   UNL     1       9.870  14.851 -18.517  1.00  0.00     0.111 A 
ATOM      6  C   UNL     1       9.768  16.024 -19.324  1.00  0.00     0.134 A 
ATOM      7  C   UNL     1       9.104  15.960 -20.555  1.00  0.00     0.093 A 
ATOM      8  C   UNL     1       8.483  14.786 -20.978  1.00  0.00     0.123 A 
ATOM      9  C   UNL     1       8.526  13.649 -20.170  1.00  0.00     0.094 A 
ATOM     10  C   UNL     1       9.212  13.671 -18.953  1.00  0.00     0.146 A 
ATOM     11  O   UNL     1       9.238  12.566 -18.218  1.00  0.00    -0.452 OA
ENDROOT
BRANCH   1  12
ATOM     12  C   UNL     1       9.807  11.189 -16.324  1.00  0.00     0.025 A 
ATOM     13  C   UNL     1      10.686  10.148 -16.663  1.00  0.00     0.016 A 
ATOM     14  C   UNL     1      10.622   8.922 -15.996  1.00  0.00     0.051 A 
ATOM     15  C   UNL     1       9.672   8.712 -14.993  1.00  0.00     0.157 A 
ATOM     16  C   UNL     1       8.837  10.968 -15.329  1.00  0.00     0.062 A 
ATOM     17  C   UNL     1       8.771   9.736 -14.659  1.00  0.00     0.158 A 
BRANCH  15  18
ATOM     18  O   UNL     1       9.634   7.477 -14.343  1.00  0.00    -0.504 OA
ATOM     19  H   UNL     1      10.370   7.176 -13.716  1.00  0.00     0.293 HD
ENDBRANCH  15  18
BRANCH  17  20
ATOM     20  O   UNL     1       7.812   9.528 -13.670  1.00  0.00    -0.504 OA
ATOM     21  H   UNL     1       8.062   9.475 -12.689  1.00  0.00     0.293 HD
ENDBRANCH  17  20
ENDBRANCH   1  12
BRANCH   2  22
ATOM     22  O   UNL     1      11.371  13.450 -15.410  1.00  0.00    -0.502 OA
ATOM     23  H   UNL     1      12.356  13.217 -15.416  1.00  0.00     0.293 HD
ENDBRANCH   2  22
BRANCH   6  24
ATOM     24  O   UNL     1      10.274  17.273 -18.952  1.00  0.00    -0.507 OA
ATOM     25  H   UNL     1      11.022  17.417 -18.291  1.00  0.00     0.293 HD
ENDBRANCH   6  24
BRANCH   8  26
ATOM     26  O   UNL     1       7.817  14.761 -22.202  1.00  0.00    -0.508 OA
ATOM     27  H   UNL     1       7.441  15.605 -22.618  1.00  0.00     0.293 HD
ENDBRANCH   8  26
TORSDOF 6
ENDMDL
MODEL 3
REMARK VINA RESULT:    -6.954      1.773      7.351
REMARK INTER + INTRA:          -8.710
REMARK INTER:                  -8.389
REMARK INTRA:                  -0.321
REMARK UNBOUND:                -0.333
REMARK SMILES O=c1c(O)c(-c2ccc(O)c(O)c2)oc2cc(O)cc(O)c12
REMARK SMILES IDX 5 1 3 2 2 3 1 4 22 5 20 6 19 7 17 8 16 9 15 10 14 11 6 12
REMARK SMILES IDX 7 13 8 14 9 15 13 16 11 17 10 18 12 20 4 22 21 24 18 26
REMARK H PARENT 10 19 12 21 4 23 21 25 18 27
REMARK Flexibility Score: inf
ROOT
ATOM      1  C   UNL     1       9.770  12.557 -17.126  1.00  0.00     0.180 A 
ATOM      2  C   UNL     1      10.478  13.654 -16.606  1.00  0.00     0.208 A 
ATOM      3  C   UNL     1      10.495  14.857 -17.328  1.00  0.00     0.238 A 
ATOM      4  O   UNL     1      11.176  15.819 -16.884  1.00  0.00    -0.285 OA
ATOM      5  C   UNL     1       9.792  14.954 -18.554  1.00  0.00     0.111 A 
ATOM      6  C   UNL     1       9.709  16.136 -19.349  1.00  0.00     0.134 A 
ATOM      7  C   UNL     1       9.096  16.080 -20.606  1.00  0.00     0.093 A 
ATOM      8  C   UNL     1       8.506  14.905 -21.069  1.00  0.00     0.123 A 
ATOM      9  C   UNL     1       8.530  13.758 -20.274  1.00  0.00     0.094 A 
ATOM     10  C   UNL     1       9.166  13.772 -19.030  1.00  0.00     0.146 A 
ATOM     11  O   UNL     1       9.175  12.658 -18.309  1.00  0.00    -0.452 OA
ENDROOT
BRANCH   1  12
ATOM     12  C   UNL     1       9.685  11.263 -16.410  1.00  0.00     0.025 A 
ATOM     13  C   UNL     1       8.632  11.041 -15.509  1.00  0.00     0.016 A 
ATOM     14  C   UNL     1       8.543   9.836 -14.806  1.00  0.00     0.051 A 
ATOM     15  C   UNL     1       9.511   8.844 -14.981  1.00  0.00     0.157 A 
ATOM     16  C   UNL     1      10.670  10.272 -16.568  1.00  0.00     0.062 A 
ATOM     17  C   UNL     1      10.583   9.062 -15.862  1.00  0.00     0.158 A 
BRANCH  15  18
ATOM     18  O   UNL     1       9.396   7.650 -14.267  1.00  0.00    -0.504 OA
ATOM     19  H   UNL     1       8.536   7.114 -14.251  1.00  0.00     0.293 HD
ENDBRANCH  15  18
BRANCH  17  20
ATOM     20  O   UNL     1      11.560   8.082 -16.030  1.00  0.00    -0.504 OA
ATOM     21  H   UNL     1      11.840   7.763 -16.950  1.00  0.00     0.293 HD
ENDBRANCH  17  20
ENDBRANCH   1  12
BRANCH   2  22
ATOM     22  O   UNL     1      11.183  13.530 -15.406  1.00  0.00    -0.502 OA
ATOM     23  H   UNL     1      10.928  12.859 -14.691  1.00  0.00     0.293 HD
ENDBRANCH   2  22
BRANCH   6  24
ATOM     24  O   UNL     1      10.185  17.386 -18.942  1.00  0.00    -0.507 OA
ATOM     25  H   UNL     1      10.547  17.591 -18.023  1.00  0.00     0.293 HD
ENDBRANCH   6  24
BRANCH   8  26
ATOM     26  O   UNL     1       7.891  14.889 -22.319  1.00  0.00    -0.508 OA
ATOM     27  H   UNL     1       7.161  14.222 -22.542  1.00  0.00     0.293 HD
ENDBRANCH   8  26
TORSDOF 6
ENDMDL
MODEL 4
REMARK VINA RESULT:    -6.636      1.214      2.949
REMARK INTER + INTRA:          -8.327
REMARK INTER:                  -8.007
REMARK INTRA:                  -0.320
REMARK UNBOUND:                -0.333
REMARK SMILES O=c1c(O)c(-c2ccc(O)c(O)c2)oc2cc(O)cc(O)c12
REMARK SMILES IDX 5 1 3 2 2 3 1 4 22 5 20 6 19 7 17 8 16 9 15 10 14 11 6 12
REMARK SMILES IDX 7 13 8 14 9 15 13 16 11 17 10 18 12 20 4 22 21 24 18 26
REMARK H PARENT 10 19 12 21 4 23 21 25 18 27
REMARK Flexibility Score: inf
ROOT
ATOM      1  C   UNL     1       8.745  12.213 -15.456  1.00  0.00     0.180 A 
ATOM      2  C   UNL     1       7.711  12.574 -14.573  1.00  0.00     0.208 A 
ATOM      3  C   UNL     1       7.158  11.592 -13.736  1.00  0.00     0.238 A 
ATOM      4  O   UNL     1       6.197  11.908 -12.988  1.00  0.00    -0.285 OA
ATOM      5  C   UNL     1       7.655  10.267 -13.780  1.00  0.00     0.111 A 
ATOM      6  C   UNL     1       7.196   9.202 -12.949  1.00  0.00     0.134 A 
ATOM      7  C   UNL     1       7.668   7.902 -13.169  1.00  0.00     0.093 A 
ATOM      8  C   UNL     1       8.628   7.639 -14.144  1.00  0.00     0.123 A 
ATOM      9  C   UNL     1       9.128   8.684 -14.923  1.00  0.00     0.094 A 
ATOM     10  C   UNL     1       8.651   9.986 -14.752  1.00  0.00     0.146 A 
ATOM     11  O   UNL     1       9.144  10.949 -15.520  1.00  0.00    -0.452 OA
ENDROOT
BRANCH   1  12
ATOM     12  C   UNL     1       9.395  13.198 -16.350  1.00  0.00     0.025 A 
ATOM     13  C   UNL     1      10.457  13.977 -15.865  1.00  0.00     0.016 A 
ATOM     14  C   UNL     1      11.072  14.927 -16.685  1.00  0.00     0.051 A 
ATOM     15  C   UNL     1      10.626  15.124 -17.995  1.00  0.00     0.157 A 
ATOM     16  C   UNL     1       8.934  13.413 -17.662  1.00  0.00     0.062 A 
ATOM     17  C   UNL     1       9.549  14.367 -18.487  1.00  0.00     0.158 A 
BRANCH  15  18
ATOM     18  O   UNL     1      11.260  16.078 -18.791  1.00  0.00    -0.504 OA
ATOM     19  H   UNL     1      11.949  16.719 -18.417  1.00  0.00     0.293 HD
ENDBRANCH  15  18
BRANCH  17  20
ATOM     20  O   UNL     1       9.090  14.569 -19.787  1.00  0.00    -0.504 OA
ATOM     21  H   UNL     1       8.928  15.500 -20.154  1.00  0.00     0.293 HD
ENDBRANCH  17  20
ENDBRANCH   1  12
BRANCH   2  22
ATOM     22  O   UNL     1       7.221  13.882 -14.562  1.00  0.00    -0.502 OA
ATOM     23  H   UNL     1       7.819  14.686 -14.412  1.00  0.00     0.293 HD
ENDBRANCH   2  22
BRANCH   6  24
ATOM     24  O   UNL     1       6.305   9.370 -11.884  1.00  0.00    -0.507 OA
ATOM     25  H   UNL     1       6.315  10.149 -11.245  1.00  0.00     0.293 HD
ENDBRANCH   6  24
BRANCH   8  26
ATOM     26  O   UNL     1       9.087   6.336 -14.326  1.00  0.00    -0.508 OA
ATOM     27  H   UNL     1       9.514   6.041 -15.196  1.00  0.00     0.293 HD
ENDBRANCH   8  26
TORSDOF 6
ENDMDL
MODEL 5
REMARK VINA RESULT:    -6.625      2.866      7.486
REMARK INTER + INTRA:          -8.313
REMARK INTER:                  -8.200
REMARK INTRA:                  -0.112
REMARK UNBOUND:                -0.333
REMARK SMILES O=c1c(O)c(-c2ccc(O)c(O)c2)oc2cc(O)cc(O)c12
REMARK SMILES IDX 5 1 3 2 2 3 1 4 22 5 20 6 19 7 17 8 16 9 15 10 14 11 6 12
REMARK SMILES IDX 7 13 8 14 9 15 13 16 11 17 10 18 12 20 4 22 21 24 18 26
REMARK H PARENT 10 19 12 21 4 23 21 25 18 27
REMARK Flexibility Score: inf
ROOT
ATOM      1  C   UNL     1       7.470   8.239 -14.883  1.00  0.00     0.180 A 
ATOM      2  C   UNL     1       7.142   8.586 -13.560  1.00  0.00     0.208 A 
ATOM      3  C   UNL     1       7.480   9.864 -13.088  1.00  0.00     0.238 A 
ATOM      4  O   UNL     1       7.232  10.149 -11.887  1.00  0.00    -0.285 OA
ATOM      5  C   UNL     1       8.128  10.784 -13.947  1.00  0.00     0.111 A 
ATOM      6  C   UNL     1       8.481  12.118 -13.586  1.00  0.00     0.134 A 
ATOM      7  C   UNL     1       9.236  12.897 -14.472  1.00  0.00     0.093 A 
ATOM      8  C   UNL     1       9.594  12.414 -15.730  1.00  0.00     0.123 A 
ATOM      9  C   UNL     1       9.203  11.131 -16.117  1.00  0.00     0.094 A 
ATOM     10  C   UNL     1       8.480  10.317 -15.241  1.00  0.00     0.146 A 
ATOM     11  O   UNL     1       8.136   9.100 -15.643  1.00  0.00    -0.452 OA
ENDROOT
BRANCH   1  12
ATOM     12  C   UNL     1       7.124   6.920 -15.460  1.00  0.00     0.025 A 
ATOM     13  C   UNL     1       6.233   6.853 -16.543  1.00  0.00     0.016 A 
ATOM     14  C   UNL     1       5.876   5.618 -17.090  1.00  0.00     0.051 A 
ATOM     15  C   UNL     1       6.389   4.433 -16.555  1.00  0.00     0.157 A 
ATOM     16  C   UNL     1       7.622   5.726 -14.910  1.00  0.00     0.062 A 
ATOM     17  C   UNL     1       7.263   4.484 -15.457  1.00  0.00     0.158 A 
BRANCH  15  18
ATOM     18  O   UNL     1       6.015   3.215 -17.124  1.00  0.00    -0.504 OA
ATOM     19  H   UNL     1       5.045   2.942 -17.222  1.00  0.00     0.293 HD
ENDBRANCH  15  18
BRANCH  17  20
ATOM     20  O   UNL     1       7.766   3.306 -14.910  1.00  0.00    -0.504 OA
ATOM     21  H   UNL     1       8.641   3.289 -14.398  1.00  0.00     0.293 HD
ENDBRANCH  17  20
ENDBRANCH   1  12
BRANCH   2  22
ATOM     22  O   UNL     1       6.522   7.654 -12.723  1.00  0.00    -0.502 OA
ATOM     23  H   UNL     1       5.616   7.253 -12.933  1.00  0.00     0.293 HD
ENDBRANCH   2  22
BRANCH   6  24
ATOM     24  O   UNL     1       8.096  12.732 -12.390  1.00  0.00    -0.507 OA
ATOM     25  H   UNL     1       8.527  13.558 -12.004  1.00  0.00     0.293 HD
ENDBRANCH   6  24
BRANCH   8  26
ATOM     26  O   UNL     1      10.332  13.221 -16.593  1.00  0.00    -0.508 OA
ATOM     27  H   UNL     1       9.906  13.666 -17.397  1.00  0.00     0.293 HD
ENDBRANCH   8  26
TORSDOF 6
ENDMDL
MODEL 6
REMARK VINA RESULT:    -6.462      2.072      7.199
REMARK INTER + INTRA:          -8.116
REMARK INTER:                  -8.647
REMARK INTRA:                   0.531
REMARK UNBOUND:                -0.333
REMARK SMILES O=c1c(O)c(-c2ccc(O)c(O)c2)oc2cc(O)cc(O)c12
REMARK SMILES IDX 5 1 3 2 2 3 1 4 22 5 20 6 19 7 17 8 16 9 15 10 14 11 6 12
REMARK SMILES IDX 7 13 8 14 9 15 13 16 11 17 10 18 12 20 4 22 21 24 18 26
REMARK H PARENT 10 19 12 21 4 23 21 25 18 27
REMARK Flexibility Score: inf
ROOT
ATOM      1  C   UNL     1       8.086  11.018 -14.548  1.00  0.00     0.180 A 
ATOM      2  C   UNL     1       8.540  12.241 -14.022  1.00  0.00     0.208 A 
ATOM      3  C   UNL     1       9.060  13.207 -14.897  1.00  0.00     0.238 A 
ATOM      4  O   UNL     1       9.515  14.277 -14.415  1.00  0.00    -0.285 OA
ATOM      5  C   UNL     1       9.107  12.946 -16.288  1.00  0.00     0.111 A 
ATOM      6  C   UNL     1       9.577  13.868 -17.270  1.00  0.00     0.134 A 
ATOM      7  C   UNL     1       9.700  13.455 -18.602  1.00  0.00     0.093 A 
ATOM      8  C   UNL     1       9.308  12.178 -19.000  1.00  0.00     0.123 A 
ATOM      9  C   UNL     1       8.791  11.287 -18.058  1.00  0.00     0.094 A 
ATOM     10  C   UNL     1       8.691  11.657 -16.715  1.00  0.00     0.146 A 
ATOM     11  O   UNL     1       8.203  10.778 -15.848  1.00  0.00    -0.452 OA
ENDROOT
BRANCH   1  12
ATOM     12  C   UNL     1       7.501   9.962 -13.692  1.00  0.00     0.025 A 
ATOM     13  C   UNL     1       7.261  10.226 -12.335  1.00  0.00     0.016 A 
ATOM     14  C   UNL     1       6.728   9.237 -11.503  1.00  0.00     0.051 A 
ATOM     15  C   UNL     1       6.443   7.967 -12.010  1.00  0.00     0.157 A 
ATOM     16  C   UNL     1       7.232   8.675 -14.195  1.00  0.00     0.062 A 
ATOM     17  C   UNL     1       6.699   7.681 -13.361  1.00  0.00     0.158 A 
BRANCH  15  18
ATOM     18  O   UNL     1       5.910   7.000 -11.157  1.00  0.00    -0.504 OA
ATOM     19  H   UNL     1       6.487   6.291 -10.720  1.00  0.00     0.293 HD
ENDBRANCH  15  18
BRANCH  17  20
ATOM     20  O   UNL     1       6.430   6.411 -13.870  1.00  0.00    -0.504 OA
ATOM     21  H   UNL     1       6.481   6.215 -14.863  1.00  0.00     0.293 HD
ENDBRANCH  17  20
ENDBRANCH   1  12
BRANCH   2  22
ATOM     22  O   UNL     1       8.505  12.469 -12.644  1.00  0.00    -0.502 OA
ATOM     23  H   UNL     1       8.939  13.277 -12.215  1.00  0.00     0.293 HD
ENDBRANCH   2  22
BRANCH   6  24
ATOM     24  O   UNL     1       9.909  15.199 -16.997  1.00  0.00    -0.507 OA
ATOM     25  H   UNL     1      10.346  15.518 -16.146  1.00  0.00     0.293 HD
ENDBRANCH   6  24
BRANCH   8  26
ATOM     26  O   UNL     1       9.429  11.805 -20.337  1.00  0.00    -0.508 OA
ATOM     27  H   UNL     1       9.109  12.407 -21.086  1.00  0.00     0.293 HD
ENDBRANCH   8  26
TORSDOF 6
ENDMDL
MODEL 7
REMARK VINA RESULT:    -6.447      1.941      7.266
REMARK INTER + INTRA:          -8.098
REMARK INTER:                  -7.782
REMARK INTRA:                  -0.316
REMARK UNBOUND:                -0.333
REMARK SMILES O=c1c(O)c(-c2ccc(O)c(O)c2)oc2cc(O)cc(O)c12
REMARK SMILES IDX 5 1 3 2 2 3 1 4 22 5 20 6 19 7 17 8 16 9 15 10 14 11 6 12
REMARK SMILES IDX 7 13 8 14 9 15 13 16 11 17 10 18 12 20 4 22 21 24 18 26
REMARK H PARENT 10 19 12 21 4 23 21 25 18 27
REMARK Flexibility Score: inf
ROOT
ATOM      1  C   UNL     1       8.707  11.835 -17.821  1.00  0.00     0.180 A 
ATOM      2  C   UNL     1       7.921  11.597 -18.962  1.00  0.00     0.208 A 
ATOM      3  C   UNL     1       7.776  12.618 -19.914  1.00  0.00     0.238 A 
ATOM      4  O   UNL     1       7.027  12.417 -20.906  1.00  0.00    -0.285 OA
ATOM      5  C   UNL     1       8.431  13.859 -19.722  1.00  0.00     0.111 A 
ATOM      6  C   UNL     1       8.386  14.949 -20.642  1.00  0.00     0.134 A 
ATOM      7  C   UNL     1       8.964  16.174 -20.288  1.00  0.00     0.093 A 
ATOM      8  C   UNL     1       9.640  16.330 -19.079  1.00  0.00     0.123 A 
ATOM      9  C   UNL     1       9.742  15.252 -18.198  1.00  0.00     0.094 A 
ATOM     10  C   UNL     1       9.144  14.028 -18.506  1.00  0.00     0.146 A 
ATOM     11  O   UNL     1       9.254  13.031 -17.637  1.00  0.00    -0.452 OA
ENDROOT
BRANCH   1  12
ATOM     12  C   UNL     1       8.927  10.799 -16.786  1.00  0.00     0.025 A 
ATOM     13  C   UNL     1       8.003  10.661 -15.739  1.00  0.00     0.016 A 
ATOM     14  C   UNL     1       8.202   9.704 -14.741  1.00  0.00     0.051 A 
ATOM     15  C   UNL     1       9.333   8.883 -14.764  1.00  0.00     0.157 A 
ATOM     16  C   UNL     1      10.076   9.987 -16.796  1.00  0.00     0.062 A 
ATOM     17  C   UNL     1      10.278   9.026 -15.793  1.00  0.00     0.158 A 
BRANCH  15  18
ATOM     18  O   UNL     1       9.503   7.935 -13.754  1.00  0.00    -0.504 OA
ATOM     19  H   UNL     1       9.840   8.186 -12.832  1.00  0.00     0.293 HD
ENDBRANCH  15  18
BRANCH  17  20
ATOM     20  O   UNL     1      11.415   8.221 -15.814  1.00  0.00    -0.504 OA
ATOM     21  H   UNL     1      11.423   7.302 -15.387  1.00  0.00     0.293 HD
ENDBRANCH  17  20
ENDBRANCH   1  12
BRANCH   2  22
ATOM     22  O   UNL     1       7.266  10.373 -19.121  1.00  0.00    -0.502 OA
ATOM     23  H   UNL     1       6.434  10.271 -19.690  1.00  0.00     0.293 HD
ENDBRANCH   2  22
BRANCH   6  24
ATOM     24  O   UNL     1       7.814  14.874 -21.916  1.00  0.00    -0.507 OA
ATOM     25  H   UNL     1       6.825  14.926 -22.105  1.00  0.00     0.293 HD
ENDBRANCH   6  24
BRANCH   8  26
ATOM     26  O   UNL     1      10.217  17.559 -18.766  1.00  0.00    -0.508 OA
ATOM     27  H   UNL     1      10.915  17.647 -18.037  1.00  0.00     0.293 HD
ENDBRANCH   8  26
TORSDOF 6
ENDMDL
MODEL 8
REMARK VINA RESULT:    -6.300      1.952      2.864
REMARK INTER + INTRA:          -7.921
REMARK INTER:                  -7.956
REMARK INTRA:                   0.034
REMARK UNBOUND:                -0.333
REMARK SMILES O=c1c(O)c(-c2ccc(O)c(O)c2)oc2cc(O)cc(O)c12
REMARK SMILES IDX 5 1 3 2 2 3 1 4 22 5 20 6 19 7 17 8 16 9 15 10 14 11 6 12
REMARK SMILES IDX 7 13 8 14 9 15 13 16 11 17 10 18 12 20 4 22 21 24 18 26
REMARK H PARENT 10 19 12 21 4 23 21 25 18 27
REMARK Flexibility Score: inf
ROOT
ATOM      1  C   UNL     1       8.901  12.714 -18.107  1.00  0.00     0.180 A 
ATOM      2  C   UNL     1       9.409  11.455 -18.474  1.00  0.00     0.208 A 
ATOM      3  C   UNL     1       9.435  10.428 -17.518  1.00  0.00     0.238 A 
ATOM      4  O   UNL     1       9.940   9.320 -17.836  1.00  0.00    -0.285 OA
ATOM      5  C   UNL     1       8.941  10.667 -16.212  1.00  0.00     0.111 A 
ATOM      6  C   UNL     1       8.883   9.687 -15.177  1.00  0.00     0.134 A 
ATOM      7  C   UNL     1       8.496  10.069 -13.886  1.00  0.00     0.093 A 
ATOM      8  C   UNL     1       8.103  11.377 -13.609  1.00  0.00     0.123 A 
ATOM      9  C   UNL     1       8.099  12.330 -14.629  1.00  0.00     0.094 A 
ATOM     10  C   UNL     1       8.514  11.988 -15.919  1.00  0.00     0.146 A 
ATOM     11  O   UNL     1       8.506  12.926 -16.858  1.00  0.00    -0.452 OA
ENDROOT
BRANCH   1  12
ATOM     12  C   UNL     1       8.817  13.839 -19.067  1.00  0.00     0.025 A 
ATOM     13  C   UNL     1       8.250  13.625 -20.333  1.00  0.00     0.016 A 
ATOM     14  C   UNL     1       8.179  14.667 -21.262  1.00  0.00     0.051 A 
ATOM     15  C   UNL     1       8.687  15.930 -20.947  1.00  0.00     0.157 A 
ATOM     16  C   UNL     1       9.347  15.105 -18.760  1.00  0.00     0.062 A 
ATOM     17  C   UNL     1       9.278  16.152 -19.692  1.00  0.00     0.158 A 
BRANCH  15  18
ATOM     18  O   UNL     1       8.600  16.951 -21.894  1.00  0.00    -0.504 OA
ATOM     19  H   UNL     1       7.732  17.177 -22.364  1.00  0.00     0.293 HD
ENDBRANCH  15  18
BRANCH  17  20
ATOM     20  O   UNL     1       9.799  17.406 -19.378  1.00  0.00    -0.504 OA
ATOM     21  H   UNL     1      10.563  17.513 -18.720  1.00  0.00     0.293 HD
ENDBRANCH  17  20
ENDBRANCH   1  12
BRANCH   2  22
ATOM     22  O   UNL     1       9.912  11.248 -19.761  1.00  0.00    -0.502 OA
ATOM     23  H   UNL     1      10.890  11.056 -19.938  1.00  0.00     0.293 HD
ENDBRANCH   2  22
BRANCH   6  24
ATOM     24  O   UNL     1       9.167   8.331 -15.367  1.00  0.00    -0.507 OA
ATOM     25  H   UNL     1       9.916   7.832 -14.912  1.00  0.00     0.293 HD
ENDBRANCH   6  24
BRANCH   8  26
ATOM     26  O   UNL     1       7.709  11.719 -12.318  1.00  0.00    -0.508 OA
ATOM     27  H   UNL     1       8.266  11.469 -11.509  1.00  0.00     0.293 HD
ENDBRANCH   8  26
TORSDOF 6
ENDMDL
MODEL 9
REMARK VINA RESULT:    -6.088      2.724      7.384
REMARK INTER + INTRA:          -7.667
REMARK INTER:                  -7.441
REMARK INTRA:                  -0.226
REMARK UNBOUND:                -0.333
REMARK SMILES O=c1c(O)c(-c2ccc(O)c(O)c2)oc2cc(O)cc(O)c12
REMARK SMILES IDX 5 1 3 2 2 3 1 4 22 5 20 6 19 7 17 8 16 9 15 10 14 11 6 12
REMARK SMILES IDX 7 13 8 14 9 15 13 16 11 17 10 18 12 20 4 22 21 24 18 26
REMARK H PARENT 10 19 12 21 4 23 21 25 18 27
REMARK Flexibility Score: inf
ROOT
ATOM      1  C   UNL     1       8.971  13.138 -18.399  1.00  0.00     0.180 A 
ATOM      2  C   UNL     1       8.912  13.168 -19.803  1.00  0.00     0.208 A 
ATOM      3  C   UNL     1       8.623  14.381 -20.447  1.00  0.00     0.238 A 
ATOM      4  O   UNL     1       8.518  14.389 -21.701  1.00  0.00    -0.285 OA
ATOM      5  C   UNL     1       8.412  15.553 -19.680  1.00  0.00     0.111 A 
ATOM      6  C   UNL     1       8.151  16.844 -20.229  1.00  0.00     0.134 A 
ATOM      7  C   UNL     1       7.829  17.905 -19.374  1.00  0.00     0.093 A 
ATOM      8  C   UNL     1       7.822  17.739 -17.990  1.00  0.00     0.123 A 
ATOM      9  C   UNL     1       8.133  16.495 -17.440  1.00  0.00     0.094 A 
ATOM     10  C   UNL     1       8.423  15.408 -18.268  1.00  0.00     0.146 A 
ATOM     11  O   UNL     1       8.704  14.239 -17.706  1.00  0.00    -0.452 OA
ENDROOT
BRANCH   1  12
ATOM     12  C   UNL     1       9.296  11.903 -17.650  1.00  0.00     0.025 A 
ATOM     13  C   UNL     1      10.560  11.767 -17.056  1.00  0.00     0.016 A 
ATOM     14  C   UNL     1      10.896  10.601 -16.362  1.00  0.00     0.051 A 
ATOM     15  C   UNL     1       9.981   9.549 -16.266  1.00  0.00     0.157 A 
ATOM     16  C   UNL     1       8.385  10.834 -17.570  1.00  0.00     0.062 A 
ATOM     17  C   UNL     1       8.721   9.661 -16.875  1.00  0.00     0.158 A 
BRANCH  15  18
ATOM     18  O   UNL     1      10.343   8.397 -15.566  1.00  0.00    -0.504 OA
ATOM     19  H   UNL     1      10.686   7.568 -16.035  1.00  0.00     0.293 HD
ENDBRANCH  15  18
BRANCH  17  20
ATOM     20  O   UNL     1       7.809   8.610 -16.796  1.00  0.00    -0.504 OA
ATOM     21  H   UNL     1       7.767   8.004 -15.985  1.00  0.00     0.293 HD
ENDBRANCH  17  20
ENDBRANCH   1  12
BRANCH   2  22
ATOM     22  O   UNL     1       9.102  11.995 -20.539  1.00  0.00    -0.502 OA
ATOM     23  H   UNL     1       9.603  11.196 -20.170  1.00  0.00     0.293 HD
ENDBRANCH   2  22
BRANCH   6  24
ATOM     24  O   UNL     1       8.222  17.142 -21.594  1.00  0.00    -0.507 OA
ATOM     25  H   UNL     1       7.705  17.879 -22.048  1.00  0.00     0.293 HD
ENDBRANCH   6  24
BRANCH   8  26
ATOM     26  O   UNL     1       7.512  18.821 -17.169  1.00  0.00    -0.508 OA
ATOM     27  H   UNL     1       8.207  19.245 -16.566  1.00  0.00     0.293 HD
ENDBRANCH   8  26
TORSDOF 6
ENDMDL
