MODEL 1
REMARK VINA RESULT:    -4.882      0.000      0.000
REMARK INTER + INTRA:          -4.882
REMARK INTER:                  -4.882
REMARK INTRA:                   0.000
REMARK UNBOUND:                 0.000
REMARK SMILES CC1=CC[C@@H]2[C@@H](C1)C2(C)C
REMARK SMILES IDX 1 1 2 2 3 3 4 4 5 5 6 6 7 7 8 8 9 9 10 10
REMARK H PARENT
REMARK Flexibility Score: inf
ROOT
ATOM      1  C   UNL     1     -43.012 -49.699  28.433  1.00  0.00     0.039 C 
ATOM      2  C   UNL     1     -41.861 -48.733  28.422  1.00  0.00    -0.077 C 
ATOM      3  C   UNL     1     -41.987 -47.546  27.758  1.00  0.00    -0.028 C 
ATOM      4  C   UNL     1     -40.845 -46.534  27.689  1.00  0.00     0.031 C 
ATOM      5  C   UNL     1     -39.532 -47.289  27.921  1.00  0.00     0.003 C 
ATOM      6  C   UNL     1     -39.752 -47.840  29.380  1.00  0.00     0.003 C 
ATOM      7  C   UNL     1     -40.543 -49.123  29.101  1.00  0.00     0.034 C 
ATOM      8  C   UNL     1     -38.423 -47.261  28.951  1.00  0.00    -0.029 C 
ATOM      9  C   UNL     1     -37.286 -48.272  28.774  1.00  0.00     0.012 C 
ATOM     10  C   UNL     1     -38.061 -45.876  29.494  1.00  0.00     0.012 C 
ENDROOT
TORSDOF 0
ENDMDL
MODEL 2
REMARK VINA RESULT:    -4.874      0.545      2.212
REMARK INTER + INTRA:          -4.874
REMARK INTER:                  -4.874
REMARK INTRA:                   0.000
REMARK UNBOUND:                 0.000
REMARK SMILES CC1=CC[C@@H]2[C@@H](C1)C2(C)C
REMARK SMILES IDX 1 1 2 2 3 3 4 4 5 5 6 6 7 7 8 8 9 9 10 10
REMARK H PARENT
REMARK Flexibility Score: inf
ROOT
ATOM      1  C   UNL     1     -43.316 -46.954  27.395  1.00  0.00     0.039 C 
ATOM      2  C   UNL     1     -41.985 -47.366  27.957  1.00  0.00    -0.077 C 
ATOM      3  C   UNL     1     -41.880 -48.541  28.645  1.00  0.00    -0.028 C 
ATOM      4  C   UNL     1     -40.562 -49.003  29.262  1.00  0.00     0.031 C 
ATOM      5  C   UNL     1     -39.684 -47.766  29.476  1.00  0.00     0.003 C 
ATOM      6  C   UNL     1     -39.504 -47.260  27.995  1.00  0.00     0.003 C 
ATOM      7  C   UNL     1     -40.779 -46.430  27.804  1.00  0.00     0.034 C 
ATOM      8  C   UNL     1     -38.346 -47.274  28.967  1.00  0.00    -0.029 C 
ATOM      9  C   UNL     1     -37.878 -45.902  29.459  1.00  0.00     0.012 C 
ATOM     10  C   UNL     1     -37.280 -48.354  28.761  1.00  0.00     0.012 C 
ENDROOT
TORSDOF 0
ENDMDL
MODEL 3
REMARK VINA RESULT:    -4.862     12.939     15.357
REMARK INTER + INTRA:          -4.862
REMARK INTER:                  -4.862
REMARK INTRA:                   0.000
REMARK UNBOUND:                 0.000
REMARK SMILES CC1=CC[C@@H]2[C@@H](C1)C2(C)C
REMARK SMILES IDX 1 1 2 2 3 3 4 4 5 5 6 6 7 7 8 8 9 9 10 10
REMARK H PARENT
REMARK Flexibility Score: inf
ROOT
ATOM      1  C   UNL     1     -57.125 -47.523  20.995  1.00  0.00     0.039 C 
ATOM      2  C   UNL     1     -55.704 -47.577  21.480  1.00  0.00    -0.077 C 
ATOM      3  C   UNL     1     -55.141 -46.464  22.035  1.00  0.00    -0.028 C 
ATOM      4  C   UNL     1     -53.694 -46.447  22.523  1.00  0.00     0.031 C 
ATOM      5  C   UNL     1     -52.935 -47.552  21.782  1.00  0.00     0.003 C 
ATOM      6  C   UNL     1     -53.713 -48.833  22.267  1.00  0.00     0.003 C 
ATOM      7  C   UNL     1     -54.889 -48.861  21.284  1.00  0.00     0.034 C 
ATOM      8  C   UNL     1     -52.204 -48.820  22.165  1.00  0.00    -0.029 C 
ATOM      9  C   UNL     1     -51.611 -49.651  21.023  1.00  0.00     0.012 C 
ATOM     10  C   UNL     1     -51.419 -48.761  23.478  1.00  0.00     0.012 C 
ENDROOT
TORSDOF 0
ENDMDL
MODEL 4
REMARK VINA RESULT:    -4.740      1.066      4.266
REMARK INTER + INTRA:          -4.740
REMARK INTER:                  -4.740
REMARK INTRA:                   0.000
REMARK UNBOUND:                 0.000
REMARK SMILES CC1=CC[C@@H]2[C@@H](C1)C2(C)C
REMARK SMILES IDX 1 1 2 2 3 3 4 4 5 5 6 6 7 7 8 8 9 9 10 10
REMARK H PARENT
REMARK Flexibility Score: inf
ROOT
ATOM      1  C   UNL     1     -38.032 -46.407  29.247  1.00  0.00     0.039 C 
ATOM      2  C   UNL     1     -39.255 -47.234  28.971  1.00  0.00    -0.077 C 
ATOM      3  C   UNL     1     -39.549 -48.290  29.785  1.00  0.00    -0.028 C 
ATOM      4  C   UNL     1     -40.763 -49.185  29.542  1.00  0.00     0.031 C 
ATOM      5  C   UNL     1     -41.145 -49.068  28.063  1.00  0.00     0.003 C 
ATOM      6  C   UNL     1     -41.502 -47.538  27.960  1.00  0.00     0.003 C 
ATOM      7  C   UNL     1     -40.116 -46.919  27.742  1.00  0.00     0.034 C 
ATOM      8  C   UNL     1     -42.348 -48.590  27.279  1.00  0.00    -0.029 C 
ATOM      9  C   UNL     1     -42.245 -48.635  25.752  1.00  0.00     0.012 C 
ATOM     10  C   UNL     1     -43.710 -48.898  27.906  1.00  0.00     0.012 C 
ENDROOT
TORSDOF 0
ENDMDL
MODEL 5
REMARK VINA RESULT:    -4.727     13.405     16.189
REMARK INTER + INTRA:          -4.727
REMARK INTER:                  -4.727
REMARK INTRA:                   0.000
REMARK UNBOUND:                 0.000
REMARK SMILES CC1=CC[C@@H]2[C@@H](C1)C2(C)C
REMARK SMILES IDX 1 1 2 2 3 3 4 4 5 5 6 6 7 7 8 8 9 9 10 10
REMARK H PARENT
REMARK Flexibility Score: inf
ROOT
ATOM      1  C   UNL     1     -51.321 -46.830  23.579  1.00  0.00     0.039 C 
ATOM      2  C   UNL     1     -52.564 -47.263  22.856  1.00  0.00    -0.077 C 
ATOM      3  C   UNL     1     -52.674 -48.552  22.420  1.00  0.00    -0.028 C 
ATOM      4  C   UNL     1     -53.901 -49.047  21.657  1.00  0.00     0.031 C 
ATOM      5  C   UNL     1     -54.578 -47.831  21.016  1.00  0.00     0.003 C 
ATOM      6  C   UNL     1     -54.967 -46.992  22.291  1.00  0.00     0.003 C 
ATOM      7  C   UNL     1     -53.663 -46.234  22.562  1.00  0.00     0.034 C 
ATOM      8  C   UNL     1     -55.921 -47.143  21.128  1.00  0.00    -0.029 C 
ATOM      9  C   UNL     1     -56.132 -45.887  20.277  1.00  0.00     0.012 C 
ATOM     10  C   UNL     1     -57.123 -48.070  21.332  1.00  0.00     0.012 C 
ENDROOT
TORSDOF 0
ENDMDL
MODEL 6
REMARK VINA RESULT:    -4.705     13.116     15.511
REMARK INTER + INTRA:          -4.705
REMARK INTER:                  -4.705
REMARK INTRA:                   0.000
REMARK UNBOUND:                 0.000
REMARK SMILES CC1=CC[C@@H]2[C@@H](C1)C2(C)C
REMARK SMILES IDX 1 1 2 2 3 3 4 4 5 5 6 6 7 7 8 8 9 9 10 10
REMARK H PARENT
REMARK Flexibility Score: inf
ROOT
ATOM      1  C   UNL     1     -57.089 -46.893  20.626  1.00  0.00     0.039 C 
ATOM      2  C   UNL     1     -55.702 -47.324  21.010  1.00  0.00    -0.077 C 
ATOM      3  C   UNL     1     -55.119 -48.373  20.359  1.00  0.00    -0.028 C 
ATOM      4  C   UNL     1     -53.723 -48.875  20.721  1.00  0.00     0.031 C 
ATOM      5  C   UNL     1     -53.430 -48.450  22.163  1.00  0.00     0.003 C 
ATOM      6  C   UNL     1     -53.485 -46.881  22.035  1.00  0.00     0.003 C 
ATOM      7  C   UNL     1     -54.989 -46.620  22.171  1.00  0.00     0.034 C 
ATOM      8  C   UNL     1     -52.416 -47.566  22.857  1.00  0.00    -0.029 C 
ATOM      9  C   UNL     1     -52.550 -47.415  24.375  1.00  0.00     0.012 C 
ATOM     10  C   UNL     1     -51.002 -47.596  22.270  1.00  0.00     0.012 C 
ENDROOT
TORSDOF 0
ENDMDL
MODEL 7
REMARK VINA RESULT:    -4.678      1.137      4.078
REMARK INTER + INTRA:          -4.678
REMARK INTER:                  -4.678
REMARK INTRA:                   0.000
REMARK UNBOUND:                 0.000
REMARK SMILES CC1=CC[C@@H]2[C@@H](C1)C2(C)C
REMARK SMILES IDX 1 1 2 2 3 3 4 4 5 5 6 6 7 7 8 8 9 9 10 10
REMARK H PARENT
REMARK Flexibility Score: inf
ROOT
ATOM      1  C   UNL     1     -37.648 -48.382  28.875  1.00  0.00     0.039 C 
ATOM      2  C   UNL     1     -39.045 -48.110  28.394  1.00  0.00    -0.077 C 
ATOM      3  C   UNL     1     -39.500 -46.824  28.344  1.00  0.00    -0.028 C 
ATOM      4  C   UNL     1     -40.918 -46.485  27.889  1.00  0.00     0.031 C 
ATOM      5  C   UNL     1     -41.788 -47.729  28.094  1.00  0.00     0.003 C 
ATOM      6  C   UNL     1     -41.082 -48.756  27.130  1.00  0.00     0.003 C 
ATOM      7  C   UNL     1     -39.958 -49.286  28.027  1.00  0.00     0.034 C 
ATOM      8  C   UNL     1     -42.589 -48.659  27.209  1.00  0.00    -0.029 C 
ATOM      9  C   UNL     1     -43.293 -49.834  27.895  1.00  0.00     0.012 C 
ATOM     10  C   UNL     1     -43.306 -47.996  26.030  1.00  0.00     0.012 C 
ENDROOT
TORSDOF 0
ENDMDL
MODEL 8
REMARK VINA RESULT:    -4.540     11.139     13.993
REMARK INTER + INTRA:          -4.540
REMARK INTER:                  -4.540
REMARK INTRA:                   0.000
REMARK UNBOUND:                 0.000
REMARK SMILES CC1=CC[C@@H]2[C@@H](C1)C2(C)C
REMARK SMILES IDX 1 1 2 2 3 3 4 4 5 5 6 6 7 7 8 8 9 9 10 10
REMARK H PARENT
REMARK Flexibility Score: inf
ROOT
ATOM      1  C   UNL     1     -49.811 -49.814  24.767  1.00  0.00     0.039 C 
ATOM      2  C   UNL     1     -50.746 -49.379  23.675  1.00  0.00    -0.077 C 
ATOM      3  C   UNL     1     -50.449 -49.678  22.377  1.00  0.00    -0.028 C 
ATOM      4  C   UNL     1     -51.345 -49.241  21.220  1.00  0.00     0.031 C 
ATOM      5  C   UNL     1     -52.165 -48.035  21.690  1.00  0.00     0.003 C 
ATOM      6  C   UNL     1     -52.987 -48.669  22.875  1.00  0.00     0.003 C 
ATOM      7  C   UNL     1     -51.987 -48.550  24.031  1.00  0.00     0.034 C 
ATOM      8  C   UNL     1     -53.632 -47.722  21.888  1.00  0.00    -0.029 C 
ATOM      9  C   UNL     1     -53.978 -46.333  22.433  1.00  0.00     0.012 C 
ATOM     10  C   UNL     1     -54.585 -48.336  20.858  1.00  0.00     0.012 C 
ENDROOT
TORSDOF 0
ENDMDL
