MODEL 1
REMARK VINA RESULT:    -4.696      0.000      0.000
REMARK INTER + INTRA:          -9.129
REMARK INTER:                  -7.991
REMARK INTRA:                  -1.139
REMARK UNBOUND:                -1.139
REMARK SMILES CCCCCCCCCCCCCC(=O)[O-]
REMARK SMILES IDX 8 1 9 2 10 3 11 4 12 5 13 6 14 7 15 8 16 9 7 10 6 11 5 12
REMARK SMILES IDX 4 13 3 14 2 15 1 16
REMARK H PARENT
REMARK Flexibility Score: inf
ROOT
ATOM      1  C   UNL     1       5.607 -31.414 -17.663  1.00  0.00     0.000 C 
ENDROOT
BRANCH   1   2
ATOM      2  C   UNL     1       6.893 -31.814 -18.400  1.00  0.00     0.000 C 
BRANCH   2   3
ATOM      3  C   UNL     1       6.576 -32.357 -19.801  1.00  0.00     0.000 C 
BRANCH   3   4
ATOM      4  C   UNL     1       7.374 -33.628 -20.148  1.00  0.00     0.000 C 
BRANCH   4   5
ATOM      5  C   UNL     1       6.520 -34.846 -20.554  1.00  0.00     0.006 C 
BRANCH   5   6
ATOM      6  C   UNL     1       6.112 -34.874 -22.036  1.00  0.00     0.053 C 
BRANCH   6   7
ATOM      7  C   UNL     1       5.181 -36.007 -22.339  1.00  0.00     0.041 C 
ATOM      8  O   UNL     1       4.692 -36.132 -23.494  1.00  0.00    -0.550 OA
ATOM      9  O   UNL     1       4.826 -36.903 -21.340  1.00  0.00    -0.550 OA
ENDBRANCH   6   7
ENDBRANCH   5   6
ENDBRANCH   4   5
ENDBRANCH   3   4
ENDBRANCH   2   3
ENDBRANCH   1   2
BRANCH   1  10
ATOM     10  C   UNL     1       4.860 -30.263 -18.355  1.00  0.00     0.000 C 
BRANCH  10  11
ATOM     11  C   UNL     1       4.691 -29.036 -17.446  1.00  0.00    -0.000 C 
BRANCH  11  12
ATOM     12  C   UNL     1       5.399 -29.248 -16.101  1.00  0.00    -0.000 C 
BRANCH  12  13
ATOM     13  C   UNL     1       6.469 -28.172 -15.867  1.00  0.00    -0.000 C 
BRANCH  13  14
ATOM     14  C   UNL     1       7.894 -28.693 -16.102  1.00  0.00    -0.000 C 
BRANCH  14  15
ATOM     15  C   UNL     1       8.401 -28.412 -17.524  1.00  0.00    -0.003 C 
ATOM     16  C   UNL     1       7.854 -27.089 -18.051  1.00  0.00     0.004 C 
ENDBRANCH  14  15
ENDBRANCH  13  14
ENDBRANCH  12  13
ENDBRANCH  11  12
ENDBRANCH  10  11
ENDBRANCH   1  10
TORSDOF 12
ENDMDL
MODEL 2
REMARK VINA RESULT:    -4.435     10.782     13.683
REMARK INTER + INTRA:          -8.685
REMARK INTER:                  -7.627
REMARK INTRA:                  -1.059
REMARK UNBOUND:                -1.139
REMARK SMILES CCCCCCCCCCCCCC(=O)[O-]
REMARK SMILES IDX 8 1 9 2 10 3 11 4 12 5 13 6 14 7 15 8 16 9 7 10 6 11 5 12
REMARK SMILES IDX 4 13 3 14 2 15 1 16
REMARK H PARENT
REMARK Flexibility Score: inf
ROOT
ATOM      1  C   UNL     1      -1.396 -43.661 -17.852  1.00  0.00     0.000 C 
ENDROOT
BRANCH   1   2
ATOM      2  C   UNL     1      -0.697 -42.306 -18.047  1.00  0.00     0.000 C 
BRANCH   2   3
ATOM      3  C   UNL     1      -1.568 -41.356 -18.882  1.00  0.00     0.000 C 
BRANCH   3   4
ATOM      4  C   UNL     1      -0.894 -40.926 -20.199  1.00  0.00     0.000 C 
BRANCH   4   5
ATOM      5  C   UNL     1      -1.486 -39.662 -20.853  1.00  0.00     0.006 C 
BRANCH   5   6
ATOM      6  C   UNL     1      -0.464 -38.796 -21.607  1.00  0.00     0.053 C 
BRANCH   6   7
ATOM      7  C   UNL     1      -1.129 -37.760 -22.460  1.00  0.00     0.041 C 
ATOM      8  O   UNL     1      -1.419 -36.633 -21.977  1.00  0.00    -0.550 OA
ATOM      9  O   UNL     1      -1.460 -38.050 -23.777  1.00  0.00    -0.550 OA
ENDBRANCH   6   7
ENDBRANCH   5   6
ENDBRANCH   4   5
ENDBRANCH   3   4
ENDBRANCH   2   3
ENDBRANCH   1   2
BRANCH   1  10
ATOM     10  C   UNL     1      -1.395 -44.124 -16.387  1.00  0.00     0.000 C 
BRANCH  10  11
ATOM     11  C   UNL     1      -0.556 -45.392 -16.168  1.00  0.00    -0.000 C 
BRANCH  11  12
ATOM     12  C   UNL     1      -0.228 -46.070 -17.505  1.00  0.00    -0.000 C 
BRANCH  12  13
ATOM     13  C   UNL     1       1.279 -46.341 -17.629  1.00  0.00    -0.000 C 
BRANCH  13  14
ATOM     14  C   UNL     1       2.124 -45.400 -16.757  1.00  0.00    -0.000 C 
BRANCH  14  15
ATOM     15  C   UNL     1       2.550 -44.126 -17.502  1.00  0.00    -0.003 C 
ATOM     16  C   UNL     1       2.622 -42.934 -16.552  1.00  0.00     0.004 C 
ENDBRANCH  14  15
ENDBRANCH  13  14
ENDBRANCH  12  13
ENDBRANCH  11  12
ENDBRANCH  10  11
ENDBRANCH   1  10
TORSDOF 12
ENDMDL
MODEL 3
REMARK VINA RESULT:    -4.245      3.669      7.838
REMARK INTER + INTRA:          -8.361
REMARK INTER:                  -7.516
REMARK INTRA:                  -0.845
REMARK UNBOUND:                -1.139
REMARK SMILES CCCCCCCCCCCCCC(=O)[O-]
REMARK SMILES IDX 8 1 9 2 10 3 11 4 12 5 13 6 14 7 15 8 16 9 7 10 6 11 5 12
REMARK SMILES IDX 4 13 3 14 2 15 1 16
REMARK H PARENT
REMARK Flexibility Score: inf
ROOT
ATOM      1  C   UNL     1       6.358 -31.769 -17.988  1.00  0.00     0.000 C 
ENDROOT
BRANCH   1   2
ATOM      2  C   UNL     1       5.156 -30.847 -18.241  1.00  0.00     0.000 C 
BRANCH   2   3
ATOM      3  C   UNL     1       4.431 -30.519 -16.927  1.00  0.00     0.000 C 
BRANCH   3   4
ATOM      4  C   UNL     1       4.463 -29.018 -16.582  1.00  0.00     0.000 C 
BRANCH   4   5
ATOM      5  C   UNL     1       5.153 -28.122 -17.629  1.00  0.00     0.006 C 
BRANCH   5   6
ATOM      6  C   UNL     1       6.394 -27.377 -17.113  1.00  0.00     0.053 C 
BRANCH   6   7
ATOM      7  C   UNL     1       7.511 -28.316 -16.775  1.00  0.00     0.041 C 
ATOM      8  O   UNL     1       7.725 -28.640 -15.576  1.00  0.00    -0.550 OA
ATOM      9  O   UNL     1       8.337 -28.805 -17.779  1.00  0.00    -0.550 OA
ENDBRANCH   6   7
ENDBRANCH   5   6
ENDBRANCH   4   5
ENDBRANCH   3   4
ENDBRANCH   2   3
ENDBRANCH   1   2
BRANCH   1  10
ATOM     10  C   UNL     1       7.174 -32.043 -19.262  1.00  0.00     0.000 C 
BRANCH  10  11
ATOM     11  C   UNL     1       6.457 -32.996 -20.230  1.00  0.00    -0.000 C 
BRANCH  11  12
ATOM     12  C   UNL     1       7.275 -34.276 -20.445  1.00  0.00    -0.000 C 
BRANCH  12  13
ATOM     13  C   UNL     1       6.381 -35.423 -20.943  1.00  0.00    -0.000 C 
BRANCH  13  14
ATOM     14  C   UNL     1       6.914 -36.073 -22.228  1.00  0.00    -0.000 C 
BRANCH  14  15
ATOM     15  C   UNL     1       5.903 -36.019 -23.383  1.00  0.00    -0.003 C 
ATOM     16  C   UNL     1       4.471 -36.112 -22.864  1.00  0.00     0.004 C 
ENDBRANCH  14  15
ENDBRANCH  13  14
ENDBRANCH  12  13
ENDBRANCH  11  12
ENDBRANCH  10  11
ENDBRANCH   1  10
TORSDOF 12
ENDMDL
MODEL 4
REMARK VINA RESULT:    -4.212      3.933      8.805
REMARK INTER + INTRA:          -8.306
REMARK INTER:                  -7.742
REMARK INTRA:                  -0.564
REMARK UNBOUND:                -1.139
REMARK SMILES CCCCCCCCCCCCCC(=O)[O-]
REMARK SMILES IDX 8 1 9 2 10 3 11 4 12 5 13 6 14 7 15 8 16 9 7 10 6 11 5 12
REMARK SMILES IDX 4 13 3 14 2 15 1 16
REMARK H PARENT
REMARK Flexibility Score: inf
ROOT
ATOM      1  C   UNL     1       6.278 -34.934 -20.924  1.00  0.00     0.000 C 
ENDROOT
BRANCH   1   2
ATOM      2  C   UNL     1       7.323 -33.970 -20.343  1.00  0.00     0.000 C 
BRANCH   2   3
ATOM      3  C   UNL     1       6.690 -32.613 -20.006  1.00  0.00     0.000 C 
BRANCH   3   4
ATOM      4  C   UNL     1       7.151 -32.056 -18.646  1.00  0.00     0.000 C 
BRANCH   4   5
ATOM      5  C   UNL     1       6.060 -31.332 -17.832  1.00  0.00     0.006 C 
BRANCH   5   6
ATOM      6  C   UNL     1       6.539 -30.768 -16.484  1.00  0.00     0.053 C 
BRANCH   6   7
ATOM      7  C   UNL     1       7.086 -29.380 -16.621  1.00  0.00     0.041 C 
ATOM      8  O   UNL     1       6.950 -28.749 -17.703  1.00  0.00    -0.550 OA
ATOM      9  O   UNL     1       7.777 -28.798 -15.566  1.00  0.00    -0.550 OA
ENDBRANCH   6   7
ENDBRANCH   5   6
ENDBRANCH   4   5
ENDBRANCH   3   4
ENDBRANCH   2   3
ENDBRANCH   1   2
BRANCH   1  10
ATOM     10  C   UNL     1       6.797 -35.706 -22.147  1.00  0.00     0.000 C 
BRANCH  10  11
ATOM     11  C   UNL     1       5.687 -36.024 -23.161  1.00  0.00    -0.000 C 
BRANCH  11  12
ATOM     12  C   UNL     1       4.534 -36.783 -22.491  1.00  0.00    -0.000 C 
BRANCH  12  13
ATOM     13  C   UNL     1       3.188 -36.098 -22.770  1.00  0.00    -0.000 C 
BRANCH  13  14
ATOM     14  C   UNL     1       2.872 -36.002 -24.270  1.00  0.00    -0.000 C 
BRANCH  14  15
ATOM     15  C   UNL     1       2.756 -37.380 -24.940  1.00  0.00    -0.003 C 
ATOM     16  C   UNL     1       3.582 -37.438 -26.222  1.00  0.00     0.004 C 
ENDBRANCH  14  15
ENDBRANCH  13  14
ENDBRANCH  12  13
ENDBRANCH  11  12
ENDBRANCH  10  11
ENDBRANCH   1  10
TORSDOF 12
ENDMDL
MODEL 5
REMARK VINA RESULT:    -4.203      9.089     13.139
REMARK INTER + INTRA:          -8.290
REMARK INTER:                  -7.320
REMARK INTRA:                  -0.970
REMARK UNBOUND:                -1.139
REMARK SMILES CCCCCCCCCCCCCC(=O)[O-]
REMARK SMILES IDX 8 1 9 2 10 3 11 4 12 5 13 6 14 7 15 8 16 9 7 10 6 11 5 12
REMARK SMILES IDX 4 13 3 14 2 15 1 16
REMARK H PARENT
REMARK Flexibility Score: inf
ROOT
ATOM      1  C   UNL     1      -1.124 -41.516 -18.081  1.00  0.00     0.000 C 
ENDROOT
BRANCH   1   2
ATOM      2  C   UNL     1      -1.114 -41.540 -19.617  1.00  0.00     0.000 C 
BRANCH   2   3
ATOM      3  C   UNL     1      -1.629 -40.211 -20.189  1.00  0.00     0.000 C 
BRANCH   3   4
ATOM      4  C   UNL     1      -0.682 -39.601 -21.239  1.00  0.00     0.000 C 
BRANCH   4   5
ATOM      5  C   UNL     1      -1.283 -38.452 -22.073  1.00  0.00     0.006 C 
BRANCH   5   6
ATOM      6  C   UNL     1      -0.275 -37.365 -22.480  1.00  0.00     0.053 C 
BRANCH   6   7
ATOM      7  C   UNL     1       0.217 -36.586 -21.299  1.00  0.00     0.041 C 
ATOM      8  O   UNL     1       1.429 -36.646 -20.961  1.00  0.00    -0.550 OA
ATOM      9  O   UNL     1      -0.669 -35.821 -20.552  1.00  0.00    -0.550 OA
ENDBRANCH   6   7
ENDBRANCH   5   6
ENDBRANCH   4   5
ENDBRANCH   3   4
ENDBRANCH   2   3
ENDBRANCH   1   2
BRANCH   1  10
ATOM     10  C   UNL     1       0.280 -41.677 -17.476  1.00  0.00     0.000 C 
BRANCH  10  11
ATOM     11  C   UNL     1       0.244 -41.941 -15.963  1.00  0.00    -0.000 C 
BRANCH  11  12
ATOM     12  C   UNL     1       0.031 -43.432 -15.671  1.00  0.00    -0.000 C 
BRANCH  12  13
ATOM     13  C   UNL     1       0.816 -44.304 -16.662  1.00  0.00    -0.000 C 
BRANCH  13  14
ATOM     14  C   UNL     1      -0.099 -45.162 -17.549  1.00  0.00    -0.000 C 
BRANCH  14  15
ATOM     15  C   UNL     1      -1.439 -45.492 -16.874  1.00  0.00    -0.003 C 
ATOM     16  C   UNL     1      -2.613 -45.124 -17.775  1.00  0.00     0.004 C 
ENDBRANCH  14  15
ENDBRANCH  13  14
ENDBRANCH  12  13
ENDBRANCH  11  12
ENDBRANCH  10  11
ENDBRANCH   1  10
TORSDOF 12
ENDMDL
MODEL 6
REMARK VINA RESULT:    -4.144     10.200     13.204
REMARK INTER + INTRA:          -8.189
REMARK INTER:                  -7.202
REMARK INTRA:                  -0.987
REMARK UNBOUND:                -1.139
REMARK SMILES CCCCCCCCCCCCCC(=O)[O-]
REMARK SMILES IDX 8 1 9 2 10 3 11 4 12 5 13 6 14 7 15 8 16 9 7 10 6 11 5 12
REMARK SMILES IDX 4 13 3 14 2 15 1 16
REMARK H PARENT
REMARK Flexibility Score: inf
ROOT
ATOM      1  C   UNL     1       0.394 -41.949 -17.797  1.00  0.00     0.000 C 
ENDROOT
BRANCH   1   2
ATOM      2  C   UNL     1       1.747 -42.651 -17.984  1.00  0.00     0.000 C 
BRANCH   2   3
ATOM      3  C   UNL     1       1.611 -44.167 -17.780  1.00  0.00     0.000 C 
BRANCH   3   4
ATOM      4  C   UNL     1       1.311 -44.552 -16.319  1.00  0.00     0.000 C 
BRANCH   4   5
ATOM      5  C   UNL     1       0.003 -45.338 -16.105  1.00  0.00     0.006 C 
BRANCH   5   6
ATOM      6  C   UNL     1      -0.547 -46.018 -17.369  1.00  0.00     0.053 C 
BRANCH   6   7
ATOM      7  C   UNL     1      -1.966 -45.627 -17.644  1.00  0.00     0.041 C 
ATOM      8  O   UNL     1      -2.357 -44.454 -17.403  1.00  0.00    -0.550 OA
ATOM      9  O   UNL     1      -2.865 -46.565 -18.134  1.00  0.00    -0.550 OA
ENDBRANCH   6   7
ENDBRANCH   5   6
ENDBRANCH   4   5
ENDBRANCH   3   4
ENDBRANCH   2   3
ENDBRANCH   1   2
BRANCH   1  10
ATOM     10  C   UNL     1      -0.448 -41.933 -19.083  1.00  0.00     0.000 C 
BRANCH  10  11
ATOM     11  C   UNL     1      -1.797 -41.221 -18.898  1.00  0.00    -0.000 C 
BRANCH  11  12
ATOM     12  C   UNL     1      -1.942 -40.054 -19.883  1.00  0.00    -0.000 C 
BRANCH  12  13
ATOM     13  C   UNL     1      -0.780 -40.035 -20.888  1.00  0.00    -0.000 C 
BRANCH  13  14
ATOM     14  C   UNL     1      -0.893 -38.888 -21.903  1.00  0.00    -0.000 C 
BRANCH  14  15
ATOM     15  C   UNL     1       0.022 -37.703 -21.561  1.00  0.00    -0.003 C 
ATOM     16  C   UNL     1      -0.792 -36.443 -21.280  1.00  0.00     0.004 C 
ENDBRANCH  14  15
ENDBRANCH  13  14
ENDBRANCH  12  13
ENDBRANCH  11  12
ENDBRANCH  10  11
ENDBRANCH   1  10
TORSDOF 12
ENDMDL
MODEL 7
REMARK VINA RESULT:    -4.138      1.969      3.705
REMARK INTER + INTRA:          -8.179
REMARK INTER:                  -7.685
REMARK INTRA:                  -0.495
REMARK UNBOUND:                -1.139
REMARK SMILES CCCCCCCCCCCCCC(=O)[O-]
REMARK SMILES IDX 8 1 9 2 10 3 11 4 12 5 13 6 14 7 15 8 16 9 7 10 6 11 5 12
REMARK SMILES IDX 4 13 3 14 2 15 1 16
REMARK H PARENT
REMARK Flexibility Score: inf
ROOT
ATOM      1  C   UNL     1       6.840 -33.927 -20.993  1.00  0.00     0.000 C 
ENDROOT
BRANCH   1   2
ATOM      2  C   UNL     1       6.370 -35.371 -20.763  1.00  0.00     0.000 C 
BRANCH   2   3
ATOM      3  C   UNL     1       6.464 -36.191 -22.058  1.00  0.00     0.000 C 
BRANCH   3   4
ATOM      4  C   UNL     1       5.302 -35.912 -23.031  1.00  0.00     0.000 C 
BRANCH   4   5
ATOM      5  C   UNL     1       3.898 -36.226 -22.478  1.00  0.00     0.006 C 
BRANCH   5   6
ATOM      6  C   UNL     1       3.208 -37.431 -23.137  1.00  0.00     0.053 C 
BRANCH   6   7
ATOM      7  C   UNL     1       1.817 -37.104 -23.586  1.00  0.00     0.041 C 
ATOM      8  O   UNL     1       0.892 -36.975 -22.740  1.00  0.00    -0.550 OA
ATOM      9  O   UNL     1       1.535 -36.977 -24.940  1.00  0.00    -0.550 OA
ENDBRANCH   6   7
ENDBRANCH   5   6
ENDBRANCH   4   5
ENDBRANCH   3   4
ENDBRANCH   2   3
ENDBRANCH   1   2
BRANCH   1  10
ATOM     10  C   UNL     1       7.343 -33.255 -19.706  1.00  0.00     0.000 C 
BRANCH  10  11
ATOM     11  C   UNL     1       6.710 -31.874 -19.474  1.00  0.00    -0.000 C 
BRANCH  11  12
ATOM     12  C   UNL     1       6.158 -31.757 -18.048  1.00  0.00    -0.000 C 
BRANCH  12  13
ATOM     13  C   UNL     1       6.799 -30.574 -17.306  1.00  0.00    -0.000 C 
BRANCH  13  14
ATOM     14  C   UNL     1       5.943 -29.300 -17.371  1.00  0.00    -0.000 C 
BRANCH  14  15
ATOM     15  C   UNL     1       6.791 -28.022 -17.465  1.00  0.00    -0.003 C 
ATOM     16  C   UNL     1       8.277 -28.355 -17.557  1.00  0.00     0.004 C 
ENDBRANCH  14  15
ENDBRANCH  13  14
ENDBRANCH  12  13
ENDBRANCH  11  12
ENDBRANCH  10  11
ENDBRANCH   1  10
TORSDOF 12
ENDMDL
MODEL 8
REMARK VINA RESULT:    -3.831      2.858      4.748
REMARK INTER + INTRA:          -7.657
REMARK INTER:                  -7.357
REMARK INTRA:                  -0.300
REMARK UNBOUND:                -1.139
REMARK SMILES CCCCCCCCCCCCCC(=O)[O-]
REMARK SMILES IDX 8 1 9 2 10 3 11 4 12 5 13 6 14 7 15 8 16 9 7 10 6 11 5 12
REMARK SMILES IDX 4 13 3 14 2 15 1 16
REMARK H PARENT
REMARK Flexibility Score: inf
ROOT
ATOM      1  C   UNL     1       6.366 -34.536 -21.821  1.00  0.00     0.000 C 
ENDROOT
BRANCH   1   2
ATOM      2  C   UNL     1       5.639 -35.885 -21.719  1.00  0.00     0.000 C 
BRANCH   2   3
ATOM      3  C   UNL     1       4.307 -35.848 -22.481  1.00  0.00     0.000 C 
BRANCH   3   4
ATOM      4  C   UNL     1       3.769 -37.252 -22.819  1.00  0.00     0.000 C 
BRANCH   4   5
ATOM      5  C   UNL     1       2.248 -37.329 -23.055  1.00  0.00     0.006 C 
BRANCH   5   6
ATOM      6  C   UNL     1       1.402 -36.564 -22.025  1.00  0.00     0.053 C 
BRANCH   6   7
ATOM      7  C   UNL     1      -0.008 -37.066 -21.974  1.00  0.00     0.041 C 
ATOM      8  O   UNL     1      -0.278 -38.237 -22.352  1.00  0.00    -0.550 OA
ATOM      9  O   UNL     1      -1.030 -36.230 -21.541  1.00  0.00    -0.550 OA
ENDBRANCH   6   7
ENDBRANCH   5   6
ENDBRANCH   4   5
ENDBRANCH   3   4
ENDBRANCH   2   3
ENDBRANCH   1   2
BRANCH   1  10
ATOM     10  C   UNL     1       6.946 -34.070 -20.476  1.00  0.00     0.000 C 
BRANCH  10  11
ATOM     11  C   UNL     1       6.539 -32.631 -20.124  1.00  0.00    -0.000 C 
BRANCH  11  12
ATOM     12  C   UNL     1       7.124 -32.212 -18.769  1.00  0.00    -0.000 C 
BRANCH  12  13
ATOM     13  C   UNL     1       6.299 -31.078 -18.141  1.00  0.00    -0.000 C 
BRANCH  13  14
ATOM     14  C   UNL     1       7.174 -29.936 -17.605  1.00  0.00    -0.000 C 
BRANCH  14  15
ATOM     15  C   UNL     1       7.092 -29.793 -16.078  1.00  0.00    -0.003 C 
ATOM     16  C   UNL     1       7.547 -28.407 -15.631  1.00  0.00     0.004 C 
ENDBRANCH  14  15
ENDBRANCH  13  14
ENDBRANCH  12  13
ENDBRANCH  11  12
ENDBRANCH  10  11
ENDBRANCH   1  10
TORSDOF 12
ENDMDL
MODEL 9
REMARK VINA RESULT:    -3.761     15.476     17.923
REMARK INTER + INTRA:          -7.538
REMARK INTER:                  -5.762
REMARK INTRA:                  -1.776
REMARK UNBOUND:                -1.139
REMARK SMILES CCCCCCCCCCCCCC(=O)[O-]
REMARK SMILES IDX 8 1 9 2 10 3 11 4 12 5 13 6 14 7 15 8 16 9 7 10 6 11 5 12
REMARK SMILES IDX 4 13 3 14 2 15 1 16
REMARK H PARENT
REMARK Flexibility Score: inf
ROOT
ATOM      1  C   UNL     1       8.660 -46.364 -30.392  1.00  0.00     0.000 C 
ENDROOT
BRANCH   1   2
ATOM      2  C   UNL     1       7.140 -46.366 -30.610  1.00  0.00     0.000 C 
BRANCH   2   3
ATOM      3  C   UNL     1       6.782 -45.756 -31.973  1.00  0.00     0.000 C 
BRANCH   3   4
ATOM      4  C   UNL     1       7.987 -45.669 -32.928  1.00  0.00     0.000 C 
BRANCH   4   5
ATOM      5  C   UNL     1       8.191 -44.297 -33.600  1.00  0.00     0.006 C 
BRANCH   5   6
ATOM      6  C   UNL     1       7.403 -44.103 -34.906  1.00  0.00     0.053 C 
BRANCH   6   7
ATOM      7  C   UNL     1       6.117 -43.368 -34.681  1.00  0.00     0.041 C 
ATOM      8  O   UNL     1       6.112 -42.111 -34.608  1.00  0.00    -0.550 OA
ATOM      9  O   UNL     1       4.932 -44.073 -34.518  1.00  0.00    -0.550 OA
ENDBRANCH   6   7
ENDBRANCH   5   6
ENDBRANCH   4   5
ENDBRANCH   3   4
ENDBRANCH   2   3
ENDBRANCH   1   2
BRANCH   1  10
ATOM     10  C   UNL     1       9.050 -46.054 -28.938  1.00  0.00     0.000 C 
BRANCH  10  11
ATOM     11  C   UNL     1       7.883 -45.475 -28.123  1.00  0.00    -0.000 C 
BRANCH  11  12
ATOM     12  C   UNL     1       8.291 -44.168 -27.433  1.00  0.00    -0.000 C 
BRANCH  12  13
ATOM     13  C   UNL     1       8.934 -43.194 -28.432  1.00  0.00    -0.000 C 
BRANCH  13  14
ATOM     14  C   UNL     1       7.917 -42.224 -29.052  1.00  0.00    -0.000 C 
BRANCH  14  15
ATOM     15  C   UNL     1       7.783 -42.397 -30.572  1.00  0.00    -0.003 C 
ATOM     16  C   UNL     1       6.333 -42.238 -31.017  1.00  0.00     0.004 C 
ENDBRANCH  14  15
ENDBRANCH  13  14
ENDBRANCH  12  13
ENDBRANCH  11  12
ENDBRANCH  10  11
ENDBRANCH   1  10
TORSDOF 12
ENDMDL
