MODEL 1
REMARK VINA RESULT:    -6.568      0.000      0.000
REMARK INTER + INTRA:          -7.983
REMARK INTER:                  -7.720
REMARK INTRA:                  -0.263
REMARK UNBOUND:                -0.263
REMARK SMILES O=c1cc(-c2ccc(O)c(O)c2)oc2cc(O)cc(O)c12
REMARK SMILES IDX 4 1 3 2 2 3 1 4 21 5 19 6 18 7 16 8 15 9 14 10 13 11 5 12
REMARK SMILES IDX 6 13 7 14 8 15 12 16 10 17 9 18 11 20 20 22 17 24
REMARK H PARENT 9 19 11 21 20 23 17 25
REMARK Flexibility Score: inf
ROOT
ATOM      1  C   UNL     1     479.641  37.651 459.509  1.00  0.00     0.138 A 
ATOM      2  C   UNL     1     478.873  38.746 459.928  1.00  0.00     0.100 A 
ATOM      3  C   UNL     1     477.834  38.554 460.839  1.00  0.00     0.197 A 
ATOM      4  O   UNL     1     477.200  39.565 461.237  1.00  0.00    -0.289 OA
ATOM      5  C   UNL     1     477.540  37.250 461.306  1.00  0.00     0.107 A 
ATOM      6  C   UNL     1     476.482  36.928 462.210  1.00  0.00     0.134 A 
ATOM      7  C   UNL     1     476.351  35.615 462.679  1.00  0.00     0.093 A 
ATOM      8  C   UNL     1     477.200  34.602 462.233  1.00  0.00     0.123 A 
ATOM      9  C   UNL     1     478.204  34.895 461.311  1.00  0.00     0.094 A 
ATOM     10  C   UNL     1     478.384  36.202 460.851  1.00  0.00     0.146 A 
ATOM     11  O   UNL     1     479.364  36.442 459.988  1.00  0.00    -0.456 OA
ENDROOT
BRANCH   1  12
ATOM     12  C   UNL     1     480.756  37.798 458.540  1.00  0.00     0.021 A 
ATOM     13  C   UNL     1     480.639  37.365 457.205  1.00  0.00     0.016 A 
ATOM     14  C   UNL     1     481.703  37.526 456.313  1.00  0.00     0.051 A 
ATOM     15  C   UNL     1     482.893  38.128 456.731  1.00  0.00     0.157 A 
ATOM     16  C   UNL     1     481.952  38.414 458.950  1.00  0.00     0.062 A 
ATOM     17  C   UNL     1     483.019  38.576 458.056  1.00  0.00     0.158 A 
BRANCH  15  18
ATOM     18  O   UNL     1     483.937  38.273 455.817  1.00  0.00    -0.504 OA
ATOM     19  H   UNL     1     484.750  38.842 456.016  1.00  0.00     0.293 HD
ENDBRANCH  15  18
BRANCH  17  20
ATOM     20  O   UNL     1     484.202  39.180 458.479  1.00  0.00    -0.504 OA
ATOM     21  H   UNL     1     484.251  39.705 459.344  1.00  0.00     0.293 HD
ENDBRANCH  17  20
ENDBRANCH   1  12
BRANCH   6  22
ATOM     22  O   UNL     1     475.529  37.847 462.659  1.00  0.00    -0.507 OA
ATOM     23  H   UNL     1     475.603  38.393 463.503  1.00  0.00     0.293 HD
ENDBRANCH   6  22
BRANCH   8  24
ATOM     24  O   UNL     1     477.028  33.304 462.709  1.00  0.00    -0.508 OA
ATOM     25  H   UNL     1     476.133  32.832 462.650  1.00  0.00     0.293 HD
ENDBRANCH   8  24
TORSDOF 5
ENDMDL
MODEL 2
REMARK VINA RESULT:    -5.963      1.447      7.261
REMARK INTER + INTRA:          -7.271
REMARK INTER:                  -7.008
REMARK INTRA:                  -0.263
REMARK UNBOUND:                -0.263
REMARK SMILES O=c1cc(-c2ccc(O)c(O)c2)oc2cc(O)cc(O)c12
REMARK SMILES IDX 4 1 3 2 2 3 1 4 21 5 19 6 18 7 16 8 15 9 14 10 13 11 5 12
REMARK SMILES IDX 6 13 7 14 8 15 12 16 10 17 9 18 11 20 20 22 17 24
REMARK H PARENT 9 19 11 21 20 23 17 25
REMARK Flexibility Score: inf
ROOT
ATOM      1  C   UNL     1     480.184  37.889 459.388  1.00  0.00     0.138 A 
ATOM      2  C   UNL     1     480.132  37.655 458.007  1.00  0.00     0.100 A 
ATOM      3  C   UNL     1     481.286  37.803 457.238  1.00  0.00     0.197 A 
ATOM      4  O   UNL     1     481.220  37.532 456.011  1.00  0.00    -0.289 OA
ATOM      5  C   UNL     1     482.491  38.224 457.851  1.00  0.00     0.107 A 
ATOM      6  C   UNL     1     483.723  38.442 457.161  1.00  0.00     0.134 A 
ATOM      7  C   UNL     1     484.875  38.762 457.891  1.00  0.00     0.093 A 
ATOM      8  C   UNL     1     484.828  38.928 459.275  1.00  0.00     0.123 A 
ATOM      9  C   UNL     1     483.620  38.767 459.953  1.00  0.00     0.094 A 
ATOM     10  C   UNL     1     482.460  38.413 459.259  1.00  0.00     0.146 A 
ATOM     11  O   UNL     1     481.335  38.251 459.944  1.00  0.00    -0.456 OA
ENDROOT
BRANCH   1  12
ATOM     12  C   UNL     1     478.985  37.748 460.254  1.00  0.00     0.021 A 
ATOM     13  C   UNL     1     478.093  38.817 460.464  1.00  0.00     0.016 A 
ATOM     14  C   UNL     1     476.968  38.651 461.276  1.00  0.00     0.051 A 
ATOM     15  C   UNL     1     476.707  37.420 461.884  1.00  0.00     0.157 A 
ATOM     16  C   UNL     1     478.710  36.508 460.858  1.00  0.00     0.062 A 
ATOM     17  C   UNL     1     477.582  36.341 461.673  1.00  0.00     0.158 A 
BRANCH  15  18
ATOM     18  O   UNL     1     475.577  37.286 462.690  1.00  0.00    -0.504 OA
ATOM     19  H   UNL     1     475.152  36.386 462.875  1.00  0.00     0.293 HD
ENDBRANCH  15  18
BRANCH  17  20
ATOM     20  O   UNL     1     477.327  35.109 462.273  1.00  0.00    -0.504 OA
ATOM     21  H   UNL     1     478.068  34.442 462.454  1.00  0.00     0.293 HD
ENDBRANCH  17  20
ENDBRANCH   1  12
BRANCH   6  22
ATOM     22  O   UNL     1     483.864  38.380 455.772  1.00  0.00    -0.507 OA
ATOM     23  H   UNL     1     483.548  39.085 455.125  1.00  0.00     0.293 HD
ENDBRANCH   6  22
BRANCH   8  24
ATOM     24  O   UNL     1     485.992  39.262 459.965  1.00  0.00    -0.508 OA
ATOM     25  H   UNL     1     485.963  39.589 460.924  1.00  0.00     0.293 HD
ENDBRANCH   8  24
TORSDOF 5
ENDMDL
MODEL 3
REMARK VINA RESULT:    -5.584      1.471      6.966
REMARK INTER + INTRA:          -6.827
REMARK INTER:                  -6.552
REMARK INTRA:                  -0.275
REMARK UNBOUND:                -0.263
REMARK SMILES O=c1cc(-c2ccc(O)c(O)c2)oc2cc(O)cc(O)c12
REMARK SMILES IDX 4 1 3 2 2 3 1 4 21 5 19 6 18 7 16 8 15 9 14 10 13 11 5 12
REMARK SMILES IDX 6 13 7 14 8 15 12 16 10 17 9 18 11 20 20 22 17 24
REMARK H PARENT 9 19 11 21 20 23 17 25
REMARK Flexibility Score: inf
ROOT
ATOM      1  C   UNL     1     479.254  37.582 460.510  1.00  0.00     0.138 A 
ATOM      2  C   UNL     1     480.051  38.611 461.030  1.00  0.00     0.100 A 
ATOM      3  C   UNL     1     481.027  39.202 460.228  1.00  0.00     0.197 A 
ATOM      4  O   UNL     1     481.687  40.160 460.706  1.00  0.00    -0.289 OA
ATOM      5  C   UNL     1     481.231  38.734 458.908  1.00  0.00     0.107 A 
ATOM      6  C   UNL     1     482.220  39.237 458.009  1.00  0.00     0.134 A 
ATOM      7  C   UNL     1     482.261  38.762 456.692  1.00  0.00     0.093 A 
ATOM      8  C   UNL     1     481.389  37.764 456.258  1.00  0.00     0.123 A 
ATOM      9  C   UNL     1     480.452  37.229 457.142  1.00  0.00     0.094 A 
ATOM     10  C   UNL     1     480.362  37.706 458.453  1.00  0.00     0.146 A 
ATOM     11  O   UNL     1     479.444  37.183 459.257  1.00  0.00    -0.456 OA
ENDROOT
BRANCH   1  12
ATOM     12  C   UNL     1     478.202  36.917 461.320  1.00  0.00     0.021 A 
ATOM     13  C   UNL     1     477.077  37.618 461.794  1.00  0.00     0.016 A 
ATOM     14  C   UNL     1     476.099  36.962 462.546  1.00  0.00     0.051 A 
ATOM     15  C   UNL     1     476.219  35.599 462.831  1.00  0.00     0.157 A 
ATOM     16  C   UNL     1     478.311  35.542 461.599  1.00  0.00     0.062 A 
ATOM     17  C   UNL     1     477.330  34.884 462.354  1.00  0.00     0.158 A 
BRANCH  15  18
ATOM     18  O   UNL     1     475.227  34.973 463.585  1.00  0.00    -0.504 OA
ATOM     19  H   UNL     1     475.115  33.967 463.597  1.00  0.00     0.293 HD
ENDBRANCH  15  18
BRANCH  17  20
ATOM     20  O   UNL     1     477.456  33.523 462.632  1.00  0.00    -0.504 OA
ATOM     21  H   UNL     1     477.216  32.817 461.946  1.00  0.00     0.293 HD
ENDBRANCH  17  20
ENDBRANCH   1  12
BRANCH   6  22
ATOM     22  O   UNL     1     483.192  40.179 458.360  1.00  0.00    -0.507 OA
ATOM     23  H   UNL     1     483.185  40.732 459.203  1.00  0.00     0.293 HD
ENDBRANCH   6  22
BRANCH   8  24
ATOM     24  O   UNL     1     481.470  37.305 454.945  1.00  0.00    -0.508 OA
ATOM     25  H   UNL     1     480.759  37.533 454.259  1.00  0.00     0.293 HD
ENDBRANCH   8  24
TORSDOF 5
ENDMDL
MODEL 4
REMARK VINA RESULT:    -5.503      1.881      2.654
REMARK INTER + INTRA:          -6.730
REMARK INTER:                  -6.425
REMARK INTRA:                  -0.306
REMARK UNBOUND:                -0.263
REMARK SMILES O=c1cc(-c2ccc(O)c(O)c2)oc2cc(O)cc(O)c12
REMARK SMILES IDX 4 1 3 2 2 3 1 4 21 5 19 6 18 7 16 8 15 9 14 10 13 11 5 12
REMARK SMILES IDX 6 13 7 14 8 15 12 16 10 17 9 18 11 20 20 22 17 24
REMARK H PARENT 9 19 11 21 20 23 17 25
REMARK Flexibility Score: inf
ROOT
ATOM      1  C   UNL     1     480.762  39.469 460.196  1.00  0.00     0.138 A 
ATOM      2  C   UNL     1     480.004  40.643 460.307  1.00  0.00     0.100 A 
ATOM      3  C   UNL     1     478.694  40.577 460.781  1.00  0.00     0.197 A 
ATOM      4  O   UNL     1     478.059  41.654 460.921  1.00  0.00    -0.289 OA
ATOM      5  C   UNL     1     478.127  39.322 461.111  1.00  0.00     0.107 A 
ATOM      6  C   UNL     1     476.789  39.129 461.571  1.00  0.00     0.134 A 
ATOM      7  C   UNL     1     476.372  37.850 461.961  1.00  0.00     0.093 A 
ATOM      8  C   UNL     1     477.223  36.750 461.854  1.00  0.00     0.123 A 
ATOM      9  C   UNL     1     478.515  36.919 461.358  1.00  0.00     0.094 A 
ATOM     10  C   UNL     1     478.974  38.187 460.993  1.00  0.00     0.146 A 
ATOM     11  O   UNL     1     480.217  38.308 460.543  1.00  0.00    -0.456 OA
ENDROOT
BRANCH   1  12
ATOM     12  C   UNL     1     482.161  39.481 459.695  1.00  0.00     0.021 A 
ATOM     13  C   UNL     1     483.014  40.580 459.908  1.00  0.00     0.016 A 
ATOM     14  C   UNL     1     484.328  40.558 459.434  1.00  0.00     0.051 A 
ATOM     15  C   UNL     1     484.817  39.442 458.749  1.00  0.00     0.157 A 
ATOM     16  C   UNL     1     482.662  38.355 459.017  1.00  0.00     0.062 A 
ATOM     17  C   UNL     1     483.980  38.333 458.540  1.00  0.00     0.158 A 
BRANCH  15  18
ATOM     18  O   UNL     1     486.132  39.451 458.287  1.00  0.00    -0.504 OA
ATOM     19  H   UNL     1     486.876  39.915 458.792  1.00  0.00     0.293 HD
ENDBRANCH  15  18
BRANCH  17  20
ATOM     20  O   UNL     1     484.461  37.215 457.861  1.00  0.00    -0.504 OA
ATOM     21  H   UNL     1     485.215  36.650 458.235  1.00  0.00     0.293 HD
ENDBRANCH  17  20
ENDBRANCH   1  12
BRANCH   6  22
ATOM     22  O   UNL     1     475.831  40.144 461.643  1.00  0.00    -0.507 OA
ATOM     23  H   UNL     1     476.032  41.132 461.644  1.00  0.00     0.293 HD
ENDBRANCH   6  22
BRANCH   8  24
ATOM     24  O   UNL     1     476.768  35.490 462.237  1.00  0.00    -0.508 OA
ATOM     25  H   UNL     1     476.460  34.807 461.553  1.00  0.00     0.293 HD
ENDBRANCH   8  24
TORSDOF 5
ENDMDL
MODEL 5
REMARK VINA RESULT:    -5.458      1.412      7.275
REMARK INTER + INTRA:          -6.678
REMARK INTER:                  -6.413
REMARK INTRA:                  -0.265
REMARK UNBOUND:                -0.263
REMARK SMILES O=c1cc(-c2ccc(O)c(O)c2)oc2cc(O)cc(O)c12
REMARK SMILES IDX 4 1 3 2 2 3 1 4 21 5 19 6 18 7 16 8 15 9 14 10 13 11 5 12
REMARK SMILES IDX 6 13 7 14 8 15 12 16 10 17 9 18 11 20 20 22 17 24
REMARK H PARENT 9 19 11 21 20 23 17 25
REMARK Flexibility Score: inf
ROOT
ATOM      1  C   UNL     1     480.091  38.034 459.337  1.00  0.00     0.138 A 
ATOM      2  C   UNL     1     481.381  38.254 459.840  1.00  0.00     0.100 A 
ATOM      3  C   UNL     1     482.444  38.441 458.956  1.00  0.00     0.197 A 
ATOM      4  O   UNL     1     483.578  38.691 459.438  1.00  0.00    -0.289 OA
ATOM      5  C   UNL     1     482.220  38.370 457.560  1.00  0.00     0.107 A 
ATOM      6  C   UNL     1     483.233  38.511 456.564  1.00  0.00     0.134 A 
ATOM      7  C   UNL     1     482.873  38.521 455.210  1.00  0.00     0.093 A 
ATOM      8  C   UNL     1     481.549  38.338 454.815  1.00  0.00     0.123 A 
ATOM      9  C   UNL     1     480.557  38.150 455.777  1.00  0.00     0.094 A 
ATOM     10  C   UNL     1     480.878  38.169 457.137  1.00  0.00     0.146 A 
ATOM     11  O   UNL     1     479.901  38.004 458.022  1.00  0.00    -0.456 OA
ENDROOT
BRANCH   1  12
ATOM     12  C   UNL     1     478.924  37.827 460.232  1.00  0.00     0.021 A 
ATOM     13  C   UNL     1     477.975  38.841 460.459  1.00  0.00     0.016 A 
ATOM     14  C   UNL     1     476.882  38.613 461.300  1.00  0.00     0.051 A 
ATOM     15  C   UNL     1     476.711  37.372 461.919  1.00  0.00     0.157 A 
ATOM     16  C   UNL     1     478.739  36.575 460.848  1.00  0.00     0.062 A 
ATOM     17  C   UNL     1     477.643  36.346 461.691  1.00  0.00     0.158 A 
BRANCH  15  18
ATOM     18  O   UNL     1     475.611  37.175 462.753  1.00  0.00    -0.504 OA
ATOM     19  H   UNL     1     475.676  37.263 463.759  1.00  0.00     0.293 HD
ENDBRANCH  15  18
BRANCH  17  20
ATOM     20  O   UNL     1     477.477  35.104 462.303  1.00  0.00    -0.504 OA
ATOM     21  H   UNL     1     476.749  34.462 462.012  1.00  0.00     0.293 HD
ENDBRANCH  17  20
ENDBRANCH   1  12
BRANCH   6  22
ATOM     22  O   UNL     1     484.598  38.620 456.845  1.00  0.00    -0.507 OA
ATOM     23  H   UNL     1     485.133  39.474 456.798  1.00  0.00     0.293 HD
ENDBRANCH   6  22
BRANCH   8  24
ATOM     24  O   UNL     1     481.231  38.338 453.458  1.00  0.00    -0.508 OA
ATOM     25  H   UNL     1     481.456  39.126 452.861  1.00  0.00     0.293 HD
ENDBRANCH   8  24
TORSDOF 5
ENDMDL
MODEL 6
REMARK VINA RESULT:    -5.370      1.223      2.824
REMARK INTER + INTRA:          -6.575
REMARK INTER:                  -6.306
REMARK INTRA:                  -0.269
REMARK UNBOUND:                -0.263
REMARK SMILES O=c1cc(-c2ccc(O)c(O)c2)oc2cc(O)cc(O)c12
REMARK SMILES IDX 4 1 3 2 2 3 1 4 21 5 19 6 18 7 16 8 15 9 14 10 13 11 5 12
REMARK SMILES IDX 6 13 7 14 8 15 12 16 10 17 9 18 11 20 20 22 17 24
REMARK H PARENT 9 19 11 21 20 23 17 25
REMARK Flexibility Score: inf
ROOT
ATOM      1  C   UNL     1     479.678  37.531 459.494  1.00  0.00     0.138 A 
ATOM      2  C   UNL     1     479.350  36.270 460.011  1.00  0.00     0.100 A 
ATOM      3  C   UNL     1     478.261  36.139 460.873  1.00  0.00     0.197 A 
ATOM      4  O   UNL     1     477.959  34.986 461.276  1.00  0.00    -0.289 OA
ATOM      5  C   UNL     1     477.519  37.285 461.249  1.00  0.00     0.107 A 
ATOM      6  C   UNL     1     476.410  37.278 462.149  1.00  0.00     0.134 A 
ATOM      7  C   UNL     1     475.692  38.460 462.367  1.00  0.00     0.093 A 
ATOM      8  C   UNL     1     476.075  39.658 461.765  1.00  0.00     0.123 A 
ATOM      9  C   UNL     1     477.187  39.687 460.924  1.00  0.00     0.094 A 
ATOM     10  C   UNL     1     477.905  38.518 460.658  1.00  0.00     0.146 A 
ATOM     11  O   UNL     1     478.946  38.585 459.837  1.00  0.00    -0.456 OA
ENDROOT
BRANCH   1  12
ATOM     12  C   UNL     1     480.828  37.728 458.574  1.00  0.00     0.021 A 
ATOM     13  C   UNL     1     480.775  37.327 457.226  1.00  0.00     0.016 A 
ATOM     14  C   UNL     1     481.870  37.535 456.382  1.00  0.00     0.051 A 
ATOM     15  C   UNL     1     483.029  38.150 456.863  1.00  0.00     0.157 A 
ATOM     16  C   UNL     1     481.992  38.358 459.048  1.00  0.00     0.062 A 
ATOM     17  C   UNL     1     483.091  38.566 458.203  1.00  0.00     0.158 A 
BRANCH  15  18
ATOM     18  O   UNL     1     484.105  38.342 455.997  1.00  0.00    -0.504 OA
ATOM     19  H   UNL     1     485.039  38.024 456.221  1.00  0.00     0.293 HD
ENDBRANCH  15  18
BRANCH  17  20
ATOM     20  O   UNL     1     484.243  39.184 458.689  1.00  0.00    -0.504 OA
ATOM     21  H   UNL     1     484.492  39.145 459.670  1.00  0.00     0.293 HD
ENDBRANCH  17  20
ENDBRANCH   1  12
BRANCH   6  22
ATOM     22  O   UNL     1     475.989  36.153 462.865  1.00  0.00    -0.507 OA
ATOM     23  H   UNL     1     475.041  35.972 463.154  1.00  0.00     0.293 HD
ENDBRANCH   6  22
BRANCH   8  24
ATOM     24  O   UNL     1     475.346  40.818 462.019  1.00  0.00    -0.508 OA
ATOM     25  H   UNL     1     475.299  41.222 462.947  1.00  0.00     0.293 HD
ENDBRANCH   8  24
TORSDOF 5
ENDMDL
MODEL 7
REMARK VINA RESULT:    -5.296      2.240      7.335
REMARK INTER + INTRA:          -6.488
REMARK INTER:                  -6.217
REMARK INTRA:                  -0.271
REMARK UNBOUND:                -0.263
REMARK SMILES O=c1cc(-c2ccc(O)c(O)c2)oc2cc(O)cc(O)c12
REMARK SMILES IDX 4 1 3 2 2 3 1 4 21 5 19 6 18 7 16 8 15 9 14 10 13 11 5 12
REMARK SMILES IDX 6 13 7 14 8 15 12 16 10 17 9 18 11 20 20 22 17 24
REMARK H PARENT 9 19 11 21 20 23 17 25
REMARK Flexibility Score: inf
ROOT
ATOM      1  C   UNL     1     480.749  39.007 461.219  1.00  0.00     0.138 A 
ATOM      2  C   UNL     1     481.639  39.565 462.147  1.00  0.00     0.100 A 
ATOM      3  C   UNL     1     482.986  39.706 461.815  1.00  0.00     0.197 A 
ATOM      4  O   UNL     1     483.748  40.261 462.648  1.00  0.00    -0.289 OA
ATOM      5  C   UNL     1     483.453  39.250 460.559  1.00  0.00     0.107 A 
ATOM      6  C   UNL     1     484.812  39.309 460.124  1.00  0.00     0.134 A 
ATOM      7  C   UNL     1     485.136  38.917 458.818  1.00  0.00     0.093 A 
ATOM      8  C   UNL     1     484.164  38.415 457.954  1.00  0.00     0.123 A 
ATOM      9  C   UNL     1     482.842  38.306 458.385  1.00  0.00     0.094 A 
ATOM     10  C   UNL     1     482.479  38.720 459.669  1.00  0.00     0.146 A 
ATOM     11  O   UNL     1     481.207  38.617 460.034  1.00  0.00    -0.456 OA
ENDROOT
BRANCH   1  12
ATOM     12  C   UNL     1     479.306  38.832 461.521  1.00  0.00     0.021 A 
ATOM     13  C   UNL     1     478.439  39.933 461.657  1.00  0.00     0.016 A 
ATOM     14  C   UNL     1     477.083  39.736 461.932  1.00  0.00     0.051 A 
ATOM     15  C   UNL     1     476.567  38.445 462.067  1.00  0.00     0.157 A 
ATOM     16  C   UNL     1     478.778  37.534 461.645  1.00  0.00     0.062 A 
ATOM     17  C   UNL     1     477.418  37.337 461.922  1.00  0.00     0.158 A 
BRANCH  15  18
ATOM     18  O   UNL     1     475.210  38.281 462.343  1.00  0.00    -0.504 OA
ATOM     19  H   UNL     1     474.832  38.398 463.275  1.00  0.00     0.293 HD
ENDBRANCH  15  18
BRANCH  17  20
ATOM     20  O   UNL     1     476.910  36.045 462.052  1.00  0.00    -0.504 OA
ATOM     21  H   UNL     1     477.126  35.319 461.379  1.00  0.00     0.293 HD
ENDBRANCH  17  20
ENDBRANCH   1  12
BRANCH   6  22
ATOM     22  O   UNL     1     485.876  39.720 460.932  1.00  0.00    -0.507 OA
ATOM     23  H   UNL     1     486.621  40.334 460.642  1.00  0.00     0.293 HD
ENDBRANCH   6  22
BRANCH   8  24
ATOM     24  O   UNL     1     484.527  38.020 456.668  1.00  0.00    -0.508 OA
ATOM     25  H   UNL     1     484.843  38.691 455.977  1.00  0.00     0.293 HD
ENDBRANCH   8  24
TORSDOF 5
ENDMDL
MODEL 8
REMARK VINA RESULT:    -5.286      2.611      7.447
REMARK INTER + INTRA:          -6.475
REMARK INTER:                  -6.213
REMARK INTRA:                  -0.262
REMARK UNBOUND:                -0.263
REMARK SMILES O=c1cc(-c2ccc(O)c(O)c2)oc2cc(O)cc(O)c12
REMARK SMILES IDX 4 1 3 2 2 3 1 4 21 5 19 6 18 7 16 8 15 9 14 10 13 11 5 12
REMARK SMILES IDX 6 13 7 14 8 15 12 16 10 17 9 18 11 20 20 22 17 24
REMARK H PARENT 9 19 11 21 20 23 17 25
REMARK Flexibility Score: inf
ROOT
ATOM      1  C   UNL     1     480.928  38.791 460.527  1.00  0.00     0.138 A 
ATOM      2  C   UNL     1     481.425  38.373 459.284  1.00  0.00     0.100 A 
ATOM      3  C   UNL     1     482.786  38.503 459.006  1.00  0.00     0.197 A 
ATOM      4  O   UNL     1     483.210  38.069 457.905  1.00  0.00    -0.289 OA
ATOM      5  C   UNL     1     483.647  39.090 459.965  1.00  0.00     0.107 A 
ATOM      6  C   UNL     1     485.047  39.306 459.778  1.00  0.00     0.134 A 
ATOM      7  C   UNL     1     485.815  39.803 460.838  1.00  0.00     0.093 A 
ATOM      8  C   UNL     1     485.227  40.147 462.055  1.00  0.00     0.123 A 
ATOM      9  C   UNL     1     483.853  39.988 462.232  1.00  0.00     0.094 A 
ATOM     10  C   UNL     1     483.064  39.461 461.206  1.00  0.00     0.146 A 
ATOM     11  O   UNL     1     481.763  39.308 461.421  1.00  0.00    -0.456 OA
ENDROOT
BRANCH   1  12
ATOM     12  C   UNL     1     479.488  38.677 460.874  1.00  0.00     0.021 A 
ATOM     13  C   UNL     1     478.620  39.784 460.806  1.00  0.00     0.016 A 
ATOM     14  C   UNL     1     477.267  39.644 461.130  1.00  0.00     0.051 A 
ATOM     15  C   UNL     1     476.756  38.402 461.517  1.00  0.00     0.157 A 
ATOM     16  C   UNL     1     478.965  37.428 461.252  1.00  0.00     0.062 A 
ATOM     17  C   UNL     1     477.608  37.287 461.577  1.00  0.00     0.158 A 
BRANCH  15  18
ATOM     18  O   UNL     1     475.403  38.294 461.835  1.00  0.00    -0.504 OA
ATOM     19  H   UNL     1     474.934  38.970 462.425  1.00  0.00     0.293 HD
ENDBRANCH  15  18
BRANCH  17  20
ATOM     20  O   UNL     1     477.105  36.044 461.960  1.00  0.00    -0.504 OA
ATOM     21  H   UNL     1     476.804  35.862 462.910  1.00  0.00     0.293 HD
ENDBRANCH  17  20
ENDBRANCH   1  12
BRANCH   6  22
ATOM     22  O   UNL     1     485.722  39.071 458.577  1.00  0.00    -0.507 OA
ATOM     23  H   UNL     1     485.633  38.239 458.014  1.00  0.00     0.293 HD
ENDBRANCH   6  22
BRANCH   8  24
ATOM     24  O   UNL     1     486.021  40.655 463.082  1.00  0.00    -0.508 OA
ATOM     25  H   UNL     1     485.679  40.720 464.033  1.00  0.00     0.293 HD
ENDBRANCH   8  24
TORSDOF 5
ENDMDL
MODEL 9
REMARK VINA RESULT:    -5.244      4.935      7.862
REMARK INTER + INTRA:          -6.427
REMARK INTER:                  -6.119
REMARK INTRA:                  -0.308
REMARK UNBOUND:                -0.263
REMARK SMILES O=c1cc(-c2ccc(O)c(O)c2)oc2cc(O)cc(O)c12
REMARK SMILES IDX 4 1 3 2 2 3 1 4 21 5 19 6 18 7 16 8 15 9 14 10 13 11 5 12
REMARK SMILES IDX 6 13 7 14 8 15 12 16 10 17 9 18 11 20 20 22 17 24
REMARK H PARENT 9 19 11 21 20 23 17 25
REMARK Flexibility Score: inf
ROOT
ATOM      1  C   UNL     1     484.047  39.545 461.130  1.00  0.00     0.138 A 
ATOM      2  C   UNL     1     483.420  39.352 462.368  1.00  0.00     0.100 A 
ATOM      3  C   UNL     1     484.015  39.847 463.529  1.00  0.00     0.197 A 
ATOM      4  O   UNL     1     483.400  39.706 464.617  1.00  0.00    -0.289 OA
ATOM      5  C   UNL     1     485.265  40.507 463.452  1.00  0.00     0.107 A 
ATOM      6  C   UNL     1     485.984  41.022 464.573  1.00  0.00     0.134 A 
ATOM      7  C   UNL     1     487.166  41.745 464.362  1.00  0.00     0.093 A 
ATOM      8  C   UNL     1     487.684  41.920 463.079  1.00  0.00     0.123 A 
ATOM      9  C   UNL     1     487.017  41.377 461.982  1.00  0.00     0.094 A 
ATOM     10  C   UNL     1     485.818  40.681 462.155  1.00  0.00     0.146 A 
ATOM     11  O   UNL     1     485.204  40.196 461.081  1.00  0.00    -0.456 OA
ENDROOT
BRANCH   1  12
ATOM     12  C   UNL     1     483.459  39.038 459.864  1.00  0.00     0.021 A 
ATOM     13  C   UNL     1     482.069  38.885 459.702  1.00  0.00     0.016 A 
ATOM     14  C   UNL     1     481.544  38.414 458.495  1.00  0.00     0.051 A 
ATOM     15  C   UNL     1     482.391  38.098 457.429  1.00  0.00     0.157 A 
ATOM     16  C   UNL     1     484.305  38.731 458.783  1.00  0.00     0.062 A 
ATOM     17  C   UNL     1     483.779  38.258 457.572  1.00  0.00     0.158 A 
BRANCH  15  18
ATOM     18  O   UNL     1     481.838  37.629 456.238  1.00  0.00    -0.504 OA
ATOM     19  H   UNL     1     482.065  36.717 455.862  1.00  0.00     0.293 HD
ENDBRANCH  15  18
BRANCH  17  20
ATOM     20  O   UNL     1     484.630  37.948 456.512  1.00  0.00    -0.504 OA
ATOM     21  H   UNL     1     484.274  37.764 455.581  1.00  0.00     0.293 HD
ENDBRANCH  17  20
ENDBRANCH   1  12
BRANCH   6  22
ATOM     22  O   UNL     1     485.598  40.838 465.904  1.00  0.00    -0.507 OA
ATOM     23  H   UNL     1     485.166  40.004 466.272  1.00  0.00     0.293 HD
ENDBRANCH   6  22
BRANCH   8  24
ATOM     24  O   UNL     1     488.871  42.630 462.910  1.00  0.00    -0.508 OA
ATOM     25  H   UNL     1     489.773  42.170 462.944  1.00  0.00     0.293 HD
ENDBRANCH   8  24
TORSDOF 5
ENDMDL
