MODEL 1
REMARK VINA RESULT:    -5.035      0.000      0.000
REMARK INTER + INTRA:          -8.826
REMARK INTER:                  -7.832
REMARK INTRA:                  -0.994
REMARK UNBOUND:                -0.994
REMARK SMILES COc1cc(CNC(=O)CCCCC=CC(C)C)ccc1O
REMARK SMILES IDX 11 1 12 2 13 3 14 4 15 5 16 6 17 7 18 8 10 9 8 10 9 11 7 12
REMARK SMILES IDX 6 14 5 15 4 16 19 17 3 18 20 19 21 20 2 21 1 22 22 23
REMARK H PARENT 7 13 22 24
REMARK Flexibility Score: inf
ROOT
ATOM      1  C   UNL     1       7.739  19.490  23.304  1.00  0.00     0.010 C 
ENDROOT
BRANCH   1   2
ATOM      2  C   UNL     1       7.070  18.334  22.548  1.00  0.00     0.005 C 
BRANCH   2   3
ATOM      3  C   UNL     1       5.539  18.371  22.675  1.00  0.00     0.027 C 
BRANCH   3   4
ATOM      4  C   UNL     1       4.887  19.093  21.520  1.00  0.00    -0.031 C 
ATOM      5  C   UNL     1       3.743  19.800  21.597  1.00  0.00    -0.028 C 
BRANCH   5   6
ATOM      6  C   UNL     1       2.934  20.022  22.858  1.00  0.00     0.005 C 
ATOM      7  C   UNL     1       3.427  21.285  23.569  1.00  0.00     0.012 C 
ATOM      8  C   UNL     1       1.449  20.147  22.505  1.00  0.00     0.012 C 
ENDBRANCH   5   6
ENDBRANCH   3   4
ENDBRANCH   2   3
ENDBRANCH   1   2
BRANCH   1   9
ATOM      9  C   UNL     1       6.842  19.997  24.438  1.00  0.00     0.100 C 
BRANCH   9  10
ATOM     10  C   UNL     1       7.556  19.890  25.751  1.00  0.00     0.220 C 
ATOM     11  O   UNL     1       6.966  20.248  26.807  1.00  0.00    -0.275 OA
ATOM     12  N   UNL     1       8.878  19.337  25.806  1.00  0.00    -0.352 N 
ATOM     13  H   UNL     1       9.335  19.035  24.916  1.00  0.00     0.163 HD
BRANCH  12  14
ATOM     14  C   UNL     1       9.524  18.974  27.064  1.00  0.00     0.151 C 
BRANCH  14  15
ATOM     15  C   UNL     1      10.993  19.290  26.990  1.00  0.00    -0.025 A 
ATOM     16  C   UNL     1      11.578  19.660  25.768  1.00  0.00     0.056 A 
ATOM     17  C   UNL     1      11.773  19.283  28.154  1.00  0.00     0.009 A 
ATOM     18  C   UNL     1      12.944  19.998  25.703  1.00  0.00     0.160 A 
ATOM     19  C   UNL     1      13.130  19.611  28.095  1.00  0.00     0.050 A 
ATOM     20  C   UNL     1      13.717  19.965  26.873  1.00  0.00     0.157 A 
BRANCH  18  21
ATOM     21  O   UNL     1      13.566  20.371  24.501  1.00  0.00    -0.493 OA
ATOM     22  C   UNL     1      13.273  19.802  23.230  1.00  0.00     0.278 C 
ENDBRANCH  18  21
BRANCH  20  23
ATOM     23  O   UNL     1      15.071  20.292  26.814  1.00  0.00    -0.504 OA
ATOM     24  H   UNL     1      15.689  19.876  26.127  1.00  0.00     0.293 HD
ENDBRANCH  20  23
ENDBRANCH  14  15
ENDBRANCH  12  14
ENDBRANCH   9  10
ENDBRANCH   1   9
TORSDOF 10
ENDMDL
MODEL 2
REMARK VINA RESULT:    -5.017      1.125      1.597
REMARK INTER + INTRA:          -8.798
REMARK INTER:                  -7.812
REMARK INTRA:                  -0.986
REMARK UNBOUND:                -0.994
REMARK SMILES COc1cc(CNC(=O)CCCCC=CC(C)C)ccc1O
REMARK SMILES IDX 11 1 12 2 13 3 14 4 15 5 16 6 17 7 18 8 10 9 8 10 9 11 7 12
REMARK SMILES IDX 6 14 5 15 4 16 19 17 3 18 20 19 21 20 2 21 1 22 22 23
REMARK H PARENT 7 13 22 24
REMARK Flexibility Score: inf
ROOT
ATOM      1  C   UNL     1       8.001  20.484  24.092  1.00  0.00     0.010 C 
ENDROOT
BRANCH   1   2
ATOM      2  C   UNL     1       8.479  19.204  23.392  1.00  0.00     0.005 C 
BRANCH   2   3
ATOM      3  C   UNL     1       7.620  18.864  22.163  1.00  0.00     0.027 C 
BRANCH   3   4
ATOM      4  C   UNL     1       6.359  18.121  22.535  1.00  0.00    -0.031 C 
ATOM      5  C   UNL     1       5.110  18.510  22.214  1.00  0.00    -0.028 C 
BRANCH   5   6
ATOM      6  C   UNL     1       4.757  19.735  21.395  1.00  0.00     0.005 C 
ATOM      7  C   UNL     1       3.369  19.558  20.776  1.00  0.00     0.012 C 
ATOM      8  C   UNL     1       4.796  20.980  22.287  1.00  0.00     0.012 C 
ENDBRANCH   5   6
ENDBRANCH   3   4
ENDBRANCH   2   3
ENDBRANCH   1   2
BRANCH   1   9
ATOM      9  C   UNL     1       7.108  20.154  25.292  1.00  0.00     0.100 C 
BRANCH   9  10
ATOM     10  C   UNL     1       7.902  19.452  26.352  1.00  0.00     0.220 C 
ATOM     11  O   UNL     1       7.356  18.543  27.035  1.00  0.00    -0.275 OA
ATOM     12  N   UNL     1       9.285  19.779  26.547  1.00  0.00    -0.352 N 
ATOM     13  H   UNL     1       9.714  20.526  25.955  1.00  0.00     0.163 HD
BRANCH  12  14
ATOM     14  C   UNL     1      10.173  18.970  27.377  1.00  0.00     0.151 C 
BRANCH  14  15
ATOM     15  C   UNL     1      11.599  19.397  27.162  1.00  0.00    -0.025 A 
ATOM     16  C   UNL     1      12.033  19.803  25.889  1.00  0.00     0.056 A 
ATOM     17  C   UNL     1      12.486  19.458  28.245  1.00  0.00     0.009 A 
ATOM     18  C   UNL     1      13.356  20.244  25.693  1.00  0.00     0.160 A 
ATOM     19  C   UNL     1      13.801  19.889  28.055  1.00  0.00     0.050 A 
ATOM     20  C   UNL     1      14.238  20.279  26.783  1.00  0.00     0.157 A 
BRANCH  18  21
ATOM     21  O   UNL     1      13.829  20.657  24.437  1.00  0.00    -0.493 OA
ATOM     22  C   UNL     1      14.193  19.773  23.382  1.00  0.00     0.278 C 
ENDBRANCH  18  21
BRANCH  20  23
ATOM     23  O   UNL     1      15.551  20.709  26.594  1.00  0.00    -0.504 OA
ATOM     24  H   UNL     1      16.306  20.053  26.427  1.00  0.00     0.293 HD
ENDBRANCH  20  23
ENDBRANCH  14  15
ENDBRANCH  12  14
ENDBRANCH   9  10
ENDBRANCH   1   9
TORSDOF 10
ENDMDL
MODEL 3
REMARK VINA RESULT:    -5.016      1.650      2.434
REMARK INTER + INTRA:          -8.796
REMARK INTER:                  -7.585
REMARK INTRA:                  -1.210
REMARK UNBOUND:                -0.994
REMARK SMILES COc1cc(CNC(=O)CCCCC=CC(C)C)ccc1O
REMARK SMILES IDX 11 1 12 2 13 3 14 4 15 5 16 6 17 7 18 8 10 9 8 10 9 11 7 12
REMARK SMILES IDX 6 14 5 15 4 16 19 17 3 18 20 19 21 20 2 21 1 22 22 23
REMARK H PARENT 7 13 22 24
REMARK Flexibility Score: inf
ROOT
ATOM      1  C   UNL     1       7.200  19.215  23.800  1.00  0.00     0.010 C 
ENDROOT
BRANCH   1   2
ATOM      2  C   UNL     1       6.849  18.366  22.570  1.00  0.00     0.005 C 
BRANCH   2   3
ATOM      3  C   UNL     1       5.331  18.193  22.403  1.00  0.00     0.027 C 
BRANCH   3   4
ATOM      4  C   UNL     1       4.746  19.186  21.428  1.00  0.00    -0.031 C 
ATOM      5  C   UNL     1       3.971  20.235  21.765  1.00  0.00    -0.028 C 
BRANCH   5   6
ATOM      6  C   UNL     1       3.584  20.621  23.178  1.00  0.00     0.005 C 
ATOM      7  C   UNL     1       4.035  22.055  23.463  1.00  0.00     0.012 C 
ATOM      8  C   UNL     1       2.067  20.487  23.353  1.00  0.00     0.012 C 
ENDBRANCH   5   6
ENDBRANCH   3   4
ENDBRANCH   2   3
ENDBRANCH   1   2
BRANCH   1   9
ATOM      9  C   UNL     1       7.602  20.635  23.390  1.00  0.00     0.100 C 
BRANCH   9  10
ATOM     10  C   UNL     1       9.092  20.737  23.266  1.00  0.00     0.220 C 
ATOM     11  O   UNL     1       9.615  21.845  22.964  1.00  0.00    -0.275 OA
ATOM     12  N   UNL     1       9.915  19.595  23.542  1.00  0.00    -0.352 N 
ATOM     13  H   UNL     1       9.454  18.694  23.805  1.00  0.00     0.163 HD
BRANCH  12  14
ATOM     14  C   UNL     1      11.365  19.689  23.685  1.00  0.00     0.151 C 
BRANCH  14  15
ATOM     15  C   UNL     1      11.741  19.559  25.136  1.00  0.00    -0.025 A 
ATOM     16  C   UNL     1      12.956  20.087  25.603  1.00  0.00     0.056 A 
ATOM     17  C   UNL     1      10.850  18.970  26.044  1.00  0.00     0.009 A 
ATOM     18  C   UNL     1      13.292  20.005  26.969  1.00  0.00     0.160 A 
ATOM     19  C   UNL     1      11.181  18.881  27.398  1.00  0.00     0.050 A 
ATOM     20  C   UNL     1      12.399  19.394  27.861  1.00  0.00     0.157 A 
BRANCH  18  21
ATOM     21  O   UNL     1      14.497  20.519  27.474  1.00  0.00    -0.493 OA
ATOM     22  C   UNL     1      14.798  21.905  27.589  1.00  0.00     0.278 C 
ENDBRANCH  18  21
BRANCH  20  23
ATOM     23  O   UNL     1      12.729  19.304  29.213  1.00  0.00    -0.504 OA
ATOM     24  H   UNL     1      12.997  20.121  29.750  1.00  0.00     0.293 HD
ENDBRANCH  20  23
ENDBRANCH  14  15
ENDBRANCH  12  14
ENDBRANCH   9  10
ENDBRANCH   1   9
TORSDOF 10
ENDMDL
MODEL 4
REMARK VINA RESULT:    -4.984      2.922      5.110
REMARK INTER + INTRA:          -8.747
REMARK INTER:                  -7.069
REMARK INTRA:                  -1.678
REMARK UNBOUND:                -0.994
REMARK SMILES COc1cc(CNC(=O)CCCCC=CC(C)C)ccc1O
REMARK SMILES IDX 11 1 12 2 13 3 14 4 15 5 16 6 17 7 18 8 10 9 8 10 9 11 7 12
REMARK SMILES IDX 6 14 5 15 4 16 19 17 3 18 20 19 21 20 2 21 1 22 22 23
REMARK H PARENT 7 13 22 24
REMARK Flexibility Score: inf
ROOT
ATOM      1  C   UNL     1       8.093  19.190  23.002  1.00  0.00     0.010 C 
ENDROOT
BRANCH   1   2
ATOM      2  C   UNL     1       6.952  19.194  24.029  1.00  0.00     0.005 C 
BRANCH   2   3
ATOM      3  C   UNL     1       7.306  20.012  25.281  1.00  0.00     0.027 C 
BRANCH   3   4
ATOM      4  C   UNL     1       7.603  19.133  26.472  1.00  0.00    -0.031 C 
ATOM      5  C   UNL     1       8.799  19.039  27.084  1.00  0.00    -0.028 C 
BRANCH   5   6
ATOM      6  C   UNL     1      10.039  19.823  26.708  1.00  0.00     0.005 C 
ATOM      7  C   UNL     1      10.405  20.784  27.842  1.00  0.00     0.012 C 
ATOM      8  C   UNL     1      11.195  18.858  26.425  1.00  0.00     0.012 C 
ENDBRANCH   5   6
ENDBRANCH   3   4
ENDBRANCH   2   3
ENDBRANCH   1   2
BRANCH   1   9
ATOM      9  C   UNL     1       8.979  20.429  23.160  1.00  0.00     0.100 C 
BRANCH   9  10
ATOM     10  C   UNL     1      10.417  20.071  22.936  1.00  0.00     0.220 C 
ATOM     11  O   UNL     1      10.758  18.856  22.918  1.00  0.00    -0.275 OA
ATOM     12  N   UNL     1      11.383  21.102  22.692  1.00  0.00    -0.352 N 
ATOM     13  H   UNL     1      11.068  22.099  22.698  1.00  0.00     0.163 HD
BRANCH  12  14
ATOM     14  C   UNL     1      12.735  20.815  22.221  1.00  0.00     0.151 C 
BRANCH  14  15
ATOM     15  C   UNL     1      13.661  20.664  23.397  1.00  0.00    -0.025 A 
ATOM     16  C   UNL     1      14.872  19.966  23.260  1.00  0.00     0.056 A 
ATOM     17  C   UNL     1      13.352  21.277  24.619  1.00  0.00     0.009 A 
ATOM     18  C   UNL     1      15.761  19.858  24.347  1.00  0.00     0.160 A 
ATOM     19  C   UNL     1      14.228  21.169  25.702  1.00  0.00     0.050 A 
ATOM     20  C   UNL     1      15.429  20.460  25.570  1.00  0.00     0.157 A 
BRANCH  18  21
ATOM     21  O   UNL     1      16.980  19.169  24.251  1.00  0.00    -0.493 OA
ATOM     22  C   UNL     1      17.125  17.855  23.721  1.00  0.00     0.278 C 
ENDBRANCH  18  21
BRANCH  20  23
ATOM     23  O   UNL     1      16.302  20.351  26.651  1.00  0.00    -0.504 OA
ATOM     24  H   UNL     1      16.852  19.515  26.809  1.00  0.00     0.293 HD
ENDBRANCH  20  23
ENDBRANCH  14  15
ENDBRANCH  12  14
ENDBRANCH   9  10
ENDBRANCH   1   9
TORSDOF 10
ENDMDL
MODEL 5
REMARK VINA RESULT:    -4.975      2.304      8.654
REMARK INTER + INTRA:          -8.732
REMARK INTER:                  -7.572
REMARK INTRA:                  -1.160
REMARK UNBOUND:                -0.994
REMARK SMILES COc1cc(CNC(=O)CCCCC=CC(C)C)ccc1O
REMARK SMILES IDX 11 1 12 2 13 3 14 4 15 5 16 6 17 7 18 8 10 9 8 10 9 11 7 12
REMARK SMILES IDX 6 14 5 15 4 16 19 17 3 18 20 19 21 20 2 21 1 22 22 23
REMARK H PARENT 7 13 22 24
REMARK Flexibility Score: inf
ROOT
ATOM      1  C   UNL     1      11.061  18.576  27.378  1.00  0.00     0.010 C 
ENDROOT
BRANCH   1   2
ATOM      2  C   UNL     1      11.917  19.560  28.188  1.00  0.00     0.005 C 
BRANCH   2   3
ATOM      3  C   UNL     1      13.367  19.615  27.682  1.00  0.00     0.027 C 
BRANCH   3   4
ATOM      4  C   UNL     1      13.728  20.973  27.131  1.00  0.00    -0.031 C 
ATOM      5  C   UNL     1      14.410  21.188  25.989  1.00  0.00    -0.028 C 
BRANCH   5   6
ATOM      6  C   UNL     1      14.897  20.108  25.044  1.00  0.00     0.005 C 
ATOM      7  C   UNL     1      14.034  20.101  23.781  1.00  0.00     0.012 C 
ATOM      8  C   UNL     1      16.368  20.356  24.691  1.00  0.00     0.012 C 
ENDBRANCH   5   6
ENDBRANCH   3   4
ENDBRANCH   2   3
ENDBRANCH   1   2
BRANCH   1   9
ATOM      9  C   UNL     1      11.142  18.882  25.880  1.00  0.00     0.100 C 
BRANCH   9  10
ATOM     10  C   UNL     1      10.199  19.991  25.526  1.00  0.00     0.220 C 
ATOM     11  O   UNL     1      10.646  21.032  24.971  1.00  0.00    -0.275 OA
ATOM     12  N   UNL     1       8.793  19.843  25.769  1.00  0.00    -0.352 N 
ATOM     13  H   UNL     1       8.449  18.963  26.215  1.00  0.00     0.163 HD
BRANCH  12  14
ATOM     14  C   UNL     1       7.801  20.765  25.225  1.00  0.00     0.151 C 
BRANCH  14  15
ATOM     15  C   UNL     1       6.972  20.064  24.184  1.00  0.00    -0.025 A 
ATOM     16  C   UNL     1       5.781  20.644  23.717  1.00  0.00     0.056 A 
ATOM     17  C   UNL     1       7.418  18.859  23.624  1.00  0.00     0.009 A 
ATOM     18  C   UNL     1       5.025  20.010  22.711  1.00  0.00     0.160 A 
ATOM     19  C   UNL     1       6.668  18.223  22.631  1.00  0.00     0.050 A 
ATOM     20  C   UNL     1       5.473  18.794  22.176  1.00  0.00     0.157 A 
BRANCH  18  21
ATOM     21  O   UNL     1       3.829  20.557  22.219  1.00  0.00    -0.493 OA
ATOM     22  C   UNL     1       3.749  21.725  21.408  1.00  0.00     0.278 C 
ENDBRANCH  18  21
BRANCH  20  23
ATOM     23  O   UNL     1       4.725  18.159  21.186  1.00  0.00    -0.504 OA
ATOM     24  H   UNL     1       4.982  18.218  20.207  1.00  0.00     0.293 HD
ENDBRANCH  20  23
ENDBRANCH  14  15
ENDBRANCH  12  14
ENDBRANCH   9  10
ENDBRANCH   1   9
TORSDOF 10
ENDMDL
MODEL 6
REMARK VINA RESULT:    -4.968      3.403      8.789
REMARK INTER + INTRA:          -8.721
REMARK INTER:                  -7.396
REMARK INTRA:                  -1.324
REMARK UNBOUND:                -0.994
REMARK SMILES COc1cc(CNC(=O)CCCCC=CC(C)C)ccc1O
REMARK SMILES IDX 11 1 12 2 13 3 14 4 15 5 16 6 17 7 18 8 10 9 8 10 9 11 7 12
REMARK SMILES IDX 6 14 5 15 4 16 19 17 3 18 20 19 21 20 2 21 1 22 22 23
REMARK H PARENT 7 13 22 24
REMARK Flexibility Score: inf
ROOT
ATOM      1  C   UNL     1       7.587  19.922  24.503  1.00  0.00     0.010 C 
ENDROOT
BRANCH   1   2
ATOM      2  C   UNL     1       7.686  19.233  25.871  1.00  0.00     0.005 C 
BRANCH   2   3
ATOM      3  C   UNL     1       8.742  19.892  26.773  1.00  0.00     0.027 C 
BRANCH   3   4
ATOM      4  C   UNL     1       9.888  18.960  27.087  1.00  0.00    -0.031 C 
ATOM      5  C   UNL     1      11.040  18.890  26.392  1.00  0.00    -0.028 C 
BRANCH   5   6
ATOM      6  C   UNL     1      11.399  19.757  25.203  1.00  0.00     0.005 C 
ATOM      7  C   UNL     1      12.804  20.332  25.390  1.00  0.00     0.012 C 
ATOM      8  C   UNL     1      11.322  18.927  23.917  1.00  0.00     0.012 C 
ENDBRANCH   5   6
ENDBRANCH   3   4
ENDBRANCH   2   3
ENDBRANCH   1   2
BRANCH   1   9
ATOM      9  C   UNL     1       7.738  18.908  23.365  1.00  0.00     0.100 C 
BRANCH   9  10
ATOM     10  C   UNL     1       6.480  18.849  22.553  1.00  0.00     0.220 C 
ATOM     11  O   UNL     1       5.862  17.755  22.445  1.00  0.00    -0.275 OA
ATOM     12  N   UNL     1       5.960  20.042  21.949  1.00  0.00    -0.352 N 
ATOM     13  H   UNL     1       6.485  20.937  22.069  1.00  0.00     0.163 HD
BRANCH  12  14
ATOM     14  C   UNL     1       4.623  20.107  21.365  1.00  0.00     0.151 C 
BRANCH  14  15
ATOM     15  C   UNL     1       3.618  20.441  22.432  1.00  0.00    -0.025 A 
ATOM     16  C   UNL     1       3.910  21.415  23.401  1.00  0.00     0.056 A 
ATOM     17  C   UNL     1       2.356  19.831  22.425  1.00  0.00     0.009 A 
ATOM     18  C   UNL     1       2.954  21.761  24.376  1.00  0.00     0.160 A 
ATOM     19  C   UNL     1       1.406  20.167  23.394  1.00  0.00     0.050 A 
ATOM     20  C   UNL     1       1.703  21.127  24.369  1.00  0.00     0.157 A 
BRANCH  18  21
ATOM     21  O   UNL     1       3.208  22.728  25.362  1.00  0.00    -0.493 OA
ATOM     22  C   UNL     1       3.156  24.135  25.146  1.00  0.00     0.278 C 
ENDBRANCH  18  21
BRANCH  20  23
ATOM     23  O   UNL     1       0.756  21.461  25.336  1.00  0.00    -0.504 OA
ATOM     24  H   UNL     1       0.414  20.779  26.003  1.00  0.00     0.293 HD
ENDBRANCH  20  23
ENDBRANCH  14  15
ENDBRANCH  12  14
ENDBRANCH   9  10
ENDBRANCH   1   9
TORSDOF 10
ENDMDL
MODEL 7
REMARK VINA RESULT:    -4.941      2.510      4.832
REMARK INTER + INTRA:          -8.679
REMARK INTER:                  -6.408
REMARK INTRA:                  -2.270
REMARK UNBOUND:                -0.994
REMARK SMILES COc1cc(CNC(=O)CCCCC=CC(C)C)ccc1O
REMARK SMILES IDX 11 1 12 2 13 3 14 4 15 5 16 6 17 7 18 8 10 9 8 10 9 11 7 12
REMARK SMILES IDX 6 14 5 15 4 16 19 17 3 18 20 19 21 20 2 21 1 22 22 23
REMARK H PARENT 7 13 22 24
REMARK Flexibility Score: inf
ROOT
ATOM      1  C   UNL     1       4.265  21.455  22.055  1.00  0.00     0.010 C 
ENDROOT
BRANCH   1   2
ATOM      2  C   UNL     1       3.791  21.363  23.512  1.00  0.00     0.005 C 
BRANCH   2   3
ATOM      3  C   UNL     1       4.834  21.920  24.494  1.00  0.00     0.027 C 
BRANCH   3   4
ATOM      4  C   UNL     1       5.289  23.309  24.116  1.00  0.00    -0.031 C 
ATOM      5  C   UNL     1       6.574  23.695  23.994  1.00  0.00    -0.028 C 
BRANCH   5   6
ATOM      6  C   UNL     1       7.780  22.797  24.177  1.00  0.00     0.005 C 
ATOM      7  C   UNL     1       8.743  22.983  23.004  1.00  0.00     0.012 C 
ATOM      8  C   UNL     1       8.473  23.127  25.503  1.00  0.00     0.012 C 
ENDBRANCH   5   6
ENDBRANCH   3   4
ENDBRANCH   2   3
ENDBRANCH   1   2
BRANCH   1   9
ATOM      9  C   UNL     1       4.269  20.075  21.391  1.00  0.00     0.100 C 
BRANCH   9  10
ATOM     10  C   UNL     1       5.438  19.270  21.873  1.00  0.00     0.220 C 
ATOM     11  O   UNL     1       5.296  18.035  22.083  1.00  0.00    -0.275 OA
ATOM     12  N   UNL     1       6.718  19.895  22.041  1.00  0.00    -0.352 N 
ATOM     13  H   UNL     1       6.809  20.918  21.845  1.00  0.00     0.163 HD
BRANCH  12  14
ATOM     14  C   UNL     1       7.942  19.130  22.261  1.00  0.00     0.151 C 
BRANCH  14  15
ATOM     15  C   UNL     1       8.375  19.265  23.695  1.00  0.00    -0.025 A 
ATOM     16  C   UNL     1       9.724  19.497  24.009  1.00  0.00     0.056 A 
ATOM     17  C   UNL     1       7.423  19.227  24.724  1.00  0.00     0.009 A 
ATOM     18  C   UNL     1      10.126  19.666  25.349  1.00  0.00     0.160 A 
ATOM     19  C   UNL     1       7.818  19.389  26.054  1.00  0.00     0.050 A 
ATOM     20  C   UNL     1       9.165  19.605  26.369  1.00  0.00     0.157 A 
BRANCH  18  21
ATOM     21  O   UNL     1      11.464  19.899  25.704  1.00  0.00    -0.493 OA
ATOM     22  C   UNL     1      12.116  21.162  25.614  1.00  0.00     0.278 C 
ENDBRANCH  18  21
BRANCH  20  23
ATOM     23  O   UNL     1       9.559  19.766  27.696  1.00  0.00    -0.504 OA
ATOM     24  H   UNL     1       9.045  20.363  28.335  1.00  0.00     0.293 HD
ENDBRANCH  20  23
ENDBRANCH  14  15
ENDBRANCH  12  14
ENDBRANCH   9  10
ENDBRANCH   1   9
TORSDOF 10
ENDMDL
MODEL 8
REMARK VINA RESULT:    -4.931      2.200      3.614
REMARK INTER + INTRA:          -8.664
REMARK INTER:                  -7.429
REMARK INTRA:                  -1.235
REMARK UNBOUND:                -0.994
REMARK SMILES COc1cc(CNC(=O)CCCCC=CC(C)C)ccc1O
REMARK SMILES IDX 11 1 12 2 13 3 14 4 15 5 16 6 17 7 18 8 10 9 8 10 9 11 7 12
REMARK SMILES IDX 6 14 5 15 4 16 19 17 3 18 20 19 21 20 2 21 1 22 22 23
REMARK H PARENT 7 13 22 24
REMARK Flexibility Score: inf
ROOT
ATOM      1  C   UNL     1       8.995  20.194  24.533  1.00  0.00     0.010 C 
ENDROOT
BRANCH   1   2
ATOM      2  C   UNL     1       9.586  19.213  23.511  1.00  0.00     0.005 C 
BRANCH   2   3
ATOM      3  C   UNL     1       8.671  19.032  22.290  1.00  0.00     0.027 C 
BRANCH   3   4
ATOM      4  C   UNL     1       7.569  18.032  22.545  1.00  0.00    -0.031 C 
ATOM      5  C   UNL     1       6.251  18.290  22.441  1.00  0.00    -0.028 C 
BRANCH   5   6
ATOM      6  C   UNL     1       5.649  19.614  22.016  1.00  0.00     0.005 C 
ATOM      7  C   UNL     1       4.351  19.365  21.245  1.00  0.00     0.012 C 
ATOM      8  C   UNL     1       5.386  20.482  23.251  1.00  0.00     0.012 C 
ENDBRANCH   5   6
ENDBRANCH   3   4
ENDBRANCH   2   3
ENDBRANCH   1   2
BRANCH   1   9
ATOM      9  C   UNL     1       8.933  19.563  25.927  1.00  0.00     0.100 C 
BRANCH   9  10
ATOM     10  C   UNL     1      10.310  19.451  26.508  1.00  0.00     0.220 C 
ATOM     11  O   UNL     1      10.598  18.460  27.233  1.00  0.00    -0.275 OA
ATOM     12  N   UNL     1      11.302  20.439  26.196  1.00  0.00    -0.352 N 
ATOM     13  H   UNL     1      11.038  21.241  25.581  1.00  0.00     0.163 HD
BRANCH  12  14
ATOM     14  C   UNL     1      12.715  20.260  26.517  1.00  0.00     0.151 C 
BRANCH  14  15
ATOM     15  C   UNL     1      13.535  20.325  25.258  1.00  0.00    -0.025 A 
ATOM     16  C   UNL     1      14.937  20.298  25.323  1.00  0.00     0.056 A 
ATOM     17  C   UNL     1      12.902  20.345  24.007  1.00  0.00     0.009 A 
ATOM     18  C   UNL     1      15.707  20.316  24.143  1.00  0.00     0.160 A 
ATOM     19  C   UNL     1      13.661  20.369  22.834  1.00  0.00     0.050 A 
ATOM     20  C   UNL     1      15.060  20.357  22.900  1.00  0.00     0.157 A 
BRANCH  18  21
ATOM     21  O   UNL     1      17.111  20.292  24.166  1.00  0.00    -0.493 OA
ATOM     22  C   UNL     1      17.891  19.216  24.675  1.00  0.00     0.278 C 
ENDBRANCH  18  21
BRANCH  20  23
ATOM     23  O   UNL     1      15.817  20.382  21.729  1.00  0.00    -0.504 OA
ATOM     24  H   UNL     1      16.521  21.092  21.566  1.00  0.00     0.293 HD
ENDBRANCH  20  23
ENDBRANCH  14  15
ENDBRANCH  12  14
ENDBRANCH   9  10
ENDBRANCH   1   9
TORSDOF 10
ENDMDL
MODEL 9
REMARK VINA RESULT:    -4.903      2.607      4.663
REMARK INTER + INTRA:          -8.620
REMARK INTER:                  -6.292
REMARK INTRA:                  -2.328
REMARK UNBOUND:                -0.994
REMARK SMILES COc1cc(CNC(=O)CCCCC=CC(C)C)ccc1O
REMARK SMILES IDX 11 1 12 2 13 3 14 4 15 5 16 6 17 7 18 8 10 9 8 10 9 11 7 12
REMARK SMILES IDX 6 14 5 15 4 16 19 17 3 18 20 19 21 20 2 21 1 22 22 23
REMARK H PARENT 7 13 22 24
REMARK Flexibility Score: inf
ROOT
ATOM      1  C   UNL     1       6.874  19.972  24.340  1.00  0.00     0.010 C 
ENDROOT
BRANCH   1   2
ATOM      2  C   UNL     1       7.412  19.387  25.654  1.00  0.00     0.005 C 
BRANCH   2   3
ATOM      3  C   UNL     1       7.201  20.342  26.839  1.00  0.00     0.027 C 
BRANCH   3   4
ATOM      4  C   UNL     1       7.164  21.789  26.408  1.00  0.00    -0.031 C 
ATOM      5  C   UNL     1       8.238  22.599  26.326  1.00  0.00    -0.028 C 
BRANCH   5   6
ATOM      6  C   UNL     1       9.667  22.190  26.616  1.00  0.00     0.005 C 
ATOM      7  C   UNL     1      10.628  23.087  25.832  1.00  0.00     0.012 C 
ATOM      8  C   UNL     1       9.939  22.291  28.120  1.00  0.00     0.012 C 
ENDBRANCH   5   6
ENDBRANCH   3   4
ENDBRANCH   2   3
ENDBRANCH   1   2
BRANCH   1   9
ATOM      9  C   UNL     1       7.687  19.471  23.143  1.00  0.00     0.100 C 
BRANCH   9  10
ATOM     10  C   UNL     1       9.063  20.064  23.165  1.00  0.00     0.220 C 
ATOM     11  O   UNL     1       9.204  21.311  23.035  1.00  0.00    -0.275 OA
ATOM     12  N   UNL     1      10.203  19.221  23.387  1.00  0.00    -0.352 N 
ATOM     13  H   UNL     1      10.054  18.194  23.506  1.00  0.00     0.163 HD
BRANCH  12  14
ATOM     14  C   UNL     1      11.531  19.757  23.670  1.00  0.00     0.151 C 
BRANCH  14  15
ATOM     15  C   UNL     1      11.839  19.604  25.134  1.00  0.00    -0.025 A 
ATOM     16  C   UNL     1      12.992  20.191  25.681  1.00  0.00     0.056 A 
ATOM     17  C   UNL     1      10.942  18.931  25.975  1.00  0.00     0.009 A 
ATOM     18  C   UNL     1      13.262  20.085  27.060  1.00  0.00     0.160 A 
ATOM     19  C   UNL     1      11.208  18.818  27.342  1.00  0.00     0.050 A 
ATOM     20  C   UNL     1      12.365  19.390  27.885  1.00  0.00     0.157 A 
BRANCH  18  21
ATOM     21  O   UNL     1      14.403  20.656  27.645  1.00  0.00    -0.493 OA
ATOM     22  C   UNL     1      15.584  21.009  26.933  1.00  0.00     0.278 C 
ENDBRANCH  18  21
BRANCH  20  23
ATOM     23  O   UNL     1      12.630  19.277  29.249  1.00  0.00    -0.504 OA
ATOM     24  H   UNL     1      13.198  18.523  29.619  1.00  0.00     0.293 HD
ENDBRANCH  20  23
ENDBRANCH  14  15
ENDBRANCH  12  14
ENDBRANCH   9  10
ENDBRANCH   1   9
TORSDOF 10
ENDMDL
