MODEL 1
REMARK VINA RESULT:    20.723      0.000      0.000
REMARK INTER + INTRA:          24.552
REMARK INTER:                  24.963
REMARK INTRA:                  -0.411
REMARK UNBOUND:                -0.411
REMARK SMILES O=c1c(O)c(-c2ccc(O)cc2O)oc2cc(O)cc(O)c12
REMARK SMILES IDX 5 1 3 2 2 3 1 4 22 5 20 6 19 7 17 8 16 9 15 10 14 11 6 12
REMARK SMILES IDX 8 13 7 14 9 15 11 16 12 17 10 18 13 20 4 22 21 24 18 26
REMARK H PARENT 10 19 13 21 4 23 21 25 18 27
REMARK Flexibility Score: inf
ROOT
ATOM      1  C   UNL     1      -5.623   4.380  15.538  1.00  0.00     0.184 A 
ATOM      2  C   UNL     1      -6.743   4.210  14.710  1.00  0.00     0.208 A 
ATOM      3  C   UNL     1      -7.555   5.318  14.425  1.00  0.00     0.238 A 
ATOM      4  O   UNL     1      -8.587   5.149  13.727  1.00  0.00    -0.285 OA
ATOM      5  C   UNL     1      -7.224   6.588  14.961  1.00  0.00     0.111 A 
ATOM      6  C   UNL     1      -7.952   7.789  14.706  1.00  0.00     0.134 A 
ATOM      7  C   UNL     1      -7.611   8.961  15.392  1.00  0.00     0.093 A 
ATOM      8  C   UNL     1      -6.528   8.992  16.274  1.00  0.00     0.123 A 
ATOM      9  C   UNL     1      -5.775   7.838  16.484  1.00  0.00     0.094 A 
ATOM     10  C   UNL     1      -6.112   6.645  15.842  1.00  0.00     0.146 A 
ATOM     11  O   UNL     1      -5.375   5.567  16.078  1.00  0.00    -0.451 OA
ENDROOT
BRANCH   1  12
ATOM     12  C   UNL     1      -4.718   3.257  15.862  1.00  0.00     0.063 A 
ATOM     13  C   UNL     1      -2.770   1.925  15.276  1.00  0.00     0.047 A 
ATOM     14  C   UNL     1      -3.642   2.983  15.003  1.00  0.00     0.020 A 
ATOM     15  C   UNL     1      -2.972   1.120  16.403  1.00  0.00     0.119 A 
ATOM     16  C   UNL     1      -4.055   1.372  17.250  1.00  0.00     0.093 A 
ATOM     17  C   UNL     1      -4.938   2.427  16.980  1.00  0.00     0.130 A 
BRANCH  15  18
ATOM     18  O   UNL     1      -2.107   0.065  16.686  1.00  0.00    -0.508 OA
ATOM     19  H   UNL     1      -2.363  -0.670  17.335  1.00  0.00     0.293 HD
ENDBRANCH  15  18
BRANCH  17  20
ATOM     20  O   UNL     1      -6.043   2.636  17.807  1.00  0.00    -0.507 OA
ATOM     21  H   UNL     1      -6.178   3.508  18.305  1.00  0.00     0.293 HD
ENDBRANCH  17  20
ENDBRANCH   1  12
BRANCH   2  22
ATOM     22  O   UNL     1      -7.056   2.942  14.210  1.00  0.00    -0.502 OA
ATOM     23  H   UNL     1      -7.510   2.233  14.774  1.00  0.00     0.293 HD
ENDBRANCH   2  22
BRANCH   6  24
ATOM     24  O   UNL     1      -8.992   7.889  13.777  1.00  0.00    -0.507 OA
ATOM     25  H   UNL     1      -9.148   7.244  13.018  1.00  0.00     0.293 HD
ENDBRANCH   6  24
BRANCH   8  26
ATOM     26  O   UNL     1      -6.187  10.166  16.941  1.00  0.00    -0.508 OA
ATOM     27  H   UNL     1      -6.572  10.391  17.850  1.00  0.00     0.293 HD
ENDBRANCH   8  26
TORSDOF 6
ENDMDL
