MODEL 1
REMARK VINA RESULT:    -2.193      0.000      0.000
REMARK INTER + INTRA:          -4.377
REMARK INTER:                  -3.027
REMARK INTRA:                  -1.350
REMARK UNBOUND:                -1.350
REMARK SMILES C[C@@H]1OC(=O)[C@@H](C)[C@@H]1C[C@H](O)[C@@](C)(O)[C@@H]1CC[C@@]2(O)C3=CC(=O)[C@H]4C[C@@H](O)[C@@H](O)C[C@]4(C)[C@H]3CC[C@]12C
REMARK SMILES IDX 12 1 13 2 10 3 9 4 8 5 7 6 6 7 4 8 2 9 3 10 5 11 1 12 11 13
REMARK SMILES IDX 15 15 16 16 36 17 17 18 18 19 35 20 37 21 20 22 34 23 33 24
REMARK SMILES IDX 21 25 31 26 22 27 24 28 30 29 32 30 23 31 25 32 28 33 26 34
REMARK SMILES IDX 19 35 29 37 27 39 14 41
REMARK H PARENT 11 14 19 36 29 38 27 40 14 42
REMARK Flexibility Score: inf
ROOT
ATOM      1  C   UNL     1      93.427  30.989  12.348  1.00  0.00     0.091 C 
ATOM      2  C   UNL     1      92.816  32.403  12.526  1.00  0.00     0.045 C 
ENDROOT
BRANCH   1   3
ATOM      3  C   UNL     1      93.739  30.407  13.782  1.00  0.00     0.146 C 
BRANCH   3   4
ATOM      4  C   UNL     1      93.095  31.177  14.972  1.00  0.00     0.043 C 
BRANCH   4   5
ATOM      5  C   UNL     1      92.203  30.341  15.940  1.00  0.00     0.046 C 
ATOM      6  C   UNL     1      90.435  28.758  14.938  1.00  0.00     0.020 C 
ATOM      7  C   UNL     1      91.883  28.906  15.433  1.00  0.00     0.103 C 
ATOM      8  C   UNL     1      92.085  28.084  16.650  1.00  0.00     0.309 C 
ATOM      9  C   UNL     1      92.806  30.155  17.376  1.00  0.00     0.177 C 
ATOM     10  O   UNL     1      92.524  28.813  17.729  1.00  0.00    -0.462 OA
ATOM     11  O   UNL     1      91.888  26.841  16.706  1.00  0.00    -0.252 OA
ATOM     12  C   UNL     1      94.320  30.374  17.510  1.00  0.00     0.053 C 
ENDBRANCH   4   5
ENDBRANCH   3   4
BRANCH   3  13
ATOM     13  O   UNL     1      95.125  30.384  13.996  1.00  0.00    -0.390 OA
ATOM     14  H   UNL     1      95.284  30.336  14.976  1.00  0.00     0.211 HD
ENDBRANCH   3  13
ENDBRANCH   1   3
BRANCH   1  15
ATOM     15  C   UNL     1      92.516  30.005  11.485  1.00  0.00     0.032 C 
ATOM     16  C   UNL     1      92.786  28.496  11.756  1.00  0.00     0.010 C 
ATOM     17  C   UNL     1      92.338  30.095   9.901  1.00  0.00     0.006 C 
ATOM     18  C   UNL     1      92.508  27.751  10.452  1.00  0.00     0.041 C 
ATOM     19  C   UNL     1      92.950  28.759   9.394  1.00  0.00     0.092 C 
ATOM     20  C   UNL     1      93.012  31.225   9.060  1.00  0.00     0.011 C 
ATOM     21  C   UNL     1      90.788  30.165   9.643  1.00  0.00     0.015 C 
ATOM     22  C   UNL     1      92.565  28.528   7.939  1.00  0.00    -0.031 C 
ATOM     23  C   UNL     1      92.695  31.087   7.549  1.00  0.00     0.009 C 
ATOM     24  C   UNL     1      92.942  29.656   6.961  1.00  0.00     0.025 C 
ATOM     25  C   UNL     1      92.233  27.299   7.493  1.00  0.00     0.050 C 
ATOM     26  C   UNL     1      92.315  29.448   5.527  1.00  0.00    -0.013 C 
ATOM     27  C   UNL     1      92.170  26.997   6.052  1.00  0.00     0.159 C 
ATOM     28  C   UNL     1      92.711  28.008   5.074  1.00  0.00     0.070 C 
ATOM     29  C   UNL     1      92.929  30.472   4.524  1.00  0.00     0.042 C 
ATOM     30  C   UNL     1      90.763  29.617   5.580  1.00  0.00     0.013 C 
ATOM     31  O   UNL     1      91.742  25.875   5.667  1.00  0.00    -0.295 OA
ATOM     32  C   UNL     1      92.341  27.707   3.605  1.00  0.00     0.047 C 
ATOM     33  C   UNL     1      92.623  30.178   3.041  1.00  0.00     0.143 C 
ATOM     34  C   UNL     1      92.997  28.728   2.662  1.00  0.00     0.143 C 
BRANCH  19  35
ATOM     35  O   UNL     1      94.362  28.826   9.445  1.00  0.00    -0.385 OA
ATOM     36  H   UNL     1      94.653  29.637   8.947  1.00  0.00     0.211 HD
ENDBRANCH  19  35
BRANCH  33  37
ATOM     37  O   UNL     1      91.270  30.435   2.763  1.00  0.00    -0.390 OA
ATOM     38  H   UNL     1      90.769  29.602   2.959  1.00  0.00     0.211 HD
ENDBRANCH  33  37
BRANCH  34  39
ATOM     39  O   UNL     1      92.612  28.451   1.341  1.00  0.00    -0.390 OA
ATOM     40  H   UNL     1      91.778  27.912   1.391  1.00  0.00     0.211 HD
ENDBRANCH  34  39
ENDBRANCH   1  15
BRANCH   1  41
ATOM     41  O   UNL     1      94.673  31.127  11.694  1.00  0.00    -0.387 OA
ATOM     42  H   UNL     1      94.538  31.211  10.713  1.00  0.00     0.211 HD
ENDBRANCH   1  41
TORSDOF 9
ENDMDL
MODEL 2
REMARK VINA RESULT:    -2.047      0.847      0.864
REMARK INTER + INTRA:          -4.174
REMARK INTER:                  -2.670
REMARK INTRA:                  -1.505
REMARK UNBOUND:                -1.350
REMARK SMILES C[C@@H]1OC(=O)[C@@H](C)[C@@H]1C[C@H](O)[C@@](C)(O)[C@@H]1CC[C@@]2(O)C3=CC(=O)[C@H]4C[C@@H](O)[C@@H](O)C[C@]4(C)[C@H]3CC[C@]12C
REMARK SMILES IDX 12 1 13 2 10 3 9 4 8 5 7 6 6 7 4 8 2 9 3 10 5 11 1 12 11 13
REMARK SMILES IDX 15 15 16 16 36 17 17 18 18 19 35 20 37 21 20 22 34 23 33 24
REMARK SMILES IDX 21 25 31 26 22 27 24 28 30 29 32 30 23 31 25 32 28 33 26 34
REMARK SMILES IDX 19 35 29 37 27 39 14 41
REMARK H PARENT 11 14 19 36 29 38 27 40 14 42
REMARK Flexibility Score: inf
ROOT
ATOM      1  C   UNL     1      93.259  30.699  12.456  1.00  0.00     0.091 C 
ATOM      2  C   UNL     1      92.639  32.111  12.623  1.00  0.00     0.045 C 
ENDROOT
BRANCH   1   3
ATOM      3  C   UNL     1      93.633  30.158  13.891  1.00  0.00     0.146 C 
BRANCH   3   4
ATOM      4  C   UNL     1      92.891  30.840  15.078  1.00  0.00     0.043 C 
BRANCH   4   5
ATOM      5  C   UNL     1      91.957  29.927  15.930  1.00  0.00     0.046 C 
ATOM      6  C   UNL     1      90.325  28.347  14.714  1.00  0.00     0.020 C 
ATOM      7  C   UNL     1      91.725  28.512  15.328  1.00  0.00     0.103 C 
ATOM      8  C   UNL     1      91.861  27.633  16.514  1.00  0.00     0.309 C 
ATOM      9  C   UNL     1      92.453  29.684  17.398  1.00  0.00     0.177 C 
ATOM     10  O   UNL     1      92.191  28.317  17.660  1.00  0.00    -0.462 OA
ATOM     11  O   UNL     1      91.703  26.383  16.492  1.00  0.00    -0.252 OA
ATOM     12  C   UNL     1      93.943  29.940  17.661  1.00  0.00     0.053 C 
ENDBRANCH   4   5
ENDBRANCH   3   4
BRANCH   3  13
ATOM     13  O   UNL     1      95.010  30.307  14.114  1.00  0.00    -0.390 OA
ATOM     14  H   UNL     1      95.134  30.719  15.010  1.00  0.00     0.211 HD
ENDBRANCH   3  13
ENDBRANCH   1   3
BRANCH   1  15
ATOM     15  C   UNL     1      92.326  29.683  11.655  1.00  0.00     0.032 C 
ATOM     16  C   UNL     1      92.793  28.201  11.738  1.00  0.00     0.010 C 
ATOM     17  C   UNL     1      91.883  29.873  10.133  1.00  0.00     0.006 C 
ATOM     18  C   UNL     1      92.384  27.530  10.428  1.00  0.00     0.041 C 
ATOM     19  C   UNL     1      92.539  28.662   9.414  1.00  0.00     0.092 C 
ATOM     20  C   UNL     1      92.290  31.136   9.309  1.00  0.00     0.011 C 
ATOM     21  C   UNL     1      90.313  29.780  10.124  1.00  0.00     0.015 C 
ATOM     22  C   UNL     1      91.949  28.499   8.021  1.00  0.00    -0.031 C 
ATOM     23  C   UNL     1      91.746  31.077   7.859  1.00  0.00     0.009 C 
ATOM     24  C   UNL     1      92.041  29.735   7.107  1.00  0.00     0.025 C 
ATOM     25  C   UNL     1      91.678  27.277   7.517  1.00  0.00     0.050 C 
ATOM     26  C   UNL     1      91.213  29.564   5.773  1.00  0.00    -0.013 C 
ATOM     27  C   UNL     1      91.412  27.081   6.081  1.00  0.00     0.159 C 
ATOM     28  C   UNL     1      91.677  28.220   5.130  1.00  0.00     0.070 C 
ATOM     29  C   UNL     1      91.544  30.727   4.789  1.00  0.00     0.042 C 
ATOM     30  C   UNL     1      89.682  29.545   6.081  1.00  0.00     0.013 C 
ATOM     31  O   UNL     1      91.046  25.949   5.662  1.00  0.00    -0.295 OA
ATOM     32  C   UNL     1      91.106  27.991   3.715  1.00  0.00     0.047 C 
ATOM     33  C   UNL     1      91.033  30.514   3.350  1.00  0.00     0.143 C 
ATOM     34  C   UNL     1      91.488  29.151   2.783  1.00  0.00     0.143 C 
BRANCH  19  35
ATOM     35  O   UNL     1      93.926  28.890   9.253  1.00  0.00    -0.385 OA
ATOM     36  H   UNL     1      94.050  29.811   8.897  1.00  0.00     0.211 HD
ENDBRANCH  19  35
BRANCH  33  37
ATOM     37  O   UNL     1      89.633  30.630   3.309  1.00  0.00    -0.390 OA
ATOM     38  H   UNL     1      89.346  31.008   4.180  1.00  0.00     0.211 HD
ENDBRANCH  33  37
BRANCH  34  39
ATOM     39  O   UNL     1      90.923  28.933   1.516  1.00  0.00    -0.390 OA
ATOM     40  H   UNL     1      91.617  28.483   0.966  1.00  0.00     0.211 HD
ENDBRANCH  34  39
ENDBRANCH   1  15
BRANCH   1  41
ATOM     41  O   UNL     1      94.477  30.833  11.750  1.00  0.00    -0.387 OA
ATOM     42  H   UNL     1      94.483  30.232  10.961  1.00  0.00     0.211 HD
ENDBRANCH   1  41
TORSDOF 9
ENDMDL
MODEL 3
REMARK VINA RESULT:    -1.859      2.176      2.477
REMARK INTER + INTRA:          -3.915
REMARK INTER:                  -2.329
REMARK INTRA:                  -1.587
REMARK UNBOUND:                -1.350
REMARK SMILES C[C@@H]1OC(=O)[C@@H](C)[C@@H]1C[C@H](O)[C@@](C)(O)[C@@H]1CC[C@@]2(O)C3=CC(=O)[C@H]4C[C@@H](O)[C@@H](O)C[C@]4(C)[C@H]3CC[C@]12C
REMARK SMILES IDX 12 1 13 2 10 3 9 4 8 5 7 6 6 7 4 8 2 9 3 10 5 11 1 12 11 13
REMARK SMILES IDX 15 15 16 16 36 17 17 18 18 19 35 20 37 21 20 22 34 23 33 24
REMARK SMILES IDX 21 25 31 26 22 27 24 28 30 29 32 30 23 31 25 32 28 33 26 34
REMARK SMILES IDX 19 35 29 37 27 39 14 41
REMARK H PARENT 11 14 19 36 29 38 27 40 14 42
REMARK Flexibility Score: inf
ROOT
ATOM      1  C   UNL     1      92.664  30.318  13.175  1.00  0.00     0.091 C 
ATOM      2  C   UNL     1      92.967  31.840  13.154  1.00  0.00     0.045 C 
ENDROOT
BRANCH   1   3
ATOM      3  C   UNL     1      91.957  29.980  14.545  1.00  0.00     0.146 C 
BRANCH   3   4
ATOM      4  C   UNL     1      91.397  31.203  15.329  1.00  0.00     0.043 C 
BRANCH   4   5
ATOM      5  C   UNL     1      89.848  31.382  15.324  1.00  0.00     0.046 C 
ATOM      6  C   UNL     1      88.586  31.174  13.087  1.00  0.00     0.020 C 
ATOM      7  C   UNL     1      89.100  30.441  14.336  1.00  0.00     0.103 C 
ATOM      8  C   UNL     1      87.955  29.968  15.149  1.00  0.00     0.309 C 
ATOM      9  C   UNL     1      89.165  31.156  16.718  1.00  0.00     0.177 C 
ATOM     10  O   UNL     1      87.976  30.439  16.441  1.00  0.00    -0.462 OA
ATOM     11  O   UNL     1      87.049  29.204  14.721  1.00  0.00    -0.252 OA
ATOM     12  C   UNL     1      89.974  30.355  17.747  1.00  0.00     0.053 C 
ENDBRANCH   4   5
ENDBRANCH   3   4
BRANCH   3  13
ATOM     13  O   UNL     1      92.853  29.312  15.392  1.00  0.00    -0.390 OA
ATOM     14  H   UNL     1      93.192  29.966  16.060  1.00  0.00     0.211 HD
ENDBRANCH   3  13
ENDBRANCH   1   3
BRANCH   1  15
ATOM     15  C   UNL     1      91.814  29.820  11.921  1.00  0.00     0.032 C 
ATOM     16  C   UNL     1      91.289  28.361  12.056  1.00  0.00     0.010 C 
ATOM     17  C   UNL     1      92.297  29.927  10.403  1.00  0.00     0.006 C 
ATOM     18  C   UNL     1      91.227  27.776  10.646  1.00  0.00     0.041 C 
ATOM     19  C   UNL     1      92.417  28.442   9.959  1.00  0.00     0.092 C 
ATOM     20  C   UNL     1      93.650  30.604  10.015  1.00  0.00     0.011 C 
ATOM     21  C   UNL     1      91.148  30.677   9.635  1.00  0.00     0.015 C 
ATOM     22  C   UNL     1      92.544  28.359   8.444  1.00  0.00    -0.031 C 
ATOM     23  C   UNL     1      93.892  30.572   8.485  1.00  0.00     0.009 C 
ATOM     24  C   UNL     1      93.703  29.163   7.825  1.00  0.00     0.025 C 
ATOM     25  C   UNL     1      91.910  27.396   7.743  1.00  0.00     0.050 C 
ATOM     26  C   UNL     1      93.631  29.210   6.249  1.00  0.00    -0.013 C 
ATOM     27  C   UNL     1      92.266  27.106   6.344  1.00  0.00     0.159 C 
ATOM     28  C   UNL     1      93.510  27.731   5.765  1.00  0.00     0.070 C 
ATOM     29  C   UNL     1      94.949  29.815   5.675  1.00  0.00     0.042 C 
ATOM     30  C   UNL     1      92.407  30.060   5.783  1.00  0.00     0.013 C 
ATOM     31  O   UNL     1      91.577  26.283   5.681  1.00  0.00    -0.295 OA
ATOM     32  C   UNL     1      93.624  27.579   4.233  1.00  0.00     0.047 C 
ATOM     33  C   UNL     1      95.125  29.639   4.153  1.00  0.00     0.143 C 
ATOM     34  C   UNL     1      94.952  28.163   3.729  1.00  0.00     0.143 C 
BRANCH  19  35
ATOM     35  O   UNL     1      93.589  27.869  10.506  1.00  0.00    -0.385 OA
ATOM     36  H   UNL     1      94.220  28.605  10.728  1.00  0.00     0.211 HD
ENDBRANCH  19  35
BRANCH  33  37
ATOM     37  O   UNL     1      94.225  30.467   3.460  1.00  0.00    -0.390 OA
ATOM     38  H   UNL     1      93.656  29.876   2.903  1.00  0.00     0.211 HD
ENDBRANCH  33  37
BRANCH  34  39
ATOM     39  O   UNL     1      95.010  28.045   2.331  1.00  0.00    -0.390 OA
ATOM     40  H   UNL     1      94.077  27.912   2.015  1.00  0.00     0.211 HD
ENDBRANCH  34  39
ENDBRANCH   1  15
BRANCH   1  41
ATOM     41  O   UNL     1      93.896  29.624  13.179  1.00  0.00    -0.387 OA
ATOM     42  H   UNL     1      93.872  28.880  12.523  1.00  0.00     0.211 HD
ENDBRANCH   1  41
TORSDOF 9
ENDMDL
MODEL 4
REMARK VINA RESULT:    -1.812      3.891      5.794
REMARK INTER + INTRA:          -3.850
REMARK INTER:                  -2.417
REMARK INTRA:                  -1.433
REMARK UNBOUND:                -1.350
REMARK SMILES C[C@@H]1OC(=O)[C@@H](C)[C@@H]1C[C@H](O)[C@@](C)(O)[C@@H]1CC[C@@]2(O)C3=CC(=O)[C@H]4C[C@@H](O)[C@@H](O)C[C@]4(C)[C@H]3CC[C@]12C
REMARK SMILES IDX 12 1 13 2 10 3 9 4 8 5 7 6 6 7 4 8 2 9 3 10 5 11 1 12 11 13
REMARK SMILES IDX 15 15 16 16 36 17 17 18 18 19 35 20 37 21 20 22 34 23 33 24
REMARK SMILES IDX 21 25 31 26 22 27 24 28 30 29 32 30 23 31 25 32 28 33 26 34
REMARK SMILES IDX 19 35 29 37 27 39 14 41
REMARK H PARENT 11 14 19 36 29 38 27 40 14 42
REMARK Flexibility Score: inf
ROOT
ATOM      1  C   UNL     1      93.591  31.125  12.310  1.00  0.00     0.091 C 
ATOM      2  C   UNL     1      93.099  32.585  12.482  1.00  0.00     0.045 C 
ENDROOT
BRANCH   1   3
ATOM      3  C   UNL     1      93.731  30.484  13.746  1.00  0.00     0.146 C 
BRANCH   3   4
ATOM      4  C   UNL     1      93.135  31.324  14.915  1.00  0.00     0.043 C 
BRANCH   4   5
ATOM      5  C   UNL     1      92.341  30.536  16.001  1.00  0.00     0.046 C 
ATOM      6  C   UNL     1      90.497  28.903  15.247  1.00  0.00     0.020 C 
ATOM      7  C   UNL     1      91.983  29.077  15.598  1.00  0.00     0.103 C 
ATOM      8  C   UNL     1      92.302  28.317  16.830  1.00  0.00     0.309 C 
ATOM      9  C   UNL     1      93.074  30.423  17.383  1.00  0.00     0.177 C 
ATOM     10  O   UNL     1      92.834  29.100  17.827  1.00  0.00    -0.462 OA
ATOM     11  O   UNL     1      92.117  27.078  16.966  1.00  0.00    -0.252 OA
ATOM     12  C   UNL     1      94.593  30.649  17.366  1.00  0.00     0.053 C 
ENDBRANCH   4   5
ENDBRANCH   3   4
BRANCH   3  13
ATOM     13  O   UNL     1      95.085  30.260  14.038  1.00  0.00    -0.390 OA
ATOM     14  H   UNL     1      95.372  30.937  14.708  1.00  0.00     0.211 HD
ENDBRANCH   3  13
ENDBRANCH   1   3
BRANCH   1  15
ATOM     15  C   UNL     1      92.666  30.249  11.350  1.00  0.00     0.032 C 
ATOM     16  C   UNL     1      92.982  30.428   9.837  1.00  0.00     0.010 C 
ATOM     17  C   UNL     1      91.072  30.213  11.419  1.00  0.00     0.006 C 
ATOM     18  C   UNL     1      91.670  30.231   9.080  1.00  0.00     0.041 C 
ATOM     19  C   UNL     1      90.640  30.807  10.049  1.00  0.00     0.092 C 
ATOM     20  C   UNL     1      90.277  31.007  12.503  1.00  0.00     0.011 C 
ATOM     21  C   UNL     1      90.678  28.697  11.550  1.00  0.00     0.015 C 
ATOM     22  C   UNL     1      89.161  30.541   9.808  1.00  0.00    -0.031 C 
ATOM     23  C   UNL     1      88.746  30.817  12.351  1.00  0.00     0.009 C 
ATOM     24  C   UNL     1      88.203  31.051  10.901  1.00  0.00     0.025 C 
ATOM     25  C   UNL     1      88.705  30.195   8.586  1.00  0.00     0.050 C 
ATOM     26  C   UNL     1      86.723  30.542  10.692  1.00  0.00    -0.013 C 
ATOM     27  C   UNL     1      87.269  30.244   8.261  1.00  0.00     0.159 C 
ATOM     28  C   UNL     1      86.327  30.912   9.229  1.00  0.00     0.070 C 
ATOM     29  C   UNL     1      85.763  31.285  11.671  1.00  0.00     0.042 C 
ATOM     30  C   UNL     1      86.637  29.001  10.929  1.00  0.00     0.013 C 
ATOM     31  O   UNL     1      86.864  29.802   7.151  1.00  0.00    -0.295 OA
ATOM     32  C   UNL     1      84.836  30.658   8.917  1.00  0.00     0.047 C 
ATOM     33  C   UNL     1      84.263  31.097  11.363  1.00  0.00     0.143 C 
ATOM     34  C   UNL     1      83.940  31.438   9.891  1.00  0.00     0.143 C 
BRANCH  19  35
ATOM     35  O   UNL     1      90.813  32.211  10.056  1.00  0.00    -0.385 OA
ATOM     36  H   UNL     1      91.788  32.404  10.016  1.00  0.00     0.211 HD
ENDBRANCH  19  35
BRANCH  33  37
ATOM     37  O   UNL     1      83.863  29.786  11.672  1.00  0.00    -0.390 OA
ATOM     38  H   UNL     1      83.768  29.300  10.813  1.00  0.00     0.211 HD
ENDBRANCH  33  37
BRANCH  34  39
ATOM     39  O   UNL     1      82.594  31.157   9.607  1.00  0.00    -0.390 OA
ATOM     40  H   UNL     1      82.069  31.424  10.408  1.00  0.00     0.211 HD
ENDBRANCH  34  39
ENDBRANCH   1  15
BRANCH   1  41
ATOM     41  O   UNL     1      94.893  31.159  11.760  1.00  0.00    -0.387 OA
ATOM     42  H   UNL     1      95.192  32.099  11.647  1.00  0.00     0.211 HD
ENDBRANCH   1  41
TORSDOF 9
ENDMDL
MODEL 5
REMARK VINA RESULT:    -1.769      2.623      4.403
REMARK INTER + INTRA:          -3.792
REMARK INTER:                  -2.400
REMARK INTRA:                  -1.391
REMARK UNBOUND:                -1.350
REMARK SMILES C[C@@H]1OC(=O)[C@@H](C)[C@@H]1C[C@H](O)[C@@](C)(O)[C@@H]1CC[C@@]2(O)C3=CC(=O)[C@H]4C[C@@H](O)[C@@H](O)C[C@]4(C)[C@H]3CC[C@]12C
REMARK SMILES IDX 12 1 13 2 10 3 9 4 8 5 7 6 6 7 4 8 2 9 3 10 5 11 1 12 11 13
REMARK SMILES IDX 15 15 16 16 36 17 17 18 18 19 35 20 37 21 20 22 34 23 33 24
REMARK SMILES IDX 21 25 31 26 22 27 24 28 30 29 32 30 23 31 25 32 28 33 26 34
REMARK SMILES IDX 19 35 29 37 27 39 14 41
REMARK H PARENT 11 14 19 36 29 38 27 40 14 42
REMARK Flexibility Score: inf
ROOT
ATOM      1  C   UNL     1      93.451  30.571  15.311  1.00  0.00     0.091 C 
ATOM      2  C   UNL     1      94.898  30.650  14.759  1.00  0.00     0.045 C 
ENDROOT
BRANCH   1   3
ATOM      3  C   UNL     1      93.203  31.839  16.217  1.00  0.00     0.146 C 
BRANCH   3   4
ATOM      4  C   UNL     1      92.305  32.945  15.589  1.00  0.00     0.043 C 
BRANCH   4   5
ATOM      5  C   UNL     1      92.993  34.312  15.288  1.00  0.00     0.046 C 
ATOM      6  C   UNL     1      94.959  34.367  13.624  1.00  0.00     0.020 C 
ATOM      7  C   UNL     1      93.438  34.491  13.809  1.00  0.00     0.103 C 
ATOM      8  C   UNL     1      93.005  35.876  13.510  1.00  0.00     0.309 C 
ATOM      9  C   UNL     1      92.112  35.567  15.618  1.00  0.00     0.177 C 
ATOM     10  O   UNL     1      92.340  36.473  14.554  1.00  0.00    -0.462 OA
ATOM     11  O   UNL     1      93.209  36.462  12.413  1.00  0.00    -0.252 OA
ATOM     12  C   UNL     1      90.599  35.325  15.720  1.00  0.00     0.053 C 
ENDBRANCH   4   5
ENDBRANCH   3   4
BRANCH   3  13
ATOM     13  O   UNL     1      94.429  32.433  16.552  1.00  0.00    -0.390 OA
ATOM     14  H   UNL     1      94.816  31.929  17.317  1.00  0.00     0.211 HD
ENDBRANCH   3  13
ENDBRANCH   1   3
BRANCH   1  15
ATOM     15  C   UNL     1      92.343  30.420  14.173  1.00  0.00     0.032 C 
ATOM     16  C   UNL     1      91.593  29.056  14.202  1.00  0.00     0.010 C 
ATOM     17  C   UNL     1      92.597  30.697  12.622  1.00  0.00     0.006 C 
ATOM     18  C   UNL     1      91.211  28.726  12.761  1.00  0.00     0.041 C 
ATOM     19  C   UNL     1      92.381  29.304  11.968  1.00  0.00     0.092 C 
ATOM     20  C   UNL     1      93.974  31.212  12.093  1.00  0.00     0.011 C 
ATOM     21  C   UNL     1      91.497  31.730  12.180  1.00  0.00     0.015 C 
ATOM     22  C   UNL     1      92.256  29.450  10.458  1.00  0.00    -0.031 C 
ATOM     23  C   UNL     1      93.968  31.393  10.554  1.00  0.00     0.009 C 
ATOM     24  C   UNL     1      93.431  30.157   9.756  1.00  0.00     0.025 C 
ATOM     25  C   UNL     1      91.360  28.722   9.758  1.00  0.00     0.050 C 
ATOM     26  C   UNL     1      93.127  30.470   8.238  1.00  0.00    -0.013 C 
ATOM     27  C   UNL     1      91.439  28.613   8.292  1.00  0.00     0.159 C 
ATOM     28  C   UNL     1      92.670  29.126   7.589  1.00  0.00     0.070 C 
ATOM     29  C   UNL     1      94.428  30.950   7.524  1.00  0.00     0.042 C 
ATOM     30  C   UNL     1      92.018  31.562   8.117  1.00  0.00     0.013 C 
ATOM     31  O   UNL     1      90.520  28.025   7.659  1.00  0.00    -0.295 OA
ATOM     32  C   UNL     1      92.518  29.209   6.055  1.00  0.00     0.047 C 
ATOM     33  C   UNL     1      94.333  31.000   5.986  1.00  0.00     0.143 C 
ATOM     34  C   UNL     1      93.836  29.657   5.405  1.00  0.00     0.143 C 
BRANCH  19  35
ATOM     35  O   UNL     1      93.501  28.476  12.214  1.00  0.00    -0.385 OA
ATOM     36  H   UNL     1      94.125  28.560  11.444  1.00  0.00     0.211 HD
ENDBRANCH  19  35
BRANCH  33  37
ATOM     37  O   UNL     1      93.500  32.058   5.583  1.00  0.00    -0.390 OA
ATOM     38  H   UNL     1      92.619  31.664   5.354  1.00  0.00     0.211 HD
ENDBRANCH  33  37
BRANCH  34  39
ATOM     39  O   UNL     1      93.656  29.761   4.016  1.00  0.00    -0.390 OA
ATOM     40  H   UNL     1      94.235  29.069   3.599  1.00  0.00     0.211 HD
ENDBRANCH  34  39
ENDBRANCH   1  15
BRANCH   1  41
ATOM     41  O   UNL     1      93.366  29.447  16.164  1.00  0.00    -0.387 OA
ATOM     42  H   UNL     1      93.795  29.646  17.037  1.00  0.00     0.211 HD
ENDBRANCH   1  41
TORSDOF 9
ENDMDL
MODEL 6
REMARK VINA RESULT:    -1.723      3.275      5.776
REMARK INTER + INTRA:          -3.728
REMARK INTER:                  -2.209
REMARK INTRA:                  -1.519
REMARK UNBOUND:                -1.350
REMARK SMILES C[C@@H]1OC(=O)[C@@H](C)[C@@H]1C[C@H](O)[C@@](C)(O)[C@@H]1CC[C@@]2(O)C3=CC(=O)[C@H]4C[C@@H](O)[C@@H](O)C[C@]4(C)[C@H]3CC[C@]12C
REMARK SMILES IDX 12 1 13 2 10 3 9 4 8 5 7 6 6 7 4 8 2 9 3 10 5 11 1 12 11 13
REMARK SMILES IDX 15 15 16 16 36 17 17 18 18 19 35 20 37 21 20 22 34 23 33 24
REMARK SMILES IDX 21 25 31 26 22 27 24 28 30 29 32 30 23 31 25 32 28 33 26 34
REMARK SMILES IDX 19 35 29 37 27 39 14 41
REMARK H PARENT 11 14 19 36 29 38 27 40 14 42
REMARK Flexibility Score: inf
ROOT
ATOM      1  C   UNL     1      93.036  33.296  14.895  1.00  0.00     0.091 C 
ATOM      2  C   UNL     1      94.561  33.109  14.685  1.00  0.00     0.045 C 
ENDROOT
BRANCH   1   3
ATOM      3  C   UNL     1      92.620  34.676  14.252  1.00  0.00     0.146 C 
BRANCH   3   4
ATOM      4  C   UNL     1      93.680  35.323  13.311  1.00  0.00     0.043 C 
BRANCH   4   5
ATOM      5  C   UNL     1      93.135  36.034  12.035  1.00  0.00     0.046 C 
ATOM      6  C   UNL     1      91.265  34.888  10.683  1.00  0.00     0.020 C 
ATOM      7  C   UNL     1      91.603  35.869  11.818  1.00  0.00     0.103 C 
ATOM      8  C   UNL     1      91.184  37.239  11.440  1.00  0.00     0.309 C 
ATOM      9  C   UNL     1      93.401  37.579  11.992  1.00  0.00     0.177 C 
ATOM     10  O   UNL     1      92.213  38.149  11.473  1.00  0.00    -0.462 OA
ATOM     11  O   UNL     1      90.006  37.558  11.126  1.00  0.00    -0.252 OA
ATOM     12  C   UNL     1      93.703  38.253  13.338  1.00  0.00     0.053 C 
ENDBRANCH   4   5
ENDBRANCH   3   4
BRANCH   3  13
ATOM     13  O   UNL     1      92.331  35.605  15.262  1.00  0.00    -0.390 OA
ATOM     14  H   UNL     1      93.151  36.141  15.432  1.00  0.00     0.211 HD
ENDBRANCH   3  13
ENDBRANCH   1   3
BRANCH   1  15
ATOM     15  C   UNL     1      92.163  32.084  14.335  1.00  0.00     0.032 C 
ATOM     16  C   UNL     1      92.153  30.834  15.261  1.00  0.00     0.010 C 
ATOM     17  C   UNL     1      92.292  31.484  12.862  1.00  0.00     0.006 C 
ATOM     18  C   UNL     1      92.011  29.610  14.358  1.00  0.00     0.041 C 
ATOM     19  C   UNL     1      92.782  30.029  13.108  1.00  0.00     0.092 C 
ATOM     20  C   UNL     1      93.268  32.094  11.806  1.00  0.00     0.011 C 
ATOM     21  C   UNL     1      90.843  31.518  12.251  1.00  0.00     0.015 C 
ATOM     22  C   UNL     1      92.640  29.208  11.835  1.00  0.00    -0.031 C 
ATOM     23  C   UNL     1      93.215  31.328  10.460  1.00  0.00     0.009 C 
ATOM     24  C   UNL     1      93.352  29.773  10.591  1.00  0.00     0.025 C 
ATOM     25  C   UNL     1      92.218  27.927  11.876  1.00  0.00     0.050 C 
ATOM     26  C   UNL     1      92.973  28.993   9.272  1.00  0.00    -0.013 C 
ATOM     27  C   UNL     1      92.375  27.030  10.717  1.00  0.00     0.159 C 
ATOM     28  C   UNL     1      93.228  27.481   9.560  1.00  0.00     0.070 C 
ATOM     29  C   UNL     1      93.904  29.442   8.104  1.00  0.00     0.042 C 
ATOM     30  C   UNL     1      91.480  29.253   8.894  1.00  0.00     0.013 C 
ATOM     31  O   UNL     1      91.864  25.877  10.745  1.00  0.00    -0.295 OA
ATOM     32  C   UNL     1      93.093  26.589   8.306  1.00  0.00     0.047 C 
ATOM     33  C   UNL     1      93.834  28.547   6.850  1.00  0.00     0.143 C 
ATOM     34  C   UNL     1      94.053  27.059   7.202  1.00  0.00     0.143 C 
BRANCH  19  35
ATOM     35  O   UNL     1      94.156  30.035  13.448  1.00  0.00    -0.385 OA
ATOM     36  H   UNL     1      94.527  30.931  13.227  1.00  0.00     0.211 HD
ENDBRANCH  19  35
BRANCH  33  37
ATOM     37  O   UNL     1      92.607  28.730   6.189  1.00  0.00    -0.390 OA
ATOM     38  H   UNL     1      92.433  29.706   6.163  1.00  0.00     0.211 HD
ENDBRANCH  33  37
BRANCH  34  39
ATOM     39  O   UNL     1      93.879  26.254   6.065  1.00  0.00    -0.390 OA
ATOM     40  H   UNL     1      93.750  26.869   5.295  1.00  0.00     0.211 HD
ENDBRANCH  34  39
ENDBRANCH   1  15
BRANCH   1  41
ATOM     41  O   UNL     1      92.793  33.413  16.283  1.00  0.00    -0.387 OA
ATOM     42  H   UNL     1      93.492  33.976  16.707  1.00  0.00     0.211 HD
ENDBRANCH   1  41
TORSDOF 9
ENDMDL
MODEL 7
REMARK VINA RESULT:    -1.712      3.384      5.074
REMARK INTER + INTRA:          -3.712
REMARK INTER:                  -2.191
REMARK INTRA:                  -1.521
REMARK UNBOUND:                -1.350
REMARK SMILES C[C@@H]1OC(=O)[C@@H](C)[C@@H]1C[C@H](O)[C@@](C)(O)[C@@H]1CC[C@@]2(O)C3=CC(=O)[C@H]4C[C@@H](O)[C@@H](O)C[C@]4(C)[C@H]3CC[C@]12C
REMARK SMILES IDX 12 1 13 2 10 3 9 4 8 5 7 6 6 7 4 8 2 9 3 10 5 11 1 12 11 13
REMARK SMILES IDX 15 15 16 16 36 17 17 18 18 19 35 20 37 21 20 22 34 23 33 24
REMARK SMILES IDX 21 25 31 26 22 27 24 28 30 29 32 30 23 31 25 32 28 33 26 34
REMARK SMILES IDX 19 35 29 37 27 39 14 41
REMARK H PARENT 11 14 19 36 29 38 27 40 14 42
REMARK Flexibility Score: inf
ROOT
ATOM      1  C   UNL     1      90.231  27.563  14.267  1.00  0.00     0.091 C 
ATOM      2  C   UNL     1      91.218  28.559  14.930  1.00  0.00     0.045 C 
ENDROOT
BRANCH   1   3
ATOM      3  C   UNL     1      88.777  28.166  14.381  1.00  0.00     0.146 C 
BRANCH   3   4
ATOM      4  C   UNL     1      88.705  29.666  14.793  1.00  0.00     0.043 C 
BRANCH   4   5
ATOM      5  C   UNL     1      87.626  30.533  14.075  1.00  0.00     0.046 C 
ATOM      6  C   UNL     1      87.307  30.256  11.533  1.00  0.00     0.020 C 
ATOM      7  C   UNL     1      86.870  29.794  12.933  1.00  0.00     0.103 C 
ATOM      8  C   UNL     1      85.462  30.185  13.176  1.00  0.00     0.309 C 
ATOM      9  C   UNL     1      86.510  31.094  15.023  1.00  0.00     0.177 C 
ATOM     10  O   UNL     1      85.302  30.966  14.296  1.00  0.00    -0.462 OA
ATOM     11  O   UNL     1      84.494  29.841  12.445  1.00  0.00    -0.252 OA
ATOM     12  C   UNL     1      86.335  30.371  16.366  1.00  0.00     0.053 C 
ENDBRANCH   4   5
ENDBRANCH   3   4
BRANCH   3  13
ATOM     13  O   UNL     1      88.030  27.436  15.318  1.00  0.00    -0.390 OA
ATOM     14  H   UNL     1      87.177  27.164  14.887  1.00  0.00     0.211 HD
ENDBRANCH   3  13
ENDBRANCH   1   3
BRANCH   1  15
ATOM     15  C   UNL     1      90.612  27.194  12.762  1.00  0.00     0.032 C 
ATOM     16  C   UNL     1      91.737  26.125  12.641  1.00  0.00     0.010 C 
ATOM     17  C   UNL     1      90.963  28.265  11.632  1.00  0.00     0.006 C 
ATOM     18  C   UNL     1      92.506  26.430  11.358  1.00  0.00     0.041 C 
ATOM     19  C   UNL     1      92.447  27.954  11.289  1.00  0.00     0.092 C 
ATOM     20  C   UNL     1      90.897  29.802  11.904  1.00  0.00     0.011 C 
ATOM     21  C   UNL     1      90.005  27.951  10.425  1.00  0.00     0.015 C 
ATOM     22  C   UNL     1      92.844  28.657   9.999  1.00  0.00    -0.031 C 
ATOM     23  C   UNL     1      91.291  30.627  10.653  1.00  0.00     0.009 C 
ATOM     24  C   UNL     1      92.634  30.183   9.978  1.00  0.00     0.025 C 
ATOM     25  C   UNL     1      93.627  28.047   9.086  1.00  0.00     0.050 C 
ATOM     26  C   UNL     1      92.852  30.803   8.543  1.00  0.00    -0.013 C 
ATOM     27  C   UNL     1      94.275  28.807   8.002  1.00  0.00     0.159 C 
ATOM     28  C   UNL     1      94.251  30.313   8.055  1.00  0.00     0.070 C 
ATOM     29  C   UNL     1      92.874  32.359   8.634  1.00  0.00     0.042 C 
ATOM     30  C   UNL     1      91.721  30.341   7.570  1.00  0.00     0.013 C 
ATOM     31  O   UNL     1      94.902  28.192   7.097  1.00  0.00    -0.295 OA
ATOM     32  C   UNL     1      94.711  30.986   6.743  1.00  0.00     0.047 C 
ATOM     33  C   UNL     1      93.374  33.069   7.359  1.00  0.00     0.143 C 
ATOM     34  C   UNL     1      94.741  32.514   6.901  1.00  0.00     0.143 C 
BRANCH  19  35
ATOM     35  O   UNL     1      93.291  28.450  12.310  1.00  0.00    -0.385 OA
ATOM     36  H   UNL     1      92.756  28.529  13.145  1.00  0.00     0.211 HD
ENDBRANCH  19  35
BRANCH  33  37
ATOM     37  O   UNL     1      92.420  32.957   6.333  1.00  0.00    -0.390 OA
ATOM     38  H   UNL     1      92.393  32.003   6.063  1.00  0.00     0.211 HD
ENDBRANCH  33  37
BRANCH  34  39
ATOM     39  O   UNL     1      95.125  33.097   5.683  1.00  0.00    -0.390 OA
ATOM     40  H   UNL     1      95.679  32.426   5.205  1.00  0.00     0.211 HD
ENDBRANCH  34  39
ENDBRANCH   1  15
BRANCH   1  41
ATOM     41  O   UNL     1      90.230  26.371  15.028  1.00  0.00    -0.387 OA
ATOM     42  H   UNL     1      90.834  26.464  15.811  1.00  0.00     0.211 HD
ENDBRANCH   1  41
TORSDOF 9
ENDMDL
MODEL 8
REMARK VINA RESULT:    -1.707      3.919      5.418
REMARK INTER + INTRA:          -3.706
REMARK INTER:                  -2.230
REMARK INTRA:                  -1.475
REMARK UNBOUND:                -1.350
REMARK SMILES C[C@@H]1OC(=O)[C@@H](C)[C@@H]1C[C@H](O)[C@@](C)(O)[C@@H]1CC[C@@]2(O)C3=CC(=O)[C@H]4C[C@@H](O)[C@@H](O)C[C@]4(C)[C@H]3CC[C@]12C
REMARK SMILES IDX 12 1 13 2 10 3 9 4 8 5 7 6 6 7 4 8 2 9 3 10 5 11 1 12 11 13
REMARK SMILES IDX 15 15 16 16 36 17 17 18 18 19 35 20 37 21 20 22 34 23 33 24
REMARK SMILES IDX 21 25 31 26 22 27 24 28 30 29 32 30 23 31 25 32 28 33 26 34
REMARK SMILES IDX 19 35 29 37 27 39 14 41
REMARK H PARENT 11 14 19 36 29 38 27 40 14 42
REMARK Flexibility Score: inf
ROOT
ATOM      1  C   UNL     1      92.914  30.484  11.751  1.00  0.00     0.091 C 
ATOM      2  C   UNL     1      92.144  31.831  11.761  1.00  0.00     0.045 C 
ENDROOT
BRANCH   1   3
ATOM      3  C   UNL     1      93.026  29.974  13.240  1.00  0.00     0.146 C 
BRANCH   3   4
ATOM      4  C   UNL     1      92.151  30.738  14.277  1.00  0.00     0.043 C 
BRANCH   4   5
ATOM      5  C   UNL     1      91.451  29.872  15.369  1.00  0.00     0.046 C 
ATOM      6  C   UNL     1      90.148  27.773  14.637  1.00  0.00     0.020 C 
ATOM      7  C   UNL     1      91.501  28.341  15.098  1.00  0.00     0.103 C 
ATOM      8  C   UNL     1      91.851  27.791  16.429  1.00  0.00     0.309 C 
ATOM      9  C   UNL     1      92.030  30.062  16.815  1.00  0.00     0.177 C 
ATOM     10  O   UNL     1      92.065  28.763  17.377  1.00  0.00    -0.462 OA
ATOM     11  O   UNL     1      91.954  26.561  16.683  1.00  0.00    -0.252 OA
ATOM     12  C   UNL     1      93.442  30.657  16.907  1.00  0.00     0.053 C 
ENDBRANCH   4   5
ENDBRANCH   3   4
BRANCH   3  13
ATOM     13  O   UNL     1      94.358  30.055  13.673  1.00  0.00    -0.390 OA
ATOM     14  H   UNL     1      94.542  30.998  13.927  1.00  0.00     0.211 HD
ENDBRANCH   3  13
ENDBRANCH   1   3
BRANCH   1  15
ATOM     15  C   UNL     1      92.268  29.388  10.788  1.00  0.00     0.032 C 
ATOM     16  C   UNL     1      92.686  29.536   9.296  1.00  0.00     0.010 C 
ATOM     17  C   UNL     1      90.711  29.043  10.728  1.00  0.00     0.006 C 
ATOM     18  C   UNL     1      91.514  29.041   8.452  1.00  0.00     0.041 C 
ATOM     19  C   UNL     1      90.305  29.459   9.287  1.00  0.00     0.092 C 
ATOM     20  C   UNL     1      89.679  29.728  11.681  1.00  0.00     0.011 C 
ATOM     21  C   UNL     1      90.603  27.489  10.943  1.00  0.00     0.015 C 
ATOM     22  C   UNL     1      88.934  28.893   8.946  1.00  0.00    -0.031 C 
ATOM     23  C   UNL     1      88.235  29.231  11.419  1.00  0.00     0.009 C 
ATOM     24  C   UNL     1      87.797  29.268   9.915  1.00  0.00     0.025 C 
ATOM     25  C   UNL     1      88.671  28.392   7.721  1.00  0.00     0.050 C 
ATOM     26  C   UNL     1      86.468  28.466   9.626  1.00  0.00    -0.013 C 
ATOM     27  C   UNL     1      87.290  28.138   7.277  1.00  0.00     0.159 C 
ATOM     28  C   UNL     1      86.149  28.664   8.111  1.00  0.00     0.070 C 
ATOM     29  C   UNL     1      85.295  29.062  10.464  1.00  0.00     0.042 C 
ATOM     30  C   UNL     1      86.656  26.954   9.972  1.00  0.00     0.013 C 
ATOM     31  O   UNL     1      87.084  27.561   6.175  1.00  0.00    -0.295 OA
ATOM     32  C   UNL     1      84.771  28.103   7.699  1.00  0.00     0.047 C 
ATOM     33  C   UNL     1      83.895  28.564  10.049  1.00  0.00     0.143 C 
ATOM     34  C   UNL     1      83.654  28.747   8.534  1.00  0.00     0.143 C 
BRANCH  19  35
ATOM     35  O   UNL     1      90.206  30.868   9.201  1.00  0.00    -0.385 OA
ATOM     36  H   UNL     1      89.690  31.191   9.987  1.00  0.00     0.211 HD
ENDBRANCH  19  35
BRANCH  33  37
ATOM     37  O   UNL     1      83.725  27.220  10.424  1.00  0.00    -0.390 OA
ATOM     38  H   UNL     1      84.415  26.695   9.943  1.00  0.00     0.211 HD
ENDBRANCH  33  37
BRANCH  34  39
ATOM     39  O   UNL     1      82.419  28.191   8.164  1.00  0.00    -0.390 OA
ATOM     40  H   UNL     1      82.433  28.095   7.175  1.00  0.00     0.211 HD
ENDBRANCH  34  39
ENDBRANCH   1  15
BRANCH   1  41
ATOM     41  O   UNL     1      94.235  30.734  11.314  1.00  0.00    -0.387 OA
ATOM     42  H   UNL     1      94.489  31.673  11.513  1.00  0.00     0.211 HD
ENDBRANCH   1  41
TORSDOF 9
ENDMDL
