MODEL 1
REMARK VINA RESULT:    -8.947      0.000      0.000
REMARK INTER + INTRA:          -9.698
REMARK INTER:                  -9.470
REMARK INTRA:                  -0.228
REMARK UNBOUND:                -0.228
REMARK SMILES O=c1cc(-c2ccccc2)oc2ccccc12
REMARK SMILES IDX 4 1 3 2 2 3 1 4 17 5 16 6 15 7 14 8 13 9 12 10 11 11 5 12
REMARK SMILES IDX 8 13 7 14 9 15 6 16 10 17
REMARK H PARENT
REMARK Flexibility Score: inf
ROOT
ATOM      1  C   UNL     1     140.917 -20.323  79.178  1.00  0.00     0.138 A 
ATOM      2  C   UNL     1     139.621 -20.836  78.965  1.00  0.00     0.100 A 
ATOM      3  C   UNL     1     138.549 -20.326  79.700  1.00  0.00     0.193 A 
ATOM      4  O   UNL     1     137.390 -20.785  79.510  1.00  0.00    -0.289 OA
ATOM      5  C   UNL     1     138.777 -19.311  80.639  1.00  0.00     0.065 A 
ATOM      6  C   UNL     1     137.743 -18.753  81.413  1.00  0.00     0.016 A 
ATOM      7  C   UNL     1     138.026 -17.742  82.336  1.00  0.00     0.001 A 
ATOM      8  C   UNL     1     139.336 -17.280  82.494  1.00  0.00     0.004 A 
ATOM      9  C   UNL     1     140.370 -17.828  81.729  1.00  0.00     0.048 A 
ATOM     10  C   UNL     1     140.098 -18.841  80.803  1.00  0.00     0.138 A 
ATOM     11  O   UNL     1     141.089 -19.357  80.082  1.00  0.00    -0.456 OA
ENDROOT
BRANCH   1  12
ATOM     12  C   UNL     1     142.120 -20.813  78.434  1.00  0.00     0.017 A 
ATOM     13  C   UNL     1     144.381 -21.822  77.079  1.00  0.00     0.000 A 
ATOM     14  C   UNL     1     143.706 -22.620  78.002  1.00  0.00     0.001 A 
ATOM     15  C   UNL     1     143.938 -20.524  76.828  1.00  0.00     0.001 A 
ATOM     16  C   UNL     1     142.586 -22.122  78.673  1.00  0.00     0.012 A 
ATOM     17  C   UNL     1     142.817 -20.019  77.496  1.00  0.00     0.012 A 
ENDBRANCH   1  12
TORSDOF 1
ENDMDL
MODEL 2
REMARK VINA RESULT:    -8.864      2.964      5.608
REMARK INTER + INTRA:          -9.611
REMARK INTER:                  -9.370
REMARK INTRA:                  -0.241
REMARK UNBOUND:                -0.228
REMARK SMILES O=c1cc(-c2ccccc2)oc2ccccc12
REMARK SMILES IDX 4 1 3 2 2 3 1 4 17 5 16 6 15 7 14 8 13 9 12 10 11 11 5 12
REMARK SMILES IDX 8 13 7 14 9 15 6 16 10 17
REMARK H PARENT
REMARK Flexibility Score: inf
ROOT
ATOM      1  C   UNL     1     137.709 -19.032  80.083  1.00  0.00     0.138 A 
ATOM      2  C   UNL     1     137.584 -18.437  81.356  1.00  0.00     0.100 A 
ATOM      3  C   UNL     1     138.644 -17.689  81.872  1.00  0.00     0.193 A 
ATOM      4  O   UNL     1     138.533 -17.157  83.011  1.00  0.00    -0.289 OA
ATOM      5  C   UNL     1     139.817 -17.541  81.119  1.00  0.00     0.065 A 
ATOM      6  C   UNL     1     140.921 -16.802  81.580  1.00  0.00     0.016 A 
ATOM      7  C   UNL     1     142.067 -16.686  80.787  1.00  0.00     0.001 A 
ATOM      8  C   UNL     1     142.120 -17.303  79.534  1.00  0.00     0.004 A 
ATOM      9  C   UNL     1     141.028 -18.039  79.068  1.00  0.00     0.048 A 
ATOM     10  C   UNL     1     139.876 -18.162  79.853  1.00  0.00     0.138 A 
ATOM     11  O   UNL     1     138.843 -18.866  79.401  1.00  0.00    -0.456 OA
ENDROOT
BRANCH   1  12
ATOM     12  C   UNL     1     136.623 -19.849  79.456  1.00  0.00     0.017 A 
ATOM     13  C   UNL     1     134.582 -21.334  78.194  1.00  0.00     0.000 A 
ATOM     14  C   UNL     1     135.203 -20.285  77.517  1.00  0.00     0.001 A 
ATOM     15  C   UNL     1     134.970 -21.648  79.496  1.00  0.00     0.001 A 
ATOM     16  C   UNL     1     136.214 -19.549  78.140  1.00  0.00     0.012 A 
ATOM     17  C   UNL     1     135.981 -20.915  80.126  1.00  0.00     0.012 A 
ENDBRANCH   1  12
TORSDOF 1
ENDMDL
MODEL 3
REMARK VINA RESULT:    -8.754      2.716      5.549
REMARK INTER + INTRA:          -9.494
REMARK INTER:                  -9.251
REMARK INTRA:                  -0.243
REMARK UNBOUND:                -0.228
REMARK SMILES O=c1cc(-c2ccccc2)oc2ccccc12
REMARK SMILES IDX 4 1 3 2 2 3 1 4 17 5 16 6 15 7 14 8 13 9 12 10 11 11 5 12
REMARK SMILES IDX 8 13 7 14 9 15 6 16 10 17
REMARK H PARENT
REMARK Flexibility Score: inf
ROOT
ATOM      1  C   UNL     1     140.099 -17.344  80.520  1.00  0.00     0.138 A 
ATOM      2  C   UNL     1     141.030 -18.215  79.917  1.00  0.00     0.100 A 
ATOM      3  C   UNL     1     140.672 -19.544  79.676  1.00  0.00     0.193 A 
ATOM      4  O   UNL     1     141.504 -20.324  79.137  1.00  0.00    -0.289 OA
ATOM      5  C   UNL     1     139.395 -19.992  80.038  1.00  0.00     0.065 A 
ATOM      6  C   UNL     1     138.971 -21.316  79.825  1.00  0.00     0.016 A 
ATOM      7  C   UNL     1     137.685 -21.710  80.206  1.00  0.00     0.001 A 
ATOM      8  C   UNL     1     136.815 -20.791  80.798  1.00  0.00     0.004 A 
ATOM      9  C   UNL     1     137.227 -19.473  81.014  1.00  0.00     0.048 A 
ATOM     10  C   UNL     1     138.512 -19.068  80.638  1.00  0.00     0.138 A 
ATOM     11  O   UNL     1     138.894 -17.813  80.849  1.00  0.00    -0.456 OA
ENDROOT
BRANCH   1  12
ATOM     12  C   UNL     1     140.400 -15.908  80.813  1.00  0.00     0.017 A 
ATOM     13  C   UNL     1     141.052 -13.226  81.406  1.00  0.00     0.000 A 
ATOM     14  C   UNL     1     141.939 -14.250  81.736  1.00  0.00     0.001 A 
ATOM     15  C   UNL     1     139.841 -13.529  80.784  1.00  0.00     0.001 A 
ATOM     16  C   UNL     1     141.619 -15.578  81.443  1.00  0.00     0.012 A 
ATOM     17  C   UNL     1     139.513 -14.856  80.487  1.00  0.00     0.012 A 
ENDBRANCH   1  12
TORSDOF 1
ENDMDL
MODEL 4
REMARK VINA RESULT:    -8.615      2.627      5.274
REMARK INTER + INTRA:          -9.347
REMARK INTER:                  -9.124
REMARK INTRA:                  -0.223
REMARK UNBOUND:                -0.228
REMARK SMILES O=c1cc(-c2ccccc2)oc2ccccc12
REMARK SMILES IDX 4 1 3 2 2 3 1 4 17 5 16 6 15 7 14 8 13 9 12 10 11 11 5 12
REMARK SMILES IDX 8 13 7 14 9 15 6 16 10 17
REMARK H PARENT
REMARK Flexibility Score: inf
ROOT
ATOM      1  C   UNL     1     138.573 -19.335  79.145  1.00  0.00     0.138 A 
ATOM      2  C   UNL     1     139.773 -19.795  78.564  1.00  0.00     0.100 A 
ATOM      3  C   UNL     1     140.968 -19.123  78.829  1.00  0.00     0.193 A 
ATOM      4  O   UNL     1     142.041 -19.534  78.309  1.00  0.00    -0.289 OA
ATOM      5  C   UNL     1     140.958 -18.001  79.669  1.00  0.00     0.065 A 
ATOM      6  C   UNL     1     142.125 -17.278  79.977  1.00  0.00     0.016 A 
ATOM      7  C   UNL     1     142.057 -16.165  80.820  1.00  0.00     0.001 A 
ATOM      8  C   UNL     1     140.832 -15.767  81.362  1.00  0.00     0.004 A 
ATOM      9  C   UNL     1     139.667 -16.478  81.062  1.00  0.00     0.048 A 
ATOM     10  C   UNL     1     139.723 -17.593  80.218  1.00  0.00     0.138 A 
ATOM     11  O   UNL     1     138.609 -18.263  79.938  1.00  0.00    -0.456 OA
ENDROOT
BRANCH   1  12
ATOM     12  C   UNL     1     137.251 -19.996  78.913  1.00  0.00     0.017 A 
ATOM     13  C   UNL     1     134.755 -21.205  78.386  1.00  0.00     0.000 A 
ATOM     14  C   UNL     1     135.396 -20.462  77.394  1.00  0.00     0.001 A 
ATOM     15  C   UNL     1     135.350 -21.348  79.639  1.00  0.00     0.001 A 
ATOM     16  C   UNL     1     136.631 -19.863  77.653  1.00  0.00     0.012 A 
ATOM     17  C   UNL     1     136.587 -20.751  79.906  1.00  0.00     0.012 A 
ENDBRANCH   1  12
TORSDOF 1
ENDMDL
MODEL 5
REMARK VINA RESULT:    -8.435      2.777      5.651
REMARK INTER + INTRA:          -9.157
REMARK INTER:                  -8.896
REMARK INTRA:                  -0.261
REMARK UNBOUND:                -0.228
REMARK SMILES O=c1cc(-c2ccccc2)oc2ccccc12
REMARK SMILES IDX 4 1 3 2 2 3 1 4 17 5 16 6 15 7 14 8 13 9 12 10 11 11 5 12
REMARK SMILES IDX 8 13 7 14 9 15 6 16 10 17
REMARK H PARENT
REMARK Flexibility Score: inf
ROOT
ATOM      1  C   UNL     1     139.330 -17.069  80.790  1.00  0.00     0.138 A 
ATOM      2  C   UNL     1     137.949 -17.278  80.600  1.00  0.00     0.100 A 
ATOM      3  C   UNL     1     137.466 -18.578  80.433  1.00  0.00     0.193 A 
ATOM      4  O   UNL     1     136.231 -18.766  80.263  1.00  0.00    -0.289 OA
ATOM      5  C   UNL     1     138.362 -19.655  80.454  1.00  0.00     0.065 A 
ATOM      6  C   UNL     1     137.944 -20.988  80.291  1.00  0.00     0.016 A 
ATOM      7  C   UNL     1     138.881 -22.026  80.320  1.00  0.00     0.001 A 
ATOM      8  C   UNL     1     140.236 -21.744  80.513  1.00  0.00     0.004 A 
ATOM      9  C   UNL     1     140.661 -20.423  80.676  1.00  0.00     0.048 A 
ATOM     10  C   UNL     1     139.733 -19.377  80.648  1.00  0.00     0.138 A 
ATOM     11  O   UNL     1     140.148 -18.124  80.803  1.00  0.00    -0.456 OA
ENDROOT
BRANCH   1  12
ATOM     12  C   UNL     1     139.930 -15.711  80.976  1.00  0.00     0.017 A 
ATOM     13  C   UNL     1     140.982 -13.110  81.287  1.00  0.00     0.000 A 
ATOM     14  C   UNL     1     139.724 -13.291  80.714  1.00  0.00     0.001 A 
ATOM     15  C   UNL     1     141.721 -14.217  81.705  1.00  0.00     0.001 A 
ATOM     16  C   UNL     1     139.201 -14.577  80.560  1.00  0.00     0.012 A 
ATOM     17  C   UNL     1     141.204 -15.508  81.554  1.00  0.00     0.012 A 
ENDBRANCH   1  12
TORSDOF 1
ENDMDL
MODEL 6
REMARK VINA RESULT:    -8.207      3.097      4.901
REMARK INTER + INTRA:          -8.915
REMARK INTER:                  -8.692
REMARK INTRA:                  -0.223
REMARK UNBOUND:                -0.228
REMARK SMILES O=c1cc(-c2ccccc2)oc2ccccc12
REMARK SMILES IDX 4 1 3 2 2 3 1 4 17 5 16 6 15 7 14 8 13 9 12 10 11 11 5 12
REMARK SMILES IDX 8 13 7 14 9 15 6 16 10 17
REMARK H PARENT
REMARK Flexibility Score: inf
ROOT
ATOM      1  C   UNL     1     138.832 -18.763  80.055  1.00  0.00     0.138 A 
ATOM      2  C   UNL     1     138.367 -19.679  81.022  1.00  0.00     0.100 A 
ATOM      3  C   UNL     1     137.264 -20.485  80.732  1.00  0.00     0.193 A 
ATOM      4  O   UNL     1     136.848 -21.304  81.596  1.00  0.00    -0.289 OA
ATOM      5  C   UNL     1     136.636 -20.373  79.484  1.00  0.00     0.065 A 
ATOM      6  C   UNL     1     135.522 -21.154  79.128  1.00  0.00     0.016 A 
ATOM      7  C   UNL     1     134.932 -21.001  77.869  1.00  0.00     0.001 A 
ATOM      8  C   UNL     1     135.448 -20.073  76.960  1.00  0.00     0.004 A 
ATOM      9  C   UNL     1     136.554 -19.293  77.305  1.00  0.00     0.048 A 
ATOM     10  C   UNL     1     137.151 -19.437  78.562  1.00  0.00     0.138 A 
ATOM     11  O   UNL     1     138.203 -18.689  78.881  1.00  0.00    -0.456 OA
ENDROOT
BRANCH   1  12
ATOM     12  C   UNL     1     140.004 -17.862  80.284  1.00  0.00     0.017 A 
ATOM     13  C   UNL     1     142.161 -16.109  80.776  1.00  0.00     0.000 A 
ATOM     14  C   UNL     1     140.933 -15.900  81.404  1.00  0.00     0.001 A 
ATOM     15  C   UNL     1     142.321 -17.185  79.904  1.00  0.00     0.001 A 
ATOM     16  C   UNL     1     139.865 -16.767  81.163  1.00  0.00     0.012 A 
ATOM     17  C   UNL     1     141.255 -18.057  79.656  1.00  0.00     0.012 A 
ENDBRANCH   1  12
TORSDOF 1
ENDMDL
MODEL 7
REMARK VINA RESULT:    -8.175      1.395      2.705
REMARK INTER + INTRA:          -8.881
REMARK INTER:                  -8.634
REMARK INTRA:                  -0.247
REMARK UNBOUND:                -0.228
REMARK SMILES O=c1cc(-c2ccccc2)oc2ccccc12
REMARK SMILES IDX 4 1 3 2 2 3 1 4 17 5 16 6 15 7 14 8 13 9 12 10 11 11 5 12
REMARK SMILES IDX 8 13 7 14 9 15 6 16 10 17
REMARK H PARENT
REMARK Flexibility Score: inf
ROOT
ATOM      1  C   UNL     1     141.240 -20.307  78.952  1.00  0.00     0.138 A 
ATOM      2  C   UNL     1     141.206 -18.957  79.358  1.00  0.00     0.100 A 
ATOM      3  C   UNL     1     140.038 -18.438  79.922  1.00  0.00     0.193 A 
ATOM      4  O   UNL     1     140.007 -17.230  80.285  1.00  0.00    -0.289 OA
ATOM      5  C   UNL     1     138.918 -19.265  80.074  1.00  0.00     0.065 A 
ATOM      6  C   UNL     1     137.712 -18.806  80.634  1.00  0.00     0.016 A 
ATOM      7  C   UNL     1     136.623 -19.675  80.763  1.00  0.00     0.001 A 
ATOM      8  C   UNL     1     136.730 -21.002  80.338  1.00  0.00     0.004 A 
ATOM      9  C   UNL     1     137.924 -21.468  79.782  1.00  0.00     0.048 A 
ATOM     10  C   UNL     1     139.019 -20.607  79.647  1.00  0.00     0.138 A 
ATOM     11  O   UNL     1     140.150 -21.059  79.115  1.00  0.00    -0.456 OA
ENDROOT
BRANCH   1  12
ATOM     12  C   UNL     1     142.449 -20.942  78.339  1.00  0.00     0.017 A 
ATOM     13  C   UNL     1     144.740 -22.061  77.129  1.00  0.00     0.000 A 
ATOM     14  C   UNL     1     144.318 -20.780  76.775  1.00  0.00     0.001 A 
ATOM     15  C   UNL     1     144.027 -22.789  78.081  1.00  0.00     0.001 A 
ATOM     16  C   UNL     1     143.184 -20.225  77.373  1.00  0.00     0.012 A 
ATOM     17  C   UNL     1     142.891 -22.239  78.685  1.00  0.00     0.012 A 
ENDBRANCH   1  12
TORSDOF 1
ENDMDL
MODEL 8
REMARK VINA RESULT:    -8.098      3.663      5.478
REMARK INTER + INTRA:          -8.799
REMARK INTER:                  -8.579
REMARK INTRA:                  -0.220
REMARK UNBOUND:                -0.228
REMARK SMILES O=c1cc(-c2ccccc2)oc2ccccc12
REMARK SMILES IDX 4 1 3 2 2 3 1 4 17 5 16 6 15 7 14 8 13 9 12 10 11 11 5 12
REMARK SMILES IDX 8 13 7 14 9 15 6 16 10 17
REMARK H PARENT
REMARK Flexibility Score: inf
ROOT
ATOM      1  C   UNL     1     138.536 -17.732  80.289  1.00  0.00     0.138 A 
ATOM      2  C   UNL     1     138.030 -16.463  80.638  1.00  0.00     0.100 A 
ATOM      3  C   UNL     1     138.917 -15.436  80.968  1.00  0.00     0.193 A 
ATOM      4  O   UNL     1     138.464 -14.300  81.281  1.00  0.00    -0.289 OA
ATOM      5  C   UNL     1     140.296 -15.681  80.948  1.00  0.00     0.065 A 
ATOM      6  C   UNL     1     141.243 -14.692  81.269  1.00  0.00     0.016 A 
ATOM      7  C   UNL     1     142.609 -14.991  81.234  1.00  0.00     0.001 A 
ATOM      8  C   UNL     1     143.038 -16.272  80.878  1.00  0.00     0.004 A 
ATOM      9  C   UNL     1     142.105 -17.262  80.556  1.00  0.00     0.048 A 
ATOM     10  C   UNL     1     140.736 -16.974  80.590  1.00  0.00     0.138 A 
ATOM     11  O   UNL     1     139.856 -17.922  80.283  1.00  0.00    -0.456 OA
ENDROOT
BRANCH   1  12
ATOM     12  C   UNL     1     137.657 -18.886  79.923  1.00  0.00     0.017 A 
ATOM     13  C   UNL     1     135.999 -21.092  79.326  1.00  0.00     0.000 A 
ATOM     14  C   UNL     1     136.412 -20.863  80.638  1.00  0.00     0.001 A 
ATOM     15  C   UNL     1     136.408 -20.230  78.309  1.00  0.00     0.001 A 
ATOM     16  C   UNL     1     137.232 -19.772  80.936  1.00  0.00     0.012 A 
ATOM     17  C   UNL     1     137.229 -19.135  78.599  1.00  0.00     0.012 A 
ENDBRANCH   1  12
TORSDOF 1
ENDMDL
MODEL 9
REMARK VINA RESULT:    -8.081      3.342      5.242
REMARK INTER + INTRA:          -8.782
REMARK INTER:                  -8.518
REMARK INTRA:                  -0.265
REMARK UNBOUND:                -0.228
REMARK SMILES O=c1cc(-c2ccccc2)oc2ccccc12
REMARK SMILES IDX 4 1 3 2 2 3 1 4 17 5 16 6 15 7 14 8 13 9 12 10 11 11 5 12
REMARK SMILES IDX 8 13 7 14 9 15 6 16 10 17
REMARK H PARENT
REMARK Flexibility Score: inf
ROOT
ATOM      1  C   UNL     1     139.608 -18.074  80.820  1.00  0.00     0.138 A 
ATOM      2  C   UNL     1     141.007 -17.945  80.935  1.00  0.00     0.100 A 
ATOM      3  C   UNL     1     141.579 -16.672  80.993  1.00  0.00     0.193 A 
ATOM      4  O   UNL     1     142.831 -16.556  81.095  1.00  0.00    -0.289 OA
ATOM      5  C   UNL     1     140.753 -15.541  80.935  1.00  0.00     0.065 A 
ATOM      6  C   UNL     1     141.263 -14.231  80.987  1.00  0.00     0.016 A 
ATOM      7  C   UNL     1     140.394 -13.138  80.925  1.00  0.00     0.001 A 
ATOM      8  C   UNL     1     139.016 -13.341  80.812  1.00  0.00     0.004 A 
ATOM      9  C   UNL     1     138.500 -14.638  80.759  1.00  0.00     0.048 A 
ATOM     10  C   UNL     1     139.360 -15.740  80.820  1.00  0.00     0.138 A 
ATOM     11  O   UNL     1     138.860 -16.970  80.768  1.00  0.00    -0.456 OA
ENDROOT
BRANCH   1  12
ATOM     12  C   UNL     1     138.915 -19.398  80.752  1.00  0.00     0.017 A 
ATOM     13  C   UNL     1     137.522 -21.851  80.638  1.00  0.00     0.000 A 
ATOM     14  C   UNL     1     136.823 -20.658  80.819  1.00  0.00     0.001 A 
ATOM     15  C   UNL     1     138.911 -21.830  80.514  1.00  0.00     0.001 A 
ATOM     16  C   UNL     1     137.510 -19.443  80.876  1.00  0.00     0.012 A 
ATOM     17  C   UNL     1     139.606 -20.617  80.569  1.00  0.00     0.012 A 
ENDBRANCH   1  12
TORSDOF 1
ENDMDL
