MODEL 1
REMARK VINA RESULT:    -3.970      0.000      0.000
REMARK INTER + INTRA:          -6.561
REMARK INTER:                  -6.059
REMARK INTRA:                  -0.502
REMARK UNBOUND:                -0.502
REMARK SMILES O=C([O-])CCCCCCCCC(=O)[O-]
REMARK SMILES IDX 7 1 6 2 5 3 4 4 2 5 1 6 3 7 8 8 9 9 10 10 11 11 12 12 13 13
REMARK SMILES IDX 14 14
REMARK H PARENT
REMARK Flexibility Score: inf
ROOT
ATOM      1  C   UNL     1      17.430  11.871  14.658  1.00  0.00     0.000 C 
ENDROOT
BRANCH   1   2
ATOM      2  C   UNL     1      15.978  12.027  15.140  1.00  0.00     0.000 C 
BRANCH   2   3
ATOM      3  C   UNL     1      14.973  11.047  14.508  1.00  0.00     0.006 C 
BRANCH   3   4
ATOM      4  C   UNL     1      13.535  11.581  14.507  1.00  0.00     0.053 C 
BRANCH   4   5
ATOM      5  C   UNL     1      12.944  11.489  13.135  1.00  0.00     0.041 C 
ATOM      6  O   UNL     1      12.338  10.446  12.776  1.00  0.00    -0.550 OA
ATOM      7  O   UNL     1      13.106  12.536  12.236  1.00  0.00    -0.550 OA
ENDBRANCH   4   5
ENDBRANCH   3   4
ENDBRANCH   2   3
ENDBRANCH   1   2
BRANCH   1   8
ATOM      8  C   UNL     1      18.446  12.555  15.584  1.00  0.00     0.000 C 
BRANCH   8   9
ATOM      9  C   UNL     1      19.345  11.521  16.273  1.00  0.00     0.000 C 
BRANCH   9  10
ATOM     10  C   UNL     1      19.221  11.614  17.799  1.00  0.00     0.006 C 
BRANCH  10  11
ATOM     11  C   UNL     1      18.213  12.694  18.204  1.00  0.00     0.053 C 
BRANCH  11  12
ATOM     12  C   UNL     1      17.133  12.109  19.059  1.00  0.00     0.041 C 
ATOM     13  O   UNL     1      15.963  11.995  18.610  1.00  0.00    -0.550 OA
ATOM     14  O   UNL     1      17.431  11.644  20.333  1.00  0.00    -0.550 OA
ENDBRANCH  11  12
ENDBRANCH  10  11
ENDBRANCH   9  10
ENDBRANCH   8   9
ENDBRANCH   1   8
TORSDOF 9
ENDMDL
MODEL 2
REMARK VINA RESULT:    -3.830      6.678      8.126
REMARK INTER + INTRA:          -6.347
REMARK INTER:                  -5.481
REMARK INTRA:                  -0.866
REMARK UNBOUND:                -0.502
REMARK SMILES O=C([O-])CCCCCCCCC(=O)[O-]
REMARK SMILES IDX 7 1 6 2 5 3 4 4 2 5 1 6 3 7 8 8 9 9 10 10 11 11 12 12 13 13
REMARK SMILES IDX 14 14
REMARK H PARENT
REMARK Flexibility Score: inf
ROOT
ATOM      1  C   UNL     1      10.794  15.110  11.927  1.00  0.00     0.000 C 
ENDROOT
BRANCH   1   2
ATOM      2  C   UNL     1       9.428  14.601  12.417  1.00  0.00     0.000 C 
BRANCH   2   3
ATOM      3  C   UNL     1       9.270  13.069  12.430  1.00  0.00     0.006 C 
BRANCH   3   4
ATOM      4  C   UNL     1      10.391  12.359  13.201  1.00  0.00     0.053 C 
BRANCH   4   5
ATOM      5  C   UNL     1       9.815  11.391  14.186  1.00  0.00     0.041 C 
ATOM      6  O   UNL     1       9.093  10.439  13.790  1.00  0.00    -0.550 OA
ATOM      7  O   UNL     1      10.033  11.571  15.547  1.00  0.00    -0.550 OA
ENDBRANCH   4   5
ENDBRANCH   3   4
ENDBRANCH   2   3
ENDBRANCH   1   2
BRANCH   1   8
ATOM      8  C   UNL     1      11.032  14.846  10.433  1.00  0.00     0.000 C 
BRANCH   8   9
ATOM      9  C   UNL     1      12.520  14.609  10.147  1.00  0.00     0.000 C 
BRANCH   9  10
ATOM     10  C   UNL     1      12.989  13.275  10.742  1.00  0.00     0.006 C 
BRANCH  10  11
ATOM     11  C   UNL     1      12.933  12.157   9.697  1.00  0.00     0.053 C 
BRANCH  11  12
ATOM     12  C   UNL     1      11.904  11.138  10.074  1.00  0.00     0.041 C 
ATOM     13  O   UNL     1      10.741  11.208   9.599  1.00  0.00    -0.550 OA
ATOM     14  O   UNL     1      12.245  10.083  10.911  1.00  0.00    -0.550 OA
ENDBRANCH  11  12
ENDBRANCH  10  11
ENDBRANCH   9  10
ENDBRANCH   8   9
ENDBRANCH   1   8
TORSDOF 9
ENDMDL
MODEL 3
REMARK VINA RESULT:    -3.792      6.253      8.750
REMARK INTER + INTRA:          -6.289
REMARK INTER:                  -5.458
REMARK INTRA:                  -0.831
REMARK UNBOUND:                -0.502
REMARK SMILES O=C([O-])CCCCCCCCC(=O)[O-]
REMARK SMILES IDX 7 1 6 2 5 3 4 4 2 5 1 6 3 7 8 8 9 9 10 10 11 11 12 12 13 13
REMARK SMILES IDX 14 14
REMARK H PARENT
REMARK Flexibility Score: inf
ROOT
ATOM      1  C   UNL     1      13.022  12.149   9.824  1.00  0.00     0.000 C 
ENDROOT
BRANCH   1   2
ATOM      2  C   UNL     1      11.766  11.281  10.012  1.00  0.00     0.000 C 
BRANCH   2   3
ATOM      3  C   UNL     1      11.935  10.092  10.975  1.00  0.00     0.006 C 
BRANCH   3   4
ATOM      4  C   UNL     1      10.954  10.133  12.155  1.00  0.00     0.053 C 
BRANCH   4   5
ATOM      5  C   UNL     1      11.357  11.191  13.132  1.00  0.00     0.041 C 
ATOM      6  O   UNL     1      10.564  12.128  13.413  1.00  0.00    -0.550 OA
ATOM      7  O   UNL     1      12.627  11.171  13.696  1.00  0.00    -0.550 OA
ENDBRANCH   4   5
ENDBRANCH   3   4
ENDBRANCH   2   3
ENDBRANCH   1   2
BRANCH   1   8
ATOM      8  C   UNL     1      13.094  13.322  10.813  1.00  0.00     0.000 C 
BRANCH   8   9
ATOM      9  C   UNL     1      12.518  14.601  10.192  1.00  0.00     0.000 C 
BRANCH   9  10
ATOM     10  C   UNL     1      11.233  15.031  10.911  1.00  0.00     0.006 C 
BRANCH  10  11
ATOM     11  C   UNL     1       9.997  14.438  10.228  1.00  0.00     0.053 C 
BRANCH  11  12
ATOM     12  C   UNL     1      10.061  14.654   8.749  1.00  0.00     0.041 C 
ATOM     13  O   UNL     1       9.935  13.681   7.961  1.00  0.00    -0.550 OA
ATOM     14  O   UNL     1      10.209  15.938   8.241  1.00  0.00    -0.550 OA
ENDBRANCH  11  12
ENDBRANCH  10  11
ENDBRANCH   9  10
ENDBRANCH   8   9
ENDBRANCH   1   8
TORSDOF 9
ENDMDL
MODEL 4
REMARK VINA RESULT:    -3.769      6.165      7.920
REMARK INTER + INTRA:          -6.254
REMARK INTER:                  -5.268
REMARK INTRA:                  -0.986
REMARK UNBOUND:                -0.502
REMARK SMILES O=C([O-])CCCCCCCCC(=O)[O-]
REMARK SMILES IDX 7 1 6 2 5 3 4 4 2 5 1 6 3 7 8 8 9 9 10 10 11 11 12 12 13 13
REMARK SMILES IDX 14 14
REMARK H PARENT
REMARK Flexibility Score: inf
ROOT
ATOM      1  C   UNL     1      10.805  14.986  12.094  1.00  0.00     0.000 C 
ENDROOT
BRANCH   1   2
ATOM      2  C   UNL     1      11.143  15.343  10.636  1.00  0.00     0.000 C 
BRANCH   2   3
ATOM      3  C   UNL     1      12.002  14.303   9.894  1.00  0.00     0.006 C 
BRANCH   3   4
ATOM      4  C   UNL     1      11.167  13.324   9.058  1.00  0.00     0.053 C 
BRANCH   4   5
ATOM      5  C   UNL     1      12.029  12.223   8.527  1.00  0.00     0.041 C 
ATOM      6  O   UNL     1      11.590  11.448   7.637  1.00  0.00    -0.550 OA
ATOM      7  O   UNL     1      13.300  12.020   9.051  1.00  0.00    -0.550 OA
ENDBRANCH   4   5
ENDBRANCH   3   4
ENDBRANCH   2   3
ENDBRANCH   1   2
BRANCH   1   8
ATOM      8  C   UNL     1       9.323  14.637  12.297  1.00  0.00     0.000 C 
BRANCH   8   9
ATOM      9  C   UNL     1       9.170  13.343  13.106  1.00  0.00     0.000 C 
BRANCH   9  10
ATOM     10  C   UNL     1       9.822  12.159  12.380  1.00  0.00     0.006 C 
BRANCH  10  11
ATOM     11  C   UNL     1      10.901  11.508  13.251  1.00  0.00     0.053 C 
BRANCH  11  12
ATOM     12  C   UNL     1      12.178  11.366  12.483  1.00  0.00     0.041 C 
ATOM     13  O   UNL     1      12.358  10.372  11.734  1.00  0.00    -0.550 OA
ATOM     14  O   UNL     1      13.147  12.358  12.558  1.00  0.00    -0.550 OA
ENDBRANCH  11  12
ENDBRANCH  10  11
ENDBRANCH   9  10
ENDBRANCH   8   9
ENDBRANCH   1   8
TORSDOF 9
ENDMDL
MODEL 5
REMARK VINA RESULT:    -3.768      7.272      8.400
REMARK INTER + INTRA:          -6.253
REMARK INTER:                  -5.327
REMARK INTRA:                  -0.925
REMARK UNBOUND:                -0.502
REMARK SMILES O=C([O-])CCCCCCCCC(=O)[O-]
REMARK SMILES IDX 7 1 6 2 5 3 4 4 2 5 1 6 3 7 8 8 9 9 10 10 11 11 12 12 13 13
REMARK SMILES IDX 14 14
REMARK H PARENT
REMARK Flexibility Score: inf
ROOT
ATOM      1  C   UNL     1      10.300  12.300  12.941  1.00  0.00     0.000 C 
ENDROOT
BRANCH   1   2
ATOM      2  C   UNL     1       9.151  13.307  13.124  1.00  0.00     0.000 C 
BRANCH   2   3
ATOM      3  C   UNL     1       9.307  14.623  12.339  1.00  0.00     0.006 C 
BRANCH   3   4
ATOM      4  C   UNL     1      10.755  14.894  11.909  1.00  0.00     0.053 C 
BRANCH   4   5
ATOM      5  C   UNL     1      10.846  15.001  10.420  1.00  0.00     0.041 C 
ATOM      6  O   UNL     1      11.763  15.682   9.889  1.00  0.00    -0.550 OA
ATOM      7  O   UNL     1       9.890  14.389   9.619  1.00  0.00    -0.550 OA
ENDBRANCH   4   5
ENDBRANCH   3   4
ENDBRANCH   2   3
ENDBRANCH   1   2
BRANCH   1   8
ATOM      8  C   UNL     1       9.842  10.839  13.064  1.00  0.00     0.000 C 
BRANCH   8   9
ATOM      9  C   UNL     1      10.504   9.964  11.993  1.00  0.00     0.000 C 
BRANCH   9  10
ATOM     10  C   UNL     1      10.774  10.768  10.715  1.00  0.00     0.006 C 
BRANCH  10  11
ATOM     11  C   UNL     1      12.232  10.618  10.269  1.00  0.00     0.053 C 
BRANCH  11  12
ATOM     12  C   UNL     1      12.805  11.950   9.898  1.00  0.00     0.041 C 
ATOM     13  O   UNL     1      12.658  12.399   8.732  1.00  0.00    -0.550 OA
ATOM     14  O   UNL     1      13.458  12.716  10.855  1.00  0.00    -0.550 OA
ENDBRANCH  11  12
ENDBRANCH  10  11
ENDBRANCH   9  10
ENDBRANCH   8   9
ENDBRANCH   1   8
TORSDOF 9
ENDMDL
MODEL 6
REMARK VINA RESULT:    -3.753      6.538      9.007
REMARK INTER + INTRA:          -6.230
REMARK INTER:                  -5.104
REMARK INTRA:                  -1.127
REMARK UNBOUND:                -0.502
REMARK SMILES O=C([O-])CCCCCCCCC(=O)[O-]
REMARK SMILES IDX 7 1 6 2 5 3 4 4 2 5 1 6 3 7 8 8 9 9 10 10 11 11 12 12 13 13
REMARK SMILES IDX 14 14
REMARK H PARENT
REMARK Flexibility Score: inf
ROOT
ATOM      1  C   UNL     1      10.775  15.155  11.986  1.00  0.00     0.000 C 
ENDROOT
BRANCH   1   2
ATOM      2  C   UNL     1       9.614  14.189  12.279  1.00  0.00     0.000 C 
BRANCH   2   3
ATOM      3  C   UNL     1      10.017  12.882  12.986  1.00  0.00     0.006 C 
BRANCH   3   4
ATOM      4  C   UNL     1      10.364  11.754  12.006  1.00  0.00     0.053 C 
BRANCH   4   5
ATOM      5  C   UNL     1      11.800  11.358  12.152  1.00  0.00     0.041 C 
ATOM      6  O   UNL     1      12.144  10.157  11.997  1.00  0.00    -0.550 OA
ATOM      7  O   UNL     1      12.750  12.306  12.510  1.00  0.00    -0.550 OA
ENDBRANCH   4   5
ENDBRANCH   3   4
ENDBRANCH   2   3
ENDBRANCH   1   2
BRANCH   1   8
ATOM      8  C   UNL     1      11.242  15.104  10.523  1.00  0.00     0.000 C 
BRANCH   8   9
ATOM      9  C   UNL     1      10.082  14.743   9.588  1.00  0.00     0.000 C 
BRANCH   9  10
ATOM     10  C   UNL     1      10.487  13.633   8.610  1.00  0.00     0.006 C 
BRANCH  10  11
ATOM     11  C   UNL     1      11.889  13.105   8.929  1.00  0.00     0.053 C 
BRANCH  11  12
ATOM     12  C   UNL     1      12.080  11.741   8.344  1.00  0.00     0.041 C 
ATOM     13  O   UNL     1      12.926  10.953   8.841  1.00  0.00    -0.550 OA
ATOM     14  O   UNL     1      11.288  11.323   7.283  1.00  0.00    -0.550 OA
ENDBRANCH  11  12
ENDBRANCH  10  11
ENDBRANCH   9  10
ENDBRANCH   8   9
ENDBRANCH   1   8
TORSDOF 9
ENDMDL
MODEL 7
REMARK VINA RESULT:    -3.751      5.870      7.724
REMARK INTER + INTRA:          -6.227
REMARK INTER:                  -5.403
REMARK INTRA:                  -0.824
REMARK UNBOUND:                -0.502
REMARK SMILES O=C([O-])CCCCCCCCC(=O)[O-]
REMARK SMILES IDX 7 1 6 2 5 3 4 4 2 5 1 6 3 7 8 8 9 9 10 10 11 11 12 12 13 13
REMARK SMILES IDX 14 14
REMARK H PARENT
REMARK Flexibility Score: inf
ROOT
ATOM      1  C   UNL     1      12.981  13.244  10.549  1.00  0.00     0.000 C 
ENDROOT
BRANCH   1   2
ATOM      2  C   UNL     1      12.535  14.668  10.174  1.00  0.00     0.000 C 
BRANCH   2   3
ATOM      3  C   UNL     1      11.140  15.070  10.686  1.00  0.00     0.006 C 
BRANCH   3   4
ATOM      4  C   UNL     1      10.000  14.436   9.877  1.00  0.00     0.053 C 
BRANCH   4   5
ATOM      5  C   UNL     1      10.158  14.745   8.422  1.00  0.00     0.041 C 
ATOM      6  O   UNL     1      10.075  15.933   8.015  1.00  0.00    -0.550 OA
ATOM      7  O   UNL     1      10.348  13.715   7.509  1.00  0.00    -0.550 OA
ENDBRANCH   4   5
ENDBRANCH   3   4
ENDBRANCH   2   3
ENDBRANCH   1   2
BRANCH   1   8
ATOM      8  C   UNL     1      13.071  12.305   9.337  1.00  0.00     0.000 C 
BRANCH   8   9
ATOM      9  C   UNL     1      12.403  10.957   9.636  1.00  0.00     0.000 C 
BRANCH   9  10
ATOM     10  C   UNL     1      11.411  11.080  10.800  1.00  0.00     0.006 C 
BRANCH  10  11
ATOM     11  C   UNL     1      11.815  10.171  11.964  1.00  0.00     0.053 C 
BRANCH  11  12
ATOM     12  C   UNL     1      12.037  10.976  13.205  1.00  0.00     0.041 C 
ATOM     13  O   UNL     1      13.190  11.067  13.702  1.00  0.00    -0.550 OA
ATOM     14  O   UNL     1      10.980  11.666  13.784  1.00  0.00    -0.550 OA
ENDBRANCH  11  12
ENDBRANCH  10  11
ENDBRANCH   9  10
ENDBRANCH   8   9
ENDBRANCH   1   8
TORSDOF 9
ENDMDL
MODEL 8
REMARK VINA RESULT:    -3.701      6.522      7.878
REMARK INTER + INTRA:          -6.151
REMARK INTER:                  -5.180
REMARK INTRA:                  -0.970
REMARK UNBOUND:                -0.502
REMARK SMILES O=C([O-])CCCCCCCCC(=O)[O-]
REMARK SMILES IDX 7 1 6 2 5 3 4 4 2 5 1 6 3 7 8 8 9 9 10 10 11 11 12 12 13 13
REMARK SMILES IDX 14 14
REMARK H PARENT
REMARK Flexibility Score: inf
ROOT
ATOM      1  C   UNL     1      11.166  15.076  10.650  1.00  0.00     0.000 C 
ENDROOT
BRANCH   1   2
ATOM      2  C   UNL     1      10.292  14.262   9.679  1.00  0.00     0.000 C 
BRANCH   2   3
ATOM      3  C   UNL     1      11.062  13.275   8.782  1.00  0.00     0.006 C 
BRANCH   3   4
ATOM      4  C   UNL     1      10.923  11.817   9.239  1.00  0.00     0.053 C 
BRANCH   4   5
ATOM      5  C   UNL     1      12.165  11.370   9.943  1.00  0.00     0.041 C 
ATOM      6  O   UNL     1      13.185  12.108   9.958  1.00  0.00    -0.550 OA
ATOM      7  O   UNL     1      12.212  10.116  10.540  1.00  0.00    -0.550 OA
ENDBRANCH   4   5
ENDBRANCH   3   4
ENDBRANCH   2   3
ENDBRANCH   1   2
BRANCH   1   8
ATOM      8  C   UNL     1      10.669  15.012  12.102  1.00  0.00     0.000 C 
BRANCH   8   9
ATOM      9  C   UNL     1       9.234  14.472  12.168  1.00  0.00     0.000 C 
BRANCH   9  10
ATOM     10  C   UNL     1       9.105  13.382  13.239  1.00  0.00     0.006 C 
BRANCH  10  11
ATOM     11  C   UNL     1       9.857  12.113  12.825  1.00  0.00     0.053 C 
BRANCH  11  12
ATOM     12  C   UNL     1      10.771  11.665  13.922  1.00  0.00     0.041 C 
ATOM     13  O   UNL     1      10.350  11.587  15.105  1.00  0.00    -0.550 OA
ATOM     14  O   UNL     1      12.074  11.284  13.628  1.00  0.00    -0.550 OA
ENDBRANCH  11  12
ENDBRANCH  10  11
ENDBRANCH   9  10
ENDBRANCH   8   9
ENDBRANCH   1   8
TORSDOF 9
ENDMDL
MODEL 9
REMARK VINA RESULT:    -3.692      6.461      9.195
REMARK INTER + INTRA:          -6.137
REMARK INTER:                  -5.190
REMARK INTRA:                  -0.947
REMARK UNBOUND:                -0.502
REMARK SMILES O=C([O-])CCCCCCCCC(=O)[O-]
REMARK SMILES IDX 7 1 6 2 5 3 4 4 2 5 1 6 3 7 8 8 9 9 10 10 11 11 12 12 13 13
REMARK SMILES IDX 14 14
REMARK H PARENT
REMARK Flexibility Score: inf
ROOT
ATOM      1  C   UNL     1       9.276  13.436  13.229  1.00  0.00     0.000 C 
ENDROOT
BRANCH   1   2
ATOM      2  C   UNL     1       9.804  12.135  12.599  1.00  0.00     0.000 C 
BRANCH   2   3
ATOM      3  C   UNL     1      11.056  11.546  13.275  1.00  0.00     0.006 C 
BRANCH   3   4
ATOM      4  C   UNL     1      12.359  11.935  12.565  1.00  0.00     0.053 C 
BRANCH   4   5
ATOM      5  C   UNL     1      12.437  11.282  11.222  1.00  0.00     0.041 C 
ATOM      6  O   UNL     1      12.800  11.945  10.215  1.00  0.00    -0.550 OA
ATOM      7  O   UNL     1      12.062   9.952  11.072  1.00  0.00    -0.550 OA
ENDBRANCH   4   5
ENDBRANCH   3   4
ENDBRANCH   2   3
ENDBRANCH   1   2
BRANCH   1   8
ATOM      8  C   UNL     1       9.280  14.620  12.250  1.00  0.00     0.000 C 
BRANCH   8   9
ATOM      9  C   UNL     1      10.684  15.223  12.123  1.00  0.00     0.000 C 
BRANCH   9  10
ATOM     10  C   UNL     1      11.232  15.048  10.701  1.00  0.00     0.006 C 
BRANCH  10  11
ATOM     11  C   UNL     1      10.160  14.482   9.765  1.00  0.00     0.053 C 
BRANCH  11  12
ATOM     12  C   UNL     1      10.222  15.155   8.430  1.00  0.00     0.041 C 
ATOM     13  O   UNL     1       9.830  14.550   7.398  1.00  0.00    -0.550 OA
ATOM     14  O   UNL     1      10.665  16.468   8.334  1.00  0.00    -0.550 OA
ENDBRANCH  11  12
ENDBRANCH  10  11
ENDBRANCH   9  10
ENDBRANCH   8   9
ENDBRANCH   1   8
TORSDOF 9
ENDMDL
