MODEL 1
REMARK VINA RESULT:    -4.661      0.000      0.000
REMARK INTER + INTRA:          -5.088
REMARK INTER:                  -5.070
REMARK INTRA:                  -0.019
REMARK UNBOUND:                -0.019
REMARK SMILES OCc1ccccc1
REMARK SMILES IDX 2 1 3 2 6 3 5 4 7 5 4 6 8 7 1 8
REMARK H PARENT 1 9
REMARK Flexibility Score: inf
ROOT
ATOM      1  C   UNL     1     115.360 168.162 114.215  1.00  0.00     0.191 C 
ENDROOT
BRANCH   1   2
ATOM      2  C   UNL     1     115.864 167.032 115.068  1.00  0.00    -0.023 A 
ATOM      3  C   UNL     1     116.864 164.968 116.686  1.00  0.00     0.000 A 
ATOM      4  C   UNL     1     115.946 165.883 117.209  1.00  0.00     0.000 A 
ATOM      5  C   UNL     1     117.292 165.086 115.361  1.00  0.00     0.000 A 
ATOM      6  C   UNL     1     115.450 166.915 116.405  1.00  0.00     0.006 A 
ATOM      7  C   UNL     1     116.799 166.117 114.555  1.00  0.00     0.006 A 
ENDBRANCH   1   2
BRANCH   1   8
ATOM      8  O   UNL     1     114.205 168.716 114.783  1.00  0.00    -0.392 OA
ATOM      9  H   UNL     1     114.474 169.585 115.182  1.00  0.00     0.211 HD
ENDBRANCH   1   8
TORSDOF 2
ENDMDL
MODEL 2
REMARK VINA RESULT:    -4.472      1.991      3.134
REMARK INTER + INTRA:          -4.883
REMARK INTER:                  -4.867
REMARK INTRA:                  -0.016
REMARK UNBOUND:                -0.019
REMARK SMILES OCc1ccccc1
REMARK SMILES IDX 2 1 3 2 6 3 5 4 7 5 4 6 8 7 1 8
REMARK H PARENT 1 9
REMARK Flexibility Score: inf
ROOT
ATOM      1  C   UNL     1     116.183 165.105 117.955  1.00  0.00     0.191 C 
ENDROOT
BRANCH   1   2
ATOM      2  C   UNL     1     116.155 165.857 116.654  1.00  0.00    -0.023 A 
ATOM      3  C   UNL     1     116.039 167.222 114.205  1.00  0.00     0.000 A 
ATOM      4  C   UNL     1     115.364 167.728 115.319  1.00  0.00     0.000 A 
ATOM      5  C   UNL     1     116.765 166.032 114.308  1.00  0.00     0.000 A 
ATOM      6  C   UNL     1     115.416 167.046 116.539  1.00  0.00     0.006 A 
ATOM      7  C   UNL     1     116.820 165.348 115.526  1.00  0.00     0.006 A 
ENDBRANCH   1   2
BRANCH   1   8
ATOM      8  O   UNL     1     114.925 165.162 118.570  1.00  0.00    -0.392 OA
ATOM      9  H   UNL     1     114.986 164.609 119.394  1.00  0.00     0.211 HD
ENDBRANCH   1   8
TORSDOF 2
ENDMDL
MODEL 3
REMARK VINA RESULT:    -4.466     12.857     13.362
REMARK INTER + INTRA:          -4.877
REMARK INTER:                  -4.858
REMARK INTRA:                  -0.019
REMARK UNBOUND:                -0.019
REMARK SMILES OCc1ccccc1
REMARK SMILES IDX 2 1 3 2 6 3 5 4 7 5 4 6 8 7 1 8
REMARK H PARENT 1 9
REMARK Flexibility Score: inf
ROOT
ATOM      1  C   UNL     1     122.987 178.643 115.708  1.00  0.00     0.191 C 
ENDROOT
BRANCH   1   2
ATOM      2  C   UNL     1     123.322 177.878 116.958  1.00  0.00    -0.023 A 
ATOM      3  C   UNL     1     123.900 176.496 119.331  1.00  0.00     0.000 A 
ATOM      4  C   UNL     1     122.818 176.103 118.539  1.00  0.00     0.000 A 
ATOM      5  C   UNL     1     124.690 177.584 118.946  1.00  0.00     0.000 A 
ATOM      6  C   UNL     1     122.525 176.794 117.359  1.00  0.00     0.006 A 
ATOM      7  C   UNL     1     124.400 178.277 117.767  1.00  0.00     0.006 A 
ENDBRANCH   1   2
BRANCH   1   8
ATOM      8  O   UNL     1     121.644 178.440 115.366  1.00  0.00    -0.392 OA
ATOM      9  H   UNL     1     121.335 179.274 114.922  1.00  0.00     0.211 HD
ENDBRANCH   1   8
TORSDOF 2
ENDMDL
MODEL 4
REMARK VINA RESULT:    -4.451     12.833     13.356
REMARK INTER + INTRA:          -4.860
REMARK INTER:                  -4.844
REMARK INTRA:                  -0.017
REMARK UNBOUND:                -0.019
REMARK SMILES OCc1ccccc1
REMARK SMILES IDX 2 1 3 2 6 3 5 4 7 5 4 6 8 7 1 8
REMARK H PARENT 1 9
REMARK Flexibility Score: inf
ROOT
ATOM      1  C   UNL     1     122.999 178.619 115.624  1.00  0.00     0.191 C 
ENDROOT
BRANCH   1   2
ATOM      2  C   UNL     1     123.297 177.885 116.901  1.00  0.00    -0.023 A 
ATOM      3  C   UNL     1     123.901 176.466 119.246  1.00  0.00     0.000 A 
ATOM      4  C   UNL     1     124.695 177.551 118.861  1.00  0.00     0.000 A 
ATOM      5  C   UNL     1     122.812 176.082 118.459  1.00  0.00     0.000 A 
ATOM      6  C   UNL     1     124.398 178.255 117.690  1.00  0.00     0.006 A 
ATOM      7  C   UNL     1     122.513 176.784 117.287  1.00  0.00     0.006 A 
ENDBRANCH   1   2
BRANCH   1   8
ATOM      8  O   UNL     1     121.628 178.554 115.341  1.00  0.00    -0.392 OA
ATOM      9  H   UNL     1     121.256 179.455 115.535  1.00  0.00     0.211 HD
ENDBRANCH   1   8
TORSDOF 2
ENDMDL
MODEL 5
REMARK VINA RESULT:    -4.442      1.979      3.518
REMARK INTER + INTRA:          -4.850
REMARK INTER:                  -4.834
REMARK INTRA:                  -0.016
REMARK UNBOUND:                -0.019
REMARK SMILES OCc1ccccc1
REMARK SMILES IDX 2 1 3 2 6 3 5 4 7 5 4 6 8 7 1 8
REMARK H PARENT 1 9
REMARK Flexibility Score: inf
ROOT
ATOM      1  C   UNL     1     116.139 165.121 117.847  1.00  0.00     0.191 C 
ENDROOT
BRANCH   1   2
ATOM      2  C   UNL     1     116.060 165.892 116.559  1.00  0.00    -0.023 A 
ATOM      3  C   UNL     1     115.975 167.372 114.176  1.00  0.00     0.000 A 
ATOM      4  C   UNL     1     116.693 166.174 114.229  1.00  0.00     0.000 A 
ATOM      5  C   UNL     1     115.307 167.839 115.311  1.00  0.00     0.000 A 
ATOM      6  C   UNL     1     116.740 165.438 115.418  1.00  0.00     0.006 A 
ATOM      7  C   UNL     1     115.353 167.106 116.502  1.00  0.00     0.006 A 
ENDBRANCH   1   2
BRANCH   1   8
ATOM      8  O   UNL     1     114.932 165.233 118.549  1.00  0.00    -0.392 OA
ATOM      9  H   UNL     1     114.290 165.686 117.941  1.00  0.00     0.211 HD
ENDBRANCH   1   8
TORSDOF 2
ENDMDL
MODEL 6
REMARK VINA RESULT:    -4.215     14.727     15.592
REMARK INTER + INTRA:          -4.603
REMARK INTER:                  -4.588
REMARK INTRA:                  -0.016
REMARK UNBOUND:                -0.019
REMARK SMILES OCc1ccccc1
REMARK SMILES IDX 2 1 3 2 6 3 5 4 7 5 4 6 8 7 1 8
REMARK H PARENT 1 9
REMARK Flexibility Score: inf
ROOT
ATOM      1  C   UNL     1     114.886 178.327 126.189  1.00  0.00     0.191 C 
ENDROOT
BRANCH   1   2
ATOM      2  C   UNL     1     116.283 178.458 125.648  1.00  0.00    -0.023 A 
ATOM      3  C   UNL     1     118.912 178.642 124.686  1.00  0.00     0.000 A 
ATOM      4  C   UNL     1     117.994 177.799 124.053  1.00  0.00     0.000 A 
ATOM      5  C   UNL     1     118.524 179.386 125.803  1.00  0.00     0.000 A 
ATOM      6  C   UNL     1     116.685 177.703 124.535  1.00  0.00     0.006 A 
ATOM      7  C   UNL     1     117.216 179.291 126.288  1.00  0.00     0.006 A 
ENDBRANCH   1   2
BRANCH   1   8
ATOM      8  O   UNL     1     113.975 178.178 125.134  1.00  0.00    -0.392 OA
ATOM      9  H   UNL     1     114.421 177.611 124.452  1.00  0.00     0.211 HD
ENDBRANCH   1   8
TORSDOF 2
ENDMDL
MODEL 7
REMARK VINA RESULT:    -4.211     14.755     15.562
REMARK INTER + INTRA:          -4.599
REMARK INTER:                  -4.583
REMARK INTRA:                  -0.016
REMARK UNBOUND:                -0.019
REMARK SMILES OCc1ccccc1
REMARK SMILES IDX 2 1 3 2 6 3 5 4 7 5 4 6 8 7 1 8
REMARK H PARENT 1 9
REMARK Flexibility Score: inf
ROOT
ATOM      1  C   UNL     1     114.786 178.258 126.166  1.00  0.00     0.191 C 
ENDROOT
BRANCH   1   2
ATOM      2  C   UNL     1     116.214 178.394 125.714  1.00  0.00    -0.023 A 
ATOM      3  C   UNL     1     118.856 178.709 124.824  1.00  0.00     0.000 A 
ATOM      4  C   UNL     1     118.404 179.422 125.937  1.00  0.00     0.000 A 
ATOM      5  C   UNL     1     117.990 177.845 124.147  1.00  0.00     0.000 A 
ATOM      6  C   UNL     1     117.086 179.271 126.379  1.00  0.00     0.006 A 
ATOM      7  C   UNL     1     116.671 177.692 124.586  1.00  0.00     0.006 A 
ENDBRANCH   1   2
BRANCH   1   8
ATOM      8  O   UNL     1     113.934 178.194 125.056  1.00  0.00    -0.392 OA
ATOM      9  H   UNL     1     113.008 178.145 125.411  1.00  0.00     0.211 HD
ENDBRANCH   1   8
TORSDOF 2
ENDMDL
MODEL 8
REMARK VINA RESULT:    -4.159     12.916     13.629
REMARK INTER + INTRA:          -4.542
REMARK INTER:                  -4.528
REMARK INTRA:                  -0.014
REMARK UNBOUND:                -0.019
REMARK SMILES OCc1ccccc1
REMARK SMILES IDX 2 1 3 2 6 3 5 4 7 5 4 6 8 7 1 8
REMARK H PARENT 1 9
REMARK Flexibility Score: inf
ROOT
ATOM      1  C   UNL     1     124.131 176.601 120.126  1.00  0.00     0.191 C 
ENDROOT
BRANCH   1   2
ATOM      2  C   UNL     1     123.701 177.070 118.764  1.00  0.00    -0.023 A 
ATOM      3  C   UNL     1     122.951 177.898 116.190  1.00  0.00     0.000 A 
ATOM      4  C   UNL     1     122.310 176.810 116.788  1.00  0.00     0.000 A 
ATOM      5  C   UNL     1     123.972 178.568 116.869  1.00  0.00     0.000 A 
ATOM      6  C   UNL     1     122.686 176.393 118.070  1.00  0.00     0.006 A 
ATOM      7  C   UNL     1     124.352 178.154 118.150  1.00  0.00     0.006 A 
ENDBRANCH   1   2
BRANCH   1   8
ATOM      8  O   UNL     1     124.373 175.221 120.105  1.00  0.00    -0.392 OA
ATOM      9  H   UNL     1     124.542 174.977 119.156  1.00  0.00     0.211 HD
ENDBRANCH   1   8
TORSDOF 2
ENDMDL
MODEL 9
REMARK VINA RESULT:    -3.813     15.711     16.456
REMARK INTER + INTRA:          -4.166
REMARK INTER:                  -4.147
REMARK INTRA:                  -0.019
REMARK UNBOUND:                -0.019
REMARK SMILES OCc1ccccc1
REMARK SMILES IDX 2 1 3 2 6 3 5 4 7 5 4 6 8 7 1 8
REMARK H PARENT 1 9
REMARK Flexibility Score: inf
ROOT
ATOM      1  C   UNL     1     123.873 162.388 129.840  1.00  0.00     0.191 C 
ENDROOT
BRANCH   1   2
ATOM      2  C   UNL     1     123.578 163.832 129.545  1.00  0.00    -0.023 A 
ATOM      3  C   UNL     1     123.080 166.549 129.049  1.00  0.00     0.000 A 
ATOM      4  C   UNL     1     124.073 165.878 128.330  1.00  0.00     0.000 A 
ATOM      5  C   UNL     1     122.341 165.870 130.022  1.00  0.00     0.000 A 
ATOM      6  C   UNL     1     124.326 164.525 128.580  1.00  0.00     0.006 A 
ATOM      7  C   UNL     1     122.591 164.518 130.275  1.00  0.00     0.006 A 
ENDBRANCH   1   2
BRANCH   1   8
ATOM      8  O   UNL     1     123.423 162.058 131.125  1.00  0.00    -0.392 OA
ATOM      9  H   UNL     1     122.589 161.531 131.007  1.00  0.00     0.211 HD
ENDBRANCH   1   8
TORSDOF 2
ENDMDL
