MODEL 1
REMARK VINA RESULT:    -7.447      0.000      0.000
REMARK INTER + INTRA:          -8.100
REMARK INTER:                  -8.100
REMARK INTRA:                   0.000
REMARK UNBOUND:                 0.000
REMARK SMILES Cc1cc(O)c2c(c1)C(=O)c1cc(O)cc(O)c1C2=O
REMARK SMILES IDX 1 1 2 2 8 3 7 4 6 5 4 6 3 7 19 8 20 9 18 10 11 11 9 12 10 13
REMARK SMILES IDX 12 14 13 15 15 16 16 17 5 18 17 20 14 22
REMARK H PARENT 5 19 17 21 14 23
REMARK Flexibility Score: inf
ROOT
ATOM      1  C   UNL     1     260.733 -28.250  50.289  1.00  0.00     0.044 C 
ATOM      2  C   UNL     1     261.016 -27.795  51.692  1.00  0.00    -0.047 A 
ATOM      3  C   UNL     1     260.233 -28.257  52.753  1.00  0.00     0.016 A 
ATOM      4  C   UNL     1     260.504 -27.857  54.073  1.00  0.00     0.038 A 
ATOM      5  C   UNL     1     261.580 -26.976  54.336  1.00  0.00     0.076 A 
ATOM      6  C   UNL     1     262.430 -26.592  53.264  1.00  0.00     0.127 A 
ATOM      7  C   UNL     1     262.122 -26.982  51.957  1.00  0.00     0.050 A 
ATOM      8  C   UNL     1     261.741 -26.449  55.719  1.00  0.00     0.201 C 
ATOM      9  O   UNL     1     262.385 -25.384  55.919  1.00  0.00    -0.288 OA
ATOM     10  C   UNL     1     261.048 -27.108  56.856  1.00  0.00     0.076 A 
ATOM     11  C   UNL     1     260.020 -28.037  56.588  1.00  0.00     0.041 A 
ATOM     12  C   UNL     1     259.671 -28.367  55.188  1.00  0.00     0.194 C 
ATOM     13  O   UNL     1     258.672 -29.100  54.944  1.00  0.00    -0.289 OA
ATOM     14  C   UNL     1     259.330 -28.642  57.654  1.00  0.00     0.059 A 
ATOM     15  C   UNL     1     259.659 -28.336  58.977  1.00  0.00     0.120 A 
ATOM     16  C   UNL     1     260.679 -27.424  59.246  1.00  0.00     0.093 A 
ATOM     17  C   UNL     1     261.379 -26.809  58.199  1.00  0.00     0.131 A 
ENDROOT
BRANCH   6  18
ATOM     18  O   UNL     1     263.604 -25.860  53.450  1.00  0.00    -0.507 OA
ATOM     19  H   UNL     1     263.654 -25.006  53.988  1.00  0.00     0.293 HD
ENDBRANCH   6  18
BRANCH  17  20
ATOM     20  O   UNL     1     262.404 -25.912  58.496  1.00  0.00    -0.507 OA
ATOM     21  H   UNL     1     262.979 -25.499  57.770  1.00  0.00     0.293 HD
ENDBRANCH  17  20
BRANCH  15  22
ATOM     22  O   UNL     1     258.978 -28.934  60.035  1.00  0.00    -0.508 OA
ATOM     23  H   UNL     1     258.946 -28.509  60.955  1.00  0.00     0.293 HD
ENDBRANCH  15  22
TORSDOF 3
ENDMDL
MODEL 2
REMARK VINA RESULT:    -7.369      1.355      5.507
REMARK INTER + INTRA:          -8.016
REMARK INTER:                  -8.016
REMARK INTRA:                   0.000
REMARK UNBOUND:                 0.000
REMARK SMILES Cc1cc(O)c2c(c1)C(=O)c1cc(O)cc(O)c1C2=O
REMARK SMILES IDX 1 1 2 2 8 3 7 4 6 5 4 6 3 7 19 8 20 9 18 10 11 11 9 12 10 13
REMARK SMILES IDX 12 14 13 15 15 16 16 17 5 18 17 20 14 22
REMARK H PARENT 5 19 17 21 14 23
REMARK Flexibility Score: inf
ROOT
ATOM      1  C   UNL     1     258.373 -28.622  59.756  1.00  0.00     0.044 C 
ATOM      2  C   UNL     1     259.286 -28.216  58.636  1.00  0.00    -0.047 A 
ATOM      3  C   UNL     1     259.010 -28.614  57.325  1.00  0.00     0.016 A 
ATOM      4  C   UNL     1     259.845 -28.219  56.264  1.00  0.00     0.038 A 
ATOM      5  C   UNL     1     260.978 -27.411  56.522  1.00  0.00     0.076 A 
ATOM      6  C   UNL     1     261.192 -26.930  57.842  1.00  0.00     0.127 A 
ATOM      7  C   UNL     1     260.363 -27.359  58.883  1.00  0.00     0.050 A 
ATOM      8  C   UNL     1     261.925 -27.144  55.405  1.00  0.00     0.201 C 
ATOM      9  O   UNL     1     263.114 -26.805  55.651  1.00  0.00    -0.288 OA
ATOM     10  C   UNL     1     261.511 -27.386  53.999  1.00  0.00     0.076 A 
ATOM     11  C   UNL     1     260.343 -28.136  53.747  1.00  0.00     0.041 A 
ATOM     12  C   UNL     1     259.532 -28.639  54.879  1.00  0.00     0.194 C 
ATOM     13  O   UNL     1     258.559 -29.414  54.660  1.00  0.00    -0.289 OA
ATOM     14  C   UNL     1     259.957 -28.405  52.422  1.00  0.00     0.059 A 
ATOM     15  C   UNL     1     260.719 -27.929  51.351  1.00  0.00     0.120 A 
ATOM     16  C   UNL     1     261.869 -27.180  51.596  1.00  0.00     0.093 A 
ATOM     17  C   UNL     1     262.272 -26.902  52.909  1.00  0.00     0.131 A 
ENDROOT
BRANCH   6  18
ATOM     18  O   UNL     1     262.185 -26.001  58.161  1.00  0.00    -0.507 OA
ATOM     19  H   UNL     1     262.870 -25.663  57.500  1.00  0.00     0.293 HD
ENDBRANCH   6  18
BRANCH  17  20
ATOM     20  O   UNL     1     263.419 -26.139  53.125  1.00  0.00    -0.507 OA
ATOM     21  H   UNL     1     263.487 -25.486  53.897  1.00  0.00     0.293 HD
ENDBRANCH  17  20
BRANCH  15  22
ATOM     22  O   UNL     1     260.339 -28.193  50.036  1.00  0.00    -0.508 OA
ATOM     23  H   UNL     1     261.022 -28.410  49.320  1.00  0.00     0.293 HD
ENDBRANCH  15  22
TORSDOF 3
ENDMDL
MODEL 3
REMARK VINA RESULT:    -6.712      1.284      3.508
REMARK INTER + INTRA:          -7.300
REMARK INTER:                  -7.300
REMARK INTRA:                   0.000
REMARK UNBOUND:                 0.000
REMARK SMILES Cc1cc(O)c2c(c1)C(=O)c1cc(O)cc(O)c1C2=O
REMARK SMILES IDX 1 1 2 2 8 3 7 4 6 5 4 6 3 7 19 8 20 9 18 10 11 11 9 12 10 13
REMARK SMILES IDX 12 14 13 15 15 16 16 17 5 18 17 20 14 22
REMARK H PARENT 5 19 17 21 14 23
REMARK Flexibility Score: inf
ROOT
ATOM      1  C   UNL     1     260.755 -27.763  50.497  1.00  0.00     0.044 C 
ATOM      2  C   UNL     1     260.681 -27.843  51.994  1.00  0.00    -0.047 A 
ATOM      3  C   UNL     1     261.572 -27.110  52.782  1.00  0.00     0.016 A 
ATOM      4  C   UNL     1     261.497 -27.158  54.186  1.00  0.00     0.038 A 
ATOM      5  C   UNL     1     260.509 -27.956  54.811  1.00  0.00     0.076 A 
ATOM      6  C   UNL     1     259.546 -28.617  54.002  1.00  0.00     0.127 A 
ATOM      7  C   UNL     1     259.661 -28.575  52.609  1.00  0.00     0.050 A 
ATOM      8  C   UNL     1     260.557 -28.109  56.292  1.00  0.00     0.201 C 
ATOM      9  O   UNL     1     259.998 -29.095  56.844  1.00  0.00    -0.288 OA
ATOM     10  C   UNL     1     261.360 -27.168  57.115  1.00  0.00     0.076 A 
ATOM     11  C   UNL     1     262.295 -26.325  56.479  1.00  0.00     0.041 A 
ATOM     12  C   UNL     1     262.441 -26.365  55.007  1.00  0.00     0.194 C 
ATOM     13  O   UNL     1     263.362 -25.706  54.448  1.00  0.00    -0.289 OA
ATOM     14  C   UNL     1     263.088 -25.455  57.248  1.00  0.00     0.059 A 
ATOM     15  C   UNL     1     262.951 -25.413  58.639  1.00  0.00     0.120 A 
ATOM     16  C   UNL     1     262.021 -26.238  59.270  1.00  0.00     0.093 A 
ATOM     17  C   UNL     1     261.223 -27.114  58.523  1.00  0.00     0.131 A 
ENDROOT
BRANCH   6  18
ATOM     18  O   UNL     1     258.444 -29.293  54.530  1.00  0.00    -0.507 OA
ATOM     19  H   UNL     1     257.515 -28.899  54.577  1.00  0.00     0.293 HD
ENDBRANCH   6  18
BRANCH  17  20
ATOM     20  O   UNL     1     260.291 -27.918  59.178  1.00  0.00    -0.507 OA
ATOM     21  H   UNL     1     259.442 -28.232  58.721  1.00  0.00     0.293 HD
ENDBRANCH  17  20
BRANCH  15  22
ATOM     22  O   UNL     1     263.734 -24.551  59.404  1.00  0.00    -0.508 OA
ATOM     23  H   UNL     1     263.339 -23.732  59.853  1.00  0.00     0.293 HD
ENDBRANCH  15  22
TORSDOF 3
ENDMDL
MODEL 4
REMARK VINA RESULT:    -6.648      1.189      1.614
REMARK INTER + INTRA:          -7.231
REMARK INTER:                  -7.231
REMARK INTRA:                   0.000
REMARK UNBOUND:                 0.000
REMARK SMILES Cc1cc(O)c2c(c1)C(=O)c1cc(O)cc(O)c1C2=O
REMARK SMILES IDX 1 1 2 2 8 3 7 4 6 5 4 6 3 7 19 8 20 9 18 10 11 11 9 12 10 13
REMARK SMILES IDX 12 14 13 15 15 16 16 17 5 18 17 20 14 22
REMARK H PARENT 5 19 17 21 14 23
REMARK Flexibility Score: inf
ROOT
ATOM      1  C   UNL     1     261.632 -27.215  51.621  1.00  0.00     0.044 C 
ATOM      2  C   UNL     1     261.848 -26.974  53.087  1.00  0.00    -0.047 A 
ATOM      3  C   UNL     1     260.965 -27.514  54.026  1.00  0.00     0.016 A 
ATOM      4  C   UNL     1     261.171 -27.315  55.403  1.00  0.00     0.038 A 
ATOM      5  C   UNL     1     262.283 -26.560  55.848  1.00  0.00     0.076 A 
ATOM      6  C   UNL     1     263.228 -26.101  54.891  1.00  0.00     0.127 A 
ATOM      7  C   UNL     1     262.985 -26.290  53.527  1.00  0.00     0.050 A 
ATOM      8  C   UNL     1     262.383 -26.236  57.297  1.00  0.00     0.201 C 
ATOM      9  O   UNL     1     263.082 -25.259  57.680  1.00  0.00    -0.288 OA
ATOM     10  C   UNL     1     261.571 -26.986  58.290  1.00  0.00     0.076 A 
ATOM     11  C   UNL     1     260.505 -27.791  57.836  1.00  0.00     0.041 A 
ATOM     12  C   UNL     1     260.232 -27.904  56.386  1.00  0.00     0.194 C 
ATOM     13  O   UNL     1     259.205 -28.521  55.985  1.00  0.00    -0.289 OA
ATOM     14  C   UNL     1     259.704 -28.479  58.766  1.00  0.00     0.059 A 
ATOM     15  C   UNL     1     259.961 -28.378  60.136  1.00  0.00     0.120 A 
ATOM     16  C   UNL     1     261.019 -27.590  60.587  1.00  0.00     0.093 A 
ATOM     17  C   UNL     1     261.828 -26.895  59.678  1.00  0.00     0.131 A 
ENDROOT
BRANCH   6  18
ATOM     18  O   UNL     1     264.433 -25.492  55.245  1.00  0.00    -0.507 OA
ATOM     19  H   UNL     1     265.336 -25.933  55.143  1.00  0.00     0.293 HD
ENDBRANCH   6  18
BRANCH  17  20
ATOM     20  O   UNL     1     262.888 -26.125  60.156  1.00  0.00    -0.507 OA
ATOM     21  H   UNL     1     263.663 -26.540  60.663  1.00  0.00     0.293 HD
ENDBRANCH  17  20
BRANCH  15  22
ATOM     22  O   UNL     1     259.170 -29.059  61.059  1.00  0.00    -0.508 OA
ATOM     23  H   UNL     1     258.207 -28.794  61.230  1.00  0.00     0.293 HD
ENDBRANCH  15  22
TORSDOF 3
ENDMDL
MODEL 5
REMARK VINA RESULT:    -6.559      1.477      6.159
REMARK INTER + INTRA:          -7.134
REMARK INTER:                  -7.134
REMARK INTRA:                   0.000
REMARK UNBOUND:                 0.000
REMARK SMILES Cc1cc(O)c2c(c1)C(=O)c1cc(O)cc(O)c1C2=O
REMARK SMILES IDX 1 1 2 2 8 3 7 4 6 5 4 6 3 7 19 8 20 9 18 10 11 11 9 12 10 13
REMARK SMILES IDX 12 14 13 15 15 16 16 17 5 18 17 20 14 22
REMARK H PARENT 5 19 17 21 14 23
REMARK Flexibility Score: inf
ROOT
ATOM      1  C   UNL     1     263.474 -25.884  60.283  1.00  0.00     0.044 C 
ATOM      2  C   UNL     1     262.579 -26.494  59.243  1.00  0.00    -0.047 A 
ATOM      3  C   UNL     1     262.763 -26.191  57.892  1.00  0.00     0.016 A 
ATOM      4  C   UNL     1     261.947 -26.774  56.907  1.00  0.00     0.038 A 
ATOM      5  C   UNL     1     260.927 -27.680  57.283  1.00  0.00     0.076 A 
ATOM      6  C   UNL     1     260.814 -28.059  58.648  1.00  0.00     0.127 A 
ATOM      7  C   UNL     1     261.620 -27.442  59.610  1.00  0.00     0.050 A 
ATOM      8  C   UNL     1     259.982 -28.157  56.235  1.00  0.00     0.201 C 
ATOM      9  O   UNL     1     258.850 -28.605  56.561  1.00  0.00    -0.288 OA
ATOM     10  C   UNL     1     260.320 -27.999  54.796  1.00  0.00     0.076 A 
ATOM     11  C   UNL     1     261.382 -27.146  54.430  1.00  0.00     0.041 A 
ATOM     12  C   UNL     1     262.164 -26.451  55.477  1.00  0.00     0.194 C 
ATOM     13  O   UNL     1     263.031 -25.593  55.149  1.00  0.00    -0.289 OA
ATOM     14  C   UNL     1     261.691 -26.958  53.071  1.00  0.00     0.059 A 
ATOM     15  C   UNL     1     260.957 -27.616  52.079  1.00  0.00     0.120 A 
ATOM     16  C   UNL     1     259.911 -28.466  52.438  1.00  0.00     0.093 A 
ATOM     17  C   UNL     1     259.586 -28.666  53.786  1.00  0.00     0.131 A 
ENDROOT
BRANCH   6  18
ATOM     18  O   UNL     1     259.948 -29.062  59.089  1.00  0.00    -0.507 OA
ATOM     19  H   UNL     1     260.260 -29.937  59.486  1.00  0.00     0.293 HD
ENDBRANCH   6  18
BRANCH  17  20
ATOM     20  O   UNL     1     258.545 -29.532  54.118  1.00  0.00    -0.507 OA
ATOM     21  H   UNL     1     257.629 -29.452  53.692  1.00  0.00     0.293 HD
ENDBRANCH  17  20
BRANCH  15  22
ATOM     22  O   UNL     1     261.260 -27.433  50.732  1.00  0.00    -0.508 OA
ATOM     23  H   UNL     1     262.214 -27.297  50.416  1.00  0.00     0.293 HD
ENDBRANCH  15  22
TORSDOF 3
ENDMDL
MODEL 6
REMARK VINA RESULT:    -6.385     13.409     14.283
REMARK INTER + INTRA:          -6.945
REMARK INTER:                  -6.945
REMARK INTRA:                   0.000
REMARK UNBOUND:                 0.000
REMARK SMILES Cc1cc(O)c2c(c1)C(=O)c1cc(O)cc(O)c1C2=O
REMARK SMILES IDX 1 1 2 2 8 3 7 4 6 5 4 6 3 7 19 8 20 9 18 10 11 11 9 12 10 13
REMARK SMILES IDX 12 14 13 15 15 16 16 17 5 18 17 20 14 22
REMARK H PARENT 5 19 17 21 14 23
REMARK Flexibility Score: inf
ROOT
ATOM      1  C   UNL     1     257.548 -26.645  42.357  1.00  0.00     0.044 C 
ATOM      2  C   UNL     1     256.596 -25.518  42.631  1.00  0.00    -0.047 A 
ATOM      3  C   UNL     1     255.521 -25.702  43.504  1.00  0.00     0.016 A 
ATOM      4  C   UNL     1     254.636 -24.646  43.788  1.00  0.00     0.038 A 
ATOM      5  C   UNL     1     254.834 -23.380  43.185  1.00  0.00     0.076 A 
ATOM      6  C   UNL     1     255.986 -23.176  42.379  1.00  0.00     0.127 A 
ATOM      7  C   UNL     1     256.833 -24.250  42.091  1.00  0.00     0.050 A 
ATOM      8  C   UNL     1     253.793 -22.334  43.382  1.00  0.00     0.201 C 
ATOM      9  O   UNL     1     253.698 -21.376  42.568  1.00  0.00    -0.288 OA
ATOM     10  C   UNL     1     252.788 -22.472  44.468  1.00  0.00     0.076 A 
ATOM     11  C   UNL     1     252.642 -23.719  45.113  1.00  0.00     0.041 A 
ATOM     12  C   UNL     1     253.509 -24.855  44.726  1.00  0.00     0.194 C 
ATOM     13  O   UNL     1     253.297 -26.001  45.211  1.00  0.00    -0.289 OA
ATOM     14  C   UNL     1     251.671 -23.876  46.117  1.00  0.00     0.059 A 
ATOM     15  C   UNL     1     250.853 -22.804  46.488  1.00  0.00     0.120 A 
ATOM     16  C   UNL     1     251.001 -21.569  45.858  1.00  0.00     0.093 A 
ATOM     17  C   UNL     1     251.961 -21.391  44.854  1.00  0.00     0.131 A 
ENDROOT
BRANCH   6  18
ATOM     18  O   UNL     1     256.349 -21.925  41.875  1.00  0.00    -0.507 OA
ATOM     19  H   UNL     1     257.100 -21.365  42.253  1.00  0.00     0.293 HD
ENDBRANCH   6  18
BRANCH  17  20
ATOM     20  O   UNL     1     252.097 -20.141  44.251  1.00  0.00    -0.507 OA
ATOM     21  H   UNL     1     252.656 -19.405  44.668  1.00  0.00     0.293 HD
ENDBRANCH  17  20
BRANCH  15  22
ATOM     22  O   UNL     1     249.891 -22.957  47.484  1.00  0.00    -0.508 OA
ATOM     23  H   UNL     1     250.146 -23.026  48.462  1.00  0.00     0.293 HD
ENDBRANCH  15  22
TORSDOF 3
ENDMDL
MODEL 7
REMARK VINA RESULT:    -6.245      9.814     13.036
REMARK INTER + INTRA:          -6.792
REMARK INTER:                  -6.792
REMARK INTRA:                   0.000
REMARK UNBOUND:                 0.000
REMARK SMILES Cc1cc(O)c2c(c1)C(=O)c1cc(O)cc(O)c1C2=O
REMARK SMILES IDX 1 1 2 2 8 3 7 4 6 5 4 6 3 7 19 8 20 9 18 10 11 11 9 12 10 13
REMARK SMILES IDX 12 14 13 15 15 16 16 17 5 18 17 20 14 22
REMARK H PARENT 5 19 17 21 14 23
REMARK Flexibility Score: inf
ROOT
ATOM      1  C   UNL     1     254.383 -24.549  52.683  1.00  0.00     0.044 C 
ATOM      2  C   UNL     1     253.714 -24.495  51.340  1.00  0.00    -0.047 A 
ATOM      3  C   UNL     1     254.482 -24.476  50.173  1.00  0.00     0.016 A 
ATOM      4  C   UNL     1     253.866 -24.450  48.909  1.00  0.00     0.038 A 
ATOM      5  C   UNL     1     252.454 -24.442  48.812  1.00  0.00     0.076 A 
ATOM      6  C   UNL     1     251.684 -24.562  50.001  1.00  0.00     0.127 A 
ATOM      7  C   UNL     1     252.321 -24.559  51.246  1.00  0.00     0.050 A 
ATOM      8  C   UNL     1     251.838 -24.254  47.470  1.00  0.00     0.201 C 
ATOM      9  O   UNL     1     250.655 -23.831  47.371  1.00  0.00    -0.288 OA
ATOM     10  C   UNL     1     252.649 -24.451  46.241  1.00  0.00     0.076 A 
ATOM     11  C   UNL     1     254.053 -24.527  46.350  1.00  0.00     0.041 A 
ATOM     12  C   UNL     1     254.695 -24.443  47.681  1.00  0.00     0.194 C 
ATOM     13  O   UNL     1     255.954 -24.384  47.770  1.00  0.00    -0.289 OA
ATOM     14  C   UNL     1     254.837 -24.677  45.191  1.00  0.00     0.059 A 
ATOM     15  C   UNL     1     254.234 -24.760  43.933  1.00  0.00     0.120 A 
ATOM     16  C   UNL     1     252.845 -24.695  43.822  1.00  0.00     0.093 A 
ATOM     17  C   UNL     1     252.046 -24.543  44.963  1.00  0.00     0.131 A 
ENDROOT
BRANCH   6  18
ATOM     18  O   UNL     1     250.297 -24.724  49.995  1.00  0.00    -0.507 OA
ATOM     19  H   UNL     1     249.838 -25.623  50.030  1.00  0.00     0.293 HD
ENDBRANCH   6  18
BRANCH  17  20
ATOM     20  O   UNL     1     250.659 -24.495  44.826  1.00  0.00    -0.507 OA
ATOM     21  H   UNL     1     250.108 -25.333  44.678  1.00  0.00     0.293 HD
ENDBRANCH  17  20
BRANCH  15  22
ATOM     22  O   UNL     1     255.007 -24.910  42.783  1.00  0.00    -0.508 OA
ATOM     23  H   UNL     1     255.952 -25.275  42.824  1.00  0.00     0.293 HD
ENDBRANCH  15  22
TORSDOF 3
ENDMDL
MODEL 8
REMARK VINA RESULT:    -6.199      9.795     12.215
REMARK INTER + INTRA:          -6.742
REMARK INTER:                  -6.742
REMARK INTRA:                   0.000
REMARK UNBOUND:                 0.000
REMARK SMILES Cc1cc(O)c2c(c1)C(=O)c1cc(O)cc(O)c1C2=O
REMARK SMILES IDX 1 1 2 2 8 3 7 4 6 5 4 6 3 7 19 8 20 9 18 10 11 11 9 12 10 13
REMARK SMILES IDX 12 14 13 15 15 16 16 17 5 18 17 20 14 22
REMARK H PARENT 5 19 17 21 14 23
REMARK Flexibility Score: inf
ROOT
ATOM      1  C   UNL     1     255.422 -24.697  42.117  1.00  0.00     0.044 C 
ATOM      2  C   UNL     1     254.534 -24.701  43.327  1.00  0.00    -0.047 A 
ATOM      3  C   UNL     1     255.087 -24.599  44.606  1.00  0.00     0.016 A 
ATOM      4  C   UNL     1     254.264 -24.578  45.746  1.00  0.00     0.038 A 
ATOM      5  C   UNL     1     252.858 -24.660  45.601  1.00  0.00     0.076 A 
ATOM      6  C   UNL     1     252.301 -24.662  44.293  1.00  0.00     0.127 A 
ATOM      7  C   UNL     1     253.144 -24.711  43.178  1.00  0.00     0.050 A 
ATOM      8  C   UNL     1     252.027 -24.794  46.829  1.00  0.00     0.201 C 
ATOM      9  O   UNL     1     250.865 -25.276  46.757  1.00  0.00    -0.288 OA
ATOM     10  C   UNL     1     252.603 -24.470  48.161  1.00  0.00     0.076 A 
ATOM     11  C   UNL     1     254.000 -24.322  48.287  1.00  0.00     0.041 A 
ATOM     12  C   UNL     1     254.866 -24.456  47.094  1.00  0.00     0.194 C 
ATOM     13  O   UNL     1     256.123 -24.449  47.224  1.00  0.00    -0.289 OA
ATOM     14  C   UNL     1     254.563 -24.051  49.547  1.00  0.00     0.059 A 
ATOM     15  C   UNL     1     253.748 -23.920  50.675  1.00  0.00     0.120 A 
ATOM     16  C   UNL     1     252.366 -24.057  50.552  1.00  0.00     0.093 A 
ATOM     17  C   UNL     1     251.785 -24.329  49.307  1.00  0.00     0.131 A 
ENDROOT
BRANCH   6  18
ATOM     18  O   UNL     1     250.928 -24.580  44.052  1.00  0.00    -0.507 OA
ATOM     19  H   UNL     1     250.462 -25.063  43.298  1.00  0.00     0.293 HD
ENDBRANCH   6  18
BRANCH  17  20
ATOM     20  O   UNL     1     250.399 -24.447  49.210  1.00  0.00    -0.507 OA
ATOM     21  H   UNL     1     249.848 -23.817  48.638  1.00  0.00     0.293 HD
ENDBRANCH  17  20
BRANCH  15  22
ATOM     22  O   UNL     1     254.303 -23.651  51.924  1.00  0.00    -0.508 OA
ATOM     23  H   UNL     1     255.073 -24.198  52.292  1.00  0.00     0.293 HD
ENDBRANCH  15  22
TORSDOF 3
ENDMDL
MODEL 9
REMARK VINA RESULT:    -6.149      2.158      5.759
REMARK INTER + INTRA:          -6.689
REMARK INTER:                  -6.689
REMARK INTRA:                   0.000
REMARK UNBOUND:                 0.000
REMARK SMILES Cc1cc(O)c2c(c1)C(=O)c1cc(O)cc(O)c1C2=O
REMARK SMILES IDX 1 1 2 2 8 3 7 4 6 5 4 6 3 7 19 8 20 9 18 10 11 11 9 12 10 13
REMARK SMILES IDX 12 14 13 15 15 16 16 17 5 18 17 20 14 22
REMARK H PARENT 5 19 17 21 14 23
REMARK Flexibility Score: inf
ROOT
ATOM      1  C   UNL     1     257.736 -28.613  59.862  1.00  0.00     0.044 C 
ATOM      2  C   UNL     1     259.111 -28.252  59.378  1.00  0.00    -0.047 A 
ATOM      3  C   UNL     1     259.383 -28.202  58.008  1.00  0.00     0.016 A 
ATOM      4  C   UNL     1     260.661 -27.842  57.543  1.00  0.00     0.038 A 
ATOM      5  C   UNL     1     261.684 -27.525  58.467  1.00  0.00     0.076 A 
ATOM      6  C   UNL     1     261.369 -27.481  59.853  1.00  0.00     0.127 A 
ATOM      7  C   UNL     1     260.099 -27.871  60.290  1.00  0.00     0.050 A 
ATOM      8  C   UNL     1     263.062 -27.303  57.949  1.00  0.00     0.201 C 
ATOM      9  O   UNL     1     264.054 -27.431  58.715  1.00  0.00    -0.288 OA
ATOM     10  C   UNL     1     263.284 -27.044  56.502  1.00  0.00     0.076 A 
ATOM     11  C   UNL     1     262.237 -27.297  55.591  1.00  0.00     0.041 A 
ATOM     12  C   UNL     1     260.929 -27.782  56.087  1.00  0.00     0.194 C 
ATOM     13  O   UNL     1     260.034 -28.128  55.266  1.00  0.00    -0.289 OA
ATOM     14  C   UNL     1     262.443 -27.092  54.215  1.00  0.00     0.059 A 
ATOM     15  C   UNL     1     263.675 -26.630  53.743  1.00  0.00     0.120 A 
ATOM     16  C   UNL     1     264.709 -26.370  54.642  1.00  0.00     0.093 A 
ATOM     17  C   UNL     1     264.526 -26.570  56.017  1.00  0.00     0.131 A 
ENDROOT
BRANCH   6  18
ATOM     18  O   UNL     1     262.265 -27.025  60.822  1.00  0.00    -0.507 OA
ATOM     19  H   UNL     1     262.741 -27.632  61.474  1.00  0.00     0.293 HD
ENDBRANCH   6  18
BRANCH  17  20
ATOM     20  O   UNL     1     265.572 -26.289  56.894  1.00  0.00    -0.507 OA
ATOM     21  H   UNL     1     265.586 -26.652  57.841  1.00  0.00     0.293 HD
ENDBRANCH  17  20
BRANCH  15  22
ATOM     22  O   UNL     1     263.882 -26.424  52.381  1.00  0.00    -0.508 OA
ATOM     23  H   UNL     1     263.334 -26.912  51.681  1.00  0.00     0.293 HD
ENDBRANCH  15  22
TORSDOF 3
ENDMDL
