MODEL 1
REMARK VINA RESULT:    -4.050      0.000      0.000
REMARK INTER + INTRA:          -5.401
REMARK INTER:                  -5.234
REMARK INTRA:                  -0.166
REMARK UNBOUND:                -0.166
REMARK SMILES CCCCCCC(=O)[O-]
REMARK SMILES IDX 5 1 6 2 7 3 8 4 9 5 4 6 3 7 2 8 1 9
REMARK H PARENT
REMARK Flexibility Score: inf
ROOT
ATOM      1  C   UNL     1      -3.561  37.202  18.688  1.00  0.00     0.006 C 
ENDROOT
BRANCH   1   2
ATOM      2  C   UNL     1      -4.264  35.928  19.176  1.00  0.00     0.053 C 
BRANCH   2   3
ATOM      3  C   UNL     1      -5.305  36.229  20.211  1.00  0.00     0.041 C 
ATOM      4  O   UNL     1      -6.039  35.309  20.660  1.00  0.00    -0.550 OA
ATOM      5  O   UNL     1      -5.444  37.522  20.701  1.00  0.00    -0.550 OA
ENDBRANCH   2   3
ENDBRANCH   1   2
BRANCH   1   6
ATOM      6  C   UNL     1      -2.694  36.948  17.443  1.00  0.00     0.000 C 
BRANCH   6   7
ATOM      7  C   UNL     1      -3.331  35.948  16.463  1.00  0.00    -0.000 C 
BRANCH   7   8
ATOM      8  C   UNL     1      -3.074  36.245  14.975  1.00  0.00    -0.003 C 
ATOM      9  C   UNL     1      -3.988  37.335  14.416  1.00  0.00     0.004 C 
ENDBRANCH   7   8
ENDBRANCH   6   7
ENDBRANCH   1   6
TORSDOF 5
ENDMDL
MODEL 2
REMARK VINA RESULT:    -3.996      0.274      1.090
REMARK INTER + INTRA:          -5.331
REMARK INTER:                  -5.146
REMARK INTRA:                  -0.185
REMARK UNBOUND:                -0.166
REMARK SMILES CCCCCCC(=O)[O-]
REMARK SMILES IDX 5 1 6 2 7 3 8 4 9 5 4 6 3 7 2 8 1 9
REMARK H PARENT
REMARK Flexibility Score: inf
ROOT
ATOM      1  C   UNL     1      -3.347  37.241  18.643  1.00  0.00     0.006 C 
ENDROOT
BRANCH   1   2
ATOM      2  C   UNL     1      -4.279  36.103  19.079  1.00  0.00     0.053 C 
BRANCH   2   3
ATOM      3  C   UNL     1      -5.147  36.507  20.232  1.00  0.00     0.041 C 
ATOM      4  O   UNL     1      -5.390  37.723  20.449  1.00  0.00    -0.550 OA
ATOM      5  O   UNL     1      -5.711  35.536  21.050  1.00  0.00    -0.550 OA
ENDBRANCH   2   3
ENDBRANCH   1   2
BRANCH   1   6
ATOM      6  C   UNL     1      -2.534  36.879  17.388  1.00  0.00     0.000 C 
BRANCH   6   7
ATOM      7  C   UNL     1      -3.284  35.923  16.444  1.00  0.00    -0.000 C 
BRANCH   7   8
ATOM      8  C   UNL     1      -3.125  36.236  14.945  1.00  0.00    -0.003 C 
ATOM      9  C   UNL     1      -3.932  37.455  14.500  1.00  0.00     0.004 C 
ENDBRANCH   7   8
ENDBRANCH   6   7
ENDBRANCH   1   6
TORSDOF 5
ENDMDL
MODEL 3
REMARK VINA RESULT:    -3.971      1.113      1.409
REMARK INTER + INTRA:          -5.298
REMARK INTER:                  -5.100
REMARK INTRA:                  -0.198
REMARK UNBOUND:                -0.166
REMARK SMILES CCCCCCC(=O)[O-]
REMARK SMILES IDX 5 1 6 2 7 3 8 4 9 5 4 6 3 7 2 8 1 9
REMARK H PARENT
REMARK Flexibility Score: inf
ROOT
ATOM      1  C   UNL     1      -2.916  37.025  18.490  1.00  0.00     0.006 C 
ENDROOT
BRANCH   1   2
ATOM      2  C   UNL     1      -4.219  37.026  19.299  1.00  0.00     0.053 C 
BRANCH   2   3
ATOM      3  C   UNL     1      -4.574  35.653  19.785  1.00  0.00     0.041 C 
ATOM      4  O   UNL     1      -4.524  35.381  21.013  1.00  0.00    -0.550 OA
ATOM      5  O   UNL     1      -4.988  34.683  18.881  1.00  0.00    -0.550 OA
ENDBRANCH   2   3
ENDBRANCH   1   2
BRANCH   1   6
ATOM      6  C   UNL     1      -3.161  37.276  16.993  1.00  0.00     0.000 C 
BRANCH   6   7
ATOM      7  C   UNL     1      -2.784  36.071  16.113  1.00  0.00    -0.000 C 
BRANCH   7   8
ATOM      8  C   UNL     1      -3.092  36.240  14.615  1.00  0.00    -0.003 C 
ATOM      9  C   UNL     1      -4.056  37.392  14.329  1.00  0.00     0.004 C 
ENDBRANCH   7   8
ENDBRANCH   6   7
ENDBRANCH   1   6
TORSDOF 5
ENDMDL
MODEL 4
REMARK VINA RESULT:    -3.798      3.079      5.030
REMARK INTER + INTRA:          -5.075
REMARK INTER:                  -4.937
REMARK INTRA:                  -0.138
REMARK UNBOUND:                -0.166
REMARK SMILES CCCCCCC(=O)[O-]
REMARK SMILES IDX 5 1 6 2 7 3 8 4 9 5 4 6 3 7 2 8 1 9
REMARK H PARENT
REMARK Flexibility Score: inf
ROOT
ATOM      1  C   UNL     1      -3.006  37.254  18.444  1.00  0.00     0.006 C 
ENDROOT
BRANCH   1   2
ATOM      2  C   UNL     1      -3.491  36.299  17.345  1.00  0.00     0.053 C 
BRANCH   2   3
ATOM      3  C   UNL     1      -2.912  36.651  16.008  1.00  0.00     0.041 C 
ATOM      4  O   UNL     1      -1.799  36.182  15.654  1.00  0.00    -0.550 OA
ATOM      5  O   UNL     1      -3.618  37.477  15.141  1.00  0.00    -0.550 OA
ENDBRANCH   2   3
ENDBRANCH   1   2
BRANCH   1   6
ATOM      6  C   UNL     1      -3.516  36.844  19.836  1.00  0.00     0.000 C 
BRANCH   6   7
ATOM      7  C   UNL     1      -5.051  36.840  19.935  1.00  0.00    -0.000 C 
BRANCH   7   8
ATOM      8  C   UNL     1      -5.669  35.498  20.367  1.00  0.00    -0.003 C 
ATOM      9  C   UNL     1      -6.000  35.445  21.859  1.00  0.00     0.004 C 
ENDBRANCH   7   8
ENDBRANCH   6   7
ENDBRANCH   1   6
TORSDOF 5
ENDMDL
MODEL 5
REMARK VINA RESULT:    -3.791      3.142      5.131
REMARK INTER + INTRA:          -5.065
REMARK INTER:                  -4.934
REMARK INTRA:                  -0.131
REMARK UNBOUND:                -0.166
REMARK SMILES CCCCCCC(=O)[O-]
REMARK SMILES IDX 5 1 6 2 7 3 8 4 9 5 4 6 3 7 2 8 1 9
REMARK H PARENT
REMARK Flexibility Score: inf
ROOT
ATOM      1  C   UNL     1      -3.019  37.156  18.053  1.00  0.00     0.006 C 
ENDROOT
BRANCH   1   2
ATOM      2  C   UNL     1      -3.368  36.147  16.951  1.00  0.00     0.053 C 
BRANCH   2   3
ATOM      3  C   UNL     1      -3.084  36.694  15.585  1.00  0.00     0.041 C 
ATOM      4  O   UNL     1      -3.768  37.647  15.128  1.00  0.00    -0.550 OA
ATOM      5  O   UNL     1      -2.044  36.168  14.829  1.00  0.00    -0.550 OA
ENDBRANCH   2   3
ENDBRANCH   1   2
BRANCH   1   6
ATOM      6  C   UNL     1      -4.040  37.139  19.202  1.00  0.00     0.000 C 
BRANCH   6   7
ATOM      7  C   UNL     1      -4.576  35.730  19.508  1.00  0.00    -0.000 C 
BRANCH   7   8
ATOM      8  C   UNL     1      -4.575  35.344  20.998  1.00  0.00    -0.003 C 
ATOM      9  C   UNL     1      -5.946  35.495  21.656  1.00  0.00     0.004 C 
ENDBRANCH   7   8
ENDBRANCH   6   7
ENDBRANCH   1   6
TORSDOF 5
ENDMDL
MODEL 6
REMARK VINA RESULT:    -3.726      2.859      5.822
REMARK INTER + INTRA:          -4.982
REMARK INTER:                  -4.870
REMARK INTRA:                  -0.112
REMARK UNBOUND:                -0.166
REMARK SMILES CCCCCCC(=O)[O-]
REMARK SMILES IDX 5 1 6 2 7 3 8 4 9 5 4 6 3 7 2 8 1 9
REMARK H PARENT
REMARK Flexibility Score: inf
ROOT
ATOM      1  C   UNL     1      -4.432  35.746  20.322  1.00  0.00     0.006 C 
ENDROOT
BRANCH   1   2
ATOM      2  C   UNL     1      -4.274  37.070  19.564  1.00  0.00     0.053 C 
BRANCH   2   3
ATOM      3  C   UNL     1      -3.221  36.982  18.501  1.00  0.00     0.041 C 
ATOM      4  O   UNL     1      -3.418  36.290  17.468  1.00  0.00    -0.550 OA
ATOM      5  O   UNL     1      -2.032  37.688  18.641  1.00  0.00    -0.550 OA
ENDBRANCH   2   3
ENDBRANCH   1   2
BRANCH   1   6
ATOM      6  C   UNL     1      -5.879  35.509  20.785  1.00  0.00     0.000 C 
BRANCH   6   7
ATOM      7  C   UNL     1      -6.125  35.954  22.237  1.00  0.00    -0.000 C 
BRANCH   7   8
ATOM      8  C   UNL     1      -5.648  34.959  23.310  1.00  0.00    -0.003 C 
ATOM      9  C   UNL     1      -5.960  35.419  24.733  1.00  0.00     0.004 C 
ENDBRANCH   7   8
ENDBRANCH   6   7
ENDBRANCH   1   6
TORSDOF 5
ENDMDL
MODEL 7
REMARK VINA RESULT:    -2.634      2.428      4.338
REMARK INTER + INTRA:          -3.570
REMARK INTER:                  -3.267
REMARK INTRA:                  -0.304
REMARK UNBOUND:                -0.166
REMARK SMILES CCCCCCC(=O)[O-]
REMARK SMILES IDX 5 1 6 2 7 3 8 4 9 5 4 6 3 7 2 8 1 9
REMARK H PARENT
REMARK Flexibility Score: inf
ROOT
ATOM      1  C   UNL     1      -3.851  36.612  17.744  1.00  0.00     0.006 C 
ENDROOT
BRANCH   1   2
ATOM      2  C   UNL     1      -2.375  36.968  17.523  1.00  0.00     0.053 C 
BRANCH   2   3
ATOM      3  C   UNL     1      -1.713  37.407  18.795  1.00  0.00     0.041 C 
ATOM      4  O   UNL     1      -0.491  37.711  18.802  1.00  0.00    -0.550 OA
ATOM      5  O   UNL     1      -2.455  37.507  19.965  1.00  0.00    -0.550 OA
ENDBRANCH   2   3
ENDBRANCH   1   2
BRANCH   1   6
ATOM      6  C   UNL     1      -4.111  35.102  17.605  1.00  0.00     0.000 C 
BRANCH   6   7
ATOM      7  C   UNL     1      -5.068  34.558  18.680  1.00  0.00    -0.000 C 
BRANCH   7   8
ATOM      8  C   UNL     1      -5.416  35.552  19.802  1.00  0.00    -0.003 C 
ATOM      9  C   UNL     1      -4.759  35.202  21.137  1.00  0.00     0.004 C 
ENDBRANCH   7   8
ENDBRANCH   6   7
ENDBRANCH   1   6
TORSDOF 5
ENDMDL
MODEL 8
REMARK VINA RESULT:    -2.455      2.616      4.920
REMARK INTER + INTRA:          -3.339
REMARK INTER:                  -3.026
REMARK INTRA:                  -0.313
REMARK UNBOUND:                -0.166
REMARK SMILES CCCCCCC(=O)[O-]
REMARK SMILES IDX 5 1 6 2 7 3 8 4 9 5 4 6 3 7 2 8 1 9
REMARK H PARENT
REMARK Flexibility Score: inf
ROOT
ATOM      1  C   UNL     1      -3.214  36.492  19.787  1.00  0.00     0.006 C 
ENDROOT
BRANCH   1   2
ATOM      2  C   UNL     1      -3.769  37.231  18.562  1.00  0.00     0.053 C 
BRANCH   2   3
ATOM      3  C   UNL     1      -3.304  36.611  17.280  1.00  0.00     0.041 C 
ATOM      4  O   UNL     1      -2.557  37.255  16.497  1.00  0.00    -0.550 OA
ATOM      5  O   UNL     1      -3.673  35.309  16.963  1.00  0.00    -0.550 OA
ENDBRANCH   2   3
ENDBRANCH   1   2
BRANCH   1   6
ATOM      6  C   UNL     1      -4.283  35.631  20.480  1.00  0.00     0.000 C 
BRANCH   6   7
ATOM      7  C   UNL     1      -5.635  36.353  20.623  1.00  0.00    -0.000 C 
BRANCH   7   8
ATOM      8  C   UNL     1      -5.737  37.306  21.827  1.00  0.00    -0.003 C 
ATOM      9  C   UNL     1      -5.737  38.781  21.424  1.00  0.00     0.004 C 
ENDBRANCH   7   8
ENDBRANCH   6   7
ENDBRANCH   1   6
TORSDOF 5
ENDMDL
