MODEL 1
REMARK VINA RESULT:    -2.448      0.000      0.000
REMARK INTER + INTRA:          -5.603
REMARK INTER:                  -4.738
REMARK INTRA:                  -0.865
REMARK UNBOUND:                -0.865
REMARK SMILES CCCCCCCCCCCCCCCCCC(=O)[O-]
REMARK SMILES IDX 10 1 11 2 12 3 13 4 14 5 15 6 16 7 17 8 18 9 19 10 20 11
REMARK SMILES IDX 9 12 8 13 7 14 6 15 5 16 4 17 3 18 2 19 1 20
REMARK H PARENT
REMARK Flexibility Score: inf
ROOT
ATOM      1  C   UNL     1       5.394 -35.838  21.806  1.00  0.00     0.000 C 
ENDROOT
BRANCH   1   2
ATOM      2  C   UNL     1       6.097 -34.581  22.350  1.00  0.00     0.000 C 
BRANCH   2   3
ATOM      3  C   UNL     1       5.600 -34.153  23.748  1.00  0.00     0.000 C 
BRANCH   3   4
ATOM      4  C   UNL     1       6.059 -35.121  24.852  1.00  0.00     0.000 C 
BRANCH   4   5
ATOM      5  C   UNL     1       4.872 -35.839  25.529  1.00  0.00     0.000 C 
BRANCH   5   6
ATOM      6  C   UNL     1       5.067 -37.358  25.670  1.00  0.00     0.000 C 
BRANCH   6   7
ATOM      7  C   UNL     1       5.711 -37.996  24.428  1.00  0.00     0.006 C 
BRANCH   7   8
ATOM      8  C   UNL     1       5.196 -39.418  24.174  1.00  0.00     0.053 C 
BRANCH   8   9
ATOM      9  C   UNL     1       5.683 -39.963  22.866  1.00  0.00     0.041 C 
ATOM     10  O   UNL     1       5.880 -41.199  22.729  1.00  0.00    -0.550 OA
ATOM     11  O   UNL     1       5.945 -39.103  21.806  1.00  0.00    -0.550 OA
ENDBRANCH   8   9
ENDBRANCH   7   8
ENDBRANCH   6   7
ENDBRANCH   5   6
ENDBRANCH   4   5
ENDBRANCH   3   4
ENDBRANCH   2   3
ENDBRANCH   1   2
BRANCH   1  12
ATOM     12  C   UNL     1       5.603 -36.031  20.296  1.00  0.00     0.000 C 
BRANCH  12  13
ATOM     13  C   UNL     1       5.358 -34.742  19.496  1.00  0.00    -0.000 C 
BRANCH  13  14
ATOM     14  C   UNL     1       4.419 -34.958  18.300  1.00  0.00    -0.000 C 
BRANCH  14  15
ATOM     15  C   UNL     1       3.689 -36.305  18.412  1.00  0.00    -0.000 C 
BRANCH  15  16
ATOM     16  C   UNL     1       3.184 -36.819  17.055  1.00  0.00    -0.000 C 
BRANCH  16  17
ATOM     17  C   UNL     1       2.235 -35.824  16.364  1.00  0.00    -0.000 C 
BRANCH  17  18
ATOM     18  C   UNL     1       2.497 -35.713  14.853  1.00  0.00    -0.000 C 
BRANCH  18  19
ATOM     19  C   UNL     1       3.983 -35.876  14.499  1.00  0.00    -0.003 C 
ATOM     20  C   UNL     1       4.309 -37.327  14.154  1.00  0.00     0.004 C 
ENDBRANCH  18  19
ENDBRANCH  17  18
ENDBRANCH  16  17
ENDBRANCH  15  16
ENDBRANCH  14  15
ENDBRANCH  13  14
ENDBRANCH  12  13
ENDBRANCH   1  12
TORSDOF 16
ENDMDL
MODEL 2
REMARK VINA RESULT:    -2.036      2.927      7.623
REMARK INTER + INTRA:          -4.806
REMARK INTER:                  -3.539
REMARK INTRA:                  -1.267
REMARK UNBOUND:                -0.865
REMARK SMILES CCCCCCCCCCCCCCCCCC(=O)[O-]
REMARK SMILES IDX 10 1 11 2 12 3 13 4 14 5 15 6 16 7 17 8 18 9 19 10 20 11
REMARK SMILES IDX 9 12 8 13 7 14 6 15 5 16 4 17 3 18 2 19 1 20
REMARK H PARENT
REMARK Flexibility Score: inf
ROOT
ATOM      1  C   UNL     1       4.748 -34.339  22.182  1.00  0.00     0.000 C 
ENDROOT
BRANCH   1   2
ATOM      2  C   UNL     1       5.682 -34.111  20.981  1.00  0.00     0.000 C 
BRANCH   2   3
ATOM      3  C   UNL     1       5.386 -35.041  19.785  1.00  0.00     0.000 C 
BRANCH   3   4
ATOM      4  C   UNL     1       5.185 -36.504  20.217  1.00  0.00     0.000 C 
BRANCH   4   5
ATOM      5  C   UNL     1       3.988 -37.165  19.502  1.00  0.00     0.000 C 
BRANCH   5   6
ATOM      6  C   UNL     1       4.084 -37.122  17.968  1.00  0.00     0.000 C 
BRANCH   6   7
ATOM      7  C   UNL     1       2.955 -36.302  17.321  1.00  0.00     0.006 C 
BRANCH   7   8
ATOM      8  C   UNL     1       3.461 -35.430  16.166  1.00  0.00     0.053 C 
BRANCH   8   9
ATOM      9  C   UNL     1       3.319 -36.119  14.843  1.00  0.00     0.041 C 
ATOM     10  O   UNL     1       4.099 -37.057  14.530  1.00  0.00    -0.550 OA
ATOM     11  O   UNL     1       2.341 -35.708  13.944  1.00  0.00    -0.550 OA
ENDBRANCH   8   9
ENDBRANCH   7   8
ENDBRANCH   6   7
ENDBRANCH   5   6
ENDBRANCH   4   5
ENDBRANCH   3   4
ENDBRANCH   2   3
ENDBRANCH   1   2
BRANCH   1  12
ATOM     12  C   UNL     1       5.472 -34.216  23.533  1.00  0.00     0.000 C 
BRANCH  12  13
ATOM     13  C   UNL     1       6.107 -35.540  23.984  1.00  0.00    -0.000 C 
BRANCH  13  14
ATOM     14  C   UNL     1       5.558 -36.029  25.333  1.00  0.00    -0.000 C 
BRANCH  14  15
ATOM     15  C   UNL     1       5.316 -37.546  25.310  1.00  0.00    -0.000 C 
BRANCH  15  16
ATOM     16  C   UNL     1       5.415 -38.139  23.896  1.00  0.00    -0.000 C 
BRANCH  16  17
ATOM     17  C   UNL     1       5.055 -39.634  23.857  1.00  0.00    -0.000 C 
BRANCH  17  18
ATOM     18  C   UNL     1       5.808 -40.393  22.752  1.00  0.00    -0.000 C 
BRANCH  18  19
ATOM     19  C   UNL     1       6.020 -41.875  23.095  1.00  0.00    -0.003 C 
ATOM     20  C   UNL     1       5.833 -42.125  24.588  1.00  0.00     0.004 C 
ENDBRANCH  18  19
ENDBRANCH  17  18
ENDBRANCH  16  17
ENDBRANCH  15  16
ENDBRANCH  14  15
ENDBRANCH  13  14
ENDBRANCH  12  13
ENDBRANCH   1  12
TORSDOF 16
ENDMDL
MODEL 3
REMARK VINA RESULT:    -1.528      2.271      3.570
REMARK INTER + INTRA:          -3.822
REMARK INTER:                  -2.761
REMARK INTRA:                  -1.061
REMARK UNBOUND:                -0.865
REMARK SMILES CCCCCCCCCCCCCCCCCC(=O)[O-]
REMARK SMILES IDX 10 1 11 2 12 3 13 4 14 5 15 6 16 7 17 8 18 9 19 10 20 11
REMARK SMILES IDX 9 12 8 13 7 14 6 15 5 16 4 17 3 18 2 19 1 20
REMARK H PARENT
REMARK Flexibility Score: inf
ROOT
ATOM      1  C   UNL     1       6.047 -38.267  21.648  1.00  0.00     0.000 C 
ENDROOT
BRANCH   1   2
ATOM      2  C   UNL     1       5.129 -39.448  22.009  1.00  0.00     0.000 C 
BRANCH   2   3
ATOM      3  C   UNL     1       5.756 -40.430  23.023  1.00  0.00     0.000 C 
BRANCH   3   4
ATOM      4  C   UNL     1       5.333 -40.123  24.470  1.00  0.00     0.000 C 
BRANCH   4   5
ATOM      5  C   UNL     1       4.989 -38.632  24.674  1.00  0.00     0.000 C 
BRANCH   5   6
ATOM      6  C   UNL     1       5.628 -38.016  25.929  1.00  0.00     0.000 C 
BRANCH   6   7
ATOM      7  C   UNL     1       5.981 -36.530  25.751  1.00  0.00     0.006 C 
BRANCH   7   8
ATOM      8  C   UNL     1       5.668 -36.026  24.337  1.00  0.00     0.053 C 
BRANCH   8   9
ATOM      9  C   UNL     1       5.693 -34.529  24.259  1.00  0.00     0.041 C 
ATOM     10  O   UNL     1       6.125 -33.852  25.229  1.00  0.00    -0.550 OA
ATOM     11  O   UNL     1       5.215 -33.882  23.125  1.00  0.00    -0.550 OA
ENDBRANCH   8   9
ENDBRANCH   7   8
ENDBRANCH   6   7
ENDBRANCH   5   6
ENDBRANCH   4   5
ENDBRANCH   3   4
ENDBRANCH   2   3
ENDBRANCH   1   2
BRANCH   1  12
ATOM     12  C   UNL     1       5.708 -37.644  20.284  1.00  0.00     0.000 C 
BRANCH  12  13
ATOM     13  C   UNL     1       5.484 -36.126  20.368  1.00  0.00    -0.000 C 
BRANCH  13  14
ATOM     14  C   UNL     1       4.272 -35.662  19.547  1.00  0.00    -0.000 C 
BRANCH  14  15
ATOM     15  C   UNL     1       3.957 -36.660  18.422  1.00  0.00    -0.000 C 
BRANCH  15  16
ATOM     16  C   UNL     1       2.466 -36.677  18.048  1.00  0.00    -0.000 C 
BRANCH  16  17
ATOM     17  C   UNL     1       2.239 -36.635  16.526  1.00  0.00    -0.000 C 
BRANCH  17  18
ATOM     18  C   UNL     1       3.012 -35.493  15.847  1.00  0.00    -0.000 C 
BRANCH  18  19
ATOM     19  C   UNL     1       3.273 -35.762  14.358  1.00  0.00    -0.003 C 
ATOM     20  C   UNL     1       4.297 -36.878  14.173  1.00  0.00     0.004 C 
ENDBRANCH  18  19
ENDBRANCH  17  18
ENDBRANCH  16  17
ENDBRANCH  15  16
ENDBRANCH  14  15
ENDBRANCH  13  14
ENDBRANCH  12  13
ENDBRANCH   1  12
TORSDOF 16
ENDMDL
MODEL 4
REMARK VINA RESULT:    -1.427      1.972      2.952
REMARK INTER + INTRA:          -3.626
REMARK INTER:                  -2.326
REMARK INTRA:                  -1.300
REMARK UNBOUND:                -0.865
REMARK SMILES CCCCCCCCCCCCCCCCCC(=O)[O-]
REMARK SMILES IDX 10 1 11 2 12 3 13 4 14 5 15 6 16 7 17 8 18 9 19 10 20 11
REMARK SMILES IDX 9 12 8 13 7 14 6 15 5 16 4 17 3 18 2 19 1 20
REMARK H PARENT
REMARK Flexibility Score: inf
ROOT
ATOM      1  C   UNL     1       5.834 -34.737  21.338  1.00  0.00     0.000 C 
ENDROOT
BRANCH   1   2
ATOM      2  C   UNL     1       5.379 -36.147  21.753  1.00  0.00     0.000 C 
BRANCH   2   3
ATOM      3  C   UNL     1       5.799 -37.249  20.756  1.00  0.00     0.000 C 
BRANCH   3   4
ATOM      4  C   UNL     1       5.180 -38.616  21.102  1.00  0.00     0.000 C 
BRANCH   4   5
ATOM      5  C   UNL     1       6.110 -39.468  21.991  1.00  0.00     0.000 C 
BRANCH   5   6
ATOM      6  C   UNL     1       5.408 -40.074  23.218  1.00  0.00     0.000 C 
BRANCH   6   7
ATOM      7  C   UNL     1       4.796 -39.008  24.143  1.00  0.00     0.006 C 
BRANCH   7   8
ATOM      8  C   UNL     1       5.818 -37.937  24.547  1.00  0.00     0.053 C 
BRANCH   8   9
ATOM      9  C   UNL     1       5.426 -37.242  25.815  1.00  0.00     0.041 C 
ATOM     10  O   UNL     1       5.773 -37.714  26.930  1.00  0.00    -0.550 OA
ATOM     11  O   UNL     1       4.654 -36.087  25.767  1.00  0.00    -0.550 OA
ENDBRANCH   8   9
ENDBRANCH   7   8
ENDBRANCH   6   7
ENDBRANCH   5   6
ENDBRANCH   4   5
ENDBRANCH   3   4
ENDBRANCH   2   3
ENDBRANCH   1   2
BRANCH   1  12
ATOM     12  C   UNL     1       6.094 -34.616  19.827  1.00  0.00     0.000 C 
BRANCH  12  13
ATOM     13  C   UNL     1       4.799 -34.455  19.016  1.00  0.00    -0.000 C 
BRANCH  13  14
ATOM     14  C   UNL     1       4.649 -35.525  17.925  1.00  0.00    -0.000 C 
BRANCH  14  15
ATOM     15  C   UNL     1       3.439 -36.429  18.205  1.00  0.00    -0.000 C 
BRANCH  15  16
ATOM     16  C   UNL     1       2.507 -36.562  16.990  1.00  0.00    -0.000 C 
BRANCH  16  17
ATOM     17  C   UNL     1       2.754 -35.471  15.934  1.00  0.00    -0.000 C 
BRANCH  17  18
ATOM     18  C   UNL     1       2.791 -36.032  14.503  1.00  0.00    -0.000 C 
BRANCH  18  19
ATOM     19  C   UNL     1       4.219 -36.331  14.025  1.00  0.00    -0.003 C 
ATOM     20  C   UNL     1       4.534 -37.821  14.133  1.00  0.00     0.004 C 
ENDBRANCH  18  19
ENDBRANCH  17  18
ENDBRANCH  16  17
ENDBRANCH  15  16
ENDBRANCH  14  15
ENDBRANCH  13  14
ENDBRANCH  12  13
ENDBRANCH   1  12
TORSDOF 16
ENDMDL
MODEL 5
REMARK VINA RESULT:    -1.402      2.838      7.904
REMARK INTER + INTRA:          -3.579
REMARK INTER:                  -2.590
REMARK INTRA:                  -0.989
REMARK UNBOUND:                -0.865
REMARK SMILES CCCCCCCCCCCCCCCCCC(=O)[O-]
REMARK SMILES IDX 10 1 11 2 12 3 13 4 14 5 15 6 16 7 17 8 18 9 19 10 20 11
REMARK SMILES IDX 9 12 8 13 7 14 6 15 5 16 4 17 3 18 2 19 1 20
REMARK H PARENT
REMARK Flexibility Score: inf
ROOT
ATOM      1  C   UNL     1       5.132 -37.791  21.107  1.00  0.00     0.000 C 
ENDROOT
BRANCH   1   2
ATOM      2  C   UNL     1       5.712 -36.775  20.108  1.00  0.00     0.000 C 
BRANCH   2   3
ATOM      3  C   UNL     1       4.799 -35.552  19.873  1.00  0.00     0.000 C 
BRANCH   3   4
ATOM      4  C   UNL     1       5.513 -34.430  19.099  1.00  0.00     0.000 C 
BRANCH   4   5
ATOM      5  C   UNL     1       4.854 -34.153  17.732  1.00  0.00     0.000 C 
BRANCH   5   6
ATOM      6  C   UNL     1       4.193 -35.390  17.102  1.00  0.00     0.000 C 
BRANCH   6   7
ATOM      7  C   UNL     1       3.057 -35.031  16.130  1.00  0.00     0.006 C 
BRANCH   7   8
ATOM      8  C   UNL     1       2.744 -36.174  15.157  1.00  0.00     0.053 C 
BRANCH   8   9
ATOM      9  C   UNL     1       3.978 -36.677  14.471  1.00  0.00     0.041 C 
ATOM     10  O   UNL     1       4.746 -35.873  13.879  1.00  0.00    -0.550 OA
ATOM     11  O   UNL     1       4.266 -38.037  14.463  1.00  0.00    -0.550 OA
ENDBRANCH   8   9
ENDBRANCH   7   8
ENDBRANCH   6   7
ENDBRANCH   5   6
ENDBRANCH   4   5
ENDBRANCH   3   4
ENDBRANCH   2   3
ENDBRANCH   1   2
BRANCH   1  12
ATOM     12  C   UNL     1       6.056 -39.000  21.331  1.00  0.00     0.000 C 
BRANCH  12  13
ATOM     13  C   UNL     1       5.860 -39.645  22.712  1.00  0.00    -0.000 C 
BRANCH  13  14
ATOM     14  C   UNL     1       4.914 -38.836  23.612  1.00  0.00    -0.000 C 
BRANCH  14  15
ATOM     15  C   UNL     1       5.369 -38.894  25.078  1.00  0.00    -0.000 C 
BRANCH  15  16
ATOM     16  C   UNL     1       5.058 -37.599  25.845  1.00  0.00    -0.000 C 
BRANCH  16  17
ATOM     17  C   UNL     1       6.076 -36.482  25.554  1.00  0.00    -0.000 C 
BRANCH  17  18
ATOM     18  C   UNL     1       5.903 -35.879  24.151  1.00  0.00    -0.000 C 
BRANCH  18  19
ATOM     19  C   UNL     1       5.690 -34.358  24.187  1.00  0.00    -0.003 C 
ATOM     20  C   UNL     1       5.015 -33.868  22.909  1.00  0.00     0.004 C 
ENDBRANCH  18  19
ENDBRANCH  17  18
ENDBRANCH  16  17
ENDBRANCH  15  16
ENDBRANCH  14  15
ENDBRANCH  13  14
ENDBRANCH  12  13
ENDBRANCH   1  12
TORSDOF 16
ENDMDL
MODEL 6
REMARK VINA RESULT:    -1.345      1.103      2.110
REMARK INTER + INTRA:          -3.469
REMARK INTER:                  -2.090
REMARK INTRA:                  -1.379
REMARK UNBOUND:                -0.865
REMARK SMILES CCCCCCCCCCCCCCCCCC(=O)[O-]
REMARK SMILES IDX 10 1 11 2 12 3 13 4 14 5 15 6 16 7 17 8 18 9 19 10 20 11
REMARK SMILES IDX 9 12 8 13 7 14 6 15 5 16 4 17 3 18 2 19 1 20
REMARK H PARENT
REMARK Flexibility Score: inf
ROOT
ATOM      1  C   UNL     1       5.381 -35.942  21.137  1.00  0.00     0.000 C 
ENDROOT
BRANCH   1   2
ATOM      2  C   UNL     1       6.115 -34.863  21.951  1.00  0.00     0.000 C 
BRANCH   2   3
ATOM      3  C   UNL     1       5.420 -34.519  23.287  1.00  0.00     0.000 C 
BRANCH   3   4
ATOM      4  C   UNL     1       6.125 -35.160  24.495  1.00  0.00     0.000 C 
BRANCH   4   5
ATOM      5  C   UNL     1       5.131 -35.858  25.447  1.00  0.00     0.000 C 
BRANCH   5   6
ATOM      6  C   UNL     1       5.238 -37.392  25.436  1.00  0.00     0.000 C 
BRANCH   6   7
ATOM      7  C   UNL     1       5.429 -37.968  24.023  1.00  0.00     0.006 C 
BRANCH   7   8
ATOM      8  C   UNL     1       5.380 -39.501  24.011  1.00  0.00     0.053 C 
BRANCH   8   9
ATOM      9  C   UNL     1       5.823 -40.063  22.694  1.00  0.00     0.041 C 
ATOM     10  O   UNL     1       6.119 -41.283  22.594  1.00  0.00    -0.550 OA
ATOM     11  O   UNL     1       5.934 -39.234  21.584  1.00  0.00    -0.550 OA
ENDBRANCH   8   9
ENDBRANCH   7   8
ENDBRANCH   6   7
ENDBRANCH   5   6
ENDBRANCH   4   5
ENDBRANCH   3   4
ENDBRANCH   2   3
ENDBRANCH   1   2
BRANCH   1  12
ATOM     12  C   UNL     1       5.324 -35.619  19.635  1.00  0.00     0.000 C 
BRANCH  12  13
ATOM     13  C   UNL     1       4.970 -34.150  19.360  1.00  0.00    -0.000 C 
BRANCH  13  14
ATOM     14  C   UNL     1       4.860 -33.839  17.860  1.00  0.00    -0.000 C 
BRANCH  14  15
ATOM     15  C   UNL     1       4.633 -35.123  17.049  1.00  0.00    -0.000 C 
BRANCH  15  16
ATOM     16  C   UNL     1       3.447 -35.008  16.078  1.00  0.00    -0.000 C 
BRANCH  16  17
ATOM     17  C   UNL     1       2.347 -36.045  16.364  1.00  0.00    -0.000 C 
BRANCH  17  18
ATOM     18  C   UNL     1       2.508 -36.710  17.741  1.00  0.00    -0.000 C 
BRANCH  18  19
ATOM     19  C   UNL     1       1.161 -37.086  18.374  1.00  0.00    -0.003 C 
ATOM     20  C   UNL     1       1.290 -37.247  19.887  1.00  0.00     0.004 C 
ENDBRANCH  18  19
ENDBRANCH  17  18
ENDBRANCH  16  17
ENDBRANCH  15  16
ENDBRANCH  14  15
ENDBRANCH  13  14
ENDBRANCH  12  13
ENDBRANCH   1  12
TORSDOF 16
ENDMDL
MODEL 7
REMARK VINA RESULT:    -0.940      2.136      7.339
REMARK INTER + INTRA:          -2.685
REMARK INTER:                  -1.959
REMARK INTRA:                  -0.727
REMARK UNBOUND:                -0.865
REMARK SMILES CCCCCCCCCCCCCCCCCC(=O)[O-]
REMARK SMILES IDX 10 1 11 2 12 3 13 4 14 5 15 6 16 7 17 8 18 9 19 10 20 11
REMARK SMILES IDX 9 12 8 13 7 14 6 15 5 16 4 17 3 18 2 19 1 20
REMARK H PARENT
REMARK Flexibility Score: inf
ROOT
ATOM      1  C   UNL     1       5.022 -35.461  20.702  1.00  0.00     0.000 C 
ENDROOT
BRANCH   1   2
ATOM      2  C   UNL     1       6.062 -34.505  20.093  1.00  0.00     0.000 C 
BRANCH   2   3
ATOM      3  C   UNL     1       5.630 -33.907  18.737  1.00  0.00     0.000 C 
BRANCH   3   4
ATOM      4  C   UNL     1       5.037 -34.967  17.793  1.00  0.00     0.000 C 
BRANCH   4   5
ATOM      5  C   UNL     1       3.927 -34.388  16.890  1.00  0.00     0.000 C 
BRANCH   5   6
ATOM      6  C   UNL     1       3.382 -35.391  15.860  1.00  0.00     0.000 C 
BRANCH   6   7
ATOM      7  C   UNL     1       2.403 -36.406  16.474  1.00  0.00     0.006 C 
BRANCH   7   8
ATOM      8  C   UNL     1       2.892 -36.935  17.828  1.00  0.00     0.053 C 
BRANCH   8   9
ATOM      9  C   UNL     1       1.769 -37.082  18.809  1.00  0.00     0.041 C 
ATOM     10  O   UNL     1       1.997 -37.018  20.046  1.00  0.00    -0.550 OA
ATOM     11  O   UNL     1       0.475 -37.314  18.358  1.00  0.00    -0.550 OA
ENDBRANCH   8   9
ENDBRANCH   7   8
ENDBRANCH   6   7
ENDBRANCH   5   6
ENDBRANCH   4   5
ENDBRANCH   3   4
ENDBRANCH   2   3
ENDBRANCH   1   2
BRANCH   1  12
ATOM     12  C   UNL     1       5.403 -36.941  20.536  1.00  0.00     0.000 C 
BRANCH  12  13
ATOM     13  C   UNL     1       6.022 -37.538  21.809  1.00  0.00    -0.000 C 
BRANCH  13  14
ATOM     14  C   UNL     1       5.987 -39.073  21.819  1.00  0.00    -0.000 C 
BRANCH  14  15
ATOM     15  C   UNL     1       5.415 -39.600  23.144  1.00  0.00    -0.000 C 
BRANCH  15  16
ATOM     16  C   UNL     1       4.653 -38.522  23.929  1.00  0.00    -0.000 C 
BRANCH  16  17
ATOM     17  C   UNL     1       5.404 -38.071  25.194  1.00  0.00    -0.000 C 
BRANCH  17  18
ATOM     18  C   UNL     1       5.216 -36.574  25.489  1.00  0.00    -0.000 C 
BRANCH  18  19
ATOM     19  C   UNL     1       6.125 -35.685  24.628  1.00  0.00    -0.003 C 
ATOM     20  C   UNL     1       5.323 -34.585  23.938  1.00  0.00     0.004 C 
ENDBRANCH  18  19
ENDBRANCH  17  18
ENDBRANCH  16  17
ENDBRANCH  15  16
ENDBRANCH  14  15
ENDBRANCH  13  14
ENDBRANCH  12  13
ENDBRANCH   1  12
TORSDOF 16
ENDMDL
MODEL 8
REMARK VINA RESULT:    -0.008      2.145      3.606
REMARK INTER + INTRA:          -0.880
REMARK INTER:                   0.049
REMARK INTRA:                  -0.930
REMARK UNBOUND:                -0.865
REMARK SMILES CCCCCCCCCCCCCCCCCC(=O)[O-]
REMARK SMILES IDX 10 1 11 2 12 3 13 4 14 5 15 6 16 7 17 8 18 9 19 10 20 11
REMARK SMILES IDX 9 12 8 13 7 14 6 15 5 16 4 17 3 18 2 19 1 20
REMARK H PARENT
REMARK Flexibility Score: inf
ROOT
ATOM      1  C   UNL     1       5.693 -39.816  22.022  1.00  0.00     0.000 C 
ENDROOT
BRANCH   1   2
ATOM      2  C   UNL     1       5.462 -39.907  23.541  1.00  0.00     0.000 C 
BRANCH   2   3
ATOM      3  C   UNL     1       4.802 -38.647  24.141  1.00  0.00     0.000 C 
BRANCH   3   4
ATOM      4  C   UNL     1       5.400 -38.269  25.508  1.00  0.00     0.000 C 
BRANCH   4   5
ATOM      5  C   UNL     1       4.970 -36.858  25.962  1.00  0.00     0.000 C 
BRANCH   5   6
ATOM      6  C   UNL     1       5.901 -35.739  25.468  1.00  0.00     0.000 C 
BRANCH   6   7
ATOM      7  C   UNL     1       5.920 -35.611  23.935  1.00  0.00     0.006 C 
BRANCH   7   8
ATOM      8  C   UNL     1       5.375 -34.259  23.460  1.00  0.00     0.053 C 
BRANCH   8   9
ATOM      9  C   UNL     1       5.084 -34.260  21.990  1.00  0.00     0.041 C 
ATOM     10  O   UNL     1       3.895 -34.203  21.580  1.00  0.00    -0.550 OA
ATOM     11  O   UNL     1       6.125 -34.350  21.073  1.00  0.00    -0.550 OA
ENDBRANCH   8   9
ENDBRANCH   7   8
ENDBRANCH   6   7
ENDBRANCH   5   6
ENDBRANCH   4   5
ENDBRANCH   3   4
ENDBRANCH   2   3
ENDBRANCH   1   2
BRANCH   1  12
ATOM     12  C   UNL     1       6.058 -38.396  21.560  1.00  0.00     0.000 C 
BRANCH  12  13
ATOM     13  C   UNL     1       4.925 -37.723  20.771  1.00  0.00    -0.000 C 
BRANCH  13  14
ATOM     14  C   UNL     1       5.422 -37.041  19.488  1.00  0.00    -0.000 C 
BRANCH  14  15
ATOM     15  C   UNL     1       4.345 -36.113  18.906  1.00  0.00    -0.000 C 
BRANCH  15  16
ATOM     16  C   UNL     1       3.059 -36.865  18.526  1.00  0.00    -0.000 C 
BRANCH  16  17
ATOM     17  C   UNL     1       2.803 -36.866  17.009  1.00  0.00    -0.000 C 
BRANCH  17  18
ATOM     18  C   UNL     1       3.335 -35.598  16.321  1.00  0.00    -0.000 C 
BRANCH  18  19
ATOM     19  C   UNL     1       3.241 -35.676  14.790  1.00  0.00    -0.003 C 
ATOM     20  C   UNL     1       3.952 -36.918  14.259  1.00  0.00     0.004 C 
ENDBRANCH  18  19
ENDBRANCH  17  18
ENDBRANCH  16  17
ENDBRANCH  15  16
ENDBRANCH  14  15
ENDBRANCH  13  14
ENDBRANCH  12  13
ENDBRANCH   1  12
TORSDOF 16
ENDMDL
