MODEL 1
REMARK VINA RESULT:    -3.597      0.000      0.000
REMARK INTER + INTRA:          -4.549
REMARK INTER:                  -4.438
REMARK INTRA:                  -0.111
REMARK UNBOUND:                -0.111
REMARK SMILES CCCCCC(=O)[O-]
REMARK SMILES IDX 4 1 5 2 6 3 7 4 8 5 3 6 2 7 1 8
REMARK H PARENT
REMARK Flexibility Score: inf
ROOT
ATOM      1  C   UNL     1      19.786  19.101  46.179  1.00  0.00     0.006 C 
ENDROOT
BRANCH   1   2
ATOM      2  C   UNL     1      19.556  20.470  45.524  1.00  0.00     0.053 C 
BRANCH   2   3
ATOM      3  C   UNL     1      18.508  21.262  46.243  1.00  0.00     0.041 C 
ATOM      4  O   UNL     1      17.923  22.214  45.662  1.00  0.00    -0.550 OA
ATOM      5  O   UNL     1      18.200  20.971  47.567  1.00  0.00    -0.550 OA
ENDBRANCH   2   3
ENDBRANCH   1   2
BRANCH   1   6
ATOM      6  C   UNL     1      21.107  19.046  46.961  1.00  0.00     0.000 C 
BRANCH   6   7
ATOM      7  C   UNL     1      21.292  17.678  47.628  1.00  0.00    -0.003 C 
ATOM      8  C   UNL     1      20.262  16.673  47.123  1.00  0.00     0.004 C 
ENDBRANCH   6   7
ENDBRANCH   1   6
TORSDOF 4
ENDMDL
MODEL 2
REMARK VINA RESULT:    -3.575      1.314      1.701
REMARK INTER + INTRA:          -4.522
REMARK INTER:                  -4.356
REMARK INTRA:                  -0.166
REMARK UNBOUND:                -0.111
REMARK SMILES CCCCCC(=O)[O-]
REMARK SMILES IDX 4 1 5 2 6 3 7 4 8 5 3 6 2 7 1 8
REMARK H PARENT
REMARK Flexibility Score: inf
ROOT
ATOM      1  C   UNL     1      20.629  19.007  47.056  1.00  0.00     0.006 C 
ENDROOT
BRANCH   1   2
ATOM      2  C   UNL     1      19.932  20.071  47.916  1.00  0.00     0.053 C 
BRANCH   2   3
ATOM      3  C   UNL     1      18.538  20.343  47.441  1.00  0.00     0.041 C 
ATOM      4  O   UNL     1      17.867  19.431  46.889  1.00  0.00    -0.550 OA
ATOM      5  O   UNL     1      17.990  21.613  47.578  1.00  0.00    -0.550 OA
ENDBRANCH   2   3
ENDBRANCH   1   2
BRANCH   1   6
ATOM      6  C   UNL     1      21.464  18.033  47.901  1.00  0.00     0.000 C 
BRANCH   6   7
ATOM      7  C   UNL     1      21.123  16.578  47.559  1.00  0.00    -0.003 C 
ATOM      8  C   UNL     1      19.794  16.483  46.814  1.00  0.00     0.004 C 
ENDBRANCH   6   7
ENDBRANCH   1   6
TORSDOF 4
ENDMDL
MODEL 3
REMARK VINA RESULT:    -3.562      1.171      1.569
REMARK INTER + INTRA:          -4.506
REMARK INTER:                  -4.397
REMARK INTRA:                  -0.109
REMARK UNBOUND:                -0.111
REMARK SMILES CCCCCC(=O)[O-]
REMARK SMILES IDX 4 1 5 2 6 3 7 4 8 5 3 6 2 7 1 8
REMARK H PARENT
REMARK Flexibility Score: inf
ROOT
ATOM      1  C   UNL     1      20.933  19.106  46.849  1.00  0.00     0.006 C 
ENDROOT
BRANCH   1   2
ATOM      2  C   UNL     1      20.147  20.315  47.376  1.00  0.00     0.053 C 
BRANCH   2   3
ATOM      3  C   UNL     1      19.191  20.846  46.353  1.00  0.00     0.041 C 
ATOM      4  O   UNL     1      18.127  21.416  46.716  1.00  0.00    -0.550 OA
ATOM      5  O   UNL     1      19.457  20.684  44.999  1.00  0.00    -0.550 OA
ENDBRANCH   2   3
ENDBRANCH   1   2
BRANCH   1   6
ATOM      6  C   UNL     1      21.317  18.129  47.970  1.00  0.00     0.000 C 
BRANCH   6   7
ATOM      7  C   UNL     1      20.999  16.684  47.571  1.00  0.00    -0.003 C 
ATOM      8  C   UNL     1      19.682  16.599  46.806  1.00  0.00     0.004 C 
ENDBRANCH   6   7
ENDBRANCH   1   6
TORSDOF 4
ENDMDL
MODEL 4
REMARK VINA RESULT:    -3.512      2.469      2.990
REMARK INTER + INTRA:          -4.444
REMARK INTER:                  -4.290
REMARK INTRA:                  -0.154
REMARK UNBOUND:                -0.111
REMARK SMILES CCCCCC(=O)[O-]
REMARK SMILES IDX 4 1 5 2 6 3 7 4 8 5 3 6 2 7 1 8
REMARK H PARENT
REMARK Flexibility Score: inf
ROOT
ATOM      1  C   UNL     1      20.600  19.474  46.531  1.00  0.00     0.006 C 
ENDROOT
BRANCH   1   2
ATOM      2  C   UNL     1      19.639  20.329  45.694  1.00  0.00     0.053 C 
BRANCH   2   3
ATOM      3  C   UNL     1      18.894  19.506  44.689  1.00  0.00     0.041 C 
ATOM      4  O   UNL     1      18.888  19.841  43.474  1.00  0.00    -0.550 OA
ATOM      5  O   UNL     1      18.180  18.386  45.096  1.00  0.00    -0.550 OA
ENDBRANCH   2   3
ENDBRANCH   1   2
BRANCH   1   6
ATOM      6  C   UNL     1      20.111  19.296  47.976  1.00  0.00     0.000 C 
BRANCH   6   7
ATOM      7  C   UNL     1      19.340  20.533  48.451  1.00  0.00    -0.003 C 
ATOM      8  C   UNL     1      19.797  20.968  49.841  1.00  0.00     0.004 C 
ENDBRANCH   6   7
ENDBRANCH   1   6
TORSDOF 4
ENDMDL
MODEL 5
REMARK VINA RESULT:    -3.488      1.345      1.805
REMARK INTER + INTRA:          -4.415
REMARK INTER:                  -4.262
REMARK INTRA:                  -0.152
REMARK UNBOUND:                -0.111
REMARK SMILES CCCCCC(=O)[O-]
REMARK SMILES IDX 4 1 5 2 6 3 7 4 8 5 3 6 2 7 1 8
REMARK H PARENT
REMARK Flexibility Score: inf
ROOT
ATOM      1  C   UNL     1      20.881  18.870  47.003  1.00  0.00     0.006 C 
ENDROOT
BRANCH   1   2
ATOM      2  C   UNL     1      20.270  20.264  46.804  1.00  0.00     0.053 C 
BRANCH   2   3
ATOM      3  C   UNL     1      19.223  20.564  47.832  1.00  0.00     0.041 C 
ATOM      4  O   UNL     1      18.071  20.931  47.475  1.00  0.00    -0.550 OA
ATOM      5  O   UNL     1      19.526  20.471  49.185  1.00  0.00    -0.550 OA
ENDBRANCH   2   3
ENDBRANCH   1   2
BRANCH   1   6
ATOM      6  C   UNL     1      19.834  17.753  46.875  1.00  0.00     0.000 C 
BRANCH   6   7
ATOM      7  C   UNL     1      20.441  16.390  47.226  1.00  0.00    -0.003 C 
ATOM      8  C   UNL     1      21.726  16.549  48.033  1.00  0.00     0.004 C 
ENDBRANCH   6   7
ENDBRANCH   1   6
TORSDOF 4
ENDMDL
MODEL 6
REMARK VINA RESULT:    -3.464      2.993      4.491
REMARK INTER + INTRA:          -4.385
REMARK INTER:                  -4.256
REMARK INTRA:                  -0.129
REMARK UNBOUND:                -0.111
REMARK SMILES CCCCCC(=O)[O-]
REMARK SMILES IDX 4 1 5 2 6 3 7 4 8 5 3 6 2 7 1 8
REMARK H PARENT
REMARK Flexibility Score: inf
ROOT
ATOM      1  C   UNL     1      21.009  19.116  46.844  1.00  0.00     0.006 C 
ENDROOT
BRANCH   1   2
ATOM      2  C   UNL     1      21.124  18.133  48.016  1.00  0.00     0.053 C 
BRANCH   2   3
ATOM      3  C   UNL     1      21.014  16.710  47.562  1.00  0.00     0.041 C 
ATOM      4  O   UNL     1      20.080  16.361  46.792  1.00  0.00    -0.550 OA
ATOM      5  O   UNL     1      21.923  15.761  48.014  1.00  0.00    -0.550 OA
ENDBRANCH   2   3
ENDBRANCH   1   2
BRANCH   1   6
ATOM      6  C   UNL     1      20.110  20.316  47.177  1.00  0.00     0.000 C 
BRANCH   6   7
ATOM      7  C   UNL     1      19.450  20.875  45.912  1.00  0.00    -0.003 C 
ATOM      8  C   UNL     1      19.313  19.800  44.838  1.00  0.00     0.004 C 
ENDBRANCH   6   7
ENDBRANCH   1   6
TORSDOF 4
ENDMDL
MODEL 7
REMARK VINA RESULT:    -3.457      1.250      1.602
REMARK INTER + INTRA:          -4.376
REMARK INTER:                  -4.319
REMARK INTRA:                  -0.057
REMARK UNBOUND:                -0.111
REMARK SMILES CCCCCC(=O)[O-]
REMARK SMILES IDX 4 1 5 2 6 3 7 4 8 5 3 6 2 7 1 8
REMARK H PARENT
REMARK Flexibility Score: inf
ROOT
ATOM      1  C   UNL     1      19.946  20.104  46.462  1.00  0.00     0.006 C 
ENDROOT
BRANCH   1   2
ATOM      2  C   UNL     1      19.463  19.886  45.022  1.00  0.00     0.053 C 
BRANCH   2   3
ATOM      3  C   UNL     1      18.668  21.052  44.519  1.00  0.00     0.041 C 
ATOM      4  O   UNL     1      18.674  21.342  43.293  1.00  0.00    -0.550 OA
ATOM      5  O   UNL     1      17.947  21.840  45.408  1.00  0.00    -0.550 OA
ENDBRANCH   2   3
ENDBRANCH   1   2
BRANCH   1   6
ATOM      6  C   UNL     1      21.086  19.149  46.843  1.00  0.00     0.000 C 
BRANCH   6   7
ATOM      7  C   UNL     1      20.538  17.781  47.266  1.00  0.00    -0.003 C 
ATOM      8  C   UNL     1      21.603  16.955  47.980  1.00  0.00     0.004 C 
ENDBRANCH   6   7
ENDBRANCH   1   6
TORSDOF 4
ENDMDL
MODEL 8
REMARK VINA RESULT:    -3.412      3.431      4.653
REMARK INTER + INTRA:          -4.321
REMARK INTER:                  -4.101
REMARK INTRA:                  -0.220
REMARK UNBOUND:                -0.111
REMARK SMILES CCCCCC(=O)[O-]
REMARK SMILES IDX 4 1 5 2 6 3 7 4 8 5 3 6 2 7 1 8
REMARK H PARENT
REMARK Flexibility Score: inf
ROOT
ATOM      1  C   UNL     1      19.879  17.845  46.964  1.00  0.00     0.006 C 
ENDROOT
BRANCH   1   2
ATOM      2  C   UNL     1      20.608  16.533  47.284  1.00  0.00     0.053 C 
BRANCH   2   3
ATOM      3  C   UNL     1      21.530  16.680  48.454  1.00  0.00     0.041 C 
ATOM      4  O   UNL     1      22.770  16.505  48.310  1.00  0.00    -0.550 OA
ATOM      5  O   UNL     1      21.019  16.976  49.712  1.00  0.00    -0.550 OA
ENDBRANCH   2   3
ENDBRANCH   1   2
BRANCH   1   6
ATOM      6  C   UNL     1      20.840  19.041  46.894  1.00  0.00     0.000 C 
BRANCH   6   7
ATOM      7  C   UNL     1      20.153  20.327  47.369  1.00  0.00    -0.003 C 
ATOM      8  C   UNL     1      19.869  20.280  48.868  1.00  0.00     0.004 C 
ENDBRANCH   6   7
ENDBRANCH   1   6
TORSDOF 4
ENDMDL
MODEL 9
REMARK VINA RESULT:    -3.394      2.592      3.854
REMARK INTER + INTRA:          -4.298
REMARK INTER:                  -4.044
REMARK INTRA:                  -0.255
REMARK UNBOUND:                -0.111
REMARK SMILES CCCCCC(=O)[O-]
REMARK SMILES IDX 4 1 5 2 6 3 7 4 8 5 3 6 2 7 1 8
REMARK H PARENT
REMARK Flexibility Score: inf
ROOT
ATOM      1  C   UNL     1      20.719  17.857  47.785  1.00  0.00     0.006 C 
ENDROOT
BRANCH   1   2
ATOM      2  C   UNL     1      20.147  16.649  47.030  1.00  0.00     0.053 C 
BRANCH   2   3
ATOM      3  C   UNL     1      18.693  16.825  46.721  1.00  0.00     0.041 C 
ATOM      4  O   UNL     1      17.893  17.190  47.623  1.00  0.00    -0.550 OA
ATOM      5  O   UNL     1      18.213  16.554  45.445  1.00  0.00    -0.550 OA
ENDBRANCH   2   3
ENDBRANCH   1   2
BRANCH   1   6
ATOM      6  C   UNL     1      20.988  19.049  46.855  1.00  0.00     0.000 C 
BRANCH   6   7
ATOM      7  C   UNL     1      20.121  20.253  47.242  1.00  0.00    -0.003 C 
ATOM      8  C   UNL     1      19.752  20.215  48.722  1.00  0.00     0.004 C 
ENDBRANCH   6   7
ENDBRANCH   1   6
TORSDOF 4
ENDMDL
