MODEL 1
REMARK VINA RESULT:    -8.875      0.000      0.000
REMARK INTER + INTRA:         -13.734
REMARK INTER:                 -12.506
REMARK INTRA:                  -1.228
REMARK UNBOUND:                -1.228
REMARK SMILES COc1c(O[C@H]2O[C@@H](C(=O)[O-])[C@H](O)[C@H](O)[C@@H]2O)cc(O)c2c(=O)cc(-c3ccccc3)oc12
REMARK SMILES IDX 5 1 6 2 8 3 12 4 7 5 14 6 16 7 9 8 10 9 11 10 13 11 15 13
REMARK SMILES IDX 17 15 4 17 3 18 18 19 33 20 19 21 21 22 32 23 22 24 25 25
REMARK SMILES IDX 24 26 23 27 2 28 1 29 20 30 26 32 27 33 31 34 28 35 30 36
REMARK SMILES IDX 29 37
REMARK H PARENT 13 12 15 14 17 16 20 31
REMARK Flexibility Score: inf
ROOT
ATOM      1  O   UNL     1      24.770  59.856  29.028  1.00  0.00    -0.458 OA
ENDROOT
BRANCH   1   2
ATOM      2  C   UNL     1      26.160  60.201  29.032  1.00  0.00     0.339 C 
ATOM      3  C   UNL     1      26.576  59.240  31.172  1.00  0.00     0.199 C 
ATOM      4  C   UNL     1      27.386  58.062  30.563  1.00  0.00     0.180 C 
ATOM      5  O   UNL     1      26.617  60.410  30.361  1.00  0.00    -0.328 OA
ATOM      6  C   UNL     1      27.027  57.828  29.085  1.00  0.00     0.181 C 
ATOM      7  C   UNL     1      27.015  59.149  28.295  1.00  0.00     0.214 C 
BRANCH   3   8
ATOM      8  C   UNL     1      25.165  58.887  31.577  1.00  0.00     0.073 C 
ATOM      9  O   UNL     1      24.751  57.711  31.405  1.00  0.00    -0.547 OA
ATOM     10  O   UNL     1      24.316  59.828  32.144  1.00  0.00    -0.547 OA
ENDBRANCH   3   8
BRANCH   4  11
ATOM     11  O   UNL     1      28.772  58.261  30.716  1.00  0.00    -0.387 OA
ATOM     12  H   UNL     1      29.247  57.456  30.382  1.00  0.00     0.211 HD
ENDBRANCH   4  11
BRANCH   6  13
ATOM     13  O   UNL     1      27.941  56.920  28.515  1.00  0.00    -0.387 OA
ATOM     14  H   UNL     1      27.947  56.115  29.095  1.00  0.00     0.211 HD
ENDBRANCH   6  13
BRANCH   7  15
ATOM     15  O   UNL     1      28.318  59.647  28.125  1.00  0.00    -0.384 OA
ATOM     16  H   UNL     1      28.259  60.636  28.169  1.00  0.00     0.211 HD
ENDBRANCH   7  15
ENDBRANCH   1   2
BRANCH   1  17
ATOM     17  C   UNL     1      23.748  60.413  28.237  1.00  0.00     0.172 A 
ATOM     18  C   UNL     1      22.932  61.487  28.653  1.00  0.00     0.205 A 
ATOM     19  C   UNL     1      23.544  59.834  26.986  1.00  0.00     0.097 A 
ATOM     20  C   UNL     1      21.868  61.910  27.816  1.00  0.00     0.188 A 
ATOM     21  C   UNL     1      22.566  60.299  26.111  1.00  0.00     0.134 A 
ATOM     22  C   UNL     1      21.662  61.307  26.543  1.00  0.00     0.111 A 
ATOM     23  O   UNL     1      21.029  62.848  28.247  1.00  0.00    -0.452 OA
ATOM     24  C   UNL     1      20.525  61.721  25.805  1.00  0.00     0.197 A 
ATOM     25  C   UNL     1      19.970  63.268  27.566  1.00  0.00     0.138 A 
ATOM     26  C   UNL     1      19.697  62.719  26.310  1.00  0.00     0.100 A 
ATOM     27  O   UNL     1      20.204  61.183  24.713  1.00  0.00    -0.289 OA
BRANCH  18  28
ATOM     28  O   UNL     1      23.174  62.069  29.908  1.00  0.00    -0.490 OA
ATOM     29  C   UNL     1      24.082  63.132  30.181  1.00  0.00     0.278 C 
ENDBRANCH  18  28
BRANCH  21  30
ATOM     30  O   UNL     1      22.559  59.738  24.831  1.00  0.00    -0.507 OA
ATOM     31  H   UNL     1      22.766  58.773  24.624  1.00  0.00     0.293 HD
ENDBRANCH  21  30
BRANCH  25  32
ATOM     32  C   UNL     1      19.090  64.298  28.169  1.00  0.00     0.017 A 
ATOM     33  C   UNL     1      19.621  65.383  28.894  1.00  0.00     0.012 A 
ATOM     34  C   UNL     1      17.698  64.228  27.973  1.00  0.00     0.012 A 
ATOM     35  C   UNL     1      18.775  66.360  29.427  1.00  0.00     0.001 A 
ATOM     36  C   UNL     1      16.857  65.205  28.513  1.00  0.00     0.001 A 
ATOM     37  C   UNL     1      17.394  66.266  29.246  1.00  0.00     0.000 A 
ENDBRANCH  25  32
ENDBRANCH   1  17
TORSDOF 9
ENDMDL
MODEL 2
REMARK VINA RESULT:    -8.870      3.050      4.082
REMARK INTER + INTRA:         -13.727
REMARK INTER:                 -12.650
REMARK INTRA:                  -1.078
REMARK UNBOUND:                -1.228
REMARK SMILES COc1c(O[C@H]2O[C@@H](C(=O)[O-])[C@H](O)[C@H](O)[C@@H]2O)cc(O)c2c(=O)cc(-c3ccccc3)oc12
REMARK SMILES IDX 5 1 6 2 8 3 12 4 7 5 14 6 16 7 9 8 10 9 11 10 13 11 15 13
REMARK SMILES IDX 17 15 4 17 3 18 18 19 33 20 19 21 21 22 32 23 22 24 25 25
REMARK SMILES IDX 24 26 23 27 2 28 1 29 20 30 26 32 27 33 31 34 28 35 30 36
REMARK SMILES IDX 29 37
REMARK H PARENT 13 12 15 14 17 16 20 31
REMARK Flexibility Score: inf
ROOT
ATOM      1  O   UNL     1      25.237  60.422  29.604  1.00  0.00    -0.458 OA
ENDROOT
BRANCH   1   2
ATOM      2  C   UNL     1      25.035  59.003  29.587  1.00  0.00     0.339 C 
ATOM      3  C   UNL     1      26.940  58.535  30.940  1.00  0.00     0.199 C 
ATOM      4  C   UNL     1      26.063  58.139  32.159  1.00  0.00     0.180 C 
ATOM      5  O   UNL     1      26.278  58.323  29.697  1.00  0.00    -0.328 OA
ATOM      6  C   UNL     1      24.655  58.753  32.073  1.00  0.00     0.181 C 
ATOM      7  C   UNL     1      24.040  58.551  30.675  1.00  0.00     0.214 C 
BRANCH   3   8
ATOM      8  C   UNL     1      27.545  59.915  31.025  1.00  0.00     0.073 C 
ATOM      9  O   UNL     1      28.347  60.292  30.133  1.00  0.00    -0.547 OA
ATOM     10  O   UNL     1      27.228  60.783  32.063  1.00  0.00    -0.547 OA
ENDBRANCH   3   8
BRANCH   4  11
ATOM     11  O   UNL     1      25.990  56.740  32.304  1.00  0.00    -0.387 OA
ATOM     12  H   UNL     1      25.361  56.529  33.042  1.00  0.00     0.211 HD
ENDBRANCH   4  11
BRANCH   6  13
ATOM     13  O   UNL     1      23.829  58.185  33.062  1.00  0.00    -0.387 OA
ATOM     14  H   UNL     1      23.392  58.936  33.539  1.00  0.00     0.211 HD
ENDBRANCH   6  13
BRANCH   7  15
ATOM     15  O   UNL     1      23.701  57.204  30.464  1.00  0.00    -0.384 OA
ATOM     16  H   UNL     1      24.255  56.881  29.707  1.00  0.00     0.211 HD
ENDBRANCH   7  15
ENDBRANCH   1   2
BRANCH   1  17
ATOM     17  C   UNL     1      25.312  61.293  28.503  1.00  0.00     0.172 A 
ATOM     18  C   UNL     1      24.566  62.487  28.395  1.00  0.00     0.205 A 
ATOM     19  C   UNL     1      26.166  60.916  27.468  1.00  0.00     0.097 A 
ATOM     20  C   UNL     1      24.645  63.245  27.199  1.00  0.00     0.188 A 
ATOM     21  C   UNL     1      26.329  61.697  26.327  1.00  0.00     0.134 A 
ATOM     22  C   UNL     1      25.514  62.847  26.144  1.00  0.00     0.111 A 
ATOM     23  O   UNL     1      23.864  64.311  27.046  1.00  0.00    -0.452 OA
ATOM     24  C   UNL     1      25.469  63.604  24.946  1.00  0.00     0.197 A 
ATOM     25  C   UNL     1      23.820  65.048  25.944  1.00  0.00     0.138 A 
ATOM     26  C   UNL     1      24.639  64.717  24.862  1.00  0.00     0.100 A 
ATOM     27  O   UNL     1      26.129  63.278  23.924  1.00  0.00    -0.289 OA
BRANCH  18  28
ATOM     28  O   UNL     1      23.732  62.857  29.462  1.00  0.00    -0.490 OA
ATOM     29  C   UNL     1      22.353  62.529  29.605  1.00  0.00     0.278 C 
ENDBRANCH  18  28
BRANCH  21  30
ATOM     30  O   UNL     1      27.323  61.291  25.432  1.00  0.00    -0.507 OA
ATOM     31  H   UNL     1      28.313  61.404  25.581  1.00  0.00     0.293 HD
ENDBRANCH  21  30
BRANCH  25  32
ATOM     32  C   UNL     1      22.882  66.196  25.884  1.00  0.00     0.017 A 
ATOM     33  C   UNL     1      23.220  67.384  25.207  1.00  0.00     0.012 A 
ATOM     34  C   UNL     1      21.606  66.084  26.466  1.00  0.00     0.012 A 
ATOM     35  C   UNL     1      22.309  68.442  25.135  1.00  0.00     0.001 A 
ATOM     36  C   UNL     1      20.700  67.147  26.396  1.00  0.00     0.001 A 
ATOM     37  C   UNL     1      21.054  68.327  25.738  1.00  0.00     0.000 A 
ENDBRANCH  25  32
ENDBRANCH   1  17
TORSDOF 9
ENDMDL
MODEL 3
REMARK VINA RESULT:    -8.840      3.503      4.299
REMARK INTER + INTRA:         -13.685
REMARK INTER:                 -12.612
REMARK INTRA:                  -1.073
REMARK UNBOUND:                -1.228
REMARK SMILES COc1c(O[C@H]2O[C@@H](C(=O)[O-])[C@H](O)[C@H](O)[C@@H]2O)cc(O)c2c(=O)cc(-c3ccccc3)oc12
REMARK SMILES IDX 5 1 6 2 8 3 12 4 7 5 14 6 16 7 9 8 10 9 11 10 13 11 15 13
REMARK SMILES IDX 17 15 4 17 3 18 18 19 33 20 19 21 21 22 32 23 22 24 25 25
REMARK SMILES IDX 24 26 23 27 2 28 1 29 20 30 26 32 27 33 31 34 28 35 30 36
REMARK SMILES IDX 29 37
REMARK H PARENT 13 12 15 14 17 16 20 31
REMARK Flexibility Score: inf
ROOT
ATOM      1  O   UNL     1      24.393  60.822  29.606  1.00  0.00    -0.458 OA
ENDROOT
BRANCH   1   2
ATOM      2  C   UNL     1      24.622  61.125  30.987  1.00  0.00     0.339 C 
ATOM      3  C   UNL     1      25.490  58.966  31.501  1.00  0.00     0.199 C 
ATOM      4  C   UNL     1      26.936  59.509  31.662  1.00  0.00     0.180 C 
ATOM      5  O   UNL     1      24.500  59.952  31.780  1.00  0.00    -0.328 OA
ATOM      6  C   UNL     1      27.132  60.840  30.915  1.00  0.00     0.181 C 
ATOM      7  C   UNL     1      25.981  61.821  31.205  1.00  0.00     0.214 C 
BRANCH   3   8
ATOM      8  C   UNL     1      25.227  58.262  30.192  1.00  0.00     0.073 C 
ATOM      9  O   UNL     1      26.177  58.085  29.386  1.00  0.00    -0.547 OA
ATOM     10  O   UNL     1      23.961  57.796  29.860  1.00  0.00    -0.547 OA
ENDBRANCH   3   8
BRANCH   4  11
ATOM     11  O   UNL     1      27.285  59.643  33.020  1.00  0.00    -0.387 OA
ATOM     12  H   UNL     1      27.726  58.806  33.319  1.00  0.00     0.211 HD
ENDBRANCH   4  11
BRANCH   6  13
ATOM     13  O   UNL     1      28.369  61.408  31.276  1.00  0.00    -0.387 OA
ATOM     14  H   UNL     1      28.723  61.864  30.470  1.00  0.00     0.211 HD
ENDBRANCH   6  13
BRANCH   7  15
ATOM     15  O   UNL     1      26.050  62.302  32.524  1.00  0.00    -0.384 OA
ATOM     16  H   UNL     1      26.149  63.287  32.468  1.00  0.00     0.211 HD
ENDBRANCH   7  15
ENDBRANCH   1   2
BRANCH   1  17
ATOM     17  C   UNL     1      24.733  61.603  28.487  1.00  0.00     0.172 A 
ATOM     18  C   UNL     1      24.172  62.870  28.214  1.00  0.00     0.205 A 
ATOM     19  C   UNL     1      25.665  61.056  27.606  1.00  0.00     0.097 A 
ATOM     20  C   UNL     1      24.515  63.531  27.007  1.00  0.00     0.188 A 
ATOM     21  C   UNL     1      26.085  61.734  26.465  1.00  0.00     0.134 A 
ATOM     22  C   UNL     1      25.461  62.960  26.110  1.00  0.00     0.111 A 
ATOM     23  O   UNL     1      23.910  64.673  26.691  1.00  0.00    -0.452 OA
ATOM     24  C   UNL     1      25.683  63.636  24.883  1.00  0.00     0.197 A 
ATOM     25  C   UNL     1      24.116  65.336  25.560  1.00  0.00     0.138 A 
ATOM     26  C   UNL     1      25.026  64.835  24.626  1.00  0.00     0.100 A 
ATOM     27  O   UNL     1      26.428  63.164  23.985  1.00  0.00    -0.289 OA
BRANCH  18  28
ATOM     28  O   UNL     1      23.254  63.410  29.129  1.00  0.00    -0.490 OA
ATOM     29  C   UNL     1      21.848  63.187  29.141  1.00  0.00     0.278 C 
ENDBRANCH  18  28
BRANCH  21  30
ATOM     30  O   UNL     1      27.131  61.150  25.745  1.00  0.00    -0.507 OA
ATOM     31  H   UNL     1      27.323  61.318  24.770  1.00  0.00     0.293 HD
ENDBRANCH  21  30
BRANCH  25  32
ATOM     32  C   UNL     1      23.354  66.583  25.309  1.00  0.00     0.017 A 
ATOM     33  C   UNL     1      23.904  67.638  24.555  1.00  0.00     0.012 A 
ATOM     34  C   UNL     1      22.035  66.702  25.784  1.00  0.00     0.012 A 
ATOM     35  C   UNL     1      23.157  68.793  24.303  1.00  0.00     0.001 A 
ATOM     36  C   UNL     1      21.294  67.861  25.534  1.00  0.00     0.001 A 
ATOM     37  C   UNL     1      21.857  68.909  24.801  1.00  0.00     0.000 A 
ENDBRANCH  25  32
ENDBRANCH   1  17
TORSDOF 9
ENDMDL
MODEL 4
REMARK VINA RESULT:    -8.837      2.363      4.269
REMARK INTER + INTRA:         -13.681
REMARK INTER:                 -12.506
REMARK INTRA:                  -1.175
REMARK UNBOUND:                -1.228
REMARK SMILES COc1c(O[C@H]2O[C@@H](C(=O)[O-])[C@H](O)[C@H](O)[C@@H]2O)cc(O)c2c(=O)cc(-c3ccccc3)oc12
REMARK SMILES IDX 5 1 6 2 8 3 12 4 7 5 14 6 16 7 9 8 10 9 11 10 13 11 15 13
REMARK SMILES IDX 17 15 4 17 3 18 18 19 33 20 19 21 21 22 32 23 22 24 25 25
REMARK SMILES IDX 24 26 23 27 2 28 1 29 20 30 26 32 27 33 31 34 28 35 30 36
REMARK SMILES IDX 29 37
REMARK H PARENT 13 12 15 14 17 16 20 31
REMARK Flexibility Score: inf
ROOT
ATOM      1  O   UNL     1      25.372  61.063  31.011  1.00  0.00    -0.458 OA
ENDROOT
BRANCH   1   2
ATOM      2  C   UNL     1      26.786  61.288  31.063  1.00  0.00     0.339 C 
ATOM      3  C   UNL     1      27.242  59.287  32.273  1.00  0.00     0.199 C 
ATOM      4  C   UNL     1      27.902  58.610  31.041  1.00  0.00     0.180 C 
ATOM      5  O   UNL     1      27.339  60.707  32.236  1.00  0.00    -0.328 OA
ATOM      6  C   UNL     1      27.435  59.248  29.721  1.00  0.00     0.181 C 
ATOM      7  C   UNL     1      27.495  60.785  29.789  1.00  0.00     0.214 C 
BRANCH   3   8
ATOM      8  C   UNL     1      25.832  58.829  32.559  1.00  0.00     0.073 C 
ATOM      9  O   UNL     1      25.334  57.902  31.869  1.00  0.00    -0.547 OA
ATOM     10  O   UNL     1      25.074  59.402  33.572  1.00  0.00    -0.547 OA
ENDBRANCH   3   8
BRANCH   4  11
ATOM     11  O   UNL     1      29.307  58.632  31.137  1.00  0.00    -0.387 OA
ATOM     12  H   UNL     1      29.607  59.575  31.203  1.00  0.00     0.211 HD
ENDBRANCH   4  11
BRANCH   6  13
ATOM     13  O   UNL     1      28.226  58.769  28.658  1.00  0.00    -0.387 OA
ATOM     14  H   UNL     1      29.008  59.374  28.586  1.00  0.00     0.211 HD
ENDBRANCH   6  13
BRANCH   7  15
ATOM     15  O   UNL     1      28.826  61.238  29.789  1.00  0.00    -0.384 OA
ATOM     16  H   UNL     1      28.795  62.226  29.873  1.00  0.00     0.211 HD
ENDBRANCH   7  15
ENDBRANCH   1   2
BRANCH   1  17
ATOM     17  C   UNL     1      24.434  61.678  30.162  1.00  0.00     0.172 A 
ATOM     18  C   UNL     1      23.842  61.036  29.053  1.00  0.00     0.205 A 
ATOM     19  C   UNL     1      24.109  63.002  30.450  1.00  0.00     0.097 A 
ATOM     20  C   UNL     1      22.979  61.778  28.206  1.00  0.00     0.188 A 
ATOM     21  C   UNL     1      23.190  63.717  29.685  1.00  0.00     0.134 A 
ATOM     22  C   UNL     1      22.659  63.133  28.503  1.00  0.00     0.111 A 
ATOM     23  O   UNL     1      22.503  61.214  27.099  1.00  0.00    -0.452 OA
ATOM     24  C   UNL     1      21.865  63.834  27.561  1.00  0.00     0.197 A 
ATOM     25  C   UNL     1      21.740  61.841  26.214  1.00  0.00     0.138 A 
ATOM     26  C   UNL     1      21.388  63.176  26.432  1.00  0.00     0.100 A 
ATOM     27  O   UNL     1      21.605  65.059  27.686  1.00  0.00    -0.289 OA
BRANCH  18  28
ATOM     28  O   UNL     1      24.168  59.694  28.799  1.00  0.00    -0.490 OA
ATOM     29  C   UNL     1      23.360  58.561  29.099  1.00  0.00     0.278 C 
ENDBRANCH  18  28
BRANCH  21  30
ATOM     30  O   UNL     1      22.835  64.982  30.161  1.00  0.00    -0.507 OA
ATOM     31  H   UNL     1      22.836  65.826  29.610  1.00  0.00     0.293 HD
ENDBRANCH  21  30
BRANCH  25  32
ATOM     32  C   UNL     1      21.299  61.111  25.001  1.00  0.00     0.017 A 
ATOM     33  C   UNL     1      20.348  60.074  25.074  1.00  0.00     0.012 A 
ATOM     34  C   UNL     1      21.793  61.492  23.739  1.00  0.00     0.012 A 
ATOM     35  C   UNL     1      19.922  59.420  23.914  1.00  0.00     0.001 A 
ATOM     36  C   UNL     1      21.367  60.832  22.583  1.00  0.00     0.001 A 
ATOM     37  C   UNL     1      20.439  59.791  22.671  1.00  0.00     0.000 A 
ENDBRANCH  25  32
ENDBRANCH   1  17
TORSDOF 9
ENDMDL
MODEL 5
REMARK VINA RESULT:    -8.785      1.630      3.878
REMARK INTER + INTRA:         -13.607
REMARK INTER:                 -12.534
REMARK INTRA:                  -1.073
REMARK UNBOUND:                -1.228
REMARK SMILES COc1c(O[C@H]2O[C@@H](C(=O)[O-])[C@H](O)[C@H](O)[C@@H]2O)cc(O)c2c(=O)cc(-c3ccccc3)oc12
REMARK SMILES IDX 5 1 6 2 8 3 12 4 7 5 14 6 16 7 9 8 10 9 11 10 13 11 15 13
REMARK SMILES IDX 17 15 4 17 3 18 18 19 33 20 19 21 21 22 32 23 22 24 25 25
REMARK SMILES IDX 24 26 23 27 2 28 1 29 20 30 26 32 27 33 31 34 28 35 30 36
REMARK SMILES IDX 29 37
REMARK H PARENT 13 12 15 14 17 16 20 31
REMARK Flexibility Score: inf
ROOT
ATOM      1  O   UNL     1      24.804  59.786  28.782  1.00  0.00    -0.458 OA
ENDROOT
BRANCH   1   2
ATOM      2  C   UNL     1      24.562  58.438  29.203  1.00  0.00     0.339 C 
ATOM      3  C   UNL     1      26.705  58.178  30.212  1.00  0.00     0.199 C 
ATOM      4  C   UNL     1      26.109  58.199  31.646  1.00  0.00     0.180 C 
ATOM      5  O   UNL     1      25.778  57.703  29.240  1.00  0.00    -0.328 OA
ATOM      6  C   UNL     1      24.735  58.891  31.683  1.00  0.00     0.181 C 
ATOM      7  C   UNL     1      23.820  58.382  30.554  1.00  0.00     0.214 C 
BRANCH   3   8
ATOM      8  C   UNL     1      27.353  59.472  29.783  1.00  0.00     0.073 C 
ATOM      9  O   UNL     1      27.439  60.420  30.606  1.00  0.00    -0.547 OA
ATOM     10  O   UNL     1      27.864  59.638  28.502  1.00  0.00    -0.547 OA
ENDBRANCH   3   8
BRANCH   4  11
ATOM     11  O   UNL     1      26.029  56.901  32.187  1.00  0.00    -0.387 OA
ATOM     12  H   UNL     1      25.075  56.681  32.347  1.00  0.00     0.211 HD
ENDBRANCH   4  11
BRANCH   6  13
ATOM     13  O   UNL     1      24.134  58.682  32.939  1.00  0.00    -0.387 OA
ATOM     14  H   UNL     1      23.194  58.991  32.864  1.00  0.00     0.211 HD
ENDBRANCH   6  13
BRANCH   7  15
ATOM     15  O   UNL     1      23.404  57.062  30.800  1.00  0.00    -0.384 OA
ATOM     16  H   UNL     1      23.948  56.723  31.557  1.00  0.00     0.211 HD
ENDBRANCH   7  15
ENDBRANCH   1   2
BRANCH   1  17
ATOM     17  C   UNL     1      23.951  60.896  28.920  1.00  0.00     0.172 A 
ATOM     18  C   UNL     1      22.717  61.025  28.246  1.00  0.00     0.205 A 
ATOM     19  C   UNL     1      24.389  61.917  29.761  1.00  0.00     0.097 A 
ATOM     20  C   UNL     1      21.979  62.229  28.381  1.00  0.00     0.188 A 
ATOM     21  C   UNL     1      23.632  63.065  29.982  1.00  0.00     0.134 A 
ATOM     22  C   UNL     1      22.439  63.270  29.237  1.00  0.00     0.111 A 
ATOM     23  O   UNL     1      20.871  62.402  27.666  1.00  0.00    -0.452 OA
ATOM     24  C   UNL     1      21.695  64.476  29.249  1.00  0.00     0.197 A 
ATOM     25  C   UNL     1      20.145  63.512  27.677  1.00  0.00     0.138 A 
ATOM     26  C   UNL     1      20.535  64.582  28.487  1.00  0.00     0.100 A 
ATOM     27  O   UNL     1      22.070  65.487  29.900  1.00  0.00    -0.289 OA
BRANCH  18  28
ATOM     28  O   UNL     1      22.287  59.972  27.423  1.00  0.00    -0.490 OA
ATOM     29  C   UNL     1      22.633  59.777  26.055  1.00  0.00     0.278 C 
ENDBRANCH  18  28
BRANCH  21  30
ATOM     30  O   UNL     1      24.105  63.944  30.959  1.00  0.00    -0.507 OA
ATOM     31  H   UNL     1      24.800  64.657  30.805  1.00  0.00     0.293 HD
ENDBRANCH  21  30
BRANCH  25  32
ATOM     32  C   UNL     1      18.946  63.596  26.808  1.00  0.00     0.017 A 
ATOM     33  C   UNL     1      18.912  62.976  25.544  1.00  0.00     0.012 A 
ATOM     34  C   UNL     1      17.795  64.259  27.271  1.00  0.00     0.012 A 
ATOM     35  C   UNL     1      17.760  63.040  24.754  1.00  0.00     0.001 A 
ATOM     36  C   UNL     1      16.647  64.324  26.475  1.00  0.00     0.001 A 
ATOM     37  C   UNL     1      16.632  63.722  25.215  1.00  0.00     0.000 A 
ENDBRANCH  25  32
ENDBRANCH   1  17
TORSDOF 9
ENDMDL
MODEL 6
REMARK VINA RESULT:    -8.745      2.868      4.258
REMARK INTER + INTRA:         -13.551
REMARK INTER:                 -12.412
REMARK INTRA:                  -1.139
REMARK UNBOUND:                -1.228
REMARK SMILES COc1c(O[C@H]2O[C@@H](C(=O)[O-])[C@H](O)[C@H](O)[C@@H]2O)cc(O)c2c(=O)cc(-c3ccccc3)oc12
REMARK SMILES IDX 5 1 6 2 8 3 12 4 7 5 14 6 16 7 9 8 10 9 11 10 13 11 15 13
REMARK SMILES IDX 17 15 4 17 3 18 18 19 33 20 19 21 21 22 32 23 22 24 25 25
REMARK SMILES IDX 24 26 23 27 2 28 1 29 20 30 26 32 27 33 31 34 28 35 30 36
REMARK SMILES IDX 29 37
REMARK H PARENT 13 12 15 14 17 16 20 31
REMARK Flexibility Score: inf
ROOT
ATOM      1  O   UNL     1      24.594  58.910  29.451  1.00  0.00    -0.458 OA
ENDROOT
BRANCH   1   2
ATOM      2  C   UNL     1      24.408  58.772  30.865  1.00  0.00     0.339 C 
ATOM      3  C   UNL     1      26.665  58.134  31.282  1.00  0.00     0.199 C 
ATOM      4  C   UNL     1      26.994  59.489  31.966  1.00  0.00     0.180 C 
ATOM      5  O   UNL     1      25.288  57.787  31.388  1.00  0.00    -0.328 OA
ATOM      6  C   UNL     1      26.020  60.598  31.533  1.00  0.00     0.181 C 
ATOM      7  C   UNL     1      24.559  60.119  31.600  1.00  0.00     0.214 C 
BRANCH   3   8
ATOM      8  C   UNL     1      27.167  58.011  29.863  1.00  0.00     0.073 C 
ATOM      9  O   UNL     1      27.836  58.951  29.362  1.00  0.00    -0.547 OA
ATOM     10  O   UNL     1      26.914  56.878  29.100  1.00  0.00    -0.547 OA
ENDBRANCH   3   8
BRANCH   4  11
ATOM     11  O   UNL     1      27.015  59.362  33.369  1.00  0.00    -0.387 OA
ATOM     12  H   UNL     1      26.152  59.693  33.731  1.00  0.00     0.211 HD
ENDBRANCH   4  11
BRANCH   6  13
ATOM     13  O   UNL     1      26.205  61.734  32.345  1.00  0.00    -0.387 OA
ATOM     14  H   UNL     1      27.182  61.902  32.387  1.00  0.00     0.211 HD
ENDBRANCH   6  13
BRANCH   7  15
ATOM     15  O   UNL     1      24.137  59.971  32.932  1.00  0.00    -0.384 OA
ATOM     16  H   UNL     1      24.536  59.128  33.270  1.00  0.00     0.211 HD
ENDBRANCH   7  15
ENDBRANCH   1   2
BRANCH   1  17
ATOM     17  C   UNL     1      23.845  59.697  28.558  1.00  0.00     0.172 A 
ATOM     18  C   UNL     1      24.336  60.872  27.947  1.00  0.00     0.205 A 
ATOM     19  C   UNL     1      22.542  59.276  28.300  1.00  0.00     0.097 A 
ATOM     20  C   UNL     1      23.465  61.644  27.136  1.00  0.00     0.188 A 
ATOM     21  C   UNL     1      21.704  59.969  27.430  1.00  0.00     0.134 A 
ATOM     22  C   UNL     1      22.132  61.210  26.884  1.00  0.00     0.111 A 
ATOM     23  O   UNL     1      23.885  62.806  26.644  1.00  0.00    -0.452 OA
ATOM     24  C   UNL     1      21.296  62.079  26.141  1.00  0.00     0.197 A 
ATOM     25  C   UNL     1      23.130  63.627  25.927  1.00  0.00     0.138 A 
ATOM     26  C   UNL     1      21.808  63.274  25.643  1.00  0.00     0.100 A 
ATOM     27  O   UNL     1      20.078  61.830  25.945  1.00  0.00    -0.289 OA
BRANCH  18  28
ATOM     28  O   UNL     1      25.661  61.261  28.204  1.00  0.00    -0.490 OA
ATOM     29  C   UNL     1      26.730  61.277  27.265  1.00  0.00     0.278 C 
ENDBRANCH  18  28
BRANCH  21  30
ATOM     30  O   UNL     1      20.477  59.367  27.137  1.00  0.00    -0.507 OA
ATOM     31  H   UNL     1      20.326  58.697  26.400  1.00  0.00     0.293 HD
ENDBRANCH  21  30
BRANCH  25  32
ATOM     32  C   UNL     1      23.705  64.913  25.463  1.00  0.00     0.017 A 
ATOM     33  C   UNL     1      25.011  64.985  24.939  1.00  0.00     0.012 A 
ATOM     34  C   UNL     1      22.919  66.079  25.492  1.00  0.00     0.012 A 
ATOM     35  C   UNL     1      25.523  66.201  24.478  1.00  0.00     0.001 A 
ATOM     36  C   UNL     1      23.437  67.294  25.033  1.00  0.00     0.001 A 
ATOM     37  C   UNL     1      24.741  67.357  24.534  1.00  0.00     0.000 A 
ENDBRANCH  25  32
ENDBRANCH   1  17
TORSDOF 9
ENDMDL
MODEL 7
REMARK VINA RESULT:    -8.719      2.145      3.380
REMARK INTER + INTRA:         -13.514
REMARK INTER:                 -12.383
REMARK INTRA:                  -1.131
REMARK UNBOUND:                -1.228
REMARK SMILES COc1c(O[C@H]2O[C@@H](C(=O)[O-])[C@H](O)[C@H](O)[C@@H]2O)cc(O)c2c(=O)cc(-c3ccccc3)oc12
REMARK SMILES IDX 5 1 6 2 8 3 12 4 7 5 14 6 16 7 9 8 10 9 11 10 13 11 15 13
REMARK SMILES IDX 17 15 4 17 3 18 18 19 33 20 19 21 21 22 32 23 22 24 25 25
REMARK SMILES IDX 24 26 23 27 2 28 1 29 20 30 26 32 27 33 31 34 28 35 30 36
REMARK SMILES IDX 29 37
REMARK H PARENT 13 12 15 14 17 16 20 31
REMARK Flexibility Score: inf
ROOT
ATOM      1  O   UNL     1      26.274  60.314  29.536  1.00  0.00    -0.458 OA
ENDROOT
BRANCH   1   2
ATOM      2  C   UNL     1      26.735  58.982  29.790  1.00  0.00     0.339 C 
ATOM      3  C   UNL     1      26.453  59.143  32.151  1.00  0.00     0.199 C 
ATOM      4  C   UNL     1      25.234  58.180  32.140  1.00  0.00     0.180 C 
ATOM      5  O   UNL     1      27.349  58.905  31.070  1.00  0.00    -0.328 OA
ATOM      6  C   UNL     1      24.565  58.123  30.756  1.00  0.00     0.181 C 
ATOM      7  C   UNL     1      25.606  57.944  29.636  1.00  0.00     0.214 C 
BRANCH   3   8
ATOM      8  C   UNL     1      26.096  60.605  32.271  1.00  0.00     0.073 C 
ATOM      9  O   UNL     1      24.932  60.927  32.622  1.00  0.00    -0.547 OA
ATOM     10  O   UNL     1      27.027  61.603  32.012  1.00  0.00    -0.547 OA
ENDBRANCH   3   8
BRANCH   4  11
ATOM     11  O   UNL     1      25.598  56.890  32.573  1.00  0.00    -0.387 OA
ATOM     12  H   UNL     1      25.230  56.225  31.935  1.00  0.00     0.211 HD
ENDBRANCH   4  11
BRANCH   6  13
ATOM     13  O   UNL     1      23.624  57.075  30.729  1.00  0.00    -0.387 OA
ATOM     14  H   UNL     1      23.418  56.897  29.776  1.00  0.00     0.211 HD
ENDBRANCH   6  13
BRANCH   7  15
ATOM     15  O   UNL     1      26.157  56.651  29.663  1.00  0.00    -0.384 OA
ATOM     16  H   UNL     1      25.957  56.269  30.556  1.00  0.00     0.211 HD
ENDBRANCH   7  15
ENDBRANCH   1   2
BRANCH   1  17
ATOM     17  C   UNL     1      25.711  60.818  28.349  1.00  0.00     0.172 A 
ATOM     18  C   UNL     1      24.350  61.164  28.213  1.00  0.00     0.205 A 
ATOM     19  C   UNL     1      26.571  60.950  27.260  1.00  0.00     0.097 A 
ATOM     20  C   UNL     1      23.865  61.573  26.944  1.00  0.00     0.188 A 
ATOM     21  C   UNL     1      26.133  61.441  26.032  1.00  0.00     0.134 A 
ATOM     22  C   UNL     1      24.749  61.697  25.835  1.00  0.00     0.111 A 
ATOM     23  O   UNL     1      22.564  61.797  26.781  1.00  0.00    -0.452 OA
ATOM     24  C   UNL     1      24.174  62.021  24.580  1.00  0.00     0.197 A 
ATOM     25  C   UNL     1      22.005  62.123  25.622  1.00  0.00     0.138 A 
ATOM     26  C   UNL     1      22.806  62.258  24.486  1.00  0.00     0.100 A 
ATOM     27  O   UNL     1      24.856  62.062  23.523  1.00  0.00    -0.289 OA
BRANCH  18  28
ATOM     28  O   UNL     1      23.510  61.045  29.332  1.00  0.00    -0.490 OA
ATOM     29  C   UNL     1      22.987  62.117  30.110  1.00  0.00     0.278 C 
ENDBRANCH  18  28
BRANCH  21  30
ATOM     30  O   UNL     1      27.116  61.668  25.067  1.00  0.00    -0.507 OA
ATOM     31  H   UNL     1      26.936  61.845  24.091  1.00  0.00     0.293 HD
ENDBRANCH  21  30
BRANCH  25  32
ATOM     32  C   UNL     1      20.536  62.315  25.562  1.00  0.00     0.017 A 
ATOM     33  C   UNL     1      19.777  62.541  26.728  1.00  0.00     0.012 A 
ATOM     34  C   UNL     1      19.885  62.328  24.315  1.00  0.00     0.012 A 
ATOM     35  C   UNL     1      18.398  62.751  26.645  1.00  0.00     0.001 A 
ATOM     36  C   UNL     1      18.504  62.534  24.238  1.00  0.00     0.001 A 
ATOM     37  C   UNL     1      17.760  62.738  25.403  1.00  0.00     0.000 A 
ENDBRANCH  25  32
ENDBRANCH   1  17
TORSDOF 9
ENDMDL
MODEL 8
REMARK VINA RESULT:    -8.711      3.468      4.272
REMARK INTER + INTRA:         -13.504
REMARK INTER:                 -12.448
REMARK INTRA:                  -1.056
REMARK UNBOUND:                -1.228
REMARK SMILES COc1c(O[C@H]2O[C@@H](C(=O)[O-])[C@H](O)[C@H](O)[C@@H]2O)cc(O)c2c(=O)cc(-c3ccccc3)oc12
REMARK SMILES IDX 5 1 6 2 8 3 12 4 7 5 14 6 16 7 9 8 10 9 11 10 13 11 15 13
REMARK SMILES IDX 17 15 4 17 3 18 18 19 33 20 19 21 21 22 32 23 22 24 25 25
REMARK SMILES IDX 24 26 23 27 2 28 1 29 20 30 26 32 27 33 31 34 28 35 30 36
REMARK SMILES IDX 29 37
REMARK H PARENT 13 12 15 14 17 16 20 31
REMARK Flexibility Score: inf
ROOT
ATOM      1  O   UNL     1      25.402  61.070  28.888  1.00  0.00    -0.458 OA
ENDROOT
BRANCH   1   2
ATOM      2  C   UNL     1      26.806  60.827  28.735  1.00  0.00     0.339 C 
ATOM      3  C   UNL     1      27.086  60.001  30.953  1.00  0.00     0.199 C 
ATOM      4  C   UNL     1      27.291  58.542  30.458  1.00  0.00     0.180 C 
ATOM      5  O   UNL     1      27.473  60.968  29.982  1.00  0.00    -0.328 OA
ATOM      6  C   UNL     1      26.685  58.324  29.060  1.00  0.00     0.181 C 
ATOM      7  C   UNL     1      27.085  59.453  28.093  1.00  0.00     0.214 C 
BRANCH   3   8
ATOM      8  C   UNL     1      25.713  60.285  31.512  1.00  0.00     0.073 C 
ATOM      9  O   UNL     1      24.887  59.343  31.625  1.00  0.00    -0.547 OA
ATOM     10  O   UNL     1      25.343  61.563  31.912  1.00  0.00    -0.547 OA
ENDBRANCH   3   8
BRANCH   4  11
ATOM     11  O   UNL     1      28.653  58.184  30.473  1.00  0.00    -0.387 OA
ATOM     12  H   UNL     1      29.136  58.738  29.807  1.00  0.00     0.211 HD
ENDBRANCH   4  11
BRANCH   6  13
ATOM     13  O   UNL     1      27.094  57.074  28.557  1.00  0.00    -0.387 OA
ATOM     14  H   UNL     1      27.784  56.725  29.179  1.00  0.00     0.211 HD
ENDBRANCH   6  13
BRANCH   7  15
ATOM     15  O   UNL     1      28.446  59.367  27.753  1.00  0.00    -0.384 OA
ATOM     16  H   UNL     1      28.736  58.439  27.951  1.00  0.00     0.211 HD
ENDBRANCH   7  15
ENDBRANCH   1   2
BRANCH   1  17
ATOM     17  C   UNL     1      24.365  60.695  28.015  1.00  0.00     0.172 A 
ATOM     18  C   UNL     1      24.220  61.201  26.706  1.00  0.00     0.205 A 
ATOM     19  C   UNL     1      23.433  59.785  28.512  1.00  0.00     0.097 A 
ATOM     20  C   UNL     1      23.083  60.828  25.943  1.00  0.00     0.188 A 
ATOM     21  C   UNL     1      22.363  59.334  27.743  1.00  0.00     0.134 A 
ATOM     22  C   UNL     1      22.132  59.905  26.462  1.00  0.00     0.111 A 
ATOM     23  O   UNL     1      22.883  61.384  24.751  1.00  0.00    -0.452 OA
ATOM     24  C   UNL     1      20.978  59.653  25.679  1.00  0.00     0.197 A 
ATOM     25  C   UNL     1      21.823  61.148  23.989  1.00  0.00     0.138 A 
ATOM     26  C   UNL     1      20.842  60.258  24.433  1.00  0.00     0.100 A 
ATOM     27  O   UNL     1      20.036  58.926  26.090  1.00  0.00    -0.289 OA
BRANCH  18  28
ATOM     28  O   UNL     1      25.186  62.097  26.220  1.00  0.00    -0.490 OA
ATOM     29  C   UNL     1      25.179  63.512  26.384  1.00  0.00     0.278 C 
ENDBRANCH  18  28
BRANCH  21  30
ATOM     30  O   UNL     1      21.587  58.313  28.297  1.00  0.00    -0.507 OA
ATOM     31  H   UNL     1      20.791  58.456  28.899  1.00  0.00     0.293 HD
ENDBRANCH  21  30
BRANCH  25  32
ATOM     32  C   UNL     1      21.698  61.856  22.692  1.00  0.00     0.017 A 
ATOM     33  C   UNL     1      21.192  61.207  21.549  1.00  0.00     0.012 A 
ATOM     34  C   UNL     1      22.039  63.218  22.605  1.00  0.00     0.012 A 
ATOM     35  C   UNL     1      21.053  61.901  20.344  1.00  0.00     0.001 A 
ATOM     36  C   UNL     1      21.902  63.907  21.396  1.00  0.00     0.001 A 
ATOM     37  C   UNL     1      21.417  63.247  20.264  1.00  0.00     0.000 A 
ENDBRANCH  25  32
ENDBRANCH   1  17
TORSDOF 9
ENDMDL
MODEL 9
REMARK VINA RESULT:    -8.702      1.444      3.248
REMARK INTER + INTRA:         -13.492
REMARK INTER:                 -12.499
REMARK INTRA:                  -0.992
REMARK UNBOUND:                -1.228
REMARK SMILES COc1c(O[C@H]2O[C@@H](C(=O)[O-])[C@H](O)[C@H](O)[C@@H]2O)cc(O)c2c(=O)cc(-c3ccccc3)oc12
REMARK SMILES IDX 5 1 6 2 8 3 12 4 7 5 14 6 16 7 9 8 10 9 11 10 13 11 15 13
REMARK SMILES IDX 17 15 4 17 3 18 18 19 33 20 19 21 21 22 32 23 22 24 25 25
REMARK SMILES IDX 24 26 23 27 2 28 1 29 20 30 26 32 27 33 31 34 28 35 30 36
REMARK SMILES IDX 29 37
REMARK H PARENT 13 12 15 14 17 16 20 31
REMARK Flexibility Score: inf
ROOT
ATOM      1  O   UNL     1      25.018  60.317  29.063  1.00  0.00    -0.458 OA
ENDROOT
BRANCH   1   2
ATOM      2  C   UNL     1      26.438  60.463  29.186  1.00  0.00     0.339 C 
ATOM      3  C   UNL     1      26.584  59.129  31.155  1.00  0.00     0.199 C 
ATOM      4  C   UNL     1      27.275  57.962  30.396  1.00  0.00     0.180 C 
ATOM      5  O   UNL     1      26.827  60.395  30.551  1.00  0.00    -0.328 OA
ATOM      6  C   UNL     1      26.989  58.016  28.885  1.00  0.00     0.181 C 
ATOM      7  C   UNL     1      27.198  59.435  28.325  1.00  0.00     0.214 C 
BRANCH   3   8
ATOM      8  C   UNL     1      25.116  58.912  31.432  1.00  0.00     0.073 C 
ATOM      9  O   UNL     1      24.496  59.739  32.150  1.00  0.00    -0.547 OA
ATOM     10  O   UNL     1      24.430  57.825  30.906  1.00  0.00    -0.547 OA
ENDBRANCH   3   8
BRANCH   4  11
ATOM     11  O   UNL     1      28.662  57.943  30.642  1.00  0.00    -0.387 OA
ATOM     12  H   UNL     1      29.049  58.809  30.352  1.00  0.00     0.211 HD
ENDBRANCH   4  11
BRANCH   6  13
ATOM     13  O   UNL     1      27.816  57.093  28.215  1.00  0.00    -0.387 OA
ATOM     14  H   UNL     1      27.634  56.202  28.611  1.00  0.00     0.211 HD
ENDBRANCH   6  13
BRANCH   7  15
ATOM     15  O   UNL     1      28.563  59.770  28.298  1.00  0.00    -0.384 OA
ATOM     16  H   UNL     1      28.862  59.841  29.241  1.00  0.00     0.211 HD
ENDBRANCH   7  15
ENDBRANCH   1   2
BRANCH   1  17
ATOM     17  C   UNL     1      24.045  61.333  29.071  1.00  0.00     0.172 A 
ATOM     18  C   UNL     1      22.859  61.290  28.308  1.00  0.00     0.205 A 
ATOM     19  C   UNL     1      24.309  62.440  29.876  1.00  0.00     0.097 A 
ATOM     20  C   UNL     1      21.990  62.411  28.317  1.00  0.00     0.188 A 
ATOM     21  C   UNL     1      23.420  63.509  29.972  1.00  0.00     0.134 A 
ATOM     22  C   UNL     1      22.272  63.541  29.135  1.00  0.00     0.111 A 
ATOM     23  O   UNL     1      20.926  62.422  27.518  1.00  0.00    -0.452 OA
ATOM     24  C   UNL     1      21.406  64.657  29.021  1.00  0.00     0.197 A 
ATOM     25  C   UNL     1      20.089  63.445  27.409  1.00  0.00     0.138 A 
ATOM     26  C   UNL     1      20.303  64.594  28.176  1.00  0.00     0.100 A 
ATOM     27  O   UNL     1      21.623  65.737  29.631  1.00  0.00    -0.289 OA
BRANCH  18  28
ATOM     28  O   UNL     1      22.605  60.152  27.524  1.00  0.00    -0.490 OA
ATOM     29  C   UNL     1      23.007  59.953  26.173  1.00  0.00     0.278 C 
ENDBRANCH  18  28
BRANCH  21  30
ATOM     30  O   UNL     1      23.724  64.486  30.923  1.00  0.00    -0.507 OA
ATOM     31  H   UNL     1      23.461  65.457  30.856  1.00  0.00     0.293 HD
ENDBRANCH  21  30
BRANCH  25  32
ATOM     32  C   UNL     1      18.956  63.349  26.457  1.00  0.00     0.017 A 
ATOM     33  C   UNL     1      17.663  63.785  26.808  1.00  0.00     0.012 A 
ATOM     34  C   UNL     1      19.179  62.864  25.155  1.00  0.00     0.012 A 
ATOM     35  C   UNL     1      16.617  63.715  25.884  1.00  0.00     0.001 A 
ATOM     36  C   UNL     1      18.127  62.791  24.236  1.00  0.00     0.001 A 
ATOM     37  C   UNL     1      16.846  63.209  24.603  1.00  0.00     0.000 A 
ENDBRANCH  25  32
ENDBRANCH   1  17
TORSDOF 9
ENDMDL
