MODEL 1
REMARK VINA RESULT:    -6.306      0.000      0.000
REMARK INTER + INTRA:          -8.724
REMARK INTER:                  -7.965
REMARK INTRA:                  -0.759
REMARK UNBOUND:                -0.759
REMARK SMILES Oc1ccc(CCc2cc(O)cc(O)c2)cc1
REMARK SMILES IDX 6 1 5 2 4 3 3 4 2 5 16 6 17 7 1 8 7 10 8 11 15 12 9 13 13 14
REMARK SMILES IDX 10 15 12 16 14 17 11 19
REMARK H PARENT 1 9 14 18 11 20
REMARK Flexibility Score: inf
ROOT
ATOM      1  C   UNL     1      -5.707  -4.618  12.706  1.00  0.00     0.040 C 
ENDROOT
BRANCH   1   2
ATOM      2  C   UNL     1      -6.334  -5.921  13.124  1.00  0.00    -0.047 A 
ATOM      3  C   UNL     1      -5.811  -7.139  12.659  1.00  0.00     0.007 A 
ATOM      4  C   UNL     1      -6.373  -8.351  13.073  1.00  0.00     0.046 A 
ATOM      5  C   UNL     1      -7.455  -8.356  13.963  1.00  0.00     0.115 A 
ATOM      6  C   UNL     1      -7.411  -5.933  14.026  1.00  0.00     0.007 A 
ATOM      7  C   UNL     1      -7.970  -7.146  14.438  1.00  0.00     0.046 A 
BRANCH   5   8
ATOM      8  O   UNL     1      -8.024  -9.557  14.382  1.00  0.00    -0.508 OA
ATOM      9  H   UNL     1      -8.020 -10.379  13.791  1.00  0.00     0.293 HD
ENDBRANCH   5   8
ENDBRANCH   1   2
BRANCH   1  10
ATOM     10  C   UNL     1      -4.362  -4.417  13.411  1.00  0.00     0.040 C 
BRANCH  10  11
ATOM     11  C   UNL     1      -4.571  -3.941  14.823  1.00  0.00    -0.040 A 
ATOM     12  C   UNL     1      -4.111  -4.709  15.905  1.00  0.00     0.050 A 
ATOM     13  C   UNL     1      -5.277  -2.752  15.072  1.00  0.00     0.050 A 
ATOM     14  C   UNL     1      -4.333  -4.284  17.220  1.00  0.00     0.119 A 
ATOM     15  C   UNL     1      -5.502  -2.325  16.385  1.00  0.00     0.119 A 
ATOM     16  C   UNL     1      -5.026  -3.089  17.458  1.00  0.00     0.092 A 
BRANCH  14  17
ATOM     17  O   UNL     1      -3.864  -5.056  18.279  1.00  0.00    -0.508 OA
ATOM     18  H   UNL     1      -4.092  -6.040  18.360  1.00  0.00     0.293 HD
ENDBRANCH  14  17
BRANCH  15  19
ATOM     19  O   UNL     1      -6.199  -1.140  16.611  1.00  0.00    -0.508 OA
ATOM     20  H   UNL     1      -6.275  -0.739  17.539  1.00  0.00     0.293 HD
ENDBRANCH  15  19
ENDBRANCH  10  11
ENDBRANCH   1  10
TORSDOF 6
ENDMDL
MODEL 2
REMARK VINA RESULT:    -6.266      0.054      2.354
REMARK INTER + INTRA:          -8.673
REMARK INTER:                  -7.959
REMARK INTRA:                  -0.714
REMARK UNBOUND:                -0.759
REMARK SMILES Oc1ccc(CCc2cc(O)cc(O)c2)cc1
REMARK SMILES IDX 6 1 5 2 4 3 3 4 2 5 16 6 17 7 1 8 7 10 8 11 15 12 9 13 13 14
REMARK SMILES IDX 10 15 12 16 14 17 11 19
REMARK H PARENT 1 9 14 18 11 20
REMARK Flexibility Score: inf
ROOT
ATOM      1  C   UNL     1      -5.637  -4.624  12.648  1.00  0.00     0.040 C 
ENDROOT
BRANCH   1   2
ATOM      2  C   UNL     1      -6.251  -5.913  13.124  1.00  0.00    -0.047 A 
ATOM      3  C   UNL     1      -7.352  -5.894  13.996  1.00  0.00     0.007 A 
ATOM      4  C   UNL     1      -7.943  -7.091  14.412  1.00  0.00     0.046 A 
ATOM      5  C   UNL     1      -7.446  -8.318  13.951  1.00  0.00     0.115 A 
ATOM      6  C   UNL     1      -5.765  -7.145  12.655  1.00  0.00     0.007 A 
ATOM      7  C   UNL     1      -6.358  -8.340  13.072  1.00  0.00     0.046 A 
BRANCH   5   8
ATOM      8  O   UNL     1      -8.026  -9.517  14.358  1.00  0.00    -0.508 OA
ATOM      9  H   UNL     1      -8.936  -9.541  14.801  1.00  0.00     0.293 HD
ENDBRANCH   5   8
ENDBRANCH   1   2
BRANCH   1  10
ATOM     10  C   UNL     1      -4.327  -4.344  13.390  1.00  0.00     0.040 C 
BRANCH  10  11
ATOM     11  C   UNL     1      -4.603  -3.913  14.806  1.00  0.00    -0.040 A 
ATOM     12  C   UNL     1      -5.296  -2.718  15.060  1.00  0.00     0.050 A 
ATOM     13  C   UNL     1      -4.119  -4.672  15.884  1.00  0.00     0.050 A 
ATOM     14  C   UNL     1      -5.525  -2.299  16.376  1.00  0.00     0.119 A 
ATOM     15  C   UNL     1      -4.346  -4.257  17.200  1.00  0.00     0.119 A 
ATOM     16  C   UNL     1      -5.051  -3.072  17.445  1.00  0.00     0.092 A 
BRANCH  14  17
ATOM     17  O   UNL     1      -6.220  -1.115  16.608  1.00  0.00    -0.508 OA
ATOM     18  H   UNL     1      -7.049  -0.875  16.076  1.00  0.00     0.293 HD
ENDBRANCH  14  17
BRANCH  15  19
ATOM     19  O   UNL     1      -3.864  -5.027  18.256  1.00  0.00    -0.508 OA
ATOM     20  H   UNL     1      -4.468  -5.659  18.769  1.00  0.00     0.293 HD
ENDBRANCH  15  19
ENDBRANCH  10  11
ENDBRANCH   1  10
TORSDOF 6
ENDMDL
MODEL 3
REMARK VINA RESULT:    -6.029      9.302     11.068
REMARK INTER + INTRA:          -8.374
REMARK INTER:                  -7.633
REMARK INTRA:                  -0.741
REMARK UNBOUND:                -0.759
REMARK SMILES Oc1ccc(CCc2cc(O)cc(O)c2)cc1
REMARK SMILES IDX 6 1 5 2 4 3 3 4 2 5 16 6 17 7 1 8 7 10 8 11 15 12 9 13 13 14
REMARK SMILES IDX 10 15 12 16 14 17 11 19
REMARK H PARENT 1 9 14 18 11 20
REMARK Flexibility Score: inf
ROOT
ATOM      1  C   UNL     1       0.496  -5.941   6.710  1.00  0.00     0.040 C 
ENDROOT
BRANCH   1   2
ATOM      2  C   UNL     1       0.946  -6.127   8.135  1.00  0.00    -0.047 A 
ATOM      3  C   UNL     1       0.203  -5.572   9.189  1.00  0.00     0.007 A 
ATOM      4  C   UNL     1       0.602  -5.772  10.515  1.00  0.00     0.046 A 
ATOM      5  C   UNL     1       1.740  -6.540  10.798  1.00  0.00     0.115 A 
ATOM      6  C   UNL     1       2.078  -6.906   8.425  1.00  0.00     0.007 A 
ATOM      7  C   UNL     1       2.474  -7.105   9.751  1.00  0.00     0.046 A 
BRANCH   5   8
ATOM      8  O   UNL     1       2.147  -6.746  12.114  1.00  0.00    -0.508 OA
ATOM      9  H   UNL     1       2.238  -5.977  12.767  1.00  0.00     0.293 HD
ENDBRANCH   5   8
ENDBRANCH   1   2
BRANCH   1  10
ATOM     10  C   UNL     1       1.605  -5.292   5.876  1.00  0.00     0.040 C 
BRANCH  10  11
ATOM     11  C   UNL     1       1.602  -3.799   6.064  1.00  0.00    -0.040 A 
ATOM     12  C   UNL     1       0.448  -3.051   5.781  1.00  0.00     0.050 A 
ATOM     13  C   UNL     1       2.772  -3.135   6.470  1.00  0.00     0.050 A 
ATOM     14  C   UNL     1       0.454  -1.659   5.925  1.00  0.00     0.119 A 
ATOM     15  C   UNL     1       2.782  -1.744   6.614  1.00  0.00     0.119 A 
ATOM     16  C   UNL     1       1.621  -1.007   6.344  1.00  0.00     0.092 A 
BRANCH  14  17
ATOM     17  O   UNL     1      -0.703  -0.935   5.646  1.00  0.00    -0.508 OA
ATOM     18  H   UNL     1      -1.603  -1.392   5.552  1.00  0.00     0.293 HD
ENDBRANCH  14  17
BRANCH  15  19
ATOM     19  O   UNL     1       3.949  -1.105   7.024  1.00  0.00    -0.508 OA
ATOM     20  H   UNL     1       4.237  -1.098   7.996  1.00  0.00     0.293 HD
ENDBRANCH  15  19
ENDBRANCH  10  11
ENDBRANCH   1  10
TORSDOF 6
ENDMDL
MODEL 4
REMARK VINA RESULT:    -6.013      9.322     10.976
REMARK INTER + INTRA:          -8.354
REMARK INTER:                  -7.614
REMARK INTRA:                  -0.740
REMARK UNBOUND:                -0.759
REMARK SMILES Oc1ccc(CCc2cc(O)cc(O)c2)cc1
REMARK SMILES IDX 6 1 5 2 4 3 3 4 2 5 16 6 17 7 1 8 7 10 8 11 15 12 9 13 13 14
REMARK SMILES IDX 10 15 12 16 14 17 11 19
REMARK H PARENT 1 9 14 18 11 20
REMARK Flexibility Score: inf
ROOT
ATOM      1  C   UNL     1       0.495  -5.892   6.698  1.00  0.00     0.040 C 
ENDROOT
BRANCH   1   2
ATOM      2  C   UNL     1       0.950  -6.099   8.119  1.00  0.00    -0.047 A 
ATOM      3  C   UNL     1       0.211  -5.558   9.184  1.00  0.00     0.007 A 
ATOM      4  C   UNL     1       0.614  -5.778  10.505  1.00  0.00     0.046 A 
ATOM      5  C   UNL     1       1.753  -6.550  10.773  1.00  0.00     0.115 A 
ATOM      6  C   UNL     1       2.083  -6.882   8.393  1.00  0.00     0.007 A 
ATOM      7  C   UNL     1       2.483  -7.101   9.715  1.00  0.00     0.046 A 
BRANCH   5   8
ATOM      8  O   UNL     1       2.165  -6.776  12.084  1.00  0.00    -0.508 OA
ATOM      9  H   UNL     1       2.462  -7.693  12.395  1.00  0.00     0.293 HD
ENDBRANCH   5   8
ENDBRANCH   1   2
BRANCH   1  10
ATOM     10  C   UNL     1       1.620  -5.281   5.856  1.00  0.00     0.040 C 
BRANCH  10  11
ATOM     11  C   UNL     1       1.637  -3.784   6.002  1.00  0.00    -0.040 A 
ATOM     12  C   UNL     1       2.796  -3.128   6.448  1.00  0.00     0.050 A 
ATOM     13  C   UNL     1       0.476  -3.035   5.749  1.00  0.00     0.050 A 
ATOM     14  C   UNL     1       2.803  -1.739   6.615  1.00  0.00     0.119 A 
ATOM     15  C   UNL     1       0.479  -1.646   5.915  1.00  0.00     0.119 A 
ATOM     16  C   UNL     1       1.645  -0.999   6.345  1.00  0.00     0.092 A 
BRANCH  14  17
ATOM     17  O   UNL     1       3.965  -1.107   7.051  1.00  0.00    -0.508 OA
ATOM     18  H   UNL     1       4.882  -1.419   6.752  1.00  0.00     0.293 HD
ENDBRANCH  14  17
BRANCH  15  19
ATOM     19  O   UNL     1      -0.680  -0.920   5.652  1.00  0.00    -0.508 OA
ATOM     20  H   UNL     1      -1.443  -1.317   5.116  1.00  0.00     0.293 HD
ENDBRANCH  15  19
ENDBRANCH  10  11
ENDBRANCH   1  10
TORSDOF 6
ENDMDL
MODEL 5
REMARK VINA RESULT:    -5.989      2.562      3.765
REMARK INTER + INTRA:          -8.323
REMARK INTER:                  -7.576
REMARK INTRA:                  -0.748
REMARK UNBOUND:                -0.759
REMARK SMILES Oc1ccc(CCc2cc(O)cc(O)c2)cc1
REMARK SMILES IDX 6 1 5 2 4 3 3 4 2 5 16 6 17 7 1 8 7 10 8 11 15 12 9 13 13 14
REMARK SMILES IDX 10 15 12 16 14 17 11 19
REMARK H PARENT 1 9 14 18 11 20
REMARK Flexibility Score: inf
ROOT
ATOM      1  C   UNL     1      -4.387  -4.509  16.349  1.00  0.00     0.040 C 
ENDROOT
BRANCH   1   2
ATOM      2  C   UNL     1      -4.911  -4.723  14.954  1.00  0.00    -0.047 A 
ATOM      3  C   UNL     1      -6.242  -5.120  14.752  1.00  0.00     0.007 A 
ATOM      4  C   UNL     1      -6.739  -5.287  13.454  1.00  0.00     0.046 A 
ATOM      5  C   UNL     1      -5.911  -5.047  12.349  1.00  0.00     0.115 A 
ATOM      6  C   UNL     1      -4.090  -4.472  13.842  1.00  0.00     0.007 A 
ATOM      7  C   UNL     1      -4.589  -4.639  12.547  1.00  0.00     0.046 A 
BRANCH   5   8
ATOM      8  O   UNL     1      -6.394  -5.210  11.053  1.00  0.00    -0.508 OA
ATOM      9  H   UNL     1      -7.204  -5.787  10.858  1.00  0.00     0.293 HD
ENDBRANCH   5   8
ENDBRANCH   1   2
BRANCH   1  10
ATOM     10  C   UNL     1      -5.132  -3.359  17.034  1.00  0.00     0.040 C 
BRANCH  10  11
ATOM     11  C   UNL     1      -4.541  -2.034  16.635  1.00  0.00    -0.040 A 
ATOM     12  C   UNL     1      -3.154  -1.828  16.702  1.00  0.00     0.050 A 
ATOM     13  C   UNL     1      -5.377  -0.974  16.248  1.00  0.00     0.050 A 
ATOM     14  C   UNL     1      -2.605  -0.586  16.363  1.00  0.00     0.119 A 
ATOM     15  C   UNL     1      -4.833   0.269  15.909  1.00  0.00     0.119 A 
ATOM     16  C   UNL     1      -3.446   0.461  15.963  1.00  0.00     0.092 A 
BRANCH  14  17
ATOM     17  O   UNL     1      -1.226  -0.404  16.428  1.00  0.00    -0.508 OA
ATOM     18  H   UNL     1      -0.818   0.518  16.535  1.00  0.00     0.293 HD
ENDBRANCH  14  17
BRANCH  15  19
ATOM     19  O   UNL     1      -5.678   1.306  15.521  1.00  0.00    -0.508 OA
ATOM     20  H   UNL     1      -5.408   1.970  14.805  1.00  0.00     0.293 HD
ENDBRANCH  15  19
ENDBRANCH  10  11
ENDBRANCH   1  10
TORSDOF 6
ENDMDL
MODEL 6
REMARK VINA RESULT:    -5.978      2.572      4.182
REMARK INTER + INTRA:          -8.310
REMARK INTER:                  -7.555
REMARK INTRA:                  -0.755
REMARK UNBOUND:                -0.759
REMARK SMILES Oc1ccc(CCc2cc(O)cc(O)c2)cc1
REMARK SMILES IDX 6 1 5 2 4 3 3 4 2 5 16 6 17 7 1 8 7 10 8 11 15 12 9 13 13 14
REMARK SMILES IDX 10 15 12 16 14 17 11 19
REMARK H PARENT 1 9 14 18 11 20
REMARK Flexibility Score: inf
ROOT
ATOM      1  C   UNL     1      -4.387  -4.494  16.346  1.00  0.00     0.040 C 
ENDROOT
BRANCH   1   2
ATOM      2  C   UNL     1      -4.920  -4.719  14.956  1.00  0.00    -0.047 A 
ATOM      3  C   UNL     1      -6.255  -5.110  14.764  1.00  0.00     0.007 A 
ATOM      4  C   UNL     1      -6.759  -5.287  13.471  1.00  0.00     0.046 A 
ATOM      5  C   UNL     1      -5.936  -5.063  12.359  1.00  0.00     0.115 A 
ATOM      6  C   UNL     1      -4.103  -4.484  13.837  1.00  0.00     0.007 A 
ATOM      7  C   UNL     1      -4.610  -4.661  12.546  1.00  0.00     0.046 A 
BRANCH   5   8
ATOM      8  O   UNL     1      -6.426  -5.236  11.067  1.00  0.00    -0.508 OA
ATOM      9  H   UNL     1      -6.406  -6.140  10.609  1.00  0.00     0.293 HD
ENDBRANCH   5   8
ENDBRANCH   1   2
BRANCH   1  10
ATOM     10  C   UNL     1      -5.120  -3.332  17.022  1.00  0.00     0.040 C 
BRANCH  10  11
ATOM     11  C   UNL     1      -4.513  -2.016  16.614  1.00  0.00    -0.040 A 
ATOM     12  C   UNL     1      -5.337  -0.940  16.246  1.00  0.00     0.050 A 
ATOM     13  C   UNL     1      -3.118  -1.871  16.544  1.00  0.00     0.050 A 
ATOM     14  C   UNL     1      -4.775   0.274  15.835  1.00  0.00     0.119 A 
ATOM     15  C   UNL     1      -2.552  -0.660  16.133  1.00  0.00     0.119 A 
ATOM     16  C   UNL     1      -3.381   0.413  15.782  1.00  0.00     0.092 A 
BRANCH  14  17
ATOM     17  O   UNL     1      -5.608   1.331  15.480  1.00  0.00    -0.508 OA
ATOM     18  H   UNL     1      -5.755   2.121  16.099  1.00  0.00     0.293 HD
ENDBRANCH  14  17
BRANCH  15  19
ATOM     19  O   UNL     1      -1.166  -0.534  16.077  1.00  0.00    -0.508 OA
ATOM     20  H   UNL     1      -0.575  -0.832  16.844  1.00  0.00     0.293 HD
ENDBRANCH  15  19
ENDBRANCH  10  11
ENDBRANCH   1  10
TORSDOF 6
ENDMDL
MODEL 7
REMARK VINA RESULT:    -5.705      2.737      6.688
REMARK INTER + INTRA:          -7.965
REMARK INTER:                  -7.329
REMARK INTRA:                  -0.636
REMARK UNBOUND:                -0.759
REMARK SMILES Oc1ccc(CCc2cc(O)cc(O)c2)cc1
REMARK SMILES IDX 6 1 5 2 4 3 3 4 2 5 16 6 17 7 1 8 7 10 8 11 15 12 9 13 13 14
REMARK SMILES IDX 10 15 12 16 14 17 11 19
REMARK H PARENT 1 9 14 18 11 20
REMARK Flexibility Score: inf
ROOT
ATOM      1  C   UNL     1      -4.917  -2.917  16.699  1.00  0.00     0.040 C 
ENDROOT
BRANCH   1   2
ATOM      2  C   UNL     1      -4.699  -1.512  16.204  1.00  0.00    -0.047 A 
ATOM      3  C   UNL     1      -5.743  -0.575  16.252  1.00  0.00     0.007 A 
ATOM      4  C   UNL     1      -5.531   0.739  15.822  1.00  0.00     0.046 A 
ATOM      5  C   UNL     1      -4.270   1.130  15.352  1.00  0.00     0.115 A 
ATOM      6  C   UNL     1      -3.434  -1.112  15.743  1.00  0.00     0.007 A 
ATOM      7  C   UNL     1      -3.225   0.203  15.315  1.00  0.00     0.046 A 
BRANCH   5   8
ATOM      8  O   UNL     1      -4.047   2.436  14.921  1.00  0.00    -0.508 OA
ATOM      9  H   UNL     1      -3.927   2.657  13.940  1.00  0.00     0.293 HD
ENDBRANCH   5   8
ENDBRANCH   1   2
BRANCH   1  10
ATOM     10  C   UNL     1      -3.985  -3.894  15.977  1.00  0.00     0.040 C 
BRANCH  10  11
ATOM     11  C   UNL     1      -4.707  -4.574  14.845  1.00  0.00    -0.040 A 
ATOM     12  C   UNL     1      -6.015  -5.052  15.024  1.00  0.00     0.050 A 
ATOM     13  C   UNL     1      -4.057  -4.787  13.618  1.00  0.00     0.050 A 
ATOM     14  C   UNL     1      -6.676  -5.714  13.983  1.00  0.00     0.119 A 
ATOM     15  C   UNL     1      -4.714  -5.449  12.575  1.00  0.00     0.119 A 
ATOM     16  C   UNL     1      -6.025  -5.908  12.757  1.00  0.00     0.092 A 
BRANCH  14  17
ATOM     17  O   UNL     1      -7.976  -6.174  14.178  1.00  0.00    -0.508 OA
ATOM     18  H   UNL     1      -8.354  -6.940  13.632  1.00  0.00     0.293 HD
ENDBRANCH  14  17
BRANCH  15  19
ATOM     19  O   UNL     1      -4.056  -5.644  11.363  1.00  0.00    -0.508 OA
ATOM     20  H   UNL     1      -3.045  -5.694  11.312  1.00  0.00     0.293 HD
ENDBRANCH  15  19
ENDBRANCH  10  11
ENDBRANCH   1  10
TORSDOF 6
ENDMDL
MODEL 8
REMARK VINA RESULT:    -5.701      2.746      6.564
REMARK INTER + INTRA:          -7.959
REMARK INTER:                  -7.321
REMARK INTRA:                  -0.638
REMARK UNBOUND:                -0.759
REMARK SMILES Oc1ccc(CCc2cc(O)cc(O)c2)cc1
REMARK SMILES IDX 6 1 5 2 4 3 3 4 2 5 16 6 17 7 1 8 7 10 8 11 15 12 9 13 13 14
REMARK SMILES IDX 10 15 12 16 14 17 11 19
REMARK H PARENT 1 9 14 18 11 20
REMARK Flexibility Score: inf
ROOT
ATOM      1  C   UNL     1      -4.960  -2.946  16.664  1.00  0.00     0.040 C 
ENDROOT
BRANCH   1   2
ATOM      2  C   UNL     1      -4.697  -1.526  16.237  1.00  0.00    -0.047 A 
ATOM      3  C   UNL     1      -3.434  -1.157  15.748  1.00  0.00     0.007 A 
ATOM      4  C   UNL     1      -3.200   0.155  15.320  1.00  0.00     0.046 A 
ATOM      5  C   UNL     1      -4.229   1.104  15.367  1.00  0.00     0.115 A 
ATOM      6  C   UNL     1      -5.729  -0.574  16.270  1.00  0.00     0.007 A 
ATOM      7  C   UNL     1      -5.492   0.736  15.841  1.00  0.00     0.046 A 
BRANCH   5   8
ATOM      8  O   UNL     1      -4.008   2.412  14.944  1.00  0.00    -0.508 OA
ATOM      9  H   UNL     1      -3.948   3.179  15.603  1.00  0.00     0.293 HD
ENDBRANCH   5   8
ENDBRANCH   1   2
BRANCH   1  10
ATOM     10  C   UNL     1      -3.996  -3.907  15.961  1.00  0.00     0.040 C 
BRANCH  10  11
ATOM     11  C   UNL     1      -4.690  -4.619  14.831  1.00  0.00    -0.040 A 
ATOM     12  C   UNL     1      -4.035  -4.806  13.603  1.00  0.00     0.050 A 
ATOM     13  C   UNL     1      -6.019  -5.051  14.977  1.00  0.00     0.050 A 
ATOM     14  C   UNL     1      -4.690  -5.438  12.541  1.00  0.00     0.119 A 
ATOM     15  C   UNL     1      -6.677  -5.683  13.917  1.00  0.00     0.119 A 
ATOM     16  C   UNL     1      -6.010  -5.880  12.700  1.00  0.00     0.092 A 
BRANCH  14  17
ATOM     17  O   UNL     1      -4.021  -5.621  11.333  1.00  0.00    -0.508 OA
ATOM     18  H   UNL     1      -3.949  -4.876  10.650  1.00  0.00     0.293 HD
ENDBRANCH  14  17
BRANCH  15  19
ATOM     19  O   UNL     1      -7.992  -6.111  14.083  1.00  0.00    -0.508 OA
ATOM     20  H   UNL     1      -8.278  -6.642  14.898  1.00  0.00     0.293 HD
ENDBRANCH  15  19
ENDBRANCH  10  11
ENDBRANCH   1  10
TORSDOF 6
ENDMDL
MODEL 9
REMARK VINA RESULT:    -5.654     10.847     11.315
REMARK INTER + INTRA:          -7.901
REMARK INTER:                  -7.363
REMARK INTRA:                  -0.537
REMARK UNBOUND:                -0.759
REMARK SMILES Oc1ccc(CCc2cc(O)cc(O)c2)cc1
REMARK SMILES IDX 6 1 5 2 4 3 3 4 2 5 16 6 17 7 1 8 7 10 8 11 15 12 9 13 13 14
REMARK SMILES IDX 10 15 12 16 14 17 11 19
REMARK H PARENT 1 9 14 18 11 20
REMARK Flexibility Score: inf
ROOT
ATOM      1  C   UNL     1      -0.960  -5.298   3.128  1.00  0.00     0.040 C 
ENDROOT
BRANCH   1   2
ATOM      2  C   UNL     1      -2.318  -5.941   3.230  1.00  0.00    -0.047 A 
ATOM      3  C   UNL     1      -2.464  -7.191   3.853  1.00  0.00     0.007 A 
ATOM      4  C   UNL     1      -3.730  -7.773   3.977  1.00  0.00     0.046 A 
ATOM      5  C   UNL     1      -4.861  -7.105   3.490  1.00  0.00     0.115 A 
ATOM      6  C   UNL     1      -3.457  -5.270   2.755  1.00  0.00     0.007 A 
ATOM      7  C   UNL     1      -4.721  -5.854   2.881  1.00  0.00     0.046 A 
BRANCH   5   8
ATOM      8  O   UNL     1      -6.127  -7.675   3.608  1.00  0.00    -0.508 OA
ATOM      9  H   UNL     1      -6.893  -7.391   3.009  1.00  0.00     0.293 HD
ENDBRANCH   5   8
ENDBRANCH   1   2
BRANCH   1  10
ATOM     10  C   UNL     1      -0.905  -4.018   3.967  1.00  0.00     0.040 C 
BRANCH  10  11
ATOM     11  C   UNL     1       0.112  -4.150   5.067  1.00  0.00    -0.040 A 
ATOM     12  C   UNL     1       0.310  -5.386   5.705  1.00  0.00     0.050 A 
ATOM     13  C   UNL     1       0.832  -3.026   5.504  1.00  0.00     0.050 A 
ATOM     14  C   UNL     1       1.233  -5.503   6.750  1.00  0.00     0.119 A 
ATOM     15  C   UNL     1       1.755  -3.140   6.549  1.00  0.00     0.119 A 
ATOM     16  C   UNL     1       1.957  -4.379   7.170  1.00  0.00     0.092 A 
BRANCH  14  17
ATOM     17  O   UNL     1       1.419  -6.739   7.365  1.00  0.00    -0.508 OA
ATOM     18  H   UNL     1       1.779  -6.811   8.310  1.00  0.00     0.293 HD
ENDBRANCH  14  17
BRANCH  15  19
ATOM     19  O   UNL     1       2.464  -2.015   6.964  1.00  0.00    -0.508 OA
ATOM     20  H   UNL     1       2.801  -1.922   7.915  1.00  0.00     0.293 HD
ENDBRANCH  15  19
ENDBRANCH  10  11
ENDBRANCH   1  10
TORSDOF 6
ENDMDL
