MODEL 1
REMARK VINA RESULT:    -4.211      0.000      0.000
REMARK INTER + INTRA:          -5.191
REMARK INTER:                  -5.073
REMARK INTRA:                  -0.119
REMARK UNBOUND:                -0.119
REMARK SMILES NC(=O)C[C@H]([NH3+])C(=O)[O-]
REMARK SMILES IDX 4 1 5 2 6 3 7 7 8 8 9 9 2 10 3 11 1 12
REMARK H PARENT 6 4 6 5 6 6 1 13 1 14
REMARK Flexibility Score: inf
ROOT
ATOM      1  C   UNL     1     -40.101  22.564 -29.755  1.00  0.00     0.171 C 
ENDROOT
BRANCH   1   2
ATOM      2  C   UNL     1     -41.535  22.541 -29.181  1.00  0.00     0.237 C 
BRANCH   2   3
ATOM      3  N   UNL     1     -41.912  23.836 -28.599  1.00  0.00    -0.350 N 
ATOM      4  H   UNL     1     -41.053  24.406 -28.415  1.00  0.00     0.345 HD
ATOM      5  H   UNL     1     -42.439  23.712 -27.704  1.00  0.00     0.345 HD
ATOM      6  H   UNL     1     -42.513  24.362 -29.275  1.00  0.00     0.345 HD
ENDBRANCH   2   3
BRANCH   2   7
ATOM      7  C   UNL     1     -41.716  21.419 -28.190  1.00  0.00     0.100 C 
ATOM      8  O   UNL     1     -40.723  20.778 -27.753  1.00  0.00    -0.544 OA
ATOM      9  O   UNL     1     -42.994  21.051 -27.792  1.00  0.00    -0.544 OA
ENDBRANCH   2   7
ENDBRANCH   1   2
BRANCH   1  10
ATOM     10  C   UNL     1     -40.000  21.956 -31.126  1.00  0.00     0.223 C 
ATOM     11  O   UNL     1     -40.213  20.725 -31.284  1.00  0.00    -0.275 OA
ATOM     12  N   UNL     1     -39.682  22.768 -32.256  1.00  0.00    -0.369 N 
ATOM     13  H   UNL     1     -39.504  23.791 -32.146  1.00  0.00     0.159 HD
ATOM     14  H   UNL     1     -39.624  22.345 -33.210  1.00  0.00     0.159 HD
ENDBRANCH   1  10
TORSDOF 4
ENDMDL
MODEL 2
REMARK VINA RESULT:    -4.159      3.028      3.105
REMARK INTER + INTRA:          -5.129
REMARK INTER:                  -4.851
REMARK INTRA:                  -0.277
REMARK UNBOUND:                -0.119
REMARK SMILES NC(=O)C[C@H]([NH3+])C(=O)[O-]
REMARK SMILES IDX 4 1 5 2 6 3 7 7 8 8 9 9 2 10 3 11 1 12
REMARK H PARENT 6 4 6 5 6 6 1 13 1 14
REMARK Flexibility Score: inf
ROOT
ATOM      1  C   UNL     1     -40.417  19.950 -29.716  1.00  0.00     0.171 C 
ENDROOT
BRANCH   1   2
ATOM      2  C   UNL     1     -40.421  20.998 -28.581  1.00  0.00     0.237 C 
BRANCH   2   3
ATOM      3  N   UNL     1     -40.003  20.414 -27.299  1.00  0.00    -0.350 N 
ATOM      4  H   UNL     1     -39.180  20.939 -26.921  1.00  0.00     0.345 HD
ATOM      5  H   UNL     1     -39.746  19.406 -27.406  1.00  0.00     0.345 HD
ATOM      6  H   UNL     1     -40.784  20.491 -26.607  1.00  0.00     0.345 HD
ENDBRANCH   2   3
BRANCH   2   7
ATOM      7  C   UNL     1     -41.759  21.682 -28.465  1.00  0.00     0.100 C 
ATOM      8  O   UNL     1     -41.941  22.829 -28.953  1.00  0.00    -0.544 OA
ATOM      9  O   UNL     1     -42.788  21.067 -27.765  1.00  0.00    -0.544 OA
ENDBRANCH   2   7
ENDBRANCH   1   2
BRANCH   1  10
ATOM     10  C   UNL     1     -39.188  19.085 -29.722  1.00  0.00     0.223 C 
ATOM     11  O   UNL     1     -38.053  19.607 -29.561  1.00  0.00    -0.275 OA
ATOM     12  N   UNL     1     -39.297  17.672 -29.892  1.00  0.00    -0.369 N 
ATOM     13  H   UNL     1     -40.230  17.221 -30.025  1.00  0.00     0.159 HD
ATOM     14  H   UNL     1     -38.442  17.072 -29.883  1.00  0.00     0.159 HD
ENDBRANCH   1  10
TORSDOF 4
ENDMDL
MODEL 3
REMARK VINA RESULT:    -4.108      2.123      3.485
REMARK INTER + INTRA:          -5.067
REMARK INTER:                  -4.787
REMARK INTRA:                  -0.280
REMARK UNBOUND:                -0.119
REMARK SMILES NC(=O)C[C@H]([NH3+])C(=O)[O-]
REMARK SMILES IDX 4 1 5 2 6 3 7 7 8 8 9 9 2 10 3 11 1 12
REMARK H PARENT 6 4 6 5 6 6 1 13 1 14
REMARK Flexibility Score: inf
ROOT
ATOM      1  C   UNL     1     -40.888  21.132 -29.095  1.00  0.00     0.171 C 
ENDROOT
BRANCH   1   2
ATOM      2  C   UNL     1     -39.961  20.608 -30.214  1.00  0.00     0.237 C 
BRANCH   2   3
ATOM      3  N   UNL     1     -40.192  21.308 -31.486  1.00  0.00    -0.350 N 
ATOM      4  H   UNL     1     -40.405  22.316 -31.303  1.00  0.00     0.345 HD
ATOM      5  H   UNL     1     -40.987  20.880 -32.016  1.00  0.00     0.345 HD
ATOM      6  H   UNL     1     -39.329  21.258 -32.075  1.00  0.00     0.345 HD
ENDBRANCH   2   3
BRANCH   2   7
ATOM      7  C   UNL     1     -40.081  19.115 -30.378  1.00  0.00     0.100 C 
ATOM      8  O   UNL     1     -39.242  18.338 -29.847  1.00  0.00    -0.544 OA
ATOM      9  O   UNL     1     -41.095  18.587 -31.167  1.00  0.00    -0.544 OA
ENDBRANCH   2   7
ENDBRANCH   1   2
BRANCH   1  10
ATOM     10  C   UNL     1     -41.044  22.627 -29.103  1.00  0.00     0.223 C 
ATOM     11  O   UNL     1     -40.035  23.361 -29.271  1.00  0.00    -0.275 OA
ATOM     12  N   UNL     1     -42.331  23.222 -28.940  1.00  0.00    -0.369 N 
ATOM     13  H   UNL     1     -43.180  22.629 -28.802  1.00  0.00     0.159 HD
ATOM     14  H   UNL     1     -42.437  24.261 -28.958  1.00  0.00     0.159 HD
ENDBRANCH   1  10
TORSDOF 4
ENDMDL
MODEL 4
REMARK VINA RESULT:    -3.968      2.559      2.628
REMARK INTER + INTRA:          -4.899
REMARK INTER:                  -4.771
REMARK INTRA:                  -0.128
REMARK UNBOUND:                -0.119
REMARK SMILES NC(=O)C[C@H]([NH3+])C(=O)[O-]
REMARK SMILES IDX 4 1 5 2 6 3 7 7 8 8 9 9 2 10 3 11 1 12
REMARK H PARENT 6 4 6 5 6 6 1 13 1 14
REMARK Flexibility Score: inf
ROOT
ATOM      1  C   UNL     1     -39.417  20.185 -30.077  1.00  0.00     0.171 C 
ENDROOT
BRANCH   1   2
ATOM      2  C   UNL     1     -40.580  21.127 -29.696  1.00  0.00     0.237 C 
BRANCH   2   3
ATOM      3  N   UNL     1     -40.255  22.534 -29.971  1.00  0.00    -0.350 N 
ATOM      4  H   UNL     1     -40.771  23.154 -29.303  1.00  0.00     0.345 HD
ATOM      5  H   UNL     1     -40.510  22.798 -30.950  1.00  0.00     0.345 HD
ATOM      6  H   UNL     1     -39.230  22.690 -29.835  1.00  0.00     0.345 HD
ENDBRANCH   2   3
BRANCH   2   7
ATOM      7  C   UNL     1     -41.004  20.930 -28.263  1.00  0.00     0.100 C 
ATOM      8  O   UNL     1     -40.169  20.585 -27.385  1.00  0.00    -0.544 OA
ATOM      9  O   UNL     1     -42.340  21.076 -27.914  1.00  0.00    -0.544 OA
ENDBRANCH   2   7
ENDBRANCH   1   2
BRANCH   1  10
ATOM     10  C   UNL     1     -39.843  18.753 -30.245  1.00  0.00     0.223 C 
ATOM     11  O   UNL     1     -39.297  17.852 -29.553  1.00  0.00    -0.275 OA
ATOM     12  N   UNL     1     -40.874  18.407 -31.169  1.00  0.00    -0.369 N 
ATOM     13  H   UNL     1     -41.339  19.140 -31.749  1.00  0.00     0.159 HD
ATOM     14  H   UNL     1     -41.175  17.412 -31.273  1.00  0.00     0.159 HD
ENDBRANCH   1  10
TORSDOF 4
ENDMDL
MODEL 5
REMARK VINA RESULT:    -3.961      2.938      3.607
REMARK INTER + INTRA:          -4.889
REMARK INTER:                  -4.602
REMARK INTRA:                  -0.287
REMARK UNBOUND:                -0.119
REMARK SMILES NC(=O)C[C@H]([NH3+])C(=O)[O-]
REMARK SMILES IDX 4 1 5 2 6 3 7 7 8 8 9 9 2 10 3 11 1 12
REMARK H PARENT 6 4 6 5 6 6 1 13 1 14
REMARK Flexibility Score: inf
ROOT
ATOM      1  C   UNL     1     -40.031  20.325 -27.435  1.00  0.00     0.171 C 
ENDROOT
BRANCH   1   2
ATOM      2  C   UNL     1     -40.393  21.308 -28.570  1.00  0.00     0.237 C 
BRANCH   2   3
ATOM      3  N   UNL     1     -39.472  22.451 -28.617  1.00  0.00    -0.350 N 
ATOM      4  H   UNL     1     -39.790  23.135 -29.342  1.00  0.00     0.345 HD
ATOM      5  H   UNL     1     -38.497  22.145 -28.840  1.00  0.00     0.345 HD
ATOM      6  H   UNL     1     -39.469  22.937 -27.690  1.00  0.00     0.345 HD
ENDBRANCH   2   3
BRANCH   2   7
ATOM      7  C   UNL     1     -41.828  21.760 -28.474  1.00  0.00     0.100 C 
ATOM      8  O   UNL     1     -42.686  21.059 -27.873  1.00  0.00    -0.544 OA
ATOM      9  O   UNL     1     -42.223  22.936 -29.098  1.00  0.00    -0.544 OA
ENDBRANCH   2   7
ENDBRANCH   1   2
BRANCH   1  10
ATOM     10  C   UNL     1     -38.549  20.180 -27.224  1.00  0.00     0.223 C 
ATOM     11  O   UNL     1     -37.792  19.984 -28.212  1.00  0.00    -0.275 OA
ATOM     12  N   UNL     1     -37.991  20.280 -25.915  1.00  0.00    -0.369 N 
ATOM     13  H   UNL     1     -38.603  20.444 -25.084  1.00  0.00     0.159 HD
ATOM     14  H   UNL     1     -36.960  20.191 -25.774  1.00  0.00     0.159 HD
ENDBRANCH   1  10
TORSDOF 4
ENDMDL
MODEL 6
REMARK VINA RESULT:    -3.943      2.778      3.727
REMARK INTER + INTRA:          -4.868
REMARK INTER:                  -4.371
REMARK INTRA:                  -0.497
REMARK UNBOUND:                -0.119
REMARK SMILES NC(=O)C[C@H]([NH3+])C(=O)[O-]
REMARK SMILES IDX 4 1 5 2 6 3 7 7 8 8 9 9 2 10 3 11 1 12
REMARK H PARENT 6 4 6 5 6 6 1 13 1 14
REMARK Flexibility Score: inf
ROOT
ATOM      1  C   UNL     1     -40.701  20.070 -29.610  1.00  0.00     0.171 C 
ENDROOT
BRANCH   1   2
ATOM      2  C   UNL     1     -40.088  21.383 -30.144  1.00  0.00     0.237 C 
BRANCH   2   3
ATOM      3  N   UNL     1     -40.102  21.435 -31.613  1.00  0.00    -0.350 N 
ATOM      4  H   UNL     1     -39.713  22.349 -31.940  1.00  0.00     0.345 HD
ATOM      5  H   UNL     1     -41.073  21.323 -31.987  1.00  0.00     0.345 HD
ATOM      6  H   UNL     1     -39.502  20.668 -31.997  1.00  0.00     0.345 HD
ENDBRANCH   2   3
BRANCH   2   7
ATOM      7  C   UNL     1     -38.700  21.606 -29.600  1.00  0.00     0.100 C 
ATOM      8  O   UNL     1     -38.505  22.391 -28.633  1.00  0.00    -0.544 OA
ATOM      9  O   UNL     1     -37.615  20.984 -30.202  1.00  0.00    -0.544 OA
ENDBRANCH   2   7
ENDBRANCH   1   2
BRANCH   1  10
ATOM     10  C   UNL     1     -40.341  18.866 -30.436  1.00  0.00     0.223 C 
ATOM     11  O   UNL     1     -41.111  18.486 -31.358  1.00  0.00    -0.275 OA
ATOM     12  N   UNL     1     -39.125  18.160 -30.196  1.00  0.00    -0.369 N 
ATOM     13  H   UNL     1     -38.473  18.462 -29.437  1.00  0.00     0.159 HD
ATOM     14  H   UNL     1     -38.872  17.332 -30.780  1.00  0.00     0.159 HD
ENDBRANCH   1  10
TORSDOF 4
ENDMDL
MODEL 7
REMARK VINA RESULT:    -3.920      2.833      3.991
REMARK INTER + INTRA:          -4.840
REMARK INTER:                  -4.629
REMARK INTRA:                  -0.211
REMARK UNBOUND:                -0.119
REMARK SMILES NC(=O)C[C@H]([NH3+])C(=O)[O-]
REMARK SMILES IDX 4 1 5 2 6 3 7 7 8 8 9 9 2 10 3 11 1 12
REMARK H PARENT 6 4 6 5 6 6 1 13 1 14
REMARK Flexibility Score: inf
ROOT
ATOM      1  C   UNL     1     -40.103  21.173 -28.986  1.00  0.00     0.171 C 
ENDROOT
BRANCH   1   2
ATOM      2  C   UNL     1     -39.640  20.492 -30.292  1.00  0.00     0.237 C 
BRANCH   2   3
ATOM      3  N   UNL     1     -40.134  21.200 -31.481  1.00  0.00    -0.350 N 
ATOM      4  H   UNL     1     -39.515  20.994 -32.300  1.00  0.00     0.345 HD
ATOM      5  H   UNL     1     -40.161  22.234 -31.324  1.00  0.00     0.345 HD
ATOM      6  H   UNL     1     -41.100  20.869 -31.711  1.00  0.00     0.345 HD
ENDBRANCH   2   3
BRANCH   2   7
ATOM      7  C   UNL     1     -40.022  19.034 -30.322  1.00  0.00     0.100 C 
ATOM      8  O   UNL     1     -39.356  18.180 -29.678  1.00  0.00    -0.544 OA
ATOM      9  O   UNL     1     -41.086  18.617 -31.109  1.00  0.00    -0.544 OA
ENDBRANCH   2   7
ENDBRANCH   1   2
BRANCH   1  10
ATOM     10  C   UNL     1     -39.145  20.981 -27.843  1.00  0.00     0.223 C 
ATOM     11  O   UNL     1     -38.178  21.775 -27.697  1.00  0.00    -0.275 OA
ATOM     12  N   UNL     1     -39.331  19.916 -26.912  1.00  0.00    -0.369 N 
ATOM     13  H   UNL     1     -40.128  19.249 -27.016  1.00  0.00     0.159 HD
ATOM     14  H   UNL     1     -38.671  19.793 -26.112  1.00  0.00     0.159 HD
ENDBRANCH   1  10
TORSDOF 4
ENDMDL
MODEL 8
REMARK VINA RESULT:    -3.908      3.837      4.820
REMARK INTER + INTRA:          -4.826
REMARK INTER:                  -4.721
REMARK INTRA:                  -0.105
REMARK UNBOUND:                -0.119
REMARK SMILES NC(=O)C[C@H]([NH3+])C(=O)[O-]
REMARK SMILES IDX 4 1 5 2 6 3 7 7 8 8 9 9 2 10 3 11 1 12
REMARK H PARENT 6 4 6 5 6 6 1 13 1 14
REMARK Flexibility Score: inf
ROOT
ATOM      1  C   UNL     1     -38.314  19.859 -29.201  1.00  0.00     0.171 C 
ENDROOT
BRANCH   1   2
ATOM      2  C   UNL     1     -39.337  18.765 -29.577  1.00  0.00     0.237 C 
BRANCH   2   3
ATOM      3  N   UNL     1     -38.677  17.526 -30.010  1.00  0.00    -0.350 N 
ATOM      4  H   UNL     1     -39.068  16.712 -29.482  1.00  0.00     0.345 HD
ATOM      5  H   UNL     1     -37.644  17.571 -29.854  1.00  0.00     0.345 HD
ATOM      6  H   UNL     1     -38.857  17.370 -31.029  1.00  0.00     0.345 HD
ENDBRANCH   2   3
BRANCH   2   7
ATOM      7  C   UNL     1     -40.317  19.257 -30.612  1.00  0.00     0.100 C 
ATOM      8  O   UNL     1     -41.171  18.478 -31.114  1.00  0.00    -0.544 OA
ATOM      9  O   UNL     1     -40.247  20.570 -31.058  1.00  0.00    -0.544 OA
ENDBRANCH   2   7
ENDBRANCH   1   2
BRANCH   1  10
ATOM     10  C   UNL     1     -38.310  20.191 -27.735  1.00  0.00     0.223 C 
ATOM     11  O   UNL     1     -37.290  20.714 -27.213  1.00  0.00    -0.275 OA
ATOM     12  N   UNL     1     -39.462  19.934 -26.931  1.00  0.00    -0.369 N 
ATOM     13  H   UNL     1     -40.317  19.503 -27.346  1.00  0.00     0.159 HD
ATOM     14  H   UNL     1     -39.460  20.178 -25.916  1.00  0.00     0.159 HD
ENDBRANCH   1  10
TORSDOF 4
ENDMDL
MODEL 9
REMARK VINA RESULT:    -3.896      2.429      3.793
REMARK INTER + INTRA:          -4.812
REMARK INTER:                  -4.577
REMARK INTRA:                  -0.234
REMARK UNBOUND:                -0.119
REMARK SMILES NC(=O)C[C@H]([NH3+])C(=O)[O-]
REMARK SMILES IDX 4 1 5 2 6 3 7 7 8 8 9 9 2 10 3 11 1 12
REMARK H PARENT 6 4 6 5 6 6 1 13 1 14
REMARK Flexibility Score: inf
ROOT
ATOM      1  C   UNL     1     -40.462  21.678 -28.882  1.00  0.00     0.171 C 
ENDROOT
BRANCH   1   2
ATOM      2  C   UNL     1     -40.011  20.258 -28.475  1.00  0.00     0.237 C 
BRANCH   2   3
ATOM      3  N   UNL     1     -39.533  20.214 -27.086  1.00  0.00    -0.350 N 
ATOM      4  H   UNL     1     -39.604  19.238 -26.717  1.00  0.00     0.345 HD
ATOM      5  H   UNL     1     -40.090  20.853 -26.473  1.00  0.00     0.345 HD
ATOM      6  H   UNL     1     -38.529  20.504 -27.051  1.00  0.00     0.345 HD
ENDBRANCH   2   3
BRANCH   2   7
ATOM      7  C   UNL     1     -38.979  19.712 -29.429  1.00  0.00     0.100 C 
ATOM      8  O   UNL     1     -38.199  20.484 -30.047  1.00  0.00    -0.544 OA
ATOM      9  O   UNL     1     -38.922  18.346 -29.672  1.00  0.00    -0.544 OA
ENDBRANCH   2   7
ENDBRANCH   1   2
BRANCH   1  10
ATOM     10  C   UNL     1     -41.881  21.986 -28.492  1.00  0.00     0.223 C 
ATOM     11  O   UNL     1     -42.533  21.161 -27.799  1.00  0.00    -0.275 OA
ATOM     12  N   UNL     1     -42.491  23.214 -28.886  1.00  0.00    -0.369 N 
ATOM     13  H   UNL     1     -41.965  23.912 -29.459  1.00  0.00     0.159 HD
ATOM     14  H   UNL     1     -43.473  23.430 -28.603  1.00  0.00     0.159 HD
ENDBRANCH   1  10
TORSDOF 4
ENDMDL
