MODEL 1
REMARK VINA RESULT:    -3.170      0.000      0.000
REMARK INTER + INTRA:          -3.580
REMARK INTER:                  -3.541
REMARK INTRA:                  -0.040
REMARK UNBOUND:                -0.040
REMARK SMILES CCCC(=O)[O-]
REMARK SMILES IDX 3 1 4 2 5 3 6 4 2 5 1 6
REMARK H PARENT
REMARK Flexibility Score: inf
ROOT
ATOM      1  C   UNL     1      19.903  24.346   8.720  1.00  0.00     0.052 C 
ENDROOT
BRANCH   1   2
ATOM      2  C   UNL     1      19.945  23.657  10.049  1.00  0.00     0.041 C 
ATOM      3  O   UNL     1      21.039  23.526  10.660  1.00  0.00    -0.550 OA
ATOM      4  O   UNL     1      18.772  23.192  10.630  1.00  0.00    -0.550 OA
ENDBRANCH   1   2
BRANCH   1   5
ATOM      5  C   UNL     1      18.709  25.302   8.611  1.00  0.00     0.003 C 
ATOM      6  C   UNL     1      19.068  26.730   9.022  1.00  0.00     0.004 C 
ENDBRANCH   1   5
TORSDOF 2
ENDMDL
MODEL 2
REMARK VINA RESULT:    -3.168      0.109      1.327
REMARK INTER + INTRA:          -3.579
REMARK INTER:                  -3.542
REMARK INTRA:                  -0.036
REMARK UNBOUND:                -0.040
REMARK SMILES CCCC(=O)[O-]
REMARK SMILES IDX 3 1 4 2 5 3 6 4 2 5 1 6
REMARK H PARENT
REMARK Flexibility Score: inf
ROOT
ATOM      1  C   UNL     1      19.770  24.381   8.683  1.00  0.00     0.052 C 
ENDROOT
BRANCH   1   2
ATOM      2  C   UNL     1      19.829  23.698  10.015  1.00  0.00     0.041 C 
ATOM      3  O   UNL     1      18.777  23.249  10.543  1.00  0.00    -0.550 OA
ATOM      4  O   UNL     1      21.049  23.526  10.656  1.00  0.00    -0.550 OA
ENDBRANCH   1   2
BRANCH   1   5
ATOM      5  C   UNL     1      18.619  25.393   8.612  1.00  0.00     0.003 C 
ATOM      6  C   UNL     1      19.064  26.808   8.981  1.00  0.00     0.004 C 
ENDBRANCH   1   5
TORSDOF 2
ENDMDL
MODEL 3
REMARK VINA RESULT:    -3.156      1.718      2.359
REMARK INTER + INTRA:          -3.564
REMARK INTER:                  -3.526
REMARK INTRA:                  -0.038
REMARK UNBOUND:                -0.040
REMARK SMILES CCCC(=O)[O-]
REMARK SMILES IDX 3 1 4 2 5 3 6 4 2 5 1 6
REMARK H PARENT
REMARK Flexibility Score: inf
ROOT
ATOM      1  C   UNL     1      19.173  25.444   9.613  1.00  0.00     0.052 C 
ENDROOT
BRANCH   1   2
ATOM      2  C   UNL     1      19.554  24.421   8.587  1.00  0.00     0.041 C 
ATOM      3  O   UNL     1      18.777  24.166   7.628  1.00  0.00    -0.550 OA
ATOM      4  O   UNL     1      20.781  23.776   8.668  1.00  0.00    -0.550 OA
ENDBRANCH   1   2
BRANCH   1   5
ATOM      5  C   UNL     1      19.153  26.860   9.025  1.00  0.00     0.003 C 
ATOM      6  C   UNL     1      17.732  27.375   8.795  1.00  0.00     0.004 C 
ENDBRANCH   1   5
TORSDOF 2
ENDMDL
MODEL 4
REMARK VINA RESULT:    -3.103      2.280      2.830
REMARK INTER + INTRA:          -3.505
REMARK INTER:                  -3.440
REMARK INTRA:                  -0.066
REMARK UNBOUND:                -0.040
REMARK SMILES CCCC(=O)[O-]
REMARK SMILES IDX 3 1 4 2 5 3 6 4 2 5 1 6
REMARK H PARENT
REMARK Flexibility Score: inf
ROOT
ATOM      1  C   UNL     1      18.915  24.841   8.531  1.00  0.00     0.052 C 
ENDROOT
BRANCH   1   2
ATOM      2  C   UNL     1      17.510  24.329   8.445  1.00  0.00     0.041 C 
ATOM      3  O   UNL     1      16.880  24.029   9.493  1.00  0.00    -0.550 OA
ATOM      4  O   UNL     1      16.884  24.217   7.210  1.00  0.00    -0.550 OA
ENDBRANCH   1   2
BRANCH   1   5
ATOM      5  C   UNL     1      18.993  26.163   9.303  1.00  0.00     0.003 C 
ATOM      6  C   UNL     1      18.090  27.241   8.706  1.00  0.00     0.004 C 
ENDBRANCH   1   5
TORSDOF 2
ENDMDL
MODEL 5
REMARK VINA RESULT:    -3.074      2.432      3.151
REMARK INTER + INTRA:          -3.473
REMARK INTER:                  -3.468
REMARK INTRA:                  -0.005
REMARK UNBOUND:                -0.040
REMARK SMILES CCCC(=O)[O-]
REMARK SMILES IDX 3 1 4 2 5 3 6 4 2 5 1 6
REMARK H PARENT
REMARK Flexibility Score: inf
ROOT
ATOM      1  C   UNL     1      18.231  24.767   8.018  1.00  0.00     0.052 C 
ENDROOT
BRANCH   1   2
ATOM      2  C   UNL     1      18.938  25.690   8.963  1.00  0.00     0.041 C 
ATOM      3  O   UNL     1      19.072  26.909   8.675  1.00  0.00    -0.550 OA
ATOM      4  O   UNL     1      19.416  25.213  10.176  1.00  0.00    -0.550 OA
ENDBRANCH   1   2
BRANCH   1   5
ATOM      5  C   UNL     1      19.133  23.611   7.570  1.00  0.00     0.003 C 
ATOM      6  C   UNL     1      18.703  23.023   6.226  1.00  0.00     0.004 C 
ENDBRANCH   1   5
TORSDOF 2
ENDMDL
MODEL 6
REMARK VINA RESULT:    -3.061      2.249      3.163
REMARK INTER + INTRA:          -3.458
REMARK INTER:                  -3.452
REMARK INTRA:                  -0.007
REMARK UNBOUND:                -0.040
REMARK SMILES CCCC(=O)[O-]
REMARK SMILES IDX 3 1 4 2 5 3 6 4 2 5 1 6
REMARK H PARENT
REMARK Flexibility Score: inf
ROOT
ATOM      1  C   UNL     1      19.567  24.610   8.727  1.00  0.00     0.052 C 
ENDROOT
BRANCH   1   2
ATOM      2  C   UNL     1      18.672  25.793   8.937  1.00  0.00     0.041 C 
ATOM      3  O   UNL     1      19.165  26.945   9.063  1.00  0.00    -0.550 OA
ATOM      4  O   UNL     1      17.293  25.629   8.957  1.00  0.00    -0.550 OA
ENDBRANCH   1   2
BRANCH   1   5
ATOM      5  C   UNL     1      19.995  23.978  10.057  1.00  0.00     0.003 C 
ATOM      6  C   UNL     1      21.312  23.211   9.939  1.00  0.00     0.004 C 
ENDBRANCH   1   5
TORSDOF 2
ENDMDL
MODEL 7
REMARK VINA RESULT:    -2.979      1.364      2.172
REMARK INTER + INTRA:          -3.367
REMARK INTER:                  -3.299
REMARK INTRA:                  -0.068
REMARK UNBOUND:                -0.040
REMARK SMILES CCCC(=O)[O-]
REMARK SMILES IDX 3 1 4 2 5 3 6 4 2 5 1 6
REMARK H PARENT
REMARK Flexibility Score: inf
ROOT
ATOM      1  C   UNL     1      19.874  24.281   8.833  1.00  0.00     0.052 C 
ENDROOT
BRANCH   1   2
ATOM      2  C   UNL     1      20.380  23.319   9.864  1.00  0.00     0.041 C 
ATOM      3  O   UNL     1      21.610  23.267  10.131  1.00  0.00    -0.550 OA
ATOM      4  O   UNL     1      19.491  22.506  10.554  1.00  0.00    -0.550 OA
ENDBRANCH   1   2
BRANCH   1   5
ATOM      5  C   UNL     1      19.215  23.557   7.653  1.00  0.00     0.003 C 
ATOM      6  C   UNL     1      20.214  22.725   6.849  1.00  0.00     0.004 C 
ENDBRANCH   1   5
TORSDOF 2
ENDMDL
MODEL 8
REMARK VINA RESULT:    -2.953      2.086      2.961
REMARK INTER + INTRA:          -3.338
REMARK INTER:                  -3.299
REMARK INTRA:                  -0.038
REMARK UNBOUND:                -0.040
REMARK SMILES CCCC(=O)[O-]
REMARK SMILES IDX 3 1 4 2 5 3 6 4 2 5 1 6
REMARK H PARENT
REMARK Flexibility Score: inf
ROOT
ATOM      1  C   UNL     1      19.363  23.206  10.306  1.00  0.00     0.052 C 
ENDROOT
BRANCH   1   2
ATOM      2  C   UNL     1      18.612  24.493  10.151  1.00  0.00     0.041 C 
ATOM      3  O   UNL     1      19.232  25.562   9.907  1.00  0.00    -0.550 OA
ATOM      4  O   UNL     1      17.226  24.505  10.239  1.00  0.00    -0.550 OA
ENDBRANCH   1   2
BRANCH   1   5
ATOM      5  C   UNL     1      20.837  23.446  10.657  1.00  0.00     0.003 C 
ATOM      6  C   UNL     1      21.782  22.994   9.544  1.00  0.00     0.004 C 
ENDBRANCH   1   5
TORSDOF 2
ENDMDL
MODEL 9
REMARK VINA RESULT:    -2.940      1.786      2.872
REMARK INTER + INTRA:          -3.323
REMARK INTER:                  -3.305
REMARK INTRA:                  -0.018
REMARK UNBOUND:                -0.040
REMARK SMILES CCCC(=O)[O-]
REMARK SMILES IDX 3 1 4 2 5 3 6 4 2 5 1 6
REMARK H PARENT
REMARK Flexibility Score: inf
ROOT
ATOM      1  C   UNL     1      20.008  23.880   8.396  1.00  0.00     0.052 C 
ENDROOT
BRANCH   1   2
ATOM      2  C   UNL     1      19.509  24.067   9.796  1.00  0.00     0.041 C 
ATOM      3  O   UNL     1      19.448  23.085  10.582  1.00  0.00    -0.550 OA
ATOM      4  O   UNL     1      19.146  25.331  10.243  1.00  0.00    -0.550 OA
ENDBRANCH   1   2
BRANCH   1   5
ATOM      5  C   UNL     1      21.386  23.209   8.366  1.00  0.00     0.003 C 
ATOM      6  C   UNL     1      21.545  22.256   7.182  1.00  0.00     0.004 C 
ENDBRANCH   1   5
TORSDOF 2
ENDMDL
