MODEL 1
REMARK VINA RESULT:    -5.390      0.000      0.000
REMARK INTER + INTRA:          -9.867
REMARK INTER:                  -8.384
REMARK INTRA:                  -1.483
REMARK UNBOUND:                -1.483
REMARK SMILES C[C@]12C[C@]3(O)O[C@H](O1)[C@@]1(COC(=O)c4ccccc4)[C@@H]3C[C@]12O[C@@H]1O[C@@H](CO)[C@@H](O)[C@H](O)[C@@H]1O
REMARK SMILES IDX 1 1 2 2 3 3 4 4 20 5 21 6 22 7 9 8 7 9 8 10 6 11 23 12 24 13
REMARK SMILES IDX 33 14 25 15 31 16 26 17 29 18 34 19 32 21 27 23 28 24 30 26
REMARK SMILES IDX 5 28 10 30 11 31 12 32 13 33 14 34 15 35 19 36 16 37 18 38
REMARK SMILES IDX 17 39
REMARK H PARENT 34 20 32 22 28 25 30 27 5 29
REMARK Flexibility Score: inf
ROOT
ATOM      1  C   UNL     1       1.652   4.767  14.105  1.00  0.00     0.046 C 
ATOM      2  C   UNL     1       1.032   6.162  14.061  1.00  0.00     0.104 C 
ATOM      3  C   UNL     1       0.817   6.645  12.581  1.00  0.00     0.104 C 
ATOM      4  C   UNL     1       0.119   8.043  12.747  1.00  0.00     0.175 C 
ATOM      5  C   UNL     1      -1.084   7.938  13.735  1.00  0.00     0.070 C 
ATOM      6  C   UNL     1      -1.563   6.495  13.955  1.00  0.00     0.050 C 
ATOM      7  C   UNL     1      -0.319   6.315  14.857  1.00  0.00     0.115 C 
ATOM      8  C   UNL     1      -0.288   7.833  15.026  1.00  0.00     0.096 C 
ATOM      9  C   UNL     1       1.122   8.291  14.709  1.00  0.00     0.267 C 
ATOM     10  O   UNL     1       1.904   7.109  14.650  1.00  0.00    -0.342 OA
ATOM     11  O   UNL     1       1.053   8.869  13.415  1.00  0.00    -0.320 OA
ENDROOT
BRANCH   7  12
ATOM     12  O   UNL     1      -0.428   5.630  16.099  1.00  0.00    -0.339 OA
BRANCH  12  13
ATOM     13  C   UNL     1      -1.287   4.499  16.022  1.00  0.00     0.282 C 
ATOM     14  C   UNL     1      -0.802   3.362  16.953  1.00  0.00     0.202 C 
ATOM     15  O   UNL     1      -2.632   4.850  16.319  1.00  0.00    -0.341 OA
ATOM     16  C   UNL     1      -1.051   3.669  18.448  1.00  0.00     0.179 C 
ATOM     17  C   UNL     1      -2.768   5.346  17.642  1.00  0.00     0.178 C 
ATOM     18  C   UNL     1      -2.464   4.237  18.674  1.00  0.00     0.177 C 
BRANCH  14  19
ATOM     19  O   UNL     1       0.557   3.097  16.728  1.00  0.00    -0.385 OA
ATOM     20  H   UNL     1       1.061   3.543  17.458  1.00  0.00     0.211 HD
ENDBRANCH  14  19
BRANCH  16  21
ATOM     21  O   UNL     1      -0.057   4.506  18.991  1.00  0.00    -0.387 OA
ATOM     22  H   UNL     1      -0.108   4.460  19.977  1.00  0.00     0.211 HD
ENDBRANCH  16  21
BRANCH  17  23
ATOM     23  C   UNL     1      -4.188   5.900  17.826  1.00  0.00     0.191 C 
BRANCH  23  24
ATOM     24  O   UNL     1      -4.526   5.934  19.186  1.00  0.00    -0.394 OA
ATOM     25  H   UNL     1      -3.675   5.902  19.695  1.00  0.00     0.210 HD
ENDBRANCH  23  24
ENDBRANCH  17  23
BRANCH  18  26
ATOM     26  O   UNL     1      -3.397   3.190  18.548  1.00  0.00    -0.387 OA
ATOM     27  H   UNL     1      -3.924   3.364  17.724  1.00  0.00     0.211 HD
ENDBRANCH  18  26
ENDBRANCH  12  13
ENDBRANCH   7  12
BRANCH   4  28
ATOM     28  O   UNL     1      -0.270   8.596  11.519  1.00  0.00    -0.365 OA
ATOM     29  H   UNL     1      -1.191   8.271  11.339  1.00  0.00     0.214 HD
ENDBRANCH   4  28
BRANCH   8  30
ATOM     30  C   UNL     1      -0.957   8.437  16.274  1.00  0.00     0.249 C 
BRANCH  30  31
ATOM     31  O   UNL     1      -0.370   9.699  16.567  1.00  0.00    -0.461 OA
BRANCH  31  32
ATOM     32  C   UNL     1      -1.005  10.913  16.285  1.00  0.00     0.338 C 
ATOM     33  O   UNL     1      -1.517  11.591  17.217  1.00  0.00    -0.246 OA
BRANCH  32  34
ATOM     34  C   UNL     1      -1.073  11.397  14.888  1.00  0.00     0.060 A 
ATOM     35  C   UNL     1      -2.248  11.238  14.128  1.00  0.00     0.015 A 
ATOM     36  C   UNL     1       0.040  12.025  14.301  1.00  0.00     0.015 A 
ATOM     37  C   UNL     1      -2.303  11.699  12.809  1.00  0.00     0.001 A 
ATOM     38  C   UNL     1      -0.021  12.483  12.981  1.00  0.00     0.001 A 
ATOM     39  C   UNL     1      -1.192  12.321  12.236  1.00  0.00     0.000 A 
ENDBRANCH  32  34
ENDBRANCH  31  32
ENDBRANCH  30  31
ENDBRANCH   8  30
TORSDOF 12
ENDMDL
MODEL 2
REMARK VINA RESULT:    -5.254      3.971      7.509
REMARK INTER + INTRA:          -9.655
REMARK INTER:                  -8.395
REMARK INTRA:                  -1.260
REMARK UNBOUND:                -1.483
REMARK SMILES C[C@]12C[C@]3(O)O[C@H](O1)[C@@]1(COC(=O)c4ccccc4)[C@@H]3C[C@]12O[C@@H]1O[C@@H](CO)[C@@H](O)[C@H](O)[C@@H]1O
REMARK SMILES IDX 1 1 2 2 3 3 4 4 20 5 21 6 22 7 9 8 7 9 8 10 6 11 23 12 24 13
REMARK SMILES IDX 33 14 25 15 31 16 26 17 29 18 34 19 32 21 27 23 28 24 30 26
REMARK SMILES IDX 5 28 10 30 11 31 12 32 13 33 14 34 15 35 19 36 16 37 18 38
REMARK SMILES IDX 17 39
REMARK H PARENT 34 20 32 22 28 25 30 27 5 29
REMARK Flexibility Score: inf
ROOT
ATOM      1  C   UNL     1      -4.982  11.789  17.622  1.00  0.00     0.046 C 
ATOM      2  C   UNL     1      -4.091  10.724  16.986  1.00  0.00     0.104 C 
ATOM      3  C   UNL     1      -3.976   9.452  17.902  1.00  0.00     0.104 C 
ATOM      4  C   UNL     1      -3.093   8.465  17.056  1.00  0.00     0.175 C 
ATOM      5  C   UNL     1      -3.644   8.352  15.600  1.00  0.00     0.070 C 
ATOM      6  C   UNL     1      -5.093   8.845  15.460  1.00  0.00     0.050 C 
ATOM      7  C   UNL     1      -4.517  10.280  15.536  1.00  0.00     0.115 C 
ATOM      8  C   UNL     1      -3.173   9.706  15.091  1.00  0.00     0.096 C 
ATOM      9  C   UNL     1      -2.128  10.202  16.072  1.00  0.00     0.267 C 
ATOM     10  O   UNL     1      -2.769  11.209  16.837  1.00  0.00    -0.342 OA
ATOM     11  O   UNL     1      -1.835   9.095  16.909  1.00  0.00    -0.320 OA
ENDROOT
BRANCH   7  12
ATOM     12  O   UNL     1      -4.997  11.290  14.656  1.00  0.00    -0.339 OA
BRANCH  12  13
ATOM     13  C   UNL     1      -6.358  11.096  14.294  1.00  0.00     0.282 C 
ATOM     14  C   UNL     1      -7.105  12.446  14.178  1.00  0.00     0.202 C 
ATOM     15  O   UNL     1      -6.472  10.353  13.088  1.00  0.00    -0.341 OA
ATOM     16  C   UNL     1      -6.703  13.242  12.915  1.00  0.00     0.179 C 
ATOM     17  C   UNL     1      -5.878  11.033  11.993  1.00  0.00     0.178 C 
ATOM     18  C   UNL     1      -6.650  12.333  11.673  1.00  0.00     0.177 C 
BRANCH  14  19
ATOM     19  O   UNL     1      -6.896  13.218  15.330  1.00  0.00    -0.385 OA
ATOM     20  H   UNL     1      -5.979  13.014  15.650  1.00  0.00     0.211 HD
ENDBRANCH  14  19
BRANCH  16  21
ATOM     21  O   UNL     1      -5.499  13.951  13.096  1.00  0.00    -0.387 OA
ATOM     22  H   UNL     1      -5.457  14.270  14.031  1.00  0.00     0.211 HD
ENDBRANCH  16  21
BRANCH  17  23
ATOM     23  C   UNL     1      -5.847  10.095  10.778  1.00  0.00     0.191 C 
BRANCH  23  24
ATOM     24  O   UNL     1      -6.207  10.790   9.614  1.00  0.00    -0.394 OA
ATOM     25  H   UNL     1      -5.521  11.494   9.477  1.00  0.00     0.210 HD
ENDBRANCH  23  24
ENDBRANCH  17  23
BRANCH  18  26
ATOM     26  O   UNL     1      -7.968  12.028  11.281  1.00  0.00    -0.387 OA
ATOM     27  H   UNL     1      -8.577  12.474  11.926  1.00  0.00     0.211 HD
ENDBRANCH  18  26
ENDBRANCH  12  13
ENDBRANCH   7  12
BRANCH   4  28
ATOM     28  O   UNL     1      -2.971   7.206  17.658  1.00  0.00    -0.365 OA
ATOM     29  H   UNL     1      -3.884   6.934  17.938  1.00  0.00     0.214 HD
ENDBRANCH   4  28
BRANCH   8  30
ATOM     30  C   UNL     1      -2.816   9.770  13.595  1.00  0.00     0.249 C 
BRANCH  30  31
ATOM     31  O   UNL     1      -1.759  10.702  13.395  1.00  0.00    -0.461 OA
BRANCH  31  32
ATOM     32  C   UNL     1      -1.881  11.818  12.563  1.00  0.00     0.338 C 
ATOM     33  O   UNL     1      -2.889  12.572  12.658  1.00  0.00    -0.246 OA
BRANCH  32  34
ATOM     34  C   UNL     1      -0.825  12.111  11.569  1.00  0.00     0.060 A 
ATOM     35  C   UNL     1      -0.502  11.179  10.565  1.00  0.00     0.015 A 
ATOM     36  C   UNL     1      -0.127  13.332  11.617  1.00  0.00     0.015 A 
ATOM     37  C   UNL     1       0.498  11.465   9.631  1.00  0.00     0.001 A 
ATOM     38  C   UNL     1       0.873  13.612  10.680  1.00  0.00     0.001 A 
ATOM     39  C   UNL     1       1.185  12.679   9.688  1.00  0.00     0.000 A 
ENDBRANCH  32  34
ENDBRANCH  31  32
ENDBRANCH  30  31
ENDBRANCH   8  30
TORSDOF 12
ENDMDL
MODEL 3
REMARK VINA RESULT:    -5.203      1.889      4.759
REMARK INTER + INTRA:          -9.575
REMARK INTER:                  -8.273
REMARK INTRA:                  -1.302
REMARK UNBOUND:                -1.483
REMARK SMILES C[C@]12C[C@]3(O)O[C@H](O1)[C@@]1(COC(=O)c4ccccc4)[C@@H]3C[C@]12O[C@@H]1O[C@@H](CO)[C@@H](O)[C@H](O)[C@@H]1O
REMARK SMILES IDX 1 1 2 2 3 3 4 4 20 5 21 6 22 7 9 8 7 9 8 10 6 11 23 12 24 13
REMARK SMILES IDX 33 14 25 15 31 16 26 17 29 18 34 19 32 21 27 23 28 24 30 26
REMARK SMILES IDX 5 28 10 30 11 31 12 32 13 33 14 34 15 35 19 36 16 37 18 38
REMARK SMILES IDX 17 39
REMARK H PARENT 34 20 32 22 28 25 30 27 5 29
REMARK Flexibility Score: inf
ROOT
ATOM      1  C   UNL     1      -2.833   9.592  17.203  1.00  0.00     0.046 C 
ATOM      2  C   UNL     1      -1.857  10.166  16.177  1.00  0.00     0.104 C 
ATOM      3  C   UNL     1      -1.281  11.551  16.648  1.00  0.00     0.104 C 
ATOM      4  C   UNL     1      -0.265  11.933  15.512  1.00  0.00     0.175 C 
ATOM      5  C   UNL     1       0.688  10.735  15.207  1.00  0.00     0.070 C 
ATOM      6  C   UNL     1       0.712   9.680  16.324  1.00  0.00     0.050 C 
ATOM      7  C   UNL     1      -0.664   9.214  15.790  1.00  0.00     0.115 C 
ATOM      8  C   UNL     1      -0.306   9.863  14.454  1.00  0.00     0.096 C 
ATOM      9  C   UNL     1      -1.467  10.757  14.066  1.00  0.00     0.267 C 
ATOM     10  O   UNL     1      -2.521  10.423  14.953  1.00  0.00    -0.342 OA
ATOM     11  O   UNL     1      -1.033  12.082  14.334  1.00  0.00    -0.320 OA
ENDROOT
BRANCH   7  12
ATOM     12  O   UNL     1      -0.948   7.825  15.663  1.00  0.00    -0.339 OA
BRANCH  12  13
ATOM     13  C   UNL     1      -0.105   7.020  16.477  1.00  0.00     0.282 C 
ATOM     14  C   UNL     1      -0.923   5.961  17.255  1.00  0.00     0.202 C 
ATOM     15  O   UNL     1       0.917   6.399  15.709  1.00  0.00    -0.341 OA
ATOM     16  C   UNL     1      -1.431   4.818  16.348  1.00  0.00     0.179 C 
ATOM     17  C   UNL     1       0.382   5.524  14.728  1.00  0.00     0.178 C 
ATOM     18  C   UNL     1      -0.326   4.323  15.397  1.00  0.00     0.177 C 
BRANCH  14  19
ATOM     19  O   UNL     1      -1.995   6.570  17.923  1.00  0.00    -0.385 OA
ATOM     20  H   UNL     1      -1.786   7.539  17.978  1.00  0.00     0.211 HD
ENDBRANCH  14  19
BRANCH  16  21
ATOM     21  O   UNL     1      -2.602   5.174  15.651  1.00  0.00    -0.387 OA
ATOM     22  H   UNL     1      -2.364   5.819  14.940  1.00  0.00     0.211 HD
ENDBRANCH  16  21
BRANCH  17  23
ATOM     23  C   UNL     1       1.514   5.054  13.804  1.00  0.00     0.191 C 
BRANCH  23  24
ATOM     24  O   UNL     1       2.295   6.144  13.395  1.00  0.00    -0.394 OA
ATOM     25  H   UNL     1       2.770   5.863  12.570  1.00  0.00     0.210 HD
ENDBRANCH  23  24
ENDBRANCH  17  23
BRANCH  18  26
ATOM     26  O   UNL     1       0.602   3.567  16.137  1.00  0.00    -0.387 OA
ATOM     27  H   UNL     1       1.508   3.878  15.878  1.00  0.00     0.211 HD
ENDBRANCH  18  26
ENDBRANCH  12  13
ENDBRANCH   7  12
BRANCH   4  28
ATOM     28  O   UNL     1       0.454  13.099  15.808  1.00  0.00    -0.365 OA
ATOM     29  H   UNL     1       0.316  13.720  15.047  1.00  0.00     0.214 HD
ENDBRANCH   4  28
BRANCH   8  30
ATOM     30  C   UNL     1       0.291   8.970  13.351  1.00  0.00     0.249 C 
BRANCH  30  31
ATOM     31  O   UNL     1      -0.043   9.501  12.074  1.00  0.00    -0.461 OA
BRANCH  31  32
ATOM     32  C   UNL     1       0.858  10.241  11.302  1.00  0.00     0.338 C 
ATOM     33  O   UNL     1       1.547   9.669  10.413  1.00  0.00    -0.246 OA
BRANCH  32  34
ATOM     34  C   UNL     1       1.001  11.695  11.534  1.00  0.00     0.060 A 
ATOM     35  C   UNL     1       2.125  12.210  12.205  1.00  0.00     0.015 A 
ATOM     36  C   UNL     1       0.008  12.584  11.083  1.00  0.00     0.015 A 
ATOM     37  C   UNL     1       2.252  13.586  12.419  1.00  0.00     0.001 A 
ATOM     38  C   UNL     1       0.139  13.960  11.300  1.00  0.00     0.001 A 
ATOM     39  C   UNL     1       1.260  14.460  11.967  1.00  0.00     0.000 A 
ENDBRANCH  32  34
ENDBRANCH  31  32
ENDBRANCH  30  31
ENDBRANCH   8  30
TORSDOF 12
ENDMDL
MODEL 4
REMARK VINA RESULT:    -5.120      2.407      5.094
REMARK INTER + INTRA:          -9.447
REMARK INTER:                  -8.227
REMARK INTRA:                  -1.220
REMARK UNBOUND:                -1.483
REMARK SMILES C[C@]12C[C@]3(O)O[C@H](O1)[C@@]1(COC(=O)c4ccccc4)[C@@H]3C[C@]12O[C@@H]1O[C@@H](CO)[C@@H](O)[C@H](O)[C@@H]1O
REMARK SMILES IDX 1 1 2 2 3 3 4 4 20 5 21 6 22 7 9 8 7 9 8 10 6 11 23 12 24 13
REMARK SMILES IDX 33 14 25 15 31 16 26 17 29 18 34 19 32 21 27 23 28 24 30 26
REMARK SMILES IDX 5 28 10 30 11 31 12 32 13 33 14 34 15 35 19 36 16 37 18 38
REMARK SMILES IDX 17 39
REMARK H PARENT 34 20 32 22 28 25 30 27 5 29
REMARK Flexibility Score: inf
ROOT
ATOM      1  C   UNL     1      -1.331   7.448  16.792  1.00  0.00     0.046 C 
ATOM      2  C   UNL     1      -0.879   8.498  15.779  1.00  0.00     0.104 C 
ATOM      3  C   UNL     1      -0.302   9.773  16.495  1.00  0.00     0.104 C 
ATOM      4  C   UNL     1       0.163  10.686  15.304  1.00  0.00     0.175 C 
ATOM      5  C   UNL     1       1.037   9.871  14.300  1.00  0.00     0.070 C 
ATOM      6  C   UNL     1       1.585   8.565  14.896  1.00  0.00     0.050 C 
ATOM      7  C   UNL     1       0.162   7.988  14.712  1.00  0.00     0.115 C 
ATOM      8  C   UNL     1      -0.080   9.065  13.655  1.00  0.00     0.096 C 
ATOM      9  C   UNL     1      -1.381   9.757  14.012  1.00  0.00     0.267 C 
ATOM     10  O   UNL     1      -1.981   8.954  15.014  1.00  0.00    -0.342 OA
ATOM     11  O   UNL     1      -1.006  11.005  14.575  1.00  0.00    -0.320 OA
ENDROOT
BRANCH   7  12
ATOM     12  O   UNL     1      -0.017   6.672  14.200  1.00  0.00    -0.339 OA
BRANCH  12  13
ATOM     13  C   UNL     1       1.158   5.880  14.317  1.00  0.00     0.282 C 
ATOM     14  C   UNL     1       0.850   4.515  14.979  1.00  0.00     0.202 C 
ATOM     15  O   UNL     1       1.785   5.695  13.055  1.00  0.00    -0.341 OA
ATOM     16  C   UNL     1       0.086   3.556  14.037  1.00  0.00     0.179 C 
ATOM     17  C   UNL     1       0.944   5.003  12.145  1.00  0.00     0.178 C 
ATOM     18  C   UNL     1       0.698   3.554  12.624  1.00  0.00     0.177 C 
BRANCH  14  19
ATOM     19  O   UNL     1       0.135   4.704  16.171  1.00  0.00    -0.385 OA
ATOM     20  H   UNL     1       0.550   5.476  16.636  1.00  0.00     0.211 HD
ENDBRANCH  14  19
BRANCH  16  21
ATOM     21  O   UNL     1      -1.296   3.828  14.010  1.00  0.00    -0.387 OA
ATOM     22  H   UNL     1      -1.432   4.792  14.178  1.00  0.00     0.211 HD
ENDBRANCH  16  21
BRANCH  17  23
ATOM     23  C   UNL     1       1.590   5.022  10.752  1.00  0.00     0.191 C 
BRANCH  23  24
ATOM     24  O   UNL     1       2.963   4.756  10.846  1.00  0.00    -0.394 OA
ATOM     25  H   UNL     1       3.142   4.499  11.787  1.00  0.00     0.210 HD
ENDBRANCH  23  24
ENDBRANCH  17  23
BRANCH  18  26
ATOM     26  O   UNL     1       1.912   2.843  12.658  1.00  0.00    -0.387 OA
ATOM     27  H   UNL     1       2.033   2.513  13.586  1.00  0.00     0.211 HD
ENDBRANCH  18  26
ENDBRANCH  12  13
ENDBRANCH   7  12
BRANCH   4  28
ATOM     28  O   UNL     1       0.827  11.840  15.742  1.00  0.00    -0.365 OA
ATOM     29  H   UNL     1       0.946  11.746  16.723  1.00  0.00     0.214 HD
ENDBRANCH   4  28
BRANCH   8  30
ATOM     30  C   UNL     1       0.133   8.691  12.178  1.00  0.00     0.249 C 
BRANCH  30  31
ATOM     31  O   UNL     1      -0.985   9.121  11.410  1.00  0.00    -0.461 OA
BRANCH  31  32
ATOM     32  C   UNL     1      -0.860   9.932  10.278  1.00  0.00     0.338 C 
ATOM     33  O   UNL     1      -1.272   9.523   9.158  1.00  0.00    -0.246 OA
BRANCH  32  34
ATOM     34  C   UNL     1      -0.241  11.271  10.400  1.00  0.00     0.060 A 
ATOM     35  C   UNL     1      -0.685  12.183  11.376  1.00  0.00     0.015 A 
ATOM     36  C   UNL     1       0.803  11.649   9.537  1.00  0.00     0.015 A 
ATOM     37  C   UNL     1      -0.094  13.446  11.484  1.00  0.00     0.001 A 
ATOM     38  C   UNL     1       1.390  12.914   9.648  1.00  0.00     0.001 A 
ATOM     39  C   UNL     1       0.942  13.811  10.621  1.00  0.00     0.000 A 
ENDBRANCH  32  34
ENDBRANCH  31  32
ENDBRANCH  30  31
ENDBRANCH   8  30
TORSDOF 12
ENDMDL
MODEL 5
REMARK VINA RESULT:    -5.088      3.170      6.299
REMARK INTER + INTRA:          -9.397
REMARK INTER:                  -7.973
REMARK INTRA:                  -1.424
REMARK UNBOUND:                -1.483
REMARK SMILES C[C@]12C[C@]3(O)O[C@H](O1)[C@@]1(COC(=O)c4ccccc4)[C@@H]3C[C@]12O[C@@H]1O[C@@H](CO)[C@@H](O)[C@H](O)[C@@H]1O
REMARK SMILES IDX 1 1 2 2 3 3 4 4 20 5 21 6 22 7 9 8 7 9 8 10 6 11 23 12 24 13
REMARK SMILES IDX 33 14 25 15 31 16 26 17 29 18 34 19 32 21 27 23 28 24 30 26
REMARK SMILES IDX 5 28 10 30 11 31 12 32 13 33 14 34 15 35 19 36 16 37 18 38
REMARK SMILES IDX 17 39
REMARK H PARENT 34 20 32 22 28 25 30 27 5 29
REMARK Flexibility Score: inf
ROOT
ATOM      1  C   UNL     1      -1.852   7.171  15.210  1.00  0.00     0.046 C 
ATOM      2  C   UNL     1      -0.702   8.152  15.431  1.00  0.00     0.104 C 
ATOM      3  C   UNL     1       0.236   7.680  16.601  1.00  0.00     0.104 C 
ATOM      4  C   UNL     1       1.373   8.764  16.623  1.00  0.00     0.175 C 
ATOM      5  C   UNL     1       1.941   8.989  15.187  1.00  0.00     0.070 C 
ATOM      6  C   UNL     1       1.597   7.850  14.214  1.00  0.00     0.050 C 
ATOM      7  C   UNL     1       0.172   8.450  14.155  1.00  0.00     0.115 C 
ATOM      8  C   UNL     1       0.770   9.778  14.619  1.00  0.00     0.096 C 
ATOM      9  C   UNL     1      -0.053  10.250  15.802  1.00  0.00     0.267 C 
ATOM     10  O   UNL     1      -1.200   9.417  15.827  1.00  0.00    -0.342 OA
ATOM     11  O   UNL     1       0.741   9.987  16.948  1.00  0.00    -0.320 OA
ENDROOT
BRANCH   7  12
ATOM     12  O   UNL     1      -0.506   8.564  12.909  1.00  0.00    -0.339 OA
BRANCH  12  13
ATOM     13  C   UNL     1      -0.307   7.428  12.077  1.00  0.00     0.282 C 
ATOM     14  C   UNL     1      -1.564   7.131  11.224  1.00  0.00     0.202 C 
ATOM     15  O   UNL     1       0.836   7.588  11.247  1.00  0.00    -0.341 OA
ATOM     16  C   UNL     1      -1.762   8.152  10.081  1.00  0.00     0.179 C 
ATOM     17  C   UNL     1       0.696   8.691  10.364  1.00  0.00     0.178 C 
ATOM     18  C   UNL     1      -0.438   8.434   9.346  1.00  0.00     0.177 C 
BRANCH  14  19
ATOM     19  O   UNL     1      -2.704   7.083  12.040  1.00  0.00    -0.385 OA
ATOM     20  H   UNL     1      -3.178   7.947  11.922  1.00  0.00     0.211 HD
ENDBRANCH  14  19
BRANCH  16  21
ATOM     21  O   UNL     1      -2.375   9.339  10.529  1.00  0.00    -0.387 OA
ATOM     22  H   UNL     1      -3.257   9.114  10.915  1.00  0.00     0.211 HD
ENDBRANCH  16  21
BRANCH  17  23
ATOM     23  C   UNL     1       2.033   8.936   9.652  1.00  0.00     0.191 C 
BRANCH  23  24
ATOM     24  O   UNL     1       1.816   9.473   8.375  1.00  0.00    -0.394 OA
ATOM     25  H   UNL     1       1.969  10.451   8.445  1.00  0.00     0.210 HD
ENDBRANCH  23  24
ENDBRANCH  17  23
BRANCH  18  26
ATOM     26  O   UNL     1      -0.123   7.322   8.542  1.00  0.00    -0.387 OA
ATOM     27  H   UNL     1      -0.810   7.272   7.827  1.00  0.00     0.211 HD
ENDBRANCH  18  26
ENDBRANCH  12  13
ENDBRANCH   7  12
BRANCH   4  28
ATOM     28  O   UNL     1       2.391   8.453  17.535  1.00  0.00    -0.365 OA
ATOM     29  H   UNL     1       2.550   7.476  17.463  1.00  0.00     0.214 HD
ENDBRANCH   4  28
BRANCH   8  30
ATOM     30  C   UNL     1       1.126  10.826  13.550  1.00  0.00     0.249 C 
BRANCH  30  31
ATOM     31  O   UNL     1       0.094  11.801  13.474  1.00  0.00    -0.461 OA
BRANCH  31  32
ATOM     32  C   UNL     1      -0.516  12.167  12.270  1.00  0.00     0.338 C 
ATOM     33  O   UNL     1      -1.702  11.809  12.028  1.00  0.00    -0.246 OA
BRANCH  32  34
ATOM     34  C   UNL     1       0.234  12.973  11.282  1.00  0.00     0.060 A 
ATOM     35  C   UNL     1       0.803  12.370  10.145  1.00  0.00     0.015 A 
ATOM     36  C   UNL     1       0.389  14.358  11.471  1.00  0.00     0.015 A 
ATOM     37  C   UNL     1       1.511  13.140   9.216  1.00  0.00     0.001 A 
ATOM     38  C   UNL     1       1.099  15.124  10.539  1.00  0.00     0.001 A 
ATOM     39  C   UNL     1       1.659  14.515   9.413  1.00  0.00     0.000 A 
ENDBRANCH  32  34
ENDBRANCH  31  32
ENDBRANCH  30  31
ENDBRANCH   8  30
TORSDOF 12
ENDMDL
MODEL 6
REMARK VINA RESULT:    -5.073      2.788      4.216
REMARK INTER + INTRA:          -9.374
REMARK INTER:                  -8.643
REMARK INTRA:                  -0.731
REMARK UNBOUND:                -1.483
REMARK SMILES C[C@]12C[C@]3(O)O[C@H](O1)[C@@]1(COC(=O)c4ccccc4)[C@@H]3C[C@]12O[C@@H]1O[C@@H](CO)[C@@H](O)[C@H](O)[C@@H]1O
REMARK SMILES IDX 1 1 2 2 3 3 4 4 20 5 21 6 22 7 9 8 7 9 8 10 6 11 23 12 24 13
REMARK SMILES IDX 33 14 25 15 31 16 26 17 29 18 34 19 32 21 27 23 28 24 30 26
REMARK SMILES IDX 5 28 10 30 11 31 12 32 13 33 14 34 15 35 19 36 16 37 18 38
REMARK SMILES IDX 17 39
REMARK H PARENT 34 20 32 22 28 25 30 27 5 29
REMARK Flexibility Score: inf
ROOT
ATOM      1  C   UNL     1       1.757   8.769  15.223  1.00  0.00     0.046 C 
ATOM      2  C   UNL     1       0.670   9.841  15.269  1.00  0.00     0.104 C 
ATOM      3  C   UNL     1       0.713  10.755  13.990  1.00  0.00     0.104 C 
ATOM      4  C   UNL     1      -0.504  11.729  14.192  1.00  0.00     0.175 C 
ATOM      5  C   UNL     1      -1.791  10.925  14.555  1.00  0.00     0.070 C 
ATOM      6  C   UNL     1      -1.690   9.431  14.211  1.00  0.00     0.050 C 
ATOM      7  C   UNL     1      -0.794   9.295  15.465  1.00  0.00     0.115 C 
ATOM      8  C   UNL     1      -1.427  10.582  15.991  1.00  0.00     0.096 C 
ATOM      9  C   UNL     1      -0.294  11.508  16.388  1.00  0.00     0.267 C 
ATOM     10  O   UNL     1       0.878  10.710  16.367  1.00  0.00    -0.342 OA
ATOM     11  O   UNL     1      -0.215  12.479  15.356  1.00  0.00    -0.320 OA
ENDROOT
BRANCH   7  12
ATOM     12  O   UNL     1      -0.970   8.198  16.354  1.00  0.00    -0.339 OA
BRANCH  12  13
ATOM     13  C   UNL     1      -1.603   7.087  15.730  1.00  0.00     0.282 C 
ATOM     14  C   UNL     1      -0.863   5.767  16.053  1.00  0.00     0.202 C 
ATOM     15  O   UNL     1      -2.973   6.998  16.097  1.00  0.00    -0.341 OA
ATOM     16  C   UNL     1      -1.090   5.300  17.510  1.00  0.00     0.179 C 
ATOM     17  C   UNL     1      -3.132   6.796  17.493  1.00  0.00     0.178 C 
ATOM     18  C   UNL     1      -2.572   5.418  17.912  1.00  0.00     0.177 C 
BRANCH  14  19
ATOM     19  O   UNL     1       0.508   5.901  15.790  1.00  0.00    -0.385 OA
ATOM     20  H   UNL     1       0.786   6.782  16.154  1.00  0.00     0.211 HD
ENDBRANCH  14  19
BRANCH  16  21
ATOM     21  O   UNL     1      -0.246   5.967  18.419  1.00  0.00    -0.387 OA
ATOM     22  H   UNL     1      -0.161   5.416  19.236  1.00  0.00     0.211 HD
ENDBRANCH  16  21
BRANCH  17  23
ATOM     23  C   UNL     1      -4.620   6.920  17.851  1.00  0.00     0.191 C 
BRANCH  23  24
ATOM     24  O   UNL     1      -4.785   6.971  19.242  1.00  0.00    -0.394 OA
ATOM     25  H   UNL     1      -5.119   6.080  19.525  1.00  0.00     0.210 HD
ENDBRANCH  23  24
ENDBRANCH  17  23
BRANCH  18  26
ATOM     26  O   UNL     1      -3.295   4.389  17.278  1.00  0.00    -0.387 OA
ATOM     27  H   UNL     1      -4.255   4.540  17.477  1.00  0.00     0.211 HD
ENDBRANCH  18  26
ENDBRANCH  12  13
ENDBRANCH   7  12
BRANCH   4  28
ATOM     28  O   UNL     1      -0.713  12.560  13.083  1.00  0.00    -0.365 OA
ATOM     29  H   UNL     1      -0.005  13.256  13.111  1.00  0.00     0.214 HD
ENDBRANCH   4  28
BRANCH   8  30
ATOM     30  C   UNL     1      -2.609  10.462  16.970  1.00  0.00     0.249 C 
BRANCH  30  31
ATOM     31  O   UNL     1      -2.251  11.030  18.224  1.00  0.00    -0.461 OA
BRANCH  31  32
ATOM     32  C   UNL     1      -3.008  12.026  18.848  1.00  0.00     0.338 C 
ATOM     33  O   UNL     1      -4.266  12.017  18.753  1.00  0.00    -0.246 OA
BRANCH  32  34
ATOM     34  C   UNL     1      -2.327  13.091  19.618  1.00  0.00     0.060 A 
ATOM     35  C   UNL     1      -1.271  13.827  19.050  1.00  0.00     0.015 A 
ATOM     36  C   UNL     1      -2.730  13.379  20.935  1.00  0.00     0.015 A 
ATOM     37  C   UNL     1      -0.633  14.831  19.786  1.00  0.00     0.001 A 
ATOM     38  C   UNL     1      -2.088  14.384  21.667  1.00  0.00     0.001 A 
ATOM     39  C   UNL     1      -1.042  15.110  21.092  1.00  0.00     0.000 A 
ENDBRANCH  32  34
ENDBRANCH  31  32
ENDBRANCH  30  31
ENDBRANCH   8  30
TORSDOF 12
ENDMDL
MODEL 7
REMARK VINA RESULT:    -5.030      2.946      5.191
REMARK INTER + INTRA:          -9.307
REMARK INTER:                  -8.368
REMARK INTRA:                  -0.939
REMARK UNBOUND:                -1.483
REMARK SMILES C[C@]12C[C@]3(O)O[C@H](O1)[C@@]1(COC(=O)c4ccccc4)[C@@H]3C[C@]12O[C@@H]1O[C@@H](CO)[C@@H](O)[C@H](O)[C@@H]1O
REMARK SMILES IDX 1 1 2 2 3 3 4 4 20 5 21 6 22 7 9 8 7 9 8 10 6 11 23 12 24 13
REMARK SMILES IDX 33 14 25 15 31 16 26 17 29 18 34 19 32 21 27 23 28 24 30 26
REMARK SMILES IDX 5 28 10 30 11 31 12 32 13 33 14 34 15 35 19 36 16 37 18 38
REMARK SMILES IDX 17 39
REMARK H PARENT 34 20 32 22 28 25 30 27 5 29
REMARK Flexibility Score: inf
ROOT
ATOM      1  C   UNL     1       2.927  11.634  12.797  1.00  0.00     0.046 C 
ATOM      2  C   UNL     1       1.630  11.561  11.994  1.00  0.00     0.104 C 
ATOM      3  C   UNL     1       1.913  11.567  10.447  1.00  0.00     0.104 C 
ATOM      4  C   UNL     1       0.485  11.418   9.810  1.00  0.00     0.175 C 
ATOM      5  C   UNL     1      -0.289  10.237  10.474  1.00  0.00     0.070 C 
ATOM      6  C   UNL     1       0.627   9.264  11.234  1.00  0.00     0.050 C 
ATOM      7  C   UNL     1       0.699  10.340  12.344  1.00  0.00     0.115 C 
ATOM      8  C   UNL     1      -0.608  10.913  11.799  1.00  0.00     0.096 C 
ATOM      9  C   UNL     1      -0.394  12.400  11.593  1.00  0.00     0.267 C 
ATOM     10  O   UNL     1       0.831  12.703  12.241  1.00  0.00    -0.342 OA
ATOM     11  O   UNL     1      -0.237  12.573  10.194  1.00  0.00    -0.320 OA
ENDROOT
BRANCH   7  12
ATOM     12  O   UNL     1       0.600   9.964  13.713  1.00  0.00    -0.339 OA
BRANCH  12  13
ATOM     13  C   UNL     1       0.869   8.582  13.918  1.00  0.00     0.282 C 
ATOM     14  C   UNL     1       1.833   8.371  15.110  1.00  0.00     0.202 C 
ATOM     15  O   UNL     1      -0.330   7.843  14.105  1.00  0.00    -0.341 OA
ATOM     16  C   UNL     1       1.153   8.619  16.476  1.00  0.00     0.179 C 
ATOM     17  C   UNL     1      -1.039   8.271  15.257  1.00  0.00     0.178 C 
ATOM     18  C   UNL     1      -0.235   7.956  16.540  1.00  0.00     0.177 C 
BRANCH  14  19
ATOM     19  O   UNL     1       2.965   9.187  14.971  1.00  0.00    -0.385 OA
ATOM     20  H   UNL     1       2.874   9.919  15.636  1.00  0.00     0.211 HD
ENDBRANCH  14  19
BRANCH  16  21
ATOM     21  O   UNL     1       1.094   9.990  16.798  1.00  0.00    -0.387 OA
ATOM     22  H   UNL     1       0.173  10.313  16.642  1.00  0.00     0.211 HD
ENDBRANCH  16  21
BRANCH  17  23
ATOM     23  C   UNL     1      -2.413   7.586  15.284  1.00  0.00     0.191 C 
BRANCH  23  24
ATOM     24  O   UNL     1      -3.436   8.545  15.314  1.00  0.00    -0.394 OA
ATOM     25  H   UNL     1      -4.247   8.110  14.943  1.00  0.00     0.210 HD
ENDBRANCH  23  24
ENDBRANCH  17  23
BRANCH  18  26
ATOM     26  O   UNL     1      -0.065   6.565  16.674  1.00  0.00    -0.387 OA
ATOM     27  H   UNL     1      -0.957   6.147  16.556  1.00  0.00     0.211 HD
ENDBRANCH  18  26
ENDBRANCH  12  13
ENDBRANCH   7  12
BRANCH   4  28
ATOM     28  O   UNL     1       0.533  11.282   8.416  1.00  0.00    -0.365 OA
ATOM     29  H   UNL     1       0.798  12.166   8.051  1.00  0.00     0.214 HD
ENDBRANCH   4  28
BRANCH   8  30
ATOM     30  C   UNL     1      -1.925  10.481  12.469  1.00  0.00     0.249 C 
BRANCH  30  31
ATOM     31  O   UNL     1      -2.697  11.631  12.792  1.00  0.00    -0.461 OA
BRANCH  31  32
ATOM     32  C   UNL     1      -4.002  11.553  13.288  1.00  0.00     0.338 C 
ATOM     33  O   UNL     1      -4.207  11.147  14.465  1.00  0.00    -0.246 OA
BRANCH  32  34
ATOM     34  C   UNL     1      -5.139  11.946  12.428  1.00  0.00     0.060 A 
ATOM     35  C   UNL     1      -5.671  11.049  11.483  1.00  0.00     0.015 A 
ATOM     36  C   UNL     1      -5.703  13.230  12.544  1.00  0.00     0.015 A 
ATOM     37  C   UNL     1      -6.746  11.430  10.674  1.00  0.00     0.001 A 
ATOM     38  C   UNL     1      -6.778  13.606  11.731  1.00  0.00     0.001 A 
ATOM     39  C   UNL     1      -7.299  12.706  10.798  1.00  0.00     0.000 A 
ENDBRANCH  32  34
ENDBRANCH  31  32
ENDBRANCH  30  31
ENDBRANCH   8  30
TORSDOF 12
ENDMDL
MODEL 8
REMARK VINA RESULT:    -4.816      2.952      6.306
REMARK INTER + INTRA:          -8.973
REMARK INTER:                  -7.446
REMARK INTRA:                  -1.528
REMARK UNBOUND:                -1.483
REMARK SMILES C[C@]12C[C@]3(O)O[C@H](O1)[C@@]1(COC(=O)c4ccccc4)[C@@H]3C[C@]12O[C@@H]1O[C@@H](CO)[C@@H](O)[C@H](O)[C@@H]1O
REMARK SMILES IDX 1 1 2 2 3 3 4 4 20 5 21 6 22 7 9 8 7 9 8 10 6 11 23 12 24 13
REMARK SMILES IDX 33 14 25 15 31 16 26 17 29 18 34 19 32 21 27 23 28 24 30 26
REMARK SMILES IDX 5 28 10 30 11 31 12 32 13 33 14 34 15 35 19 36 16 37 18 38
REMARK SMILES IDX 17 39
REMARK H PARENT 34 20 32 22 28 25 30 27 5 29
REMARK Flexibility Score: inf
ROOT
ATOM      1  C   UNL     1      -1.149  10.720  15.839  1.00  0.00     0.046 C 
ATOM      2  C   UNL     1      -0.665   9.523  15.023  1.00  0.00     0.104 C 
ATOM      3  C   UNL     1      -0.041   8.415  15.947  1.00  0.00     0.104 C 
ATOM      4  C   UNL     1       0.326   7.262  14.945  1.00  0.00     0.175 C 
ATOM      5  C   UNL     1      -0.887   6.938  14.019  1.00  0.00     0.070 C 
ATOM      6  C   UNL     1      -2.223   7.470  14.561  1.00  0.00     0.050 C 
ATOM      7  C   UNL     1      -1.753   8.868  14.092  1.00  0.00     0.115 C 
ATOM      8  C   UNL     1      -0.803   8.165  13.124  1.00  0.00     0.096 C 
ATOM      9  C   UNL     1       0.573   8.765  13.334  1.00  0.00     0.267 C 
ATOM     10  O   UNL     1       0.372   9.914  14.141  1.00  0.00    -0.342 OA
ATOM     11  O   UNL     1       1.302   7.798  14.073  1.00  0.00    -0.320 OA
ENDROOT
BRANCH   7  12
ATOM     12  O   UNL     1      -2.659   9.742  13.428  1.00  0.00    -0.339 OA
BRANCH  12  13
ATOM     13  C   UNL     1      -4.014   9.335  13.577  1.00  0.00     0.282 C 
ATOM     14  C   UNL     1      -4.883  10.482  14.148  1.00  0.00     0.202 C 
ATOM     15  O   UNL     1      -4.551   8.863  12.349  1.00  0.00    -0.341 OA
ATOM     16  C   UNL     1      -5.149  11.599  13.112  1.00  0.00     0.179 C 
ATOM     17  C   UNL     1      -4.560   9.875  11.354  1.00  0.00     0.178 C 
ATOM     18  C   UNL     1      -5.533  11.012  11.741  1.00  0.00     0.177 C 
BRANCH  14  19
ATOM     19  O   UNL     1      -4.288  11.015  15.301  1.00  0.00    -0.385 OA
ATOM     20  H   UNL     1      -4.565  11.967  15.352  1.00  0.00     0.211 HD
ENDBRANCH  14  19
BRANCH  16  21
ATOM     21  O   UNL     1      -4.070  12.499  13.013  1.00  0.00    -0.387 OA
ATOM     22  H   UNL     1      -3.948  12.744  12.063  1.00  0.00     0.211 HD
ENDBRANCH  16  21
BRANCH  17  23
ATOM     23  C   UNL     1      -4.949   9.250  10.006  1.00  0.00     0.191 C 
BRANCH  23  24
ATOM     24  O   UNL     1      -5.735  10.141   9.263  1.00  0.00    -0.394 OA
ATOM     25  H   UNL     1      -5.646   9.877   8.310  1.00  0.00     0.210 HD
ENDBRANCH  23  24
ENDBRANCH  17  23
BRANCH  18  26
ATOM     26  O   UNL     1      -6.849  10.517  11.815  1.00  0.00    -0.387 OA
ATOM     27  H   UNL     1      -6.877   9.675  11.290  1.00  0.00     0.211 HD
ENDBRANCH  18  26
ENDBRANCH  12  13
ENDBRANCH   7  12
BRANCH   4  28
ATOM     28  O   UNL     1       0.794   6.114  15.599  1.00  0.00    -0.365 OA
ATOM     29  H   UNL     1       0.115   5.405  15.452  1.00  0.00     0.214 HD
ENDBRANCH   4  28
BRANCH   8  30
ATOM     30  C   UNL     1      -1.266   7.965  11.670  1.00  0.00     0.249 C 
BRANCH  30  31
ATOM     31  O   UNL     1      -0.363   8.619  10.787  1.00  0.00    -0.461 OA
BRANCH  31  32
ATOM     32  C   UNL     1      -0.738   9.702   9.986  1.00  0.00     0.338 C 
ATOM     33  O   UNL     1      -1.427   9.512   8.946  1.00  0.00    -0.246 OA
BRANCH  32  34
ATOM     34  C   UNL     1      -0.322  11.071  10.362  1.00  0.00     0.060 A 
ATOM     35  C   UNL     1       0.712  11.727   9.667  1.00  0.00     0.015 A 
ATOM     36  C   UNL     1      -0.959  11.737  11.426  1.00  0.00     0.015 A 
ATOM     37  C   UNL     1       1.097  13.021  10.030  1.00  0.00     0.001 A 
ATOM     38  C   UNL     1      -0.568  13.031  11.785  1.00  0.00     0.001 A 
ATOM     39  C   UNL     1       0.458  13.672  11.088  1.00  0.00     0.000 A 
ENDBRANCH  32  34
ENDBRANCH  31  32
ENDBRANCH  30  31
ENDBRANCH   8  30
TORSDOF 12
ENDMDL
MODEL 9
REMARK VINA RESULT:    -4.786      3.158      5.840
REMARK INTER + INTRA:          -8.927
REMARK INTER:                  -7.343
REMARK INTRA:                  -1.584
REMARK UNBOUND:                -1.483
REMARK SMILES C[C@]12C[C@]3(O)O[C@H](O1)[C@@]1(COC(=O)c4ccccc4)[C@@H]3C[C@]12O[C@@H]1O[C@@H](CO)[C@@H](O)[C@H](O)[C@@H]1O
REMARK SMILES IDX 1 1 2 2 3 3 4 4 20 5 21 6 22 7 9 8 7 9 8 10 6 11 23 12 24 13
REMARK SMILES IDX 33 14 25 15 31 16 26 17 29 18 34 19 32 21 27 23 28 24 30 26
REMARK SMILES IDX 5 28 10 30 11 31 12 32 13 33 14 34 15 35 19 36 16 37 18 38
REMARK SMILES IDX 17 39
REMARK H PARENT 34 20 32 22 28 25 30 27 5 29
REMARK Flexibility Score: inf
ROOT
ATOM      1  C   UNL     1      -0.423  12.095  15.493  1.00  0.00     0.046 C 
ATOM      2  C   UNL     1       0.067  10.657  15.330  1.00  0.00     0.104 C 
ATOM      3  C   UNL     1       0.804  10.154  16.624  1.00  0.00     0.104 C 
ATOM      4  C   UNL     1       1.163   8.661  16.287  1.00  0.00     0.175 C 
ATOM      5  C   UNL     1      -0.090   7.910  15.738  1.00  0.00     0.070 C 
ATOM      6  C   UNL     1      -1.413   8.623  16.058  1.00  0.00     0.050 C 
ATOM      7  C   UNL     1      -1.045   9.617  14.930  1.00  0.00     0.115 C 
ATOM      8  C   UNL     1      -0.125   8.541  14.355  1.00  0.00     0.096 C 
ATOM      9  C   UNL     1       1.230   9.183  14.132  1.00  0.00     0.267 C 
ATOM     10  O   UNL     1       1.024  10.577  14.289  1.00  0.00    -0.342 OA
ATOM     11  O   UNL     1       2.053   8.712  15.188  1.00  0.00    -0.320 OA
ENDROOT
BRANCH   7  12
ATOM     12  O   UNL     1      -2.035  10.042  13.999  1.00  0.00    -0.339 OA
BRANCH  12  13
ATOM     13  C   UNL     1      -3.117  10.718  14.628  1.00  0.00     0.282 C 
ATOM     14  C   UNL     1      -3.823  11.681  13.644  1.00  0.00     0.202 C 
ATOM     15  O   UNL     1      -4.048   9.799  15.184  1.00  0.00    -0.341 OA
ATOM     16  C   UNL     1      -4.672  10.937  12.588  1.00  0.00     0.179 C 
ATOM     17  C   UNL     1      -4.636   8.976  14.189  1.00  0.00     0.178 C 
ATOM     18  C   UNL     1      -5.511   9.817  13.232  1.00  0.00     0.177 C 
BRANCH  14  19
ATOM     19  O   UNL     1      -2.881  12.511  13.018  1.00  0.00    -0.385 OA
ATOM     20  H   UNL     1      -2.594  12.046  12.189  1.00  0.00     0.211 HD
ENDBRANCH  14  19
BRANCH  16  21
ATOM     21  O   UNL     1      -3.890  10.457  11.519  1.00  0.00    -0.387 OA
ATOM     22  H   UNL     1      -4.490  10.201  10.777  1.00  0.00     0.211 HD
ENDBRANCH  16  21
BRANCH  17  23
ATOM     23  C   UNL     1      -5.463   7.877  14.871  1.00  0.00     0.191 C 
BRANCH  23  24
ATOM     24  O   UNL     1      -6.191   8.408  15.944  1.00  0.00    -0.394 OA
ATOM     25  H   UNL     1      -7.033   7.885  16.006  1.00  0.00     0.210 HD
ENDBRANCH  23  24
ENDBRANCH  17  23
BRANCH  18  26
ATOM     26  O   UNL     1      -6.577  10.403  13.941  1.00  0.00    -0.387 OA
ATOM     27  H   UNL     1      -6.824  11.237  13.464  1.00  0.00     0.211 HD
ENDBRANCH  18  26
ENDBRANCH  12  13
ENDBRANCH   7  12
BRANCH   4  28
ATOM     28  O   UNL     1       1.730   7.988  17.377  1.00  0.00    -0.365 OA
ATOM     29  H   UNL     1       2.519   8.518  17.661  1.00  0.00     0.214 HD
ENDBRANCH   4  28
BRANCH   8  30
ATOM     30  C   UNL     1      -0.671   7.647  13.227  1.00  0.00     0.249 C 
BRANCH  30  31
ATOM     31  O   UNL     1      -0.109   8.050  11.984  1.00  0.00    -0.461 OA
BRANCH  31  32
ATOM     32  C   UNL     1      -0.815   8.807  11.043  1.00  0.00     0.338 C 
ATOM     33  O   UNL     1      -1.949   8.424  10.646  1.00  0.00    -0.246 OA
BRANCH  32  34
ATOM     34  C   UNL     1      -0.225  10.057  10.516  1.00  0.00     0.060 A 
ATOM     35  C   UNL     1       0.512  10.056   9.316  1.00  0.00     0.015 A 
ATOM     36  C   UNL     1      -0.394  11.268  11.212  1.00  0.00     0.015 A 
ATOM     37  C   UNL     1       1.065  11.243   8.826  1.00  0.00     0.001 A 
ATOM     38  C   UNL     1       0.163  12.452  10.717  1.00  0.00     0.001 A 
ATOM     39  C   UNL     1       0.892  12.439   9.525  1.00  0.00     0.000 A 
ENDBRANCH  32  34
ENDBRANCH  31  32
ENDBRANCH  30  31
ENDBRANCH   8  30
TORSDOF 12
ENDMDL
