MODEL 1
REMARK VINA RESULT:    -5.079      0.000      0.000
REMARK INTER + INTRA:          -5.228
REMARK INTER:                  -5.228
REMARK INTRA:                   0.000
REMARK UNBOUND:                 0.000
REMARK SMILES O=c1ccc2ccc(O)cc2o1
REMARK SMILES IDX 6 1 7 2 8 3 10 4 11 5 5 6 4 7 3 8 2 9 1 10 12 11 9 12
REMARK H PARENT 9 13
REMARK Flexibility Score: inf
ROOT
ATOM      1  C   UNL     1       8.271  -7.935  -6.550  1.00  0.00     0.016 A 
ATOM      2  C   UNL     1       7.708  -7.052  -5.624  1.00  0.00     0.047 A 
ATOM      3  C   UNL     1       8.149  -5.725  -5.552  1.00  0.00     0.119 A 
ATOM      4  C   UNL     1       9.163  -5.277  -6.412  1.00  0.00     0.094 A 
ATOM      5  C   UNL     1       9.733  -6.155  -7.343  1.00  0.00     0.142 A 
ATOM      6  C   UNL     1       9.284  -7.492  -7.411  1.00  0.00     0.018 A 
ATOM      7  C   UNL     1       9.874  -8.344  -8.350  1.00  0.00     0.019 A 
ATOM      8  C   UNL     1      10.878  -7.855  -9.184  1.00  0.00     0.094 A 
ATOM      9  C   UNL     1      11.271  -6.518  -9.059  1.00  0.00     0.336 A 
ATOM     10  O   UNL     1      12.176  -6.058  -9.803  1.00  0.00    -0.246 OA
ATOM     11  O   UNL     1      10.694  -5.727  -8.157  1.00  0.00    -0.423 OA
ENDROOT
BRANCH   3  12
ATOM     12  O   UNL     1       7.574  -4.860  -4.624  1.00  0.00    -0.508 OA
ATOM     13  H   UNL     1       6.600  -4.942  -4.356  1.00  0.00     0.293 HD
ENDBRANCH   3  12
TORSDOF 1
ENDMDL
MODEL 2
REMARK VINA RESULT:    -4.975      2.308      2.399
REMARK INTER + INTRA:          -5.120
REMARK INTER:                  -5.120
REMARK INTRA:                   0.000
REMARK UNBOUND:                 0.000
REMARK SMILES O=c1ccc2ccc(O)cc2o1
REMARK SMILES IDX 6 1 7 2 8 3 10 4 11 5 5 6 4 7 3 8 2 9 1 10 12 11 9 12
REMARK H PARENT 9 13
REMARK Flexibility Score: inf
ROOT
ATOM      1  C   UNL     1       7.856  -7.856  -5.216  1.00  0.00     0.016 A 
ATOM      2  C   UNL     1       7.852  -6.676  -4.466  1.00  0.00     0.047 A 
ATOM      3  C   UNL     1       7.866  -5.431  -5.106  1.00  0.00     0.119 A 
ATOM      4  C   UNL     1       7.885  -5.365  -6.507  1.00  0.00     0.094 A 
ATOM      5  C   UNL     1       7.889  -6.541  -7.266  1.00  0.00     0.142 A 
ATOM      6  C   UNL     1       7.875  -7.795  -6.616  1.00  0.00     0.018 A 
ATOM      7  C   UNL     1       7.879  -8.952  -7.401  1.00  0.00     0.019 A 
ATOM      8  C   UNL     1       7.899  -8.837  -8.790  1.00  0.00     0.094 A 
ATOM      9  C   UNL     1       7.912  -7.561  -9.365  1.00  0.00     0.336 A 
ATOM     10  O   UNL     1       7.929  -7.437 -10.617  1.00  0.00    -0.246 OA
ATOM     11  O   UNL     1       7.907  -6.475  -8.595  1.00  0.00    -0.423 OA
ENDROOT
BRANCH   3  12
ATOM     12  O   UNL     1       7.861  -4.266  -4.342  1.00  0.00    -0.508 OA
ATOM     13  H   UNL     1       8.239  -4.249  -3.402  1.00  0.00     0.293 HD
ENDBRANCH   3  12
TORSDOF 1
ENDMDL
MODEL 3
REMARK VINA RESULT:    -4.885      2.220      2.257
REMARK INTER + INTRA:          -5.027
REMARK INTER:                  -5.027
REMARK INTRA:                   0.000
REMARK UNBOUND:                 0.000
REMARK SMILES O=c1ccc2ccc(O)cc2o1
REMARK SMILES IDX 6 1 7 2 8 3 10 4 11 5 5 6 4 7 3 8 2 9 1 10 12 11 9 12
REMARK H PARENT 9 13
REMARK Flexibility Score: inf
ROOT
ATOM      1  C   UNL     1       7.938  -7.997  -6.263  1.00  0.00     0.016 A 
ATOM      2  C   UNL     1       7.846  -6.970  -5.318  1.00  0.00     0.047 A 
ATOM      3  C   UNL     1       7.797  -5.632  -5.729  1.00  0.00     0.119 A 
ATOM      4  C   UNL     1       7.839  -5.318  -7.096  1.00  0.00     0.094 A 
ATOM      5  C   UNL     1       7.930  -6.340  -8.049  1.00  0.00     0.142 A 
ATOM      6  C   UNL     1       7.980  -7.688  -7.629  1.00  0.00     0.018 A 
ATOM      7  C   UNL     1       8.072  -8.685  -8.605  1.00  0.00     0.019 A 
ATOM      8  C   UNL     1       8.111  -8.325  -9.951  1.00  0.00     0.094 A 
ATOM      9  C   UNL     1       8.058  -6.969 -10.292  1.00  0.00     0.336 A 
ATOM     10  O   UNL     1       8.092  -6.625 -11.502  1.00  0.00    -0.246 OA
ATOM     11  O   UNL     1       7.970  -6.039  -9.344  1.00  0.00    -0.423 OA
ENDROOT
BRANCH   3  12
ATOM     12  O   UNL     1       7.705  -4.623  -4.773  1.00  0.00    -0.508 OA
ATOM     13  H   UNL     1       6.975  -3.922  -4.813  1.00  0.00     0.293 HD
ENDBRANCH   3  12
TORSDOF 1
ENDMDL
MODEL 4
REMARK VINA RESULT:    -4.857     15.849     17.854
REMARK INTER + INTRA:          -4.999
REMARK INTER:                  -4.999
REMARK INTRA:                   0.000
REMARK UNBOUND:                 0.000
REMARK SMILES O=c1ccc2ccc(O)cc2o1
REMARK SMILES IDX 6 1 7 2 8 3 10 4 11 5 5 6 4 7 3 8 2 9 1 10 12 11 9 12
REMARK H PARENT 9 13
REMARK Flexibility Score: inf
ROOT
ATOM      1  C   UNL     1      19.263  -0.711 -18.354  1.00  0.00     0.016 A 
ATOM      2  C   UNL     1      19.640  -0.122 -17.143  1.00  0.00     0.047 A 
ATOM      3  C   UNL     1      20.732   0.753 -17.091  1.00  0.00     0.119 A 
ATOM      4  C   UNL     1      21.454   1.042 -18.260  1.00  0.00     0.094 A 
ATOM      5  C   UNL     1      21.083   0.456 -19.476  1.00  0.00     0.142 A 
ATOM      6  C   UNL     1      19.981  -0.426 -19.523  1.00  0.00     0.018 A 
ATOM      7  C   UNL     1      19.636  -0.995 -20.753  1.00  0.00     0.019 A 
ATOM      8  C   UNL     1      20.382  -0.678 -21.887  1.00  0.00     0.094 A 
ATOM      9  C   UNL     1      21.462   0.204 -21.765  1.00  0.00     0.336 A 
ATOM     10  O   UNL     1      22.147   0.501 -22.778  1.00  0.00    -0.246 OA
ATOM     11  O   UNL     1      21.769   0.732 -20.583  1.00  0.00    -0.423 OA
ENDROOT
BRANCH   3  12
ATOM     12  O   UNL     1      21.092   1.331 -15.876  1.00  0.00    -0.508 OA
ATOM     13  H   UNL     1      20.394   1.673 -15.226  1.00  0.00     0.293 HD
ENDBRANCH   3  12
TORSDOF 1
ENDMDL
MODEL 5
REMARK VINA RESULT:    -4.825     11.096     12.726
REMARK INTER + INTRA:          -4.966
REMARK INTER:                  -4.966
REMARK INTRA:                   0.000
REMARK UNBOUND:                 0.000
REMARK SMILES O=c1ccc2ccc(O)cc2o1
REMARK SMILES IDX 6 1 7 2 8 3 10 4 11 5 5 6 4 7 3 8 2 9 1 10 12 11 9 12
REMARK H PARENT 9 13
REMARK Flexibility Score: inf
ROOT
ATOM      1  C   UNL     1      20.720  -2.370  -8.593  1.00  0.00     0.016 A 
ATOM      2  C   UNL     1      19.380  -2.362  -8.193  1.00  0.00     0.047 A 
ATOM      3  C   UNL     1      19.029  -2.723  -6.887  1.00  0.00     0.119 A 
ATOM      4  C   UNL     1      20.026  -3.097  -5.972  1.00  0.00     0.094 A 
ATOM      5  C   UNL     1      21.370  -3.108  -6.365  1.00  0.00     0.142 A 
ATOM      6  C   UNL     1      21.719  -2.743  -7.684  1.00  0.00     0.018 A 
ATOM      7  C   UNL     1      23.070  -2.765  -8.045  1.00  0.00     0.019 A 
ATOM      8  C   UNL     1      24.024  -3.143  -7.102  1.00  0.00     0.094 A 
ATOM      9  C   UNL     1      23.605  -3.493  -5.814  1.00  0.00     0.336 A 
ATOM     10  O   UNL     1      24.452  -3.837  -4.950  1.00  0.00    -0.246 OA
ATOM     11  O   UNL     1      22.313  -3.464  -5.496  1.00  0.00    -0.423 OA
ENDROOT
BRANCH   3  12
ATOM     12  O   UNL     1      17.689  -2.707  -6.507  1.00  0.00    -0.508 OA
ATOM     13  H   UNL     1      17.293  -3.444  -5.934  1.00  0.00     0.293 HD
ENDBRANCH   3  12
TORSDOF 1
ENDMDL
MODEL 6
REMARK VINA RESULT:    -4.805      2.566      3.053
REMARK INTER + INTRA:          -4.946
REMARK INTER:                  -4.946
REMARK INTRA:                   0.000
REMARK UNBOUND:                 0.000
REMARK SMILES O=c1ccc2ccc(O)cc2o1
REMARK SMILES IDX 6 1 7 2 8 3 10 4 11 5 5 6 4 7 3 8 2 9 1 10 12 11 9 12
REMARK H PARENT 9 13
REMARK Flexibility Score: inf
ROOT
ATOM      1  C   UNL     1       8.238  -5.542  -5.939  1.00  0.00     0.016 A 
ATOM      2  C   UNL     1       7.893  -6.293  -4.812  1.00  0.00     0.047 A 
ATOM      3  C   UNL     1       7.508  -7.633  -4.945  1.00  0.00     0.119 A 
ATOM      4  C   UNL     1       7.466  -8.226  -6.217  1.00  0.00     0.094 A 
ATOM      5  C   UNL     1       7.810  -7.480  -7.351  1.00  0.00     0.142 A 
ATOM      6  C   UNL     1       8.198  -6.129  -7.211  1.00  0.00     0.018 A 
ATOM      7  C   UNL     1       8.535  -5.411  -8.362  1.00  0.00     0.019 A 
ATOM      8  C   UNL     1       8.479  -6.042  -9.604  1.00  0.00     0.094 A 
ATOM      9  C   UNL     1       8.085  -7.384  -9.666  1.00  0.00     0.336 A 
ATOM     10  O   UNL     1       8.028  -7.971 -10.778  1.00  0.00    -0.246 OA
ATOM     11  O   UNL     1       7.769  -8.045  -8.555  1.00  0.00    -0.423 OA
ENDROOT
BRANCH   3  12
ATOM     12  O   UNL     1       7.168  -8.366  -3.811  1.00  0.00    -0.508 OA
ATOM     13  H   UNL     1       6.252  -8.787  -3.707  1.00  0.00     0.293 HD
ENDBRANCH   3  12
TORSDOF 1
ENDMDL
MODEL 7
REMARK VINA RESULT:    -4.730      2.241      2.724
REMARK INTER + INTRA:          -4.868
REMARK INTER:                  -4.868
REMARK INTRA:                   0.000
REMARK UNBOUND:                 0.000
REMARK SMILES O=c1ccc2ccc(O)cc2o1
REMARK SMILES IDX 6 1 7 2 8 3 10 4 11 5 5 6 4 7 3 8 2 9 1 10 12 11 9 12
REMARK H PARENT 9 13
REMARK Flexibility Score: inf
ROOT
ATOM      1  C   UNL     1       7.828  -6.857  -7.923  1.00  0.00     0.016 A 
ATOM      2  C   UNL     1       8.531  -6.117  -6.968  1.00  0.00     0.047 A 
ATOM      3  C   UNL     1       9.857  -5.734  -7.205  1.00  0.00     0.119 A 
ATOM      4  C   UNL     1      10.485  -6.095  -8.407  1.00  0.00     0.094 A 
ATOM      5  C   UNL     1       9.788  -6.836  -9.368  1.00  0.00     0.142 A 
ATOM      6  C   UNL     1       8.451  -7.220  -9.124  1.00  0.00     0.018 A 
ATOM      7  C   UNL     1       7.781  -7.959 -10.104  1.00  0.00     0.019 A 
ATOM      8  C   UNL     1       8.446  -8.295 -11.282  1.00  0.00     0.094 A 
ATOM      9  C   UNL     1       9.772  -7.881 -11.455  1.00  0.00     0.336 A 
ATOM     10  O   UNL     1      10.389  -8.174 -12.512  1.00  0.00    -0.246 OA
ATOM     11  O   UNL     1      10.386  -7.177 -10.507  1.00  0.00    -0.423 OA
ENDROOT
BRANCH   3  12
ATOM     12  O   UNL     1      10.542  -4.996  -6.242  1.00  0.00    -0.508 OA
ATOM     13  H   UNL     1      10.472  -5.220  -5.256  1.00  0.00     0.293 HD
ENDBRANCH   3  12
TORSDOF 1
ENDMDL
MODEL 8
REMARK VINA RESULT:    -4.721      3.191      5.127
REMARK INTER + INTRA:          -4.859
REMARK INTER:                  -4.859
REMARK INTRA:                   0.000
REMARK UNBOUND:                 0.000
REMARK SMILES O=c1ccc2ccc(O)cc2o1
REMARK SMILES IDX 6 1 7 2 8 3 10 4 11 5 5 6 4 7 3 8 2 9 1 10 12 11 9 12
REMARK H PARENT 9 13
REMARK Flexibility Score: inf
ROOT
ATOM      1  C   UNL     1       7.956  -4.718 -10.232  1.00  0.00     0.016 A 
ATOM      2  C   UNL     1       8.123  -5.257 -11.511  1.00  0.00     0.047 A 
ATOM      3  C   UNL     1       8.252  -6.640 -11.686  1.00  0.00     0.119 A 
ATOM      4  C   UNL     1       8.215  -7.493 -10.571  1.00  0.00     0.094 A 
ATOM      5  C   UNL     1       8.047  -6.962  -9.287  1.00  0.00     0.142 A 
ATOM      6  C   UNL     1       7.918  -5.566  -9.116  1.00  0.00     0.018 A 
ATOM      7  C   UNL     1       7.752  -5.067  -7.820  1.00  0.00     0.019 A 
ATOM      8  C   UNL     1       7.721  -5.952  -6.744  1.00  0.00     0.094 A 
ATOM      9  C   UNL     1       7.857  -7.323  -6.989  1.00  0.00     0.336 A 
ATOM     10  O   UNL     1       7.831  -8.138  -6.030  1.00  0.00    -0.246 OA
ATOM     11  O   UNL     1       8.012  -7.773  -8.232  1.00  0.00    -0.423 OA
ENDROOT
BRANCH   3  12
ATOM     12  O   UNL     1       8.417  -7.158 -12.968  1.00  0.00    -0.508 OA
ATOM     13  H   UNL     1       9.182  -7.784 -13.192  1.00  0.00     0.293 HD
ENDBRANCH   3  12
TORSDOF 1
ENDMDL
MODEL 9
REMARK VINA RESULT:    -4.679      9.770     10.855
REMARK INTER + INTRA:          -4.816
REMARK INTER:                  -4.816
REMARK INTRA:                   0.000
REMARK UNBOUND:                 0.000
REMARK SMILES O=c1ccc2ccc(O)cc2o1
REMARK SMILES IDX 6 1 7 2 8 3 10 4 11 5 5 6 4 7 3 8 2 9 1 10 12 11 9 12
REMARK H PARENT 9 13
REMARK Flexibility Score: inf
ROOT
ATOM      1  C   UNL     1      13.027   4.019  -3.317  1.00  0.00     0.016 A 
ATOM      2  C   UNL     1      11.827   3.453  -2.875  1.00  0.00     0.047 A 
ATOM      3  C   UNL     1      11.039   2.693  -3.748  1.00  0.00     0.119 A 
ATOM      4  C   UNL     1      11.452   2.499  -5.075  1.00  0.00     0.094 A 
ATOM      5  C   UNL     1      12.652   3.062  -5.526  1.00  0.00     0.142 A 
ATOM      6  C   UNL     1      13.444   3.827  -4.641  1.00  0.00     0.018 A 
ATOM      7  C   UNL     1      14.637   4.377  -5.122  1.00  0.00     0.019 A 
ATOM      8  C   UNL     1      15.006   4.157  -6.448  1.00  0.00     0.094 A 
ATOM      9  C   UNL     1      14.171   3.388  -7.267  1.00  0.00     0.336 A 
ATOM     10  O   UNL     1      14.489   3.179  -8.466  1.00  0.00    -0.246 OA
ATOM     11  O   UNL     1      13.042   2.876  -6.785  1.00  0.00    -0.423 OA
ENDROOT
BRANCH   3  12
ATOM     12  O   UNL     1       9.847   2.137  -3.289  1.00  0.00    -0.508 OA
ATOM     13  H   UNL     1       9.382   2.491  -2.461  1.00  0.00     0.293 HD
ENDBRANCH   3  12
TORSDOF 1
ENDMDL
