MODEL 1
REMARK VINA RESULT:    -2.232      0.000      0.000
REMARK INTER + INTRA:          -2.702
REMARK INTER:                  -2.427
REMARK INTRA:                  -0.275
REMARK UNBOUND:                -0.275
REMARK SMILES CC(C)c1cc2c(cc1O)[C@@]1(C)CCCC(C)(C)[C@H]1CC2=O
REMARK SMILES IDX 4 1 9 2 8 3 7 4 6 5 5 6 21 7 22 8 20 9 19 10 11 11 13 12
REMARK SMILES IDX 14 13 15 14 16 15 17 16 18 17 12 18 2 19 1 20 3 21 10 22
REMARK H PARENT 10 23
REMARK Flexibility Score: inf
ROOT
ATOM      1  C   UNL     1      86.991  27.804  64.400  1.00  0.00    -0.003 A 
ATOM      2  C   UNL     1      85.690  28.002  64.913  1.00  0.00     0.119 A 
ATOM      3  C   UNL     1      85.211  29.302  65.133  1.00  0.00     0.051 A 
ATOM      4  C   UNL     1      86.034  30.424  64.923  1.00  0.00    -0.027 A 
ATOM      5  C   UNL     1      87.244  30.241  64.216  1.00  0.00     0.022 A 
ATOM      6  C   UNL     1      87.731  28.933  64.003  1.00  0.00     0.020 A 
ATOM      7  C   UNL     1      88.066  31.405  63.808  1.00  0.00     0.163 C 
ATOM      8  O   UNL     1      89.125  31.242  63.145  1.00  0.00    -0.294 OA
ATOM      9  C   UNL     1      87.655  32.788  64.192  1.00  0.00     0.086 C 
ATOM     10  C   UNL     1      86.872  32.806  65.533  1.00  0.00     0.013 C 
ATOM     11  C   UNL     1      85.634  31.805  65.504  1.00  0.00    -0.003 C 
ATOM     12  C   UNL     1      84.984  31.637  66.932  1.00  0.00     0.012 C 
ATOM     13  C   UNL     1      85.534  32.576  67.993  1.00  0.00     0.001 C 
ATOM     14  C   UNL     1      87.038  32.374  68.124  1.00  0.00     0.007 C 
ATOM     15  C   UNL     1      87.812  32.752  66.824  1.00  0.00    -0.031 C 
ATOM     16  C   UNL     1      88.426  34.163  67.040  1.00  0.00     0.011 C 
ATOM     17  C   UNL     1      88.987  31.746  66.692  1.00  0.00     0.011 C 
ATOM     18  C   UNL     1      84.537  32.414  64.582  1.00  0.00     0.017 C 
ENDROOT
BRANCH   1  19
ATOM     19  C   UNL     1      87.607  26.405  64.446  1.00  0.00     0.017 C 
ATOM     20  C   UNL     1      89.022  26.488  65.043  1.00  0.00     0.012 C 
ATOM     21  C   UNL     1      87.661  25.683  63.088  1.00  0.00     0.012 C 
ENDBRANCH   1  19
BRANCH   2  22
ATOM     22  O   UNL     1      84.900  26.905  65.257  1.00  0.00    -0.508 OA
ATOM     23  H   UNL     1      84.440  26.827  66.161  1.00  0.00     0.293 HD
ENDBRANCH   2  22
TORSDOF 2
ENDMDL
