MODEL 1
REMARK VINA RESULT:    -6.980      0.000      0.000
REMARK INTER + INTRA:          -7.626
REMARK INTER:                  -7.388
REMARK INTRA:                  -0.238
REMARK UNBOUND:                -0.238
REMARK SMILES O=c1cc(-c2ccccc2)oc2ccccc12
REMARK SMILES IDX 4 1 3 2 2 3 1 4 17 5 16 6 15 7 14 8 13 9 12 10 11 11 5 12
REMARK SMILES IDX 8 13 7 14 9 15 6 16 10 17
REMARK H PARENT
REMARK Flexibility Score: inf
ROOT
ATOM      1  C   UNL     1     -39.384  -5.812 -12.753  1.00  0.00     0.138 A 
ATOM      2  C   UNL     1     -40.229  -6.925 -12.946  1.00  0.00     0.100 A 
ATOM      3  C   UNL     1     -39.812  -7.974 -13.768  1.00  0.00     0.193 A 
ATOM      4  O   UNL     1     -40.569  -8.968 -13.940  1.00  0.00    -0.289 OA
ATOM      5  C   UNL     1     -38.558  -7.906 -14.389  1.00  0.00     0.065 A 
ATOM      6  C   UNL     1     -38.076  -8.927 -15.229  1.00  0.00     0.016 A 
ATOM      7  C   UNL     1     -36.816  -8.809 -15.824  1.00  0.00     0.001 A 
ATOM      8  C   UNL     1     -36.031  -7.676 -15.588  1.00  0.00     0.004 A 
ATOM      9  C   UNL     1     -36.501  -6.657 -14.756  1.00  0.00     0.048 A 
ATOM     10  C   UNL     1     -37.760  -6.765 -14.154  1.00  0.00     0.138 A 
ATOM     11  O   UNL     1     -38.198  -5.790 -13.365  1.00  0.00    -0.456 OA
ENDROOT
BRANCH   1  12
ATOM     12  C   UNL     1     -39.753  -4.648 -11.890  1.00  0.00     0.017 A 
ATOM     13  C   UNL     1     -40.469  -2.514 -10.187  1.00  0.00     0.000 A 
ATOM     14  C   UNL     1     -40.068  -2.257 -11.498  1.00  0.00     0.001 A 
ATOM     15  C   UNL     1     -40.515  -3.826  -9.720  1.00  0.00     0.001 A 
ATOM     16  C   UNL     1     -39.712  -3.311 -12.347  1.00  0.00     0.012 A 
ATOM     17  C   UNL     1     -40.162  -4.885 -10.561  1.00  0.00     0.012 A 
ENDBRANCH   1  12
TORSDOF 1
ENDMDL
MODEL 2
REMARK VINA RESULT:    -6.902      1.810      2.281
REMARK INTER + INTRA:          -7.543
REMARK INTER:                  -7.312
REMARK INTRA:                  -0.232
REMARK UNBOUND:                -0.238
REMARK SMILES O=c1cc(-c2ccccc2)oc2ccccc12
REMARK SMILES IDX 4 1 3 2 2 3 1 4 17 5 16 6 15 7 14 8 13 9 12 10 11 11 5 12
REMARK SMILES IDX 8 13 7 14 9 15 6 16 10 17
REMARK H PARENT
REMARK Flexibility Score: inf
ROOT
ATOM      1  C   UNL     1     -38.100  -4.842 -12.643  1.00  0.00     0.138 A 
ATOM      2  C   UNL     1     -39.361  -5.473 -12.633  1.00  0.00     0.100 A 
ATOM      3  C   UNL     1     -39.558  -6.632 -13.387  1.00  0.00     0.193 A 
ATOM      4  O   UNL     1     -40.686  -7.196 -13.377  1.00  0.00    -0.289 OA
ATOM      5  C   UNL     1     -38.499  -7.151 -14.143  1.00  0.00     0.065 A 
ATOM      6  C   UNL     1     -38.629  -8.315 -14.923  1.00  0.00     0.016 A 
ATOM      7  C   UNL     1     -37.538  -8.790 -15.659  1.00  0.00     0.001 A 
ATOM      8  C   UNL     1     -36.316  -8.112 -15.622  1.00  0.00     0.004 A 
ATOM      9  C   UNL     1     -36.178  -6.956 -14.849  1.00  0.00     0.048 A 
ATOM     10  C   UNL     1     -37.262  -6.472 -14.109  1.00  0.00     0.138 A 
ATOM     11  O   UNL     1     -37.119  -5.372 -13.377  1.00  0.00    -0.456 OA
ENDROOT
BRANCH   1  12
ATOM     12  C   UNL     1     -37.805  -3.599 -11.865  1.00  0.00     0.017 A 
ATOM     13  C   UNL     1     -37.233  -1.206 -10.482  1.00  0.00     0.000 A 
ATOM     14  C   UNL     1     -37.574  -2.358  -9.773  1.00  0.00     0.001 A 
ATOM     15  C   UNL     1     -37.176  -1.239 -11.874  1.00  0.00     0.001 A 
ATOM     16  C   UNL     1     -37.858  -3.547 -10.454  1.00  0.00     0.012 A 
ATOM     17  C   UNL     1     -37.458  -2.422 -12.562  1.00  0.00     0.012 A 
ENDBRANCH   1  12
TORSDOF 1
ENDMDL
MODEL 3
REMARK VINA RESULT:    -6.858      3.260      6.321
REMARK INTER + INTRA:          -7.497
REMARK INTER:                  -7.271
REMARK INTRA:                  -0.226
REMARK UNBOUND:                -0.238
REMARK SMILES O=c1cc(-c2ccccc2)oc2ccccc12
REMARK SMILES IDX 4 1 3 2 2 3 1 4 17 5 16 6 15 7 14 8 13 9 12 10 11 11 5 12
REMARK SMILES IDX 8 13 7 14 9 15 6 16 10 17
REMARK H PARENT
REMARK Flexibility Score: inf
ROOT
ATOM      1  C   UNL     1     -36.410  -5.948 -16.722  1.00  0.00     0.138 A 
ATOM      2  C   UNL     1     -35.994  -7.240 -16.340  1.00  0.00     0.100 A 
ATOM      3  C   UNL     1     -36.752  -7.965 -15.419  1.00  0.00     0.193 A 
ATOM      4  O   UNL     1     -36.379  -9.120 -15.077  1.00  0.00    -0.289 OA
ATOM      5  C   UNL     1     -37.917  -7.397 -14.887  1.00  0.00     0.065 A 
ATOM      6  C   UNL     1     -38.727  -8.072 -13.955  1.00  0.00     0.016 A 
ATOM      7  C   UNL     1     -39.881  -7.458 -13.455  1.00  0.00     0.001 A 
ATOM      8  C   UNL     1     -40.233  -6.173 -13.880  1.00  0.00     0.004 A 
ATOM      9  C   UNL     1     -39.435  -5.496 -14.805  1.00  0.00     0.048 A 
ATOM     10  C   UNL     1     -38.279  -6.100 -15.311  1.00  0.00     0.138 A 
ATOM     11  O   UNL     1     -37.527  -5.447 -16.190  1.00  0.00    -0.456 OA
ENDROOT
BRANCH   1  12
ATOM     12  C   UNL     1     -35.657  -5.106 -17.702  1.00  0.00     0.017 A 
ATOM     13  C   UNL     1     -34.201  -3.463 -19.477  1.00  0.00     0.000 A 
ATOM     14  C   UNL     1     -34.958  -4.526 -19.970  1.00  0.00     0.001 A 
ATOM     15  C   UNL     1     -34.165  -3.214 -18.106  1.00  0.00     0.001 A 
ATOM     16  C   UNL     1     -35.682  -5.343 -19.096  1.00  0.00     0.012 A 
ATOM     17  C   UNL     1     -34.885  -4.026 -17.225  1.00  0.00     0.012 A 
ENDBRANCH   1  12
TORSDOF 1
ENDMDL
MODEL 4
REMARK VINA RESULT:    -6.837      5.665      8.517
REMARK INTER + INTRA:          -7.475
REMARK INTER:                  -7.212
REMARK INTRA:                  -0.263
REMARK UNBOUND:                -0.238
REMARK SMILES O=c1cc(-c2ccccc2)oc2ccccc12
REMARK SMILES IDX 4 1 3 2 2 3 1 4 17 5 16 6 15 7 14 8 13 9 12 10 11 11 5 12
REMARK SMILES IDX 8 13 7 14 9 15 6 16 10 17
REMARK H PARENT
REMARK Flexibility Score: inf
ROOT
ATOM      1  C   UNL     1     -34.657  -3.788 -18.726  1.00  0.00     0.138 A 
ATOM      2  C   UNL     1     -35.795  -3.539 -19.522  1.00  0.00     0.100 A 
ATOM      3  C   UNL     1     -37.050  -3.968 -19.082  1.00  0.00     0.193 A 
ATOM      4  O   UNL     1     -38.067  -3.746 -19.794  1.00  0.00    -0.289 OA
ATOM      5  C   UNL     1     -37.159  -4.638 -17.857  1.00  0.00     0.065 A 
ATOM      6  C   UNL     1     -38.392  -5.095 -17.355  1.00  0.00     0.016 A 
ATOM      7  C   UNL     1     -38.444  -5.759 -16.125  1.00  0.00     0.001 A 
ATOM      8  C   UNL     1     -37.274  -5.970 -15.389  1.00  0.00     0.004 A 
ATOM      9  C   UNL     1     -36.045  -5.519 -15.880  1.00  0.00     0.048 A 
ATOM     10  C   UNL     1     -35.981  -4.853 -17.109  1.00  0.00     0.138 A 
ATOM     11  O   UNL     1     -34.808  -4.429 -17.566  1.00  0.00    -0.456 OA
ENDROOT
BRANCH   1  12
ATOM     12  C   UNL     1     -33.279  -3.363 -19.123  1.00  0.00     0.017 A 
ATOM     13  C   UNL     1     -30.710  -2.550 -19.963  1.00  0.00     0.000 A 
ATOM     14  C   UNL     1     -30.937  -2.873 -18.625  1.00  0.00     0.001 A 
ATOM     15  C   UNL     1     -31.753  -2.630 -20.884  1.00  0.00     0.001 A 
ATOM     16  C   UNL     1     -32.208  -3.276 -18.203  1.00  0.00     0.012 A 
ATOM     17  C   UNL     1     -33.026  -3.032 -20.471  1.00  0.00     0.012 A 
ENDBRANCH   1  12
TORSDOF 1
ENDMDL
MODEL 5
REMARK VINA RESULT:    -6.831      3.133      6.315
REMARK INTER + INTRA:          -7.469
REMARK INTER:                  -7.214
REMARK INTRA:                  -0.254
REMARK UNBOUND:                -0.238
REMARK SMILES O=c1cc(-c2ccccc2)oc2ccccc12
REMARK SMILES IDX 4 1 3 2 2 3 1 4 17 5 16 6 15 7 14 8 13 9 12 10 11 11 5 12
REMARK SMILES IDX 8 13 7 14 9 15 6 16 10 17
REMARK H PARENT
REMARK Flexibility Score: inf
ROOT
ATOM      1  C   UNL     1     -36.525  -5.320 -16.372  1.00  0.00     0.138 A 
ATOM      2  C   UNL     1     -36.938  -4.513 -15.290  1.00  0.00     0.100 A 
ATOM      3  C   UNL     1     -37.802  -5.040 -14.328  1.00  0.00     0.193 A 
ATOM      4  O   UNL     1     -38.171  -4.318 -13.361  1.00  0.00    -0.289 OA
ATOM      5  C   UNL     1     -38.246  -6.363 -14.450  1.00  0.00     0.065 A 
ATOM      6  C   UNL     1     -39.115  -6.956 -13.516  1.00  0.00     0.016 A 
ATOM      7  C   UNL     1     -39.527  -8.282 -13.686  1.00  0.00     0.001 A 
ATOM      8  C   UNL     1     -39.077  -9.023 -14.784  1.00  0.00     0.004 A 
ATOM      9  C   UNL     1     -38.213  -8.442 -15.716  1.00  0.00     0.048 A 
ATOM     10  C   UNL     1     -37.794  -7.117 -15.555  1.00  0.00     0.138 A 
ATOM     11  O   UNL     1     -36.973  -6.575 -16.447  1.00  0.00    -0.456 OA
ENDROOT
BRANCH   1  12
ATOM     12  C   UNL     1     -35.603  -4.834 -17.444  1.00  0.00     0.017 A 
ATOM     13  C   UNL     1     -33.911  -3.973 -19.533  1.00  0.00     0.000 A 
ATOM     14  C   UNL     1     -33.737  -3.473 -18.242  1.00  0.00     0.001 A 
ATOM     15  C   UNL     1     -34.922  -4.898 -19.789  1.00  0.00     0.001 A 
ATOM     16  C   UNL     1     -34.573  -3.896 -17.203  1.00  0.00     0.012 A 
ATOM     17  C   UNL     1     -35.761  -5.326 -18.757  1.00  0.00     0.012 A 
ENDBRANCH   1  12
TORSDOF 1
ENDMDL
MODEL 6
REMARK VINA RESULT:    -6.788      2.918      6.098
REMARK INTER + INTRA:          -7.423
REMARK INTER:                  -7.170
REMARK INTRA:                  -0.252
REMARK UNBOUND:                -0.238
REMARK SMILES O=c1cc(-c2ccccc2)oc2ccccc12
REMARK SMILES IDX 4 1 3 2 2 3 1 4 17 5 16 6 15 7 14 8 13 9 12 10 11 11 5 12
REMARK SMILES IDX 8 13 7 14 9 15 6 16 10 17
REMARK H PARENT
REMARK Flexibility Score: inf
ROOT
ATOM      1  C   UNL     1     -36.899  -5.719 -16.365  1.00  0.00     0.138 A 
ATOM      2  C   UNL     1     -37.319  -7.056 -16.525  1.00  0.00     0.100 A 
ATOM      3  C   UNL     1     -38.232  -7.605 -15.622  1.00  0.00     0.193 A 
ATOM      4  O   UNL     1     -38.607  -8.800 -15.765  1.00  0.00    -0.289 OA
ATOM      5  C   UNL     1     -38.719  -6.817 -14.570  1.00  0.00     0.065 A 
ATOM      6  C   UNL     1     -39.641  -7.307 -13.626  1.00  0.00     0.016 A 
ATOM      7  C   UNL     1     -40.094  -6.477 -12.595  1.00  0.00     0.001 A 
ATOM      8  C   UNL     1     -39.635  -5.160 -12.499  1.00  0.00     0.004 A 
ATOM      9  C   UNL     1     -38.720  -4.666 -13.432  1.00  0.00     0.048 A 
ATOM     10  C   UNL     1     -38.259  -5.486 -14.468  1.00  0.00     0.138 A 
ATOM     11  O   UNL     1     -37.390  -5.006 -15.350  1.00  0.00    -0.456 OA
ENDROOT
BRANCH   1  12
ATOM     12  C   UNL     1     -35.926  -5.056 -17.287  1.00  0.00     0.017 A 
ATOM     13  C   UNL     1     -34.128  -3.854 -19.101  1.00  0.00     0.000 A 
ATOM     14  C   UNL     1     -34.090  -3.510 -17.750  1.00  0.00     0.001 A 
ATOM     15  C   UNL     1     -35.054  -4.792 -19.554  1.00  0.00     0.001 A 
ATOM     16  C   UNL     1     -34.979  -4.102 -16.846  1.00  0.00     0.012 A 
ATOM     17  C   UNL     1     -35.946  -5.389 -18.658  1.00  0.00     0.012 A 
ENDBRANCH   1  12
TORSDOF 1
ENDMDL
MODEL 7
REMARK VINA RESULT:    -6.576      2.220      3.411
REMARK INTER + INTRA:          -7.199
REMARK INTER:                  -6.936
REMARK INTRA:                  -0.263
REMARK UNBOUND:                -0.238
REMARK SMILES O=c1cc(-c2ccccc2)oc2ccccc12
REMARK SMILES IDX 4 1 3 2 2 3 1 4 17 5 16 6 15 7 14 8 13 9 12 10 11 11 5 12
REMARK SMILES IDX 8 13 7 14 9 15 6 16 10 17
REMARK H PARENT
REMARK Flexibility Score: inf
ROOT
ATOM      1  C   UNL     1     -37.253  -4.443 -12.937  1.00  0.00     0.138 A 
ATOM      2  C   UNL     1     -36.376  -4.230 -14.021  1.00  0.00     0.100 A 
ATOM      3  C   UNL     1     -36.334  -5.154 -15.066  1.00  0.00     0.193 A 
ATOM      4  O   UNL     1     -35.549  -4.963 -16.035  1.00  0.00    -0.289 OA
ATOM      5  C   UNL     1     -37.167  -6.280 -15.024  1.00  0.00     0.065 A 
ATOM      6  C   UNL     1     -37.176  -7.250 -16.044  1.00  0.00     0.016 A 
ATOM      7  C   UNL     1     -38.027  -8.356 -15.952  1.00  0.00     0.001 A 
ATOM      8  C   UNL     1     -38.872  -8.502 -14.847  1.00  0.00     0.004 A 
ATOM      9  C   UNL     1     -38.870  -7.544 -13.830  1.00  0.00     0.048 A 
ATOM     10  C   UNL     1     -38.023  -6.434 -13.912  1.00  0.00     0.138 A 
ATOM     11  O   UNL     1     -38.028  -5.529 -12.939  1.00  0.00    -0.456 OA
ENDROOT
BRANCH   1  12
ATOM     12  C   UNL     1     -37.360  -3.503 -11.778  1.00  0.00     0.017 A 
ATOM     13  C   UNL     1     -37.517  -1.660  -9.646  1.00  0.00     0.000 A 
ATOM     14  C   UNL     1     -38.029  -2.949  -9.495  1.00  0.00     0.001 A 
ATOM     15  C   UNL     1     -36.928  -1.284 -10.852  1.00  0.00     0.001 A 
ATOM     16  C   UNL     1     -37.953  -3.866 -10.548  1.00  0.00     0.012 A 
ATOM     17  C   UNL     1     -36.848  -2.195 -11.910  1.00  0.00     0.012 A 
ENDBRANCH   1  12
TORSDOF 1
ENDMDL
MODEL 8
REMARK VINA RESULT:    -6.538      3.239      5.568
REMARK INTER + INTRA:          -7.159
REMARK INTER:                  -6.903
REMARK INTRA:                  -0.256
REMARK UNBOUND:                -0.238
REMARK SMILES O=c1cc(-c2ccccc2)oc2ccccc12
REMARK SMILES IDX 4 1 3 2 2 3 1 4 17 5 16 6 15 7 14 8 13 9 12 10 11 11 5 12
REMARK SMILES IDX 8 13 7 14 9 15 6 16 10 17
REMARK H PARENT
REMARK Flexibility Score: inf
ROOT
ATOM      1  C   UNL     1     -37.584  -5.703 -15.665  1.00  0.00     0.138 A 
ATOM      2  C   UNL     1     -37.267  -4.464 -15.069  1.00  0.00     0.100 A 
ATOM      3  C   UNL     1     -36.443  -3.564 -15.747  1.00  0.00     0.193 A 
ATOM      4  O   UNL     1     -36.159  -2.457 -15.215  1.00  0.00    -0.289 OA
ATOM      5  C   UNL     1     -35.942  -3.906 -17.011  1.00  0.00     0.065 A 
ATOM      6  C   UNL     1     -35.107  -3.045 -17.749  1.00  0.00     0.016 A 
ATOM      7  C   UNL     1     -34.635  -3.436 -19.006  1.00  0.00     0.001 A 
ATOM      8  C   UNL     1     -34.991  -4.681 -19.535  1.00  0.00     0.004 A 
ATOM      9  C   UNL     1     -35.820  -5.541 -18.810  1.00  0.00     0.048 A 
ATOM     10  C   UNL     1     -36.298  -5.161 -17.551  1.00  0.00     0.138 A 
ATOM     11  O   UNL     1     -37.085  -5.986 -16.870  1.00  0.00    -0.456 OA
ENDROOT
BRANCH   1  12
ATOM     12  C   UNL     1     -38.459  -6.722 -15.007  1.00  0.00     0.017 A 
ATOM     13  C   UNL     1     -40.059  -8.717 -13.811  1.00  0.00     0.000 A 
ATOM     14  C   UNL     1     -40.296  -7.371 -13.532  1.00  0.00     0.001 A 
ATOM     15  C   UNL     1     -39.031  -9.075 -14.682  1.00  0.00     0.001 A 
ATOM     16  C   UNL     1     -39.506  -6.378 -14.122  1.00  0.00     0.012 A 
ATOM     17  C   UNL     1     -38.237  -8.090 -15.276  1.00  0.00     0.012 A 
ENDBRANCH   1  12
TORSDOF 1
ENDMDL
MODEL 9
REMARK VINA RESULT:    -6.528      2.283      6.133
REMARK INTER + INTRA:          -7.147
REMARK INTER:                  -6.908
REMARK INTRA:                  -0.239
REMARK UNBOUND:                -0.238
REMARK SMILES O=c1cc(-c2ccccc2)oc2ccccc12
REMARK SMILES IDX 4 1 3 2 2 3 1 4 17 5 16 6 15 7 14 8 13 9 12 10 11 11 5 12
REMARK SMILES IDX 8 13 7 14 9 15 6 16 10 17
REMARK H PARENT
REMARK Flexibility Score: inf
ROOT
ATOM      1  C   UNL     1     -38.108  -5.137 -13.292  1.00  0.00     0.138 A 
ATOM      2  C   UNL     1     -37.661  -4.163 -14.209  1.00  0.00     0.100 A 
ATOM      3  C   UNL     1     -37.294  -2.897 -13.747  1.00  0.00     0.193 A 
ATOM      4  O   UNL     1     -36.894  -2.027 -14.568  1.00  0.00    -0.289 OA
ATOM      5  C   UNL     1     -37.375  -2.613 -12.377  1.00  0.00     0.065 A 
ATOM      6  C   UNL     1     -37.021  -1.360 -11.845  1.00  0.00     0.016 A 
ATOM      7  C   UNL     1     -37.121  -1.129 -10.469  1.00  0.00     0.001 A 
ATOM      8  C   UNL     1     -37.573  -2.143  -9.618  1.00  0.00     0.004 A 
ATOM      9  C   UNL     1     -37.927  -3.391 -10.138  1.00  0.00     0.048 A 
ATOM     10  C   UNL     1     -37.830  -3.632 -11.512  1.00  0.00     0.138 A 
ATOM     11  O   UNL     1     -38.169  -4.822 -11.996  1.00  0.00    -0.456 OA
ENDROOT
BRANCH   1  12
ATOM     12  C   UNL     1     -38.519  -6.514 -13.703  1.00  0.00     0.017 A 
ATOM     13  C   UNL     1     -39.209  -9.125 -14.526  1.00  0.00     0.000 A 
ATOM     14  C   UNL     1     -40.092  -8.384 -13.740  1.00  0.00     0.001 A 
ATOM     15  C   UNL     1     -37.985  -8.574 -14.904  1.00  0.00     0.001 A 
ATOM     16  C   UNL     1     -39.755  -7.090 -13.329  1.00  0.00     0.012 A 
ATOM     17  C   UNL     1     -37.641  -7.281 -14.498  1.00  0.00     0.012 A 
ENDBRANCH   1  12
TORSDOF 1
ENDMDL
