MODEL 1
REMARK VINA RESULT:    -3.755      0.000      0.000
REMARK INTER + INTRA:          -3.992
REMARK INTER:                  -3.974
REMARK INTRA:                  -0.017
REMARK UNBOUND:                -0.017
REMARK SMILES O=C([O-])c1cccnc1
REMARK SMILES IDX 4 1 5 2 9 3 6 4 8 5 7 6 2 7 1 8 3 9
REMARK H PARENT
REMARK Flexibility Score: inf
ROOT
ATOM      1  C   UNL     1       8.149  28.306  37.214  1.00  0.00     0.016 A 
ATOM      2  C   UNL     1       7.200  27.292  37.422  1.00  0.00     0.013 A 
ATOM      3  C   UNL     1       9.512  27.981  37.327  1.00  0.00     0.120 A 
ATOM      4  C   UNL     1       7.617  25.996  37.733  1.00  0.00     0.021 A 
ATOM      5  N   UNL     1       9.891  26.712  37.631  1.00  0.00    -0.264 NA
ATOM      6  C   UNL     1       8.981  25.722  37.834  1.00  0.00     0.111 A 
ENDROOT
BRANCH   1   7
ATOM      7  C   UNL     1       7.719  29.683  36.884  1.00  0.00     0.073 C 
ATOM      8  O   UNL     1       8.020  30.199  35.775  1.00  0.00    -0.545 OA
ATOM      9  O   UNL     1       6.977  30.426  37.795  1.00  0.00    -0.545 OA
ENDBRANCH   1   7
TORSDOF 1
ENDMDL
MODEL 2
REMARK VINA RESULT:    -3.719      1.687      2.305
REMARK INTER + INTRA:          -3.954
REMARK INTER:                  -3.934
REMARK INTRA:                  -0.019
REMARK UNBOUND:                -0.017
REMARK SMILES O=C([O-])c1cccnc1
REMARK SMILES IDX 4 1 5 2 9 3 6 4 8 5 7 6 2 7 1 8 3 9
REMARK H PARENT
REMARK Flexibility Score: inf
ROOT
ATOM      1  C   UNL     1       8.734  28.167  35.834  1.00  0.00     0.016 A 
ATOM      2  C   UNL     1       7.352  28.020  36.035  1.00  0.00     0.013 A 
ATOM      3  C   UNL     1       9.610  27.402  36.623  1.00  0.00     0.120 A 
ATOM      4  C   UNL     1       6.875  27.131  37.001  1.00  0.00     0.021 A 
ATOM      5  N   UNL     1       9.120  26.543  37.556  1.00  0.00    -0.264 NA
ATOM      6  C   UNL     1       7.784  26.394  37.760  1.00  0.00     0.111 A 
ENDROOT
BRANCH   1   7
ATOM      7  C   UNL     1       9.251  29.105  34.813  1.00  0.00     0.073 C 
ATOM      8  O   UNL     1       8.840  30.294  34.771  1.00  0.00    -0.545 OA
ATOM      9  O   UNL     1      10.199  28.685  33.887  1.00  0.00    -0.545 OA
ENDBRANCH   1   7
TORSDOF 1
ENDMDL
MODEL 3
REMARK VINA RESULT:    -3.646     11.970     12.245
REMARK INTER + INTRA:          -3.877
REMARK INTER:                  -3.853
REMARK INTRA:                  -0.023
REMARK UNBOUND:                -0.017
REMARK SMILES O=C([O-])c1cccnc1
REMARK SMILES IDX 4 1 5 2 9 3 6 4 8 5 7 6 2 7 1 8 3 9
REMARK H PARENT
REMARK Flexibility Score: inf
ROOT
ATOM      1  C   UNL     1      10.256  34.807  46.941  1.00  0.00     0.016 A 
ATOM      2  C   UNL     1      11.146  33.903  47.543  1.00  0.00     0.013 A 
ATOM      3  C   UNL     1      10.768  35.736  46.018  1.00  0.00     0.120 A 
ATOM      4  C   UNL     1      12.505  33.938  47.220  1.00  0.00     0.021 A 
ATOM      5  N   UNL     1      12.095  35.748  45.723  1.00  0.00    -0.264 NA
ATOM      6  C   UNL     1      12.965  34.878  46.299  1.00  0.00     0.111 A 
ENDROOT
BRANCH   1   7
ATOM      7  C   UNL     1       8.815  34.779  47.274  1.00  0.00     0.073 C 
ATOM      8  O   UNL     1       8.411  34.211  48.323  1.00  0.00    -0.545 OA
ATOM      9  O   UNL     1       7.887  35.381  46.431  1.00  0.00    -0.545 OA
ENDBRANCH   1   7
TORSDOF 1
ENDMDL
MODEL 4
REMARK VINA RESULT:    -3.621     12.255     12.526
REMARK INTER + INTRA:          -3.850
REMARK INTER:                  -3.828
REMARK INTRA:                  -0.023
REMARK UNBOUND:                -0.017
REMARK SMILES O=C([O-])c1cccnc1
REMARK SMILES IDX 4 1 5 2 9 3 6 4 8 5 7 6 2 7 1 8 3 9
REMARK H PARENT
REMARK Flexibility Score: inf
ROOT
ATOM      1  C   UNL     1      11.274  34.782  46.859  1.00  0.00     0.016 A 
ATOM      2  C   UNL     1      10.441  33.928  47.601  1.00  0.00     0.013 A 
ATOM      3  C   UNL     1      10.706  35.927  46.275  1.00  0.00     0.120 A 
ATOM      4  C   UNL     1       9.084  34.224  47.746  1.00  0.00     0.021 A 
ATOM      5  N   UNL     1       9.382  36.192  46.431  1.00  0.00    -0.264 NA
ATOM      6  C   UNL     1       8.568  35.373  47.147  1.00  0.00     0.111 A 
ENDROOT
BRANCH   1   7
ATOM      7  C   UNL     1      12.713  34.478  46.699  1.00  0.00     0.073 C 
ATOM      8  O   UNL     1      13.316  33.771  47.548  1.00  0.00    -0.545 OA
ATOM      9  O   UNL     1      13.418  34.971  45.607  1.00  0.00    -0.545 OA
ENDBRANCH   1   7
TORSDOF 1
ENDMDL
MODEL 5
REMARK VINA RESULT:    -3.606      2.966      3.871
REMARK INTER + INTRA:          -3.834
REMARK INTER:                  -3.814
REMARK INTRA:                  -0.020
REMARK UNBOUND:                -0.017
REMARK SMILES O=C([O-])c1cccnc1
REMARK SMILES IDX 4 1 5 2 9 3 6 4 8 5 7 6 2 7 1 8 3 9
REMARK H PARENT
REMARK Flexibility Score: inf
ROOT
ATOM      1  C   UNL     1       8.903  28.380  36.375  1.00  0.00     0.016 A 
ATOM      2  C   UNL     1       9.527  28.063  35.157  1.00  0.00     0.013 A 
ATOM      3  C   UNL     1       8.409  29.683  36.554  1.00  0.00     0.120 A 
ATOM      4  C   UNL     1       9.644  29.032  34.157  1.00  0.00     0.021 A 
ATOM      5  N   UNL     1       8.536  30.607  35.565  1.00  0.00    -0.264 NA
ATOM      6  C   UNL     1       9.138  30.312  34.382  1.00  0.00     0.111 A 
ENDROOT
BRANCH   1   7
ATOM      7  C   UNL     1       8.773  27.362  37.441  1.00  0.00     0.073 C 
ATOM      8  O   UNL     1       9.755  26.643  37.762  1.00  0.00    -0.545 OA
ATOM      9  O   UNL     1       7.562  27.188  38.102  1.00  0.00    -0.545 OA
ENDBRANCH   1   7
TORSDOF 1
ENDMDL
MODEL 6
REMARK VINA RESULT:    -3.479     11.695     12.035
REMARK INTER + INTRA:          -3.700
REMARK INTER:                  -3.683
REMARK INTRA:                  -0.017
REMARK UNBOUND:                -0.017
REMARK SMILES O=C([O-])c1cccnc1
REMARK SMILES IDX 4 1 5 2 9 3 6 4 8 5 7 6 2 7 1 8 3 9
REMARK H PARENT
REMARK Flexibility Score: inf
ROOT
ATOM      1  C   UNL     1      11.270  35.842  45.661  1.00  0.00     0.016 A 
ATOM      2  C   UNL     1      12.581  35.380  45.866  1.00  0.00     0.013 A 
ATOM      3  C   UNL     1      10.233  35.272  46.419  1.00  0.00     0.120 A 
ATOM      4  C   UNL     1      12.830  34.378  46.806  1.00  0.00     0.021 A 
ATOM      5  N   UNL     1      10.504  34.297  47.328  1.00  0.00    -0.264 NA
ATOM      6  C   UNL     1      11.768  33.843  47.535  1.00  0.00     0.111 A 
ENDROOT
BRANCH   1   7
ATOM      7  C   UNL     1      10.993  36.903  44.668  1.00  0.00     0.073 C 
ATOM      8  O   UNL     1      10.603  38.042  45.040  1.00  0.00    -0.545 OA
ATOM      9  O   UNL     1      11.158  36.656  43.310  1.00  0.00    -0.545 OA
ENDBRANCH   1   7
TORSDOF 1
ENDMDL
MODEL 7
REMARK VINA RESULT:    -3.439     11.697     11.959
REMARK INTER + INTRA:          -3.657
REMARK INTER:                  -3.641
REMARK INTRA:                  -0.016
REMARK UNBOUND:                -0.017
REMARK SMILES O=C([O-])c1cccnc1
REMARK SMILES IDX 4 1 5 2 9 3 6 4 8 5 7 6 2 7 1 8 3 9
REMARK H PARENT
REMARK Flexibility Score: inf
ROOT
ATOM      1  C   UNL     1      11.179  35.861  45.737  1.00  0.00     0.016 A 
ATOM      2  C   UNL     1      10.166  35.241  46.486  1.00  0.00     0.013 A 
ATOM      3  C   UNL     1      12.502  35.418  45.905  1.00  0.00     0.120 A 
ATOM      4  C   UNL     1      10.482  34.210  47.373  1.00  0.00     0.021 A 
ATOM      5  N   UNL     1      12.783  34.412  46.776  1.00  0.00    -0.264 NA
ATOM      6  C   UNL     1      11.810  33.805  47.506  1.00  0.00     0.111 A 
ENDROOT
BRANCH   1   7
ATOM      7  C   UNL     1      10.857  36.955  44.794  1.00  0.00     0.073 C 
ATOM      8  O   UNL     1      10.725  38.137  45.207  1.00  0.00    -0.545 OA
ATOM      9  O   UNL     1      10.695  36.690  43.439  1.00  0.00    -0.545 OA
ENDBRANCH   1   7
TORSDOF 1
ENDMDL
MODEL 8
REMARK VINA RESULT:    -3.410      2.738      3.799
REMARK INTER + INTRA:          -3.626
REMARK INTER:                  -3.605
REMARK INTRA:                  -0.022
REMARK UNBOUND:                -0.017
REMARK SMILES O=C([O-])c1cccnc1
REMARK SMILES IDX 4 1 5 2 9 3 6 4 8 5 7 6 2 7 1 8 3 9
REMARK H PARENT
REMARK Flexibility Score: inf
ROOT
ATOM      1  C   UNL     1       8.785  28.411  36.283  1.00  0.00     0.016 A 
ATOM      2  C   UNL     1       8.284  29.695  36.552  1.00  0.00     0.013 A 
ATOM      3  C   UNL     1       9.447  28.193  35.062  1.00  0.00     0.120 A 
ATOM      4  C   UNL     1       8.449  30.721  35.619  1.00  0.00     0.021 A 
ATOM      5  N   UNL     1       9.594  29.210  34.171  1.00  0.00    -0.264 NA
ATOM      6  C   UNL     1       9.113  30.456  34.421  1.00  0.00     0.111 A 
ENDROOT
BRANCH   1   7
ATOM      7  C   UNL     1       8.617  27.316  37.263  1.00  0.00     0.073 C 
ATOM      8  O   UNL     1       9.473  26.396  37.349  1.00  0.00    -0.545 OA
ATOM      9  O   UNL     1       7.509  27.288  38.103  1.00  0.00    -0.545 OA
ENDBRANCH   1   7
TORSDOF 1
ENDMDL
MODEL 9
REMARK VINA RESULT:    -3.276     17.440     18.172
REMARK INTER + INTRA:          -3.485
REMARK INTER:                  -3.462
REMARK INTRA:                  -0.023
REMARK UNBOUND:                -0.017
REMARK SMILES O=C([O-])c1cccnc1
REMARK SMILES IDX 4 1 5 2 9 3 6 4 8 5 7 6 2 7 1 8 3 9
REMARK H PARENT
REMARK Flexibility Score: inf
ROOT
ATOM      1  C   UNL     1      23.484  25.069  46.269  1.00  0.00     0.016 A 
ATOM      2  C   UNL     1      23.569  25.415  44.910  1.00  0.00     0.013 A 
ATOM      3  C   UNL     1      24.263  23.996  46.737  1.00  0.00     0.120 A 
ATOM      4  C   UNL     1      24.414  24.701  44.058  1.00  0.00     0.021 A 
ATOM      5  N   UNL     1      25.077  23.318  45.885  1.00  0.00    -0.264 NA
ATOM      6  C   UNL     1      25.168  23.644  44.569  1.00  0.00     0.111 A 
ENDROOT
BRANCH   1   7
ATOM      7  C   UNL     1      22.593  25.818  47.182  1.00  0.00     0.073 C 
ATOM      8  O   UNL     1      21.642  26.506  46.727  1.00  0.00    -0.545 OA
ATOM      9  O   UNL     1      22.795  25.771  48.557  1.00  0.00    -0.545 OA
ENDBRANCH   1   7
TORSDOF 1
ENDMDL
