MODEL 1
REMARK VINA RESULT:    -3.324      0.000      0.000
REMARK INTER + INTRA:          -3.718
REMARK INTER:                  -3.713
REMARK INTRA:                  -0.005
REMARK UNBOUND:                -0.005
REMARK SMILES CCCC(=O)[O-]
REMARK SMILES IDX 3 1 4 2 5 3 6 4 2 5 1 6
REMARK H PARENT
REMARK Flexibility Score: inf
ROOT
ATOM      1  C   UNL     1      19.099   2.422  40.251  1.00  0.00     0.052 C 
ENDROOT
BRANCH   1   2
ATOM      2  C   UNL     1      17.609   2.525  40.349  1.00  0.00     0.041 C 
ATOM      3  O   UNL     1      17.039   3.638  40.202  1.00  0.00    -0.550 OA
ATOM      4  O   UNL     1      16.850   1.397  40.638  1.00  0.00    -0.550 OA
ENDBRANCH   1   2
BRANCH   1   5
ATOM      5  C   UNL     1      19.797   3.169  41.395  1.00  0.00     0.003 C 
ATOM      6  C   UNL     1      21.240   2.708  41.596  1.00  0.00     0.004 C 
ENDBRANCH   1   5
TORSDOF 2
ENDMDL
MODEL 2
REMARK VINA RESULT:    -3.318      2.789      3.562
REMARK INTER + INTRA:          -3.711
REMARK INTER:                  -3.705
REMARK INTRA:                  -0.006
REMARK UNBOUND:                -0.005
REMARK SMILES CCCC(=O)[O-]
REMARK SMILES IDX 3 1 4 2 5 3 6 4 2 5 1 6
REMARK H PARENT
REMARK Flexibility Score: inf
ROOT
ATOM      1  C   UNL     1      19.610   2.556  40.599  1.00  0.00     0.052 C 
ENDROOT
BRANCH   1   2
ATOM      2  C   UNL     1      20.777   3.025  41.412  1.00  0.00     0.041 C 
ATOM      3  O   UNL     1      20.817   4.209  41.839  1.00  0.00    -0.550 OA
ATOM      4  O   UNL     1      21.837   2.165  41.669  1.00  0.00    -0.550 OA
ENDBRANCH   1   2
BRANCH   1   5
ATOM      5  C   UNL     1      18.276   2.836  41.304  1.00  0.00     0.003 C 
ATOM      6  C   UNL     1      17.135   1.982  40.753  1.00  0.00     0.004 C 
ENDBRANCH   1   5
TORSDOF 2
ENDMDL
MODEL 3
REMARK VINA RESULT:    -3.289      5.609      6.961
REMARK INTER + INTRA:          -3.679
REMARK INTER:                  -3.674
REMARK INTRA:                  -0.005
REMARK UNBOUND:                -0.005
REMARK SMILES CCCC(=O)[O-]
REMARK SMILES IDX 3 1 4 2 5 3 6 4 2 5 1 6
REMARK H PARENT
REMARK Flexibility Score: inf
ROOT
ATOM      1  C   UNL     1      14.463  -2.393  41.030  1.00  0.00     0.052 C 
ENDROOT
BRANCH   1   2
ATOM      2  C   UNL     1      14.311  -0.928  41.301  1.00  0.00     0.041 C 
ATOM      3  O   UNL     1      13.242  -0.482  41.795  1.00  0.00    -0.550 OA
ATOM      4  O   UNL     1      15.337  -0.050  40.977  1.00  0.00    -0.550 OA
ENDBRANCH   1   2
BRANCH   1   5
ATOM      5  C   UNL     1      13.591  -2.847  39.853  1.00  0.00     0.003 C 
ATOM      6  C   UNL     1      13.969  -4.240  39.350  1.00  0.00     0.004 C 
ENDBRANCH   1   5
TORSDOF 2
ENDMDL
MODEL 4
REMARK VINA RESULT:    -3.257      6.485      7.561
REMARK INTER + INTRA:          -3.643
REMARK INTER:                  -3.638
REMARK INTRA:                  -0.005
REMARK UNBOUND:                -0.005
REMARK SMILES CCCC(=O)[O-]
REMARK SMILES IDX 3 1 4 2 5 3 6 4 2 5 1 6
REMARK H PARENT
REMARK Flexibility Score: inf
ROOT
ATOM      1  C   UNL     1      14.185  -2.819  40.612  1.00  0.00     0.052 C 
ENDROOT
BRANCH   1   2
ATOM      2  C   UNL     1      13.615  -3.845  39.682  1.00  0.00     0.041 C 
ATOM      3  O   UNL     1      14.378  -4.636  39.067  1.00  0.00    -0.550 OA
ATOM      4  O   UNL     1      12.244  -3.905  39.466  1.00  0.00    -0.550 OA
ENDBRANCH   1   2
BRANCH   1   5
ATOM      5  C   UNL     1      14.028  -1.398  40.057  1.00  0.00     0.003 C 
ATOM      6  C   UNL     1      14.856  -0.375  40.834  1.00  0.00     0.004 C 
ENDBRANCH   1   5
TORSDOF 2
ENDMDL
MODEL 5
REMARK VINA RESULT:    -3.244      0.825      1.615
REMARK INTER + INTRA:          -3.629
REMARK INTER:                  -3.623
REMARK INTRA:                  -0.005
REMARK UNBOUND:                -0.005
REMARK SMILES CCCC(=O)[O-]
REMARK SMILES IDX 3 1 4 2 5 3 6 4 2 5 1 6
REMARK H PARENT
REMARK Flexibility Score: inf
ROOT
ATOM      1  C   UNL     1      18.211   2.686  41.568  1.00  0.00     0.052 C 
ENDROOT
BRANCH   1   2
ATOM      2  C   UNL     1      16.948   2.670  40.764  1.00  0.00     0.041 C 
ATOM      3  O   UNL     1      16.398   1.575  40.470  1.00  0.00    -0.550 OA
ATOM      4  O   UNL     1      16.395   3.860  40.311  1.00  0.00    -0.550 OA
ENDBRANCH   1   2
BRANCH   1   5
ATOM      5  C   UNL     1      19.456   2.701  40.671  1.00  0.00     0.003 C 
ATOM      6  C   UNL     1      20.718   3.103  41.432  1.00  0.00     0.004 C 
ENDBRANCH   1   5
TORSDOF 2
ENDMDL
MODEL 6
REMARK VINA RESULT:    -3.187      2.181      3.401
REMARK INTER + INTRA:          -3.565
REMARK INTER:                  -3.529
REMARK INTRA:                  -0.035
REMARK UNBOUND:                -0.005
REMARK SMILES CCCC(=O)[O-]
REMARK SMILES IDX 3 1 4 2 5 3 6 4 2 5 1 6
REMARK H PARENT
REMARK Flexibility Score: inf
ROOT
ATOM      1  C   UNL     1      18.025   2.758  41.616  1.00  0.00     0.052 C 
ENDROOT
BRANCH   1   2
ATOM      2  C   UNL     1      19.330   2.717  40.883  1.00  0.00     0.041 C 
ATOM      3  O   UNL     1      19.386   2.252  39.714  1.00  0.00    -0.550 OA
ATOM      4  O   UNL     1      20.491   3.159  41.504  1.00  0.00    -0.550 OA
ENDBRANCH   1   2
BRANCH   1   5
ATOM      5  C   UNL     1      16.832   2.601  40.664  1.00  0.00     0.003 C 
ATOM      6  C   UNL     1      16.167   1.231  40.783  1.00  0.00     0.004 C 
ENDBRANCH   1   5
TORSDOF 2
ENDMDL
MODEL 7
REMARK VINA RESULT:    -3.129      1.332      1.962
REMARK INTER + INTRA:          -3.500
REMARK INTER:                  -3.467
REMARK INTRA:                  -0.034
REMARK UNBOUND:                -0.005
REMARK SMILES CCCC(=O)[O-]
REMARK SMILES IDX 3 1 4 2 5 3 6 4 2 5 1 6
REMARK H PARENT
REMARK Flexibility Score: inf
ROOT
ATOM      1  C   UNL     1      17.951   2.580  41.210  1.00  0.00     0.052 C 
ENDROOT
BRANCH   1   2
ATOM      2  C   UNL     1      17.257   3.905  41.153  1.00  0.00     0.041 C 
ATOM      3  O   UNL     1      16.332   4.101  40.320  1.00  0.00    -0.550 OA
ATOM      4  O   UNL     1      17.653   4.936  41.995  1.00  0.00    -0.550 OA
ENDBRANCH   1   2
BRANCH   1   5
ATOM      5  C   UNL     1      19.254   2.585  40.400  1.00  0.00     0.003 C 
ATOM      6  C   UNL     1      20.466   2.965  41.249  1.00  0.00     0.004 C 
ENDBRANCH   1   5
TORSDOF 2
ENDMDL
MODEL 8
REMARK VINA RESULT:    -3.105      6.547      7.276
REMARK INTER + INTRA:          -3.474
REMARK INTER:                  -3.432
REMARK INTRA:                  -0.042
REMARK UNBOUND:                -0.005
REMARK SMILES CCCC(=O)[O-]
REMARK SMILES IDX 3 1 4 2 5 3 6 4 2 5 1 6
REMARK H PARENT
REMARK Flexibility Score: inf
ROOT
ATOM      1  C   UNL     1      13.937  -1.323  40.098  1.00  0.00     0.052 C 
ENDROOT
BRANCH   1   2
ATOM      2  C   UNL     1      12.643  -0.810  40.650  1.00  0.00     0.041 C 
ATOM      3  O   UNL     1      12.602  -0.307  41.804  1.00  0.00    -0.550 OA
ATOM      4  O   UNL     1      11.475  -0.920  39.906  1.00  0.00    -0.550 OA
ENDBRANCH   1   2
BRANCH   1   5
ATOM      5  C   UNL     1      14.257  -2.732  40.611  1.00  0.00     0.003 C 
ATOM      6  C   UNL     1      13.764  -3.824  39.662  1.00  0.00     0.004 C 
ENDBRANCH   1   5
TORSDOF 2
ENDMDL
MODEL 9
REMARK VINA RESULT:    -3.051      5.053      6.256
REMARK INTER + INTRA:          -3.413
REMARK INTER:                  -3.375
REMARK INTRA:                  -0.038
REMARK UNBOUND:                -0.005
REMARK SMILES CCCC(=O)[O-]
REMARK SMILES IDX 3 1 4 2 5 3 6 4 2 5 1 6
REMARK H PARENT
REMARK Flexibility Score: inf
ROOT
ATOM      1  C   UNL     1      13.790  -0.879  39.890  1.00  0.00     0.052 C 
ENDROOT
BRANCH   1   2
ATOM      2  C   UNL     1      12.432  -0.862  40.521  1.00  0.00     0.041 C 
ATOM      3  O   UNL     1      11.436  -1.312  39.895  1.00  0.00    -0.550 OA
ATOM      4  O   UNL     1      12.259  -0.318  41.787  1.00  0.00    -0.550 OA
ENDBRANCH   1   2
BRANCH   1   5
ATOM      5  C   UNL     1      14.904  -0.714  40.932  1.00  0.00     0.003 C 
ATOM      6  C   UNL     1      15.594   0.645  40.836  1.00  0.00     0.004 C 
ENDBRANCH   1   5
TORSDOF 2
ENDMDL
