MODEL 1
REMARK VINA RESULT:    -5.853      0.000      0.000
REMARK INTER + INTRA:          -7.962
REMARK INTER:                  -7.564
REMARK INTRA:                  -0.398
REMARK UNBOUND:                -0.398
REMARK SMILES CCO[C@H]1O[C@@H](CO)[C@H](O)[C@H](O)[C@@H]1O
REMARK SMILES IDX 4 1 13 2 11 3 9 4 6 5 5 6 3 7 2 8 1 9 14 10 12 12 7 14 8 15
REMARK SMILES IDX 10 17
REMARK H PARENT 14 11 12 13 8 16 10 18
REMARK Flexibility Score: inf
ROOT
ATOM      1  C   UNL     1      -5.164 -49.988 -13.458  1.00  0.00     0.281 C 
ATOM      2  C   UNL     1      -3.849 -50.777 -13.746  1.00  0.00     0.202 C 
ATOM      3  C   UNL     1      -2.706 -49.813 -14.117  1.00  0.00     0.179 C 
ATOM      4  C   UNL     1      -3.120 -48.888 -15.280  1.00  0.00     0.177 C 
ATOM      5  C   UNL     1      -4.612 -48.470 -15.144  1.00  0.00     0.178 C 
ATOM      6  O   UNL     1      -5.049 -48.613 -13.803  1.00  0.00    -0.341 OA
ENDROOT
BRANCH   1   7
ATOM      7  O   UNL     1      -5.446 -50.088 -12.074  1.00  0.00    -0.350 OA
BRANCH   7   8
ATOM      8  C   UNL     1      -5.198 -48.855 -11.430  1.00  0.00     0.160 C 
ATOM      9  C   UNL     1      -5.259 -49.058  -9.923  1.00  0.00     0.035 C 
ENDBRANCH   7   8
ENDBRANCH   1   7
BRANCH   2  10
ATOM     10  O   UNL     1      -4.048 -51.690 -14.795  1.00  0.00    -0.385 OA
ATOM     11  H   UNL     1      -4.540 -52.462 -14.411  1.00  0.00     0.211 HD
ENDBRANCH   2  10
BRANCH   3  12
ATOM     12  O   UNL     1      -1.543 -50.527 -14.455  1.00  0.00    -0.387 OA
ATOM     13  H   UNL     1      -1.735 -51.485 -14.283  1.00  0.00     0.211 HD
ENDBRANCH   3  12
BRANCH   5  14
ATOM     14  C   UNL     1      -4.838 -47.019 -15.595  1.00  0.00     0.191 C 
BRANCH  14  15
ATOM     15  O   UNL     1      -3.770 -46.560 -16.382  1.00  0.00    -0.394 OA
ATOM     16  H   UNL     1      -3.598 -47.257 -17.068  1.00  0.00     0.210 HD
ENDBRANCH  14  15
ENDBRANCH   5  14
BRANCH   4  17
ATOM     17  O   UNL     1      -2.922 -49.545 -16.508  1.00  0.00    -0.387 OA
ATOM     18  H   UNL     1      -3.430 -49.034 -17.191  1.00  0.00     0.211 HD
ENDBRANCH   4  17
TORSDOF 7
ENDMDL
MODEL 2
REMARK VINA RESULT:    -5.790      2.019      3.946
REMARK INTER + INTRA:          -7.880
REMARK INTER:                  -7.454
REMARK INTRA:                  -0.426
REMARK UNBOUND:                -0.398
REMARK SMILES CCO[C@H]1O[C@@H](CO)[C@H](O)[C@H](O)[C@@H]1O
REMARK SMILES IDX 4 1 13 2 11 3 9 4 6 5 5 6 3 7 2 8 1 9 14 10 12 12 7 14 8 15
REMARK SMILES IDX 10 17
REMARK H PARENT 14 11 12 13 8 16 10 18
REMARK Flexibility Score: inf
ROOT
ATOM      1  C   UNL     1      -4.409 -48.487 -15.498  1.00  0.00     0.281 C 
ATOM      2  C   UNL     1      -3.259 -47.433 -15.483  1.00  0.00     0.202 C 
ATOM      3  C   UNL     1      -3.197 -46.714 -14.121  1.00  0.00     0.179 C 
ATOM      4  C   UNL     1      -4.570 -46.114 -13.751  1.00  0.00     0.177 C 
ATOM      5  C   UNL     1      -5.720 -47.064 -14.192  1.00  0.00     0.178 C 
ATOM      6  O   UNL     1      -5.241 -48.388 -14.348  1.00  0.00    -0.341 OA
ENDROOT
BRANCH   1   7
ATOM      7  O   UNL     1      -3.826 -49.777 -15.529  1.00  0.00    -0.350 OA
BRANCH   7   8
ATOM      8  C   UNL     1      -4.222 -50.524 -14.397  1.00  0.00     0.160 C 
ATOM      9  C   UNL     1      -2.983 -51.069 -13.702  1.00  0.00     0.035 C 
ENDBRANCH   7   8
ENDBRANCH   1   7
BRANCH   2  10
ATOM     10  O   UNL     1      -3.453 -46.484 -16.502  1.00  0.00    -0.385 OA
ATOM     11  H   UNL     1      -3.200 -45.602 -16.123  1.00  0.00     0.211 HD
ENDBRANCH   2  10
BRANCH   3  12
ATOM     12  O   UNL     1      -2.216 -45.709 -14.134  1.00  0.00    -0.387 OA
ATOM     13  H   UNL     1      -2.493 -45.045 -14.818  1.00  0.00     0.211 HD
ENDBRANCH   3  12
BRANCH   5  14
ATOM     14  C   UNL     1      -6.875 -47.063 -13.179  1.00  0.00     0.191 C 
BRANCH  14  15
ATOM     15  O   UNL     1      -7.199 -45.758 -12.779  1.00  0.00    -0.394 OA
ATOM     16  H   UNL     1      -6.486 -45.164 -13.131  1.00  0.00     0.210 HD
ENDBRANCH  14  15
ENDBRANCH   5  14
BRANCH   4  17
ATOM     17  O   UNL     1      -4.727 -44.861 -14.369  1.00  0.00    -0.387 OA
ATOM     18  H   UNL     1      -3.815 -44.492 -14.503  1.00  0.00     0.211 HD
ENDBRANCH   4  17
TORSDOF 7
ENDMDL
MODEL 3
REMARK VINA RESULT:    -5.788      1.610      2.376
REMARK INTER + INTRA:          -7.878
REMARK INTER:                  -7.603
REMARK INTRA:                  -0.274
REMARK UNBOUND:                -0.398
REMARK SMILES CCO[C@H]1O[C@@H](CO)[C@H](O)[C@H](O)[C@@H]1O
REMARK SMILES IDX 4 1 13 2 11 3 9 4 6 5 5 6 3 7 2 8 1 9 14 10 12 12 7 14 8 15
REMARK SMILES IDX 10 17
REMARK H PARENT 14 11 12 13 8 16 10 18
REMARK Flexibility Score: inf
ROOT
ATOM      1  C   UNL     1      -4.033 -49.330 -13.576  1.00  0.00     0.281 C 
ATOM      2  C   UNL     1      -2.861 -48.301 -13.527  1.00  0.00     0.202 C 
ATOM      3  C   UNL     1      -3.351 -46.898 -13.934  1.00  0.00     0.179 C 
ATOM      4  C   UNL     1      -4.063 -46.938 -15.303  1.00  0.00     0.177 C 
ATOM      5  C   UNL     1      -4.904 -48.238 -15.447  1.00  0.00     0.178 C 
ATOM      6  O   UNL     1      -5.203 -48.781 -14.172  1.00  0.00    -0.341 OA
ENDROOT
BRANCH   1   7
ATOM      7  O   UNL     1      -4.338 -49.716 -12.248  1.00  0.00    -0.350 OA
BRANCH   7   8
ATOM      8  C   UNL     1      -5.457 -48.997 -11.769  1.00  0.00     0.160 C 
ATOM      9  C   UNL     1      -5.307 -48.782 -10.271  1.00  0.00     0.035 C 
ENDBRANCH   7   8
ENDBRANCH   1   7
BRANCH   2  10
ATOM     10  O   UNL     1      -1.825 -48.701 -14.389  1.00  0.00    -0.385 OA
ATOM     11  H   UNL     1      -1.318 -49.411 -13.915  1.00  0.00     0.211 HD
ENDBRANCH   2  10
BRANCH   3  12
ATOM     12  O   UNL     1      -2.281 -45.988 -13.970  1.00  0.00    -0.387 OA
ATOM     13  H   UNL     1      -1.491 -46.488 -14.305  1.00  0.00     0.211 HD
ENDBRANCH   3  12
BRANCH   5  14
ATOM     14  C   UNL     1      -6.216 -47.983 -16.205  1.00  0.00     0.191 C 
BRANCH  14  15
ATOM     15  O   UNL     1      -6.007 -47.977 -17.593  1.00  0.00    -0.394 OA
ATOM     16  H   UNL     1      -6.317 -47.095 -17.927  1.00  0.00     0.210 HD
ENDBRANCH  14  15
ENDBRANCH   5  14
BRANCH   4  17
ATOM     17  O   UNL     1      -3.113 -46.871 -16.338  1.00  0.00    -0.387 OA
ATOM     18  H   UNL     1      -3.612 -46.958 -17.191  1.00  0.00     0.211 HD
ENDBRANCH   4  17
TORSDOF 7
ENDMDL
MODEL 4
REMARK VINA RESULT:    -5.753      1.818      3.835
REMARK INTER + INTRA:          -7.833
REMARK INTER:                  -7.383
REMARK INTRA:                  -0.450
REMARK UNBOUND:                -0.398
REMARK SMILES CCO[C@H]1O[C@@H](CO)[C@H](O)[C@H](O)[C@@H]1O
REMARK SMILES IDX 4 1 13 2 11 3 9 4 6 5 5 6 3 7 2 8 1 9 14 10 12 12 7 14 8 15
REMARK SMILES IDX 10 17
REMARK H PARENT 14 11 12 13 8 16 10 18
REMARK Flexibility Score: inf
ROOT
ATOM      1  C   UNL     1      -4.476 -46.992 -13.459  1.00  0.00     0.281 C 
ATOM      2  C   UNL     1      -3.668 -46.392 -14.650  1.00  0.00     0.202 C 
ATOM      3  C   UNL     1      -3.798 -47.284 -15.900  1.00  0.00     0.179 C 
ATOM      4  C   UNL     1      -3.408 -48.743 -15.580  1.00  0.00     0.177 C 
ATOM      5  C   UNL     1      -3.900 -49.143 -14.159  1.00  0.00     0.178 C 
ATOM      6  O   UNL     1      -4.960 -48.299 -13.743  1.00  0.00    -0.341 OA
ENDROOT
BRANCH   1   7
ATOM      7  O   UNL     1      -5.581 -46.144 -13.202  1.00  0.00    -0.350 OA
BRANCH   7   8
ATOM      8  C   UNL     1      -6.777 -46.738 -13.666  1.00  0.00     0.160 C 
ATOM      9  C   UNL     1      -7.510 -45.750 -14.561  1.00  0.00     0.035 C 
ENDBRANCH   7   8
ENDBRANCH   1   7
BRANCH   2  10
ATOM     10  O   UNL     1      -2.311 -46.268 -14.305  1.00  0.00    -0.385 OA
ATOM     11  H   UNL     1      -1.838 -47.029 -14.732  1.00  0.00     0.211 HD
ENDBRANCH   2  10
BRANCH   3  12
ATOM     12  O   UNL     1      -3.005 -46.789 -16.949  1.00  0.00    -0.387 OA
ATOM     13  H   UNL     1      -2.088 -47.144 -16.808  1.00  0.00     0.211 HD
ENDBRANCH   3  12
BRANCH   5  14
ATOM     14  C   UNL     1      -4.373 -50.604 -14.114  1.00  0.00     0.191 C 
BRANCH  14  15
ATOM     15  O   UNL     1      -3.749 -51.370 -15.111  1.00  0.00    -0.394 OA
ATOM     16  H   UNL     1      -4.322 -51.312 -15.920  1.00  0.00     0.210 HD
ENDBRANCH  14  15
ENDBRANCH   5  14
BRANCH   4  17
ATOM     17  O   UNL     1      -2.012 -48.892 -15.657  1.00  0.00    -0.387 OA
ATOM     18  H   UNL     1      -1.704 -49.173 -14.756  1.00  0.00     0.211 HD
ENDBRANCH   4  17
TORSDOF 7
ENDMDL
MODEL 5
REMARK VINA RESULT:    -5.730      2.107      2.826
REMARK INTER + INTRA:          -7.803
REMARK INTER:                  -7.411
REMARK INTRA:                  -0.392
REMARK UNBOUND:                -0.398
REMARK SMILES CCO[C@H]1O[C@@H](CO)[C@H](O)[C@H](O)[C@@H]1O
REMARK SMILES IDX 4 1 13 2 11 3 9 4 6 5 5 6 3 7 2 8 1 9 14 10 12 12 7 14 8 15
REMARK SMILES IDX 10 17
REMARK H PARENT 14 11 12 13 8 16 10 18
REMARK Flexibility Score: inf
ROOT
ATOM      1  C   UNL     1      -6.089 -47.570 -14.797  1.00  0.00     0.281 C 
ATOM      2  C   UNL     1      -5.488 -48.506 -15.891  1.00  0.00     0.202 C 
ATOM      3  C   UNL     1      -3.971 -48.678 -15.688  1.00  0.00     0.179 C 
ATOM      4  C   UNL     1      -3.265 -47.307 -15.614  1.00  0.00     0.177 C 
ATOM      5  C   UNL     1      -4.144 -46.279 -14.845  1.00  0.00     0.178 C 
ATOM      6  O   UNL     1      -5.078 -46.945 -14.014  1.00  0.00    -0.341 OA
ENDROOT
BRANCH   1   7
ATOM      7  O   UNL     1      -6.906 -48.352 -13.945  1.00  0.00    -0.350 OA
BRANCH   7   8
ATOM      8  C   UNL     1      -6.253 -48.588 -12.714  1.00  0.00     0.160 C 
ATOM      9  C   UNL     1      -7.245 -49.188 -11.730  1.00  0.00     0.035 C 
ENDBRANCH   7   8
ENDBRANCH   1   7
BRANCH   2  10
ATOM     10  O   UNL     1      -5.731 -47.978 -17.171  1.00  0.00    -0.385 OA
ATOM     11  H   UNL     1      -6.714 -47.997 -17.306  1.00  0.00     0.211 HD
ENDBRANCH   2  10
BRANCH   3  12
ATOM     12  O   UNL     1      -3.416 -49.454 -16.719  1.00  0.00    -0.387 OA
ATOM     13  H   UNL     1      -4.065 -49.440 -17.471  1.00  0.00     0.211 HD
ENDBRANCH   3  12
BRANCH   5  14
ATOM     14  C   UNL     1      -3.289 -45.334 -13.986  1.00  0.00     0.191 C 
BRANCH  14  15
ATOM     15  O   UNL     1      -1.936 -45.399 -14.353  1.00  0.00    -0.394 OA
ATOM     16  H   UNL     1      -1.408 -45.363 -13.513  1.00  0.00     0.210 HD
ENDBRANCH  14  15
ENDBRANCH   5  14
BRANCH   4  17
ATOM     17  O   UNL     1      -3.006 -46.833 -16.912  1.00  0.00    -0.387 OA
ATOM     18  H   UNL     1      -2.377 -46.071 -16.817  1.00  0.00     0.211 HD
ENDBRANCH   4  17
TORSDOF 7
ENDMDL
MODEL 6
REMARK VINA RESULT:    -5.689      2.188      3.901
REMARK INTER + INTRA:          -7.750
REMARK INTER:                  -7.562
REMARK INTRA:                  -0.188
REMARK UNBOUND:                -0.398
REMARK SMILES CCO[C@H]1O[C@@H](CO)[C@H](O)[C@H](O)[C@@H]1O
REMARK SMILES IDX 4 1 13 2 11 3 9 4 6 5 5 6 3 7 2 8 1 9 14 10 12 12 7 14 8 15
REMARK SMILES IDX 10 17
REMARK H PARENT 14 11 12 13 8 16 10 18
REMARK Flexibility Score: inf
ROOT
ATOM      1  C   UNL     1      -5.980 -48.754 -15.107  1.00  0.00     0.281 C 
ATOM      2  C   UNL     1      -5.240 -47.530 -15.728  1.00  0.00     0.202 C 
ATOM      3  C   UNL     1      -3.885 -47.957 -16.324  1.00  0.00     0.179 C 
ATOM      4  C   UNL     1      -3.035 -48.708 -15.277  1.00  0.00     0.177 C 
ATOM      5  C   UNL     1      -3.933 -49.620 -14.393  1.00  0.00     0.178 C 
ATOM      6  O   UNL     1      -5.152 -49.910 -15.054  1.00  0.00    -0.341 OA
ENDROOT
BRANCH   1   7
ATOM      7  O   UNL     1      -7.112 -49.041 -15.908  1.00  0.00    -0.350 OA
BRANCH   7   8
ATOM      8  C   UNL     1      -8.295 -48.623 -15.260  1.00  0.00     0.160 C 
ATOM      9  C   UNL     1      -8.257 -49.079 -13.809  1.00  0.00     0.035 C 
ENDBRANCH   7   8
ENDBRANCH   1   7
BRANCH   2  10
ATOM     10  O   UNL     1      -5.029 -46.540 -14.752  1.00  0.00    -0.385 OA
ATOM     11  H   UNL     1      -4.445 -45.852 -15.166  1.00  0.00     0.211 HD
ENDBRANCH   2  10
BRANCH   3  12
ATOM     12  O   UNL     1      -3.182 -46.843 -16.811  1.00  0.00    -0.387 OA
ATOM     13  H   UNL     1      -3.656 -46.539 -17.629  1.00  0.00     0.211 HD
ENDBRANCH   3  12
BRANCH   5  14
ATOM     14  C   UNL     1      -3.227 -50.937 -14.038  1.00  0.00     0.191 C 
BRANCH  14  15
ATOM     15  O   UNL     1      -3.722 -52.002 -14.807  1.00  0.00    -0.394 OA
ATOM     16  H   UNL     1      -3.415 -51.851 -15.739  1.00  0.00     0.210 HD
ENDBRANCH  14  15
ENDBRANCH   5  14
BRANCH   4  17
ATOM     17  O   UNL     1      -2.351 -47.785 -14.466  1.00  0.00    -0.387 OA
ATOM     18  H   UNL     1      -1.559 -47.482 -14.982  1.00  0.00     0.211 HD
ENDBRANCH   4  17
TORSDOF 7
ENDMDL
MODEL 7
REMARK VINA RESULT:    -5.575      2.090      3.572
REMARK INTER + INTRA:          -7.602
REMARK INTER:                  -7.260
REMARK INTRA:                  -0.343
REMARK UNBOUND:                -0.398
REMARK SMILES CCO[C@H]1O[C@@H](CO)[C@H](O)[C@H](O)[C@@H]1O
REMARK SMILES IDX 4 1 13 2 11 3 9 4 6 5 5 6 3 7 2 8 1 9 14 10 12 12 7 14 8 15
REMARK SMILES IDX 10 17
REMARK H PARENT 14 11 12 13 8 16 10 18
REMARK Flexibility Score: inf
ROOT
ATOM      1  C   UNL     1      -5.346 -48.674 -15.496  1.00  0.00     0.281 C 
ATOM      2  C   UNL     1      -4.897 -49.795 -14.509  1.00  0.00     0.202 C 
ATOM      3  C   UNL     1      -4.527 -49.197 -13.138  1.00  0.00     0.179 C 
ATOM      4  C   UNL     1      -3.480 -48.073 -13.290  1.00  0.00     0.177 C 
ATOM      5  C   UNL     1      -3.761 -47.232 -14.569  1.00  0.00     0.178 C 
ATOM      6  O   UNL     1      -5.113 -47.372 -14.971  1.00  0.00    -0.341 OA
ENDROOT
BRANCH   1   7
ATOM      7  O   UNL     1      -6.734 -48.825 -15.736  1.00  0.00    -0.350 OA
BRANCH   7   8
ATOM      8  C   UNL     1      -7.228 -47.730 -16.480  1.00  0.00     0.160 C 
ATOM      9  C   UNL     1      -7.081 -48.028 -17.964  1.00  0.00     0.035 C 
ENDBRANCH   7   8
ENDBRANCH   1   7
BRANCH   2  10
ATOM     10  O   UNL     1      -3.791 -50.488 -15.029  1.00  0.00    -0.385 OA
ATOM     11  H   UNL     1      -4.068 -50.846 -15.912  1.00  0.00     0.211 HD
ENDBRANCH   2  10
BRANCH   3  12
ATOM     12  O   UNL     1      -4.045 -50.195 -12.274  1.00  0.00    -0.387 OA
ATOM     13  H   UNL     1      -4.575 -51.014 -12.457  1.00  0.00     0.211 HD
ENDBRANCH   3  12
BRANCH   5  14
ATOM     14  C   UNL     1      -3.453 -45.744 -14.347  1.00  0.00     0.191 C 
BRANCH  14  15
ATOM     15  O   UNL     1      -2.107 -45.550 -14.000  1.00  0.00    -0.394 OA
ATOM     16  H   UNL     1      -1.569 -46.133 -14.596  1.00  0.00     0.210 HD
ENDBRANCH  14  15
ENDBRANCH   5  14
BRANCH   4  17
ATOM     17  O   UNL     1      -2.190 -48.628 -13.361  1.00  0.00    -0.387 OA
ATOM     18  H   UNL     1      -2.270 -49.473 -13.876  1.00  0.00     0.211 HD
ENDBRANCH   4  17
TORSDOF 7
ENDMDL
MODEL 8
REMARK VINA RESULT:    -5.557      2.108      4.108
REMARK INTER + INTRA:          -7.580
REMARK INTER:                  -7.411
REMARK INTRA:                  -0.169
REMARK UNBOUND:                -0.398
REMARK SMILES CCO[C@H]1O[C@@H](CO)[C@H](O)[C@H](O)[C@@H]1O
REMARK SMILES IDX 4 1 13 2 11 3 9 4 6 5 5 6 3 7 2 8 1 9 14 10 12 12 7 14 8 15
REMARK SMILES IDX 10 17
REMARK H PARENT 14 11 12 13 8 16 10 18
REMARK Flexibility Score: inf
ROOT
ATOM      1  C   UNL     1      -5.629 -47.767 -15.936  1.00  0.00     0.281 C 
ATOM      2  C   UNL     1      -4.201 -47.993 -16.522  1.00  0.00     0.202 C 
ATOM      3  C   UNL     1      -3.359 -48.874 -15.579  1.00  0.00     0.179 C 
ATOM      4  C   UNL     1      -3.340 -48.291 -14.150  1.00  0.00     0.177 C 
ATOM      5  C   UNL     1      -4.727 -47.689 -13.784  1.00  0.00     0.178 C 
ATOM      6  O   UNL     1      -5.743 -48.245 -14.601  1.00  0.00    -0.341 OA
ENDROOT
BRANCH   1   7
ATOM      7  O   UNL     1      -6.556 -48.463 -16.749  1.00  0.00    -0.350 OA
BRANCH   7   8
ATOM      8  C   UNL     1      -7.878 -48.226 -16.306  1.00  0.00     0.160 C 
ATOM      9  C   UNL     1      -8.303 -46.829 -16.732  1.00  0.00     0.035 C 
ENDBRANCH   7   8
ENDBRANCH   1   7
BRANCH   2  10
ATOM     10  O   UNL     1      -3.552 -46.761 -16.712  1.00  0.00    -0.385 OA
ATOM     11  H   UNL     1      -2.935 -46.880 -17.481  1.00  0.00     0.211 HD
ENDBRANCH   2  10
BRANCH   3  12
ATOM     12  O   UNL     1      -2.048 -49.010 -16.065  1.00  0.00    -0.387 OA
ATOM     13  H   UNL     1      -1.642 -48.105 -16.053  1.00  0.00     0.211 HD
ENDBRANCH   3  12
BRANCH   5  14
ATOM     14  C   UNL     1      -5.078 -47.930 -12.309  1.00  0.00     0.191 C 
BRANCH  14  15
ATOM     15  O   UNL     1      -6.292 -47.313 -11.968  1.00  0.00    -0.394 OA
ATOM     16  H   UNL     1      -6.719 -47.881 -11.275  1.00  0.00     0.210 HD
ENDBRANCH  14  15
ENDBRANCH   5  14
BRANCH   4  17
ATOM     17  O   UNL     1      -2.350 -47.296 -14.053  1.00  0.00    -0.387 OA
ATOM     18  H   UNL     1      -2.815 -46.423 -14.128  1.00  0.00     0.211 HD
ENDBRANCH   4  17
TORSDOF 7
ENDMDL
MODEL 9
REMARK VINA RESULT:    -5.459      2.057      3.106
REMARK INTER + INTRA:          -7.452
REMARK INTER:                  -7.244
REMARK INTRA:                  -0.208
REMARK UNBOUND:                -0.398
REMARK SMILES CCO[C@H]1O[C@@H](CO)[C@H](O)[C@H](O)[C@@H]1O
REMARK SMILES IDX 4 1 13 2 11 3 9 4 6 5 5 6 3 7 2 8 1 9 14 10 12 12 7 14 8 15
REMARK SMILES IDX 10 17
REMARK H PARENT 14 11 12 13 8 16 10 18
REMARK Flexibility Score: inf
ROOT
ATOM      1  C   UNL     1      -5.080 -49.432 -13.967  1.00  0.00     0.281 C 
ATOM      2  C   UNL     1      -4.121 -48.678 -14.939  1.00  0.00     0.202 C 
ATOM      3  C   UNL     1      -4.782 -47.391 -15.467  1.00  0.00     0.179 C 
ATOM      4  C   UNL     1      -6.159 -47.696 -16.095  1.00  0.00     0.177 C 
ATOM      5  C   UNL     1      -6.901 -48.795 -15.282  1.00  0.00     0.178 C 
ATOM      6  O   UNL     1      -6.388 -48.872 -13.964  1.00  0.00    -0.341 OA
ENDROOT
BRANCH   1   7
ATOM      7  O   UNL     1      -4.545 -49.344 -12.659  1.00  0.00    -0.350 OA
BRANCH   7   8
ATOM      8  C   UNL     1      -5.211 -48.341 -11.919  1.00  0.00     0.160 C 
ATOM      9  C   UNL     1      -5.241 -48.741 -10.452  1.00  0.00     0.035 C 
ENDBRANCH   7   8
ENDBRANCH   1   7
BRANCH   2  10
ATOM     10  O   UNL     1      -3.776 -49.503 -16.022  1.00  0.00    -0.385 OA
ATOM     11  H   UNL     1      -3.075 -49.023 -16.535  1.00  0.00     0.211 HD
ENDBRANCH   2  10
BRANCH   3  12
ATOM     12  O   UNL     1      -3.952 -46.753 -16.404  1.00  0.00    -0.387 OA
ATOM     13  H   UNL     1      -4.268 -47.032 -17.304  1.00  0.00     0.211 HD
ENDBRANCH   3  12
BRANCH   5  14
ATOM     14  C   UNL     1      -8.413 -48.531 -15.220  1.00  0.00     0.191 C 
BRANCH  14  15
ATOM     15  O   UNL     1      -9.131 -49.521 -15.909  1.00  0.00    -0.394 OA
ATOM     16  H   UNL     1      -8.689 -50.387 -15.711  1.00  0.00     0.210 HD
ENDBRANCH  14  15
ENDBRANCH   5  14
BRANCH   4  17
ATOM     17  O   UNL     1      -5.994 -48.120 -17.426  1.00  0.00    -0.387 OA
ATOM     18  H   UNL     1      -6.180 -49.094 -17.440  1.00  0.00     0.211 HD
ENDBRANCH   4  17
TORSDOF 7
ENDMDL
