MODEL 1
REMARK VINA RESULT:    -4.716      0.000      0.000
REMARK INTER + INTRA:         -10.297
REMARK INTER:                  -9.126
REMARK INTRA:                  -1.171
REMARK UNBOUND:                -1.171
REMARK SMILES CCCCCCCCCCCCCCCCCC(=O)[O-]
REMARK SMILES IDX 10 1 11 2 12 3 13 4 14 5 15 6 16 7 17 8 18 9 19 10 20 11
REMARK SMILES IDX 9 12 8 13 7 14 6 15 5 16 4 17 3 18 2 19 1 20
REMARK H PARENT
REMARK Flexibility Score: inf
ROOT
ATOM      1  C   UNL     1      35.531  36.214  26.515  1.00  0.00     0.000 C 
ENDROOT
BRANCH   1   2
ATOM      2  C   UNL     1      35.028  35.915  27.939  1.00  0.00     0.000 C 
BRANCH   2   3
ATOM      3  C   UNL     1      35.816  36.674  29.018  1.00  0.00     0.000 C 
BRANCH   3   4
ATOM      4  C   UNL     1      37.055  35.904  29.498  1.00  0.00     0.000 C 
BRANCH   4   5
ATOM      5  C   UNL     1      38.300  36.308  28.697  1.00  0.00     0.000 C 
BRANCH   5   6
ATOM      6  C   UNL     1      39.231  37.244  29.497  1.00  0.00     0.000 C 
BRANCH   6   7
ATOM      7  C   UNL     1      38.762  38.711  29.509  1.00  0.00     0.006 C 
BRANCH   7   8
ATOM      8  C   UNL     1      38.786  39.366  30.898  1.00  0.00     0.053 C 
BRANCH   8   9
ATOM      9  C   UNL     1      38.363  40.802  30.849  1.00  0.00     0.041 C 
ATOM     10  O   UNL     1      38.110  41.423  31.915  1.00  0.00    -0.550 OA
ATOM     11  O   UNL     1      38.257  41.459  29.630  1.00  0.00    -0.550 OA
ENDBRANCH   8   9
ENDBRANCH   7   8
ENDBRANCH   6   7
ENDBRANCH   5   6
ENDBRANCH   4   5
ENDBRANCH   3   4
ENDBRANCH   2   3
ENDBRANCH   1   2
BRANCH   1  12
ATOM     12  C   UNL     1      36.192  34.981  25.862  1.00  0.00     0.000 C 
BRANCH  12  13
ATOM     13  C   UNL     1      36.007  33.683  26.667  1.00  0.00    -0.000 C 
BRANCH  13  14
ATOM     14  C   UNL     1      35.619  32.485  25.785  1.00  0.00    -0.000 C 
BRANCH  14  15
ATOM     15  C   UNL     1      34.099  32.358  25.581  1.00  0.00    -0.000 C 
BRANCH  15  16
ATOM     16  C   UNL     1      33.585  32.764  24.184  1.00  0.00    -0.000 C 
BRANCH  16  17
ATOM     17  C   UNL     1      33.895  31.763  23.056  1.00  0.00    -0.000 C 
BRANCH  17  18
ATOM     18  C   UNL     1      32.728  31.595  22.071  1.00  0.00    -0.000 C 
BRANCH  18  19
ATOM     19  C   UNL     1      32.954  30.385  21.157  1.00  0.00    -0.003 C 
ATOM     20  C   UNL     1      32.819  29.078  21.933  1.00  0.00     0.004 C 
ENDBRANCH  18  19
ENDBRANCH  17  18
ENDBRANCH  16  17
ENDBRANCH  15  16
ENDBRANCH  14  15
ENDBRANCH  13  14
ENDBRANCH  12  13
ENDBRANCH   1  12
TORSDOF 16
ENDMDL
MODEL 2
REMARK VINA RESULT:    -4.705      5.257      9.190
REMARK INTER + INTRA:         -10.276
REMARK INTER:                  -7.657
REMARK INTRA:                  -2.619
REMARK UNBOUND:                -1.171
REMARK SMILES CCCCCCCCCCCCCCCCCC(=O)[O-]
REMARK SMILES IDX 10 1 11 2 12 3 13 4 14 5 15 6 16 7 17 8 18 9 19 10 20 11
REMARK SMILES IDX 9 12 8 13 7 14 6 15 5 16 4 17 3 18 2 19 1 20
REMARK H PARENT
REMARK Flexibility Score: inf
ROOT
ATOM      1  C   UNL     1      38.252  34.330  24.765  1.00  0.00     0.000 C 
ENDROOT
BRANCH   1   2
ATOM      2  C   UNL     1      38.491  33.861  26.211  1.00  0.00     0.000 C 
BRANCH   2   3
ATOM      3  C   UNL     1      37.311  33.056  26.777  1.00  0.00     0.000 C 
BRANCH   3   4
ATOM      4  C   UNL     1      36.477  32.379  25.680  1.00  0.00     0.000 C 
BRANCH   4   5
ATOM      5  C   UNL     1      34.975  32.492  25.980  1.00  0.00     0.000 C 
BRANCH   5   6
ATOM      6  C   UNL     1      34.115  32.397  24.701  1.00  0.00     0.000 C 
BRANCH   6   7
ATOM      7  C   UNL     1      34.434  31.162  23.838  1.00  0.00     0.006 C 
BRANCH   7   8
ATOM      8  C   UNL     1      33.936  31.265  22.388  1.00  0.00     0.053 C 
BRANCH   8   9
ATOM      9  C   UNL     1      33.922  29.932  21.705  1.00  0.00     0.041 C 
ATOM     10  O   UNL     1      34.563  29.764  20.634  1.00  0.00    -0.550 OA
ATOM     11  O   UNL     1      33.209  28.872  22.251  1.00  0.00    -0.550 OA
ENDBRANCH   8   9
ENDBRANCH   7   8
ENDBRANCH   6   7
ENDBRANCH   5   6
ENDBRANCH   4   5
ENDBRANCH   3   4
ENDBRANCH   2   3
ENDBRANCH   1   2
BRANCH   1  12
ATOM     12  C   UNL     1      37.612  35.734  24.709  1.00  0.00     0.000 C 
BRANCH  12  13
ATOM     13  C   UNL     1      36.202  35.747  24.095  1.00  0.00    -0.000 C 
BRANCH  13  14
ATOM     14  C   UNL     1      35.109  36.091  25.119  1.00  0.00    -0.000 C 
BRANCH  14  15
ATOM     15  C   UNL     1      35.679  36.528  26.481  1.00  0.00    -0.000 C 
BRANCH  15  16
ATOM     16  C   UNL     1      35.098  35.792  27.706  1.00  0.00    -0.000 C 
BRANCH  16  17
ATOM     17  C   UNL     1      35.659  36.244  29.067  1.00  0.00    -0.000 C 
BRANCH  17  18
ATOM     18  C   UNL     1      37.087  35.739  29.321  1.00  0.00    -0.000 C 
BRANCH  18  19
ATOM     19  C   UNL     1      38.095  36.892  29.253  1.00  0.00    -0.003 C 
ATOM     20  C   UNL     1      39.404  36.442  28.610  1.00  0.00     0.004 C 
ENDBRANCH  18  19
ENDBRANCH  17  18
ENDBRANCH  16  17
ENDBRANCH  15  16
ENDBRANCH  14  15
ENDBRANCH  13  14
ENDBRANCH  12  13
ENDBRANCH   1  12
TORSDOF 16
ENDMDL
MODEL 3
REMARK VINA RESULT:    -4.663      5.622      9.994
REMARK INTER + INTRA:         -10.195
REMARK INTER:                  -8.247
REMARK INTRA:                  -1.949
REMARK UNBOUND:                -1.171
REMARK SMILES CCCCCCCCCCCCCCCCCC(=O)[O-]
REMARK SMILES IDX 10 1 11 2 12 3 13 4 14 5 15 6 16 7 17 8 18 9 19 10 20 11
REMARK SMILES IDX 9 12 8 13 7 14 6 15 5 16 4 17 3 18 2 19 1 20
REMARK H PARENT
REMARK Flexibility Score: inf
ROOT
ATOM      1  C   UNL     1      35.842  35.564  24.643  1.00  0.00     0.000 C 
ENDROOT
BRANCH   1   2
ATOM      2  C   UNL     1      34.720  34.532  24.437  1.00  0.00     0.000 C 
BRANCH   2   3
ATOM      3  C   UNL     1      34.362  33.779  25.728  1.00  0.00     0.000 C 
BRANCH   3   4
ATOM      4  C   UNL     1      34.335  32.255  25.536  1.00  0.00     0.000 C 
BRANCH   4   5
ATOM      5  C   UNL     1      35.097  31.845  24.268  1.00  0.00     0.000 C 
BRANCH   5   6
ATOM      6  C   UNL     1      34.432  30.652  23.547  1.00  0.00     0.000 C 
BRANCH   6   7
ATOM      7  C   UNL     1      33.772  31.034  22.209  1.00  0.00     0.006 C 
BRANCH   7   8
ATOM      8  C   UNL     1      34.241  30.188  21.015  1.00  0.00     0.053 C 
BRANCH   8   9
ATOM      9  C   UNL     1      33.097  29.514  20.322  1.00  0.00     0.041 C 
ATOM     10  O   UNL     1      32.536  28.517  20.849  1.00  0.00    -0.550 OA
ATOM     11  O   UNL     1      32.643  29.988  19.098  1.00  0.00    -0.550 OA
ENDBRANCH   8   9
ENDBRANCH   7   8
ENDBRANCH   6   7
ENDBRANCH   5   6
ENDBRANCH   4   5
ENDBRANCH   3   4
ENDBRANCH   2   3
ENDBRANCH   1   2
BRANCH   1  12
ATOM     12  C   UNL     1      37.197  34.894  24.958  1.00  0.00     0.000 C 
BRANCH  12  13
ATOM     13  C   UNL     1      37.711  35.180  26.379  1.00  0.00    -0.000 C 
BRANCH  13  14
ATOM     14  C   UNL     1      37.445  34.022  27.354  1.00  0.00    -0.000 C 
BRANCH  14  15
ATOM     15  C   UNL     1      36.677  34.462  28.613  1.00  0.00    -0.000 C 
BRANCH  15  16
ATOM     16  C   UNL     1      35.920  35.801  28.490  1.00  0.00    -0.000 C 
BRANCH  16  17
ATOM     17  C   UNL     1      36.347  36.889  29.491  1.00  0.00    -0.000 C 
BRANCH  17  18
ATOM     18  C   UNL     1      37.196  37.994  28.845  1.00  0.00    -0.000 C 
BRANCH  18  19
ATOM     19  C   UNL     1      38.550  38.127  29.551  1.00  0.00    -0.003 C 
ATOM     20  C   UNL     1      39.369  36.846  29.417  1.00  0.00     0.004 C 
ENDBRANCH  18  19
ENDBRANCH  17  18
ENDBRANCH  16  17
ENDBRANCH  15  16
ENDBRANCH  14  15
ENDBRANCH  13  14
ENDBRANCH  12  13
ENDBRANCH   1  12
TORSDOF 16
ENDMDL
MODEL 4
REMARK VINA RESULT:    -4.660      5.624     10.066
REMARK INTER + INTRA:         -10.189
REMARK INTER:                  -7.676
REMARK INTRA:                  -2.513
REMARK UNBOUND:                -1.171
REMARK SMILES CCCCCCCCCCCCCCCCCC(=O)[O-]
REMARK SMILES IDX 10 1 11 2 12 3 13 4 14 5 15 6 16 7 17 8 18 9 19 10 20 11
REMARK SMILES IDX 9 12 8 13 7 14 6 15 5 16 4 17 3 18 2 19 1 20
REMARK H PARENT
REMARK Flexibility Score: inf
ROOT
ATOM      1  C   UNL     1      35.199  34.260  22.242  1.00  0.00     0.000 C 
ENDROOT
BRANCH   1   2
ATOM      2  C   UNL     1      36.580  33.828  22.766  1.00  0.00     0.000 C 
BRANCH   2   3
ATOM      3  C   UNL     1      37.002  32.443  22.254  1.00  0.00     0.000 C 
BRANCH   3   4
ATOM      4  C   UNL     1      35.808  31.591  21.799  1.00  0.00     0.000 C 
BRANCH   4   5
ATOM      5  C   UNL     1      35.508  30.476  22.811  1.00  0.00     0.000 C 
BRANCH   5   6
ATOM      6  C   UNL     1      34.011  30.097  22.836  1.00  0.00     0.000 C 
BRANCH   6   7
ATOM      7  C   UNL     1      33.176  30.825  21.767  1.00  0.00     0.006 C 
BRANCH   7   8
ATOM      8  C   UNL     1      32.404  29.886  20.828  1.00  0.00     0.053 C 
BRANCH   8   9
ATOM      9  C   UNL     1      33.141  29.643  19.546  1.00  0.00     0.041 C 
ATOM     10  O   UNL     1      33.112  28.506  19.006  1.00  0.00    -0.550 OA
ATOM     11  O   UNL     1      33.854  30.672  18.943  1.00  0.00    -0.550 OA
ENDBRANCH   8   9
ENDBRANCH   7   8
ENDBRANCH   6   7
ENDBRANCH   5   6
ENDBRANCH   4   5
ENDBRANCH   3   4
ENDBRANCH   2   3
ENDBRANCH   1   2
BRANCH   1  12
ATOM     12  C   UNL     1      34.245  34.665  23.387  1.00  0.00     0.000 C 
BRANCH  12  13
ATOM     13  C   UNL     1      33.710  33.471  24.196  1.00  0.00    -0.000 C 
BRANCH  13  14
ATOM     14  C   UNL     1      34.168  33.492  25.663  1.00  0.00    -0.000 C 
BRANCH  14  15
ATOM     15  C   UNL     1      35.214  32.408  25.980  1.00  0.00    -0.000 C 
BRANCH  15  16
ATOM     16  C   UNL     1      36.614  32.933  26.361  1.00  0.00    -0.000 C 
BRANCH  16  17
ATOM     17  C   UNL     1      36.676  34.429  26.722  1.00  0.00    -0.000 C 
BRANCH  17  18
ATOM     18  C   UNL     1      36.620  34.679  28.237  1.00  0.00    -0.000 C 
BRANCH  18  19
ATOM     19  C   UNL     1      35.712  35.871  28.560  1.00  0.00    -0.003 C 
ATOM     20  C   UNL     1      36.257  36.674  29.738  1.00  0.00     0.004 C 
ENDBRANCH  18  19
ENDBRANCH  17  18
ENDBRANCH  16  17
ENDBRANCH  15  16
ENDBRANCH  14  15
ENDBRANCH  13  14
ENDBRANCH  12  13
ENDBRANCH   1  12
TORSDOF 16
ENDMDL
MODEL 5
REMARK VINA RESULT:    -4.639      3.631      6.378
REMARK INTER + INTRA:         -10.148
REMARK INTER:                  -7.870
REMARK INTRA:                  -2.278
REMARK UNBOUND:                -1.171
REMARK SMILES CCCCCCCCCCCCCCCCCC(=O)[O-]
REMARK SMILES IDX 10 1 11 2 12 3 13 4 14 5 15 6 16 7 17 8 18 9 19 10 20 11
REMARK SMILES IDX 9 12 8 13 7 14 6 15 5 16 4 17 3 18 2 19 1 20
REMARK H PARENT
REMARK Flexibility Score: inf
ROOT
ATOM      1  C   UNL     1      35.391  31.464  21.694  1.00  0.00     0.000 C 
ENDROOT
BRANCH   1   2
ATOM      2  C   UNL     1      35.353  30.731  23.047  1.00  0.00     0.000 C 
BRANCH   2   3
ATOM      3  C   UNL     1      35.551  31.677  24.241  1.00  0.00     0.000 C 
BRANCH   3   4
ATOM      4  C   UNL     1      34.339  31.702  25.184  1.00  0.00     0.000 C 
BRANCH   4   5
ATOM      5  C   UNL     1      33.933  33.143  25.523  1.00  0.00     0.000 C 
BRANCH   5   6
ATOM      6  C   UNL     1      34.665  34.179  24.643  1.00  0.00     0.000 C 
BRANCH   6   7
ATOM      7  C   UNL     1      34.969  35.500  25.375  1.00  0.00     0.006 C 
BRANCH   7   8
ATOM      8  C   UNL     1      35.066  35.363  26.902  1.00  0.00     0.053 C 
BRANCH   8   9
ATOM      9  C   UNL     1      36.438  34.954  27.342  1.00  0.00     0.041 C 
ATOM     10  O   UNL     1      36.595  33.925  28.050  1.00  0.00    -0.550 OA
ATOM     11  O   UNL     1      37.546  35.703  26.967  1.00  0.00    -0.550 OA
ENDBRANCH   8   9
ENDBRANCH   7   8
ENDBRANCH   6   7
ENDBRANCH   5   6
ENDBRANCH   4   5
ENDBRANCH   3   4
ENDBRANCH   2   3
ENDBRANCH   1   2
BRANCH   1  12
ATOM     12  C   UNL     1      34.004  32.007  21.289  1.00  0.00     0.000 C 
BRANCH  12  13
ATOM     13  C   UNL     1      32.831  31.244  21.928  1.00  0.00    -0.000 C 
BRANCH  13  14
ATOM     14  C   UNL     1      32.164  30.255  20.959  1.00  0.00    -0.000 C 
BRANCH  14  15
ATOM     15  C   UNL     1      32.788  28.849  21.014  1.00  0.00    -0.000 C 
BRANCH  15  16
ATOM     16  C   UNL     1      33.250  28.278  19.657  1.00  0.00    -0.000 C 
BRANCH  16  17
ATOM     17  C   UNL     1      34.436  29.014  19.007  1.00  0.00    -0.000 C 
BRANCH  17  18
ATOM     18  C   UNL     1      34.052  29.727  17.701  1.00  0.00    -0.000 C 
BRANCH  18  19
ATOM     19  C   UNL     1      34.386  31.221  17.776  1.00  0.00    -0.003 C 
ATOM     20  C   UNL     1      33.148  32.075  17.513  1.00  0.00     0.004 C 
ENDBRANCH  18  19
ENDBRANCH  17  18
ENDBRANCH  16  17
ENDBRANCH  15  16
ENDBRANCH  14  15
ENDBRANCH  13  14
ENDBRANCH  12  13
ENDBRANCH   1  12
TORSDOF 16
ENDMDL
MODEL 6
REMARK VINA RESULT:    -4.620      7.974     11.258
REMARK INTER + INTRA:         -10.113
REMARK INTER:                  -7.015
REMARK INTRA:                  -3.098
REMARK UNBOUND:                -1.171
REMARK SMILES CCCCCCCCCCCCCCCCCC(=O)[O-]
REMARK SMILES IDX 10 1 11 2 12 3 13 4 14 5 15 6 16 7 17 8 18 9 19 10 20 11
REMARK SMILES IDX 9 12 8 13 7 14 6 15 5 16 4 17 3 18 2 19 1 20
REMARK H PARENT
REMARK Flexibility Score: inf
ROOT
ATOM      1  C   UNL     1      36.554  32.173  21.469  1.00  0.00     0.000 C 
ENDROOT
BRANCH   1   2
ATOM      2  C   UNL     1      36.141  31.161  22.552  1.00  0.00     0.000 C 
BRANCH   2   3
ATOM      3  C   UNL     1      35.259  30.030  22.003  1.00  0.00     0.000 C 
BRANCH   3   4
ATOM      4  C   UNL     1      33.887  29.963  22.688  1.00  0.00     0.000 C 
BRANCH   4   5
ATOM      5  C   UNL     1      32.750  30.041  21.659  1.00  0.00     0.000 C 
BRANCH   5   6
ATOM      6  C   UNL     1      32.883  28.965  20.560  1.00  0.00     0.000 C 
BRANCH   6   7
ATOM      7  C   UNL     1      33.074  29.550  19.148  1.00  0.00     0.006 C 
BRANCH   7   8
ATOM      8  C   UNL     1      34.241  28.930  18.365  1.00  0.00     0.053 C 
BRANCH   8   9
ATOM      9  C   UNL     1      33.828  27.691  17.630  1.00  0.00     0.041 C 
ATOM     10  O   UNL     1      32.647  27.570  17.210  1.00  0.00    -0.550 OA
ATOM     11  O   UNL     1      34.746  26.675  17.400  1.00  0.00    -0.550 OA
ENDBRANCH   8   9
ENDBRANCH   7   8
ENDBRANCH   6   7
ENDBRANCH   5   6
ENDBRANCH   4   5
ENDBRANCH   3   4
ENDBRANCH   2   3
ENDBRANCH   1   2
BRANCH   1  12
ATOM     12  C   UNL     1      36.169  31.695  20.052  1.00  0.00     0.000 C 
BRANCH  12  13
ATOM     13  C   UNL     1      35.346  32.722  19.256  1.00  0.00    -0.000 C 
BRANCH  13  14
ATOM     14  C   UNL     1      34.014  33.074  19.936  1.00  0.00    -0.000 C 
BRANCH  14  15
ATOM     15  C   UNL     1      33.905  34.565  20.304  1.00  0.00    -0.000 C 
BRANCH  15  16
ATOM     16  C   UNL     1      33.378  34.857  21.725  1.00  0.00    -0.000 C 
BRANCH  16  17
ATOM     17  C   UNL     1      33.361  33.648  22.678  1.00  0.00    -0.000 C 
BRANCH  17  18
ATOM     18  C   UNL     1      34.154  33.897  23.970  1.00  0.00    -0.000 C 
BRANCH  18  19
ATOM     19  C   UNL     1      33.800  32.857  25.038  1.00  0.00    -0.003 C 
ATOM     20  C   UNL     1      35.032  32.456  25.846  1.00  0.00     0.004 C 
ENDBRANCH  18  19
ENDBRANCH  17  18
ENDBRANCH  16  17
ENDBRANCH  15  16
ENDBRANCH  14  15
ENDBRANCH  13  14
ENDBRANCH  12  13
ENDBRANCH   1  12
TORSDOF 16
ENDMDL
MODEL 7
REMARK VINA RESULT:    -4.612      1.838      3.410
REMARK INTER + INTRA:         -10.096
REMARK INTER:                  -7.266
REMARK INTRA:                  -2.830
REMARK UNBOUND:                -1.171
REMARK SMILES CCCCCCCCCCCCCCCCCC(=O)[O-]
REMARK SMILES IDX 10 1 11 2 12 3 13 4 14 5 15 6 16 7 17 8 18 9 19 10 20 11
REMARK SMILES IDX 9 12 8 13 7 14 6 15 5 16 4 17 3 18 2 19 1 20
REMARK H PARENT
REMARK Flexibility Score: inf
ROOT
ATOM      1  C   UNL     1      37.495  33.331  24.295  1.00  0.00     0.000 C 
ENDROOT
BRANCH   1   2
ATOM      2  C   UNL     1      38.188  34.216  25.345  1.00  0.00     0.000 C 
BRANCH   2   3
ATOM      3  C   UNL     1      37.779  35.694  25.241  1.00  0.00     0.000 C 
BRANCH   3   4
ATOM      4  C   UNL     1      36.276  35.874  24.982  1.00  0.00     0.000 C 
BRANCH   4   5
ATOM      5  C   UNL     1      35.610  36.662  26.119  1.00  0.00     0.000 C 
BRANCH   5   6
ATOM      6  C   UNL     1      35.068  35.738  27.231  1.00  0.00     0.000 C 
BRANCH   6   7
ATOM      7  C   UNL     1      36.023  35.596  28.430  1.00  0.00     0.006 C 
BRANCH   7   8
ATOM      8  C   UNL     1      36.163  36.871  29.275  1.00  0.00     0.053 C 
BRANCH   8   9
ATOM      9  C   UNL     1      37.584  37.336  29.358  1.00  0.00     0.041 C 
ATOM     10  O   UNL     1      38.526  36.537  29.111  1.00  0.00    -0.550 OA
ATOM     11  O   UNL     1      37.872  38.651  29.699  1.00  0.00    -0.550 OA
ENDBRANCH   8   9
ENDBRANCH   7   8
ENDBRANCH   6   7
ENDBRANCH   5   6
ENDBRANCH   4   5
ENDBRANCH   3   4
ENDBRANCH   2   3
ENDBRANCH   1   2
BRANCH   1  12
ATOM     12  C   UNL     1      36.863  32.071  24.924  1.00  0.00     0.000 C 
BRANCH  12  13
ATOM     13  C   UNL     1      35.832  32.380  26.023  1.00  0.00    -0.000 C 
BRANCH  13  14
ATOM     14  C   UNL     1      34.401  31.985  25.626  1.00  0.00    -0.000 C 
BRANCH  14  15
ATOM     15  C   UNL     1      33.554  33.184  25.162  1.00  0.00    -0.000 C 
BRANCH  15  16
ATOM     16  C   UNL     1      33.734  33.585  23.683  1.00  0.00    -0.000 C 
BRANCH  16  17
ATOM     17  C   UNL     1      33.418  32.478  22.661  1.00  0.00    -0.000 C 
BRANCH  17  18
ATOM     18  C   UNL     1      34.622  32.124  21.775  1.00  0.00    -0.000 C 
BRANCH  18  19
ATOM     19  C   UNL     1      35.063  30.674  22.005  1.00  0.00    -0.003 C 
ATOM     20  C   UNL     1      33.934  29.844  22.609  1.00  0.00     0.004 C 
ENDBRANCH  18  19
ENDBRANCH  17  18
ENDBRANCH  16  17
ENDBRANCH  15  16
ENDBRANCH  14  15
ENDBRANCH  13  14
ENDBRANCH  12  13
ENDBRANCH   1  12
TORSDOF 16
ENDMDL
MODEL 8
REMARK VINA RESULT:    -4.608      3.638      5.418
REMARK INTER + INTRA:         -10.088
REMARK INTER:                  -7.805
REMARK INTRA:                  -2.283
REMARK UNBOUND:                -1.171
REMARK SMILES CCCCCCCCCCCCCCCCCC(=O)[O-]
REMARK SMILES IDX 10 1 11 2 12 3 13 4 14 5 15 6 16 7 17 8 18 9 19 10 20 11
REMARK SMILES IDX 9 12 8 13 7 14 6 15 5 16 4 17 3 18 2 19 1 20
REMARK H PARENT
REMARK Flexibility Score: inf
ROOT
ATOM      1  C   UNL     1      37.227  32.280  25.604  1.00  0.00     0.000 C 
ENDROOT
BRANCH   1   2
ATOM      2  C   UNL     1      35.919  32.646  26.327  1.00  0.00     0.000 C 
BRANCH   2   3
ATOM      3  C   UNL     1      34.677  32.053  25.644  1.00  0.00     0.000 C 
BRANCH   3   4
ATOM      4  C   UNL     1      33.643  33.123  25.265  1.00  0.00     0.000 C 
BRANCH   4   5
ATOM      5  C   UNL     1      33.645  33.382  23.751  1.00  0.00     0.000 C 
BRANCH   5   6
ATOM      6  C   UNL     1      33.999  34.845  23.409  1.00  0.00     0.000 C 
BRANCH   6   7
ATOM      7  C   UNL     1      35.275  35.348  24.110  1.00  0.00     0.006 C 
BRANCH   7   8
ATOM      8  C   UNL     1      35.053  36.570  25.015  1.00  0.00     0.053 C 
BRANCH   8   9
ATOM      9  C   UNL     1      35.686  36.393  26.361  1.00  0.00     0.041 C 
ATOM     10  O   UNL     1      35.025  35.896  27.311  1.00  0.00    -0.550 OA
ATOM     11  O   UNL     1      37.008  36.767  26.567  1.00  0.00    -0.550 OA
ENDBRANCH   8   9
ENDBRANCH   7   8
ENDBRANCH   6   7
ENDBRANCH   5   6
ENDBRANCH   4   5
ENDBRANCH   3   4
ENDBRANCH   2   3
ENDBRANCH   1   2
BRANCH   1  12
ATOM     12  C   UNL     1      36.994  31.954  24.113  1.00  0.00     0.000 C 
BRANCH  12  13
ATOM     13  C   UNL     1      37.258  30.482  23.754  1.00  0.00    -0.000 C 
BRANCH  13  14
ATOM     14  C   UNL     1      36.833  30.133  22.318  1.00  0.00    -0.000 C 
BRANCH  14  15
ATOM     15  C   UNL     1      35.437  30.671  21.959  1.00  0.00    -0.000 C 
BRANCH  15  16
ATOM     16  C   UNL     1      34.254  29.917  22.600  1.00  0.00    -0.000 C 
BRANCH  16  17
ATOM     17  C   UNL     1      32.890  30.140  21.920  1.00  0.00    -0.000 C 
BRANCH  17  18
ATOM     18  C   UNL     1      32.459  28.953  21.046  1.00  0.00    -0.000 C 
BRANCH  18  19
ATOM     19  C   UNL     1      32.828  29.194  19.577  1.00  0.00    -0.003 C 
ATOM     20  C   UNL     1      34.041  28.362  19.171  1.00  0.00     0.004 C 
ENDBRANCH  18  19
ENDBRANCH  17  18
ENDBRANCH  16  17
ENDBRANCH  15  16
ENDBRANCH  14  15
ENDBRANCH  13  14
ENDBRANCH  12  13
ENDBRANCH   1  12
TORSDOF 16
ENDMDL
MODEL 9
REMARK VINA RESULT:    -4.587      6.644     10.025
REMARK INTER + INTRA:         -10.048
REMARK INTER:                  -7.021
REMARK INTRA:                  -3.027
REMARK UNBOUND:                -1.171
REMARK SMILES CCCCCCCCCCCCCCCCCC(=O)[O-]
REMARK SMILES IDX 10 1 11 2 12 3 13 4 14 5 15 6 16 7 17 8 18 9 19 10 20 11
REMARK SMILES IDX 9 12 8 13 7 14 6 15 5 16 4 17 3 18 2 19 1 20
REMARK H PARENT
REMARK Flexibility Score: inf
ROOT
ATOM      1  C   UNL     1      37.183  31.881  22.346  1.00  0.00     0.000 C 
ENDROOT
BRANCH   1   2
ATOM      2  C   UNL     1      36.155  32.897  21.819  1.00  0.00     0.000 C 
BRANCH   2   3
ATOM      3  C   UNL     1      35.035  32.238  20.998  1.00  0.00     0.000 C 
BRANCH   3   4
ATOM      4  C   UNL     1      33.644  32.783  21.353  1.00  0.00     0.000 C 
BRANCH   4   5
ATOM      5  C   UNL     1      32.922  31.854  22.339  1.00  0.00     0.000 C 
BRANCH   5   6
ATOM      6  C   UNL     1      33.371  30.384  22.192  1.00  0.00     0.000 C 
BRANCH   6   7
ATOM      7  C   UNL     1      32.303  29.478  21.550  1.00  0.00     0.006 C 
BRANCH   7   8
ATOM      8  C   UNL     1      32.842  28.562  20.442  1.00  0.00     0.053 C 
BRANCH   8   9
ATOM      9  C   UNL     1      33.479  29.339  19.331  1.00  0.00     0.041 C 
ATOM     10  O   UNL     1      34.672  29.106  18.999  1.00  0.00    -0.550 OA
ATOM     11  O   UNL     1      32.758  30.315  18.656  1.00  0.00    -0.550 OA
ENDBRANCH   8   9
ENDBRANCH   7   8
ENDBRANCH   6   7
ENDBRANCH   5   6
ENDBRANCH   4   5
ENDBRANCH   3   4
ENDBRANCH   2   3
ENDBRANCH   1   2
BRANCH   1  12
ATOM     12  C   UNL     1      36.691  31.169  23.625  1.00  0.00     0.000 C 
BRANCH  12  13
ATOM     13  C   UNL     1      37.377  31.665  24.910  1.00  0.00    -0.000 C 
BRANCH  13  14
ATOM     14  C   UNL     1      36.406  32.371  25.869  1.00  0.00    -0.000 C 
BRANCH  14  15
ATOM     15  C   UNL     1      34.929  32.075  25.553  1.00  0.00    -0.000 C 
BRANCH  15  16
ATOM     16  C   UNL     1      33.998  33.305  25.542  1.00  0.00    -0.000 C 
BRANCH  16  17
ATOM     17  C   UNL     1      34.709  34.664  25.407  1.00  0.00    -0.000 C 
BRANCH  17  18
ATOM     18  C   UNL     1      34.537  35.290  24.015  1.00  0.00    -0.000 C 
BRANCH  18  19
ATOM     19  C   UNL     1      35.798  36.058  23.601  1.00  0.00    -0.003 C 
ATOM     20  C   UNL     1      36.969  35.729  24.523  1.00  0.00     0.004 C 
ENDBRANCH  18  19
ENDBRANCH  17  18
ENDBRANCH  16  17
ENDBRANCH  15  16
ENDBRANCH  14  15
ENDBRANCH  13  14
ENDBRANCH  12  13
ENDBRANCH   1  12
TORSDOF 16
ENDMDL
