MODEL 1
REMARK VINA RESULT:    -4.062      0.000      0.000
REMARK INTER + INTRA:          -4.996
REMARK INTER:                  -5.012
REMARK INTRA:                   0.016
REMARK UNBOUND:                 0.016
REMARK SMILES CCCCC=CC(C)=O
REMARK SMILES IDX 4 1 3 2 2 3 1 4 5 5 6 6 7 7 9 8 8 9
REMARK H PARENT
REMARK Flexibility Score: inf
ROOT
ATOM      1  C   UNL     1      73.200  74.250  73.320  1.00  0.00     0.027 C 
ENDROOT
BRANCH   1   2
ATOM      2  C   UNL     1      73.823  74.636  71.970  1.00  0.00     0.004 C 
BRANCH   2   3
ATOM      3  C   UNL     1      74.949  75.671  72.115  1.00  0.00    -0.003 C 
ATOM      4  C   UNL     1      76.337  75.033  72.163  1.00  0.00     0.004 C 
ENDBRANCH   2   3
ENDBRANCH   1   2
BRANCH   1   5
ATOM      5  C   UNL     1      73.988  74.822  74.464  1.00  0.00    -0.023 C 
ATOM      6  C   UNL     1      74.700  74.038  75.283  1.00  0.00     0.042 C 
BRANCH   6   7
ATOM      7  C   UNL     1      75.478  74.554  76.427  1.00  0.00     0.152 C 
ATOM      8  O   UNL     1      76.484  75.276  76.197  1.00  0.00    -0.295 OA
ATOM      9  C   UNL     1      75.114  74.249  77.850  1.00  0.00     0.093 C 
ENDBRANCH   6   7
ENDBRANCH   1   5
TORSDOF 4
ENDMDL
MODEL 2
REMARK VINA RESULT:    -3.697      1.445      2.130
REMARK INTER + INTRA:          -4.545
REMARK INTER:                  -4.491
REMARK INTRA:                  -0.054
REMARK UNBOUND:                 0.016
REMARK SMILES CCCCC=CC(C)=O
REMARK SMILES IDX 4 1 3 2 2 3 1 4 5 5 6 6 7 7 9 8 8 9
REMARK H PARENT
REMARK Flexibility Score: inf
ROOT
ATOM      1  C   UNL     1      76.125  75.332  72.942  1.00  0.00     0.027 C 
ENDROOT
BRANCH   1   2
ATOM      2  C   UNL     1      75.200  75.200  71.722  1.00  0.00     0.004 C 
BRANCH   2   3
ATOM      3  C   UNL     1      73.733  74.973  72.117  1.00  0.00    -0.003 C 
ATOM      4  C   UNL     1      73.313  73.507  72.016  1.00  0.00     0.004 C 
ENDBRANCH   2   3
ENDBRANCH   1   2
BRANCH   1   5
ATOM      5  C   UNL     1      75.343  75.283  74.223  1.00  0.00    -0.023 C 
ATOM      6  C   UNL     1      75.386  74.213  75.027  1.00  0.00     0.042 C 
BRANCH   6   7
ATOM      7  C   UNL     1      74.624  74.114  76.288  1.00  0.00     0.152 C 
ATOM      8  O   UNL     1      73.387  73.883  76.229  1.00  0.00    -0.295 OA
ATOM      9  C   UNL     1      75.268  74.278  77.632  1.00  0.00     0.093 C 
ENDBRANCH   6   7
ENDBRANCH   1   5
TORSDOF 4
ENDMDL
MODEL 3
REMARK VINA RESULT:    -3.429      1.990      4.881
REMARK INTER + INTRA:          -4.215
REMARK INTER:                  -4.072
REMARK INTRA:                  -0.142
REMARK UNBOUND:                 0.016
REMARK SMILES CCCCC=CC(C)=O
REMARK SMILES IDX 4 1 3 2 2 3 1 4 5 5 6 6 7 7 9 8 8 9
REMARK H PARENT
REMARK Flexibility Score: inf
ROOT
ATOM      1  C   UNL     1      76.133  75.044  75.818  1.00  0.00     0.027 C 
ENDROOT
BRANCH   1   2
ATOM      2  C   UNL     1      74.956  74.592  76.697  1.00  0.00     0.004 C 
BRANCH   2   3
ATOM      3  C   UNL     1      75.408  74.102  78.080  1.00  0.00    -0.003 C 
ATOM      4  C   UNL     1      74.651  74.777  79.224  1.00  0.00     0.004 C 
ENDBRANCH   2   3
ENDBRANCH   1   2
BRANCH   1   5
ATOM      5  C   UNL     1      75.759  75.034  74.364  1.00  0.00    -0.023 C 
ATOM      6  C   UNL     1      74.488  74.883  73.971  1.00  0.00     0.042 C 
BRANCH   6   7
ATOM      7  C   UNL     1      74.075  74.853  72.553  1.00  0.00     0.152 C 
ATOM      8  O   UNL     1      74.666  75.608  71.737  1.00  0.00    -0.295 OA
ATOM      9  C   UNL     1      72.980  73.959  72.053  1.00  0.00     0.093 C 
ENDBRANCH   6   7
ENDBRANCH   1   5
TORSDOF 4
ENDMDL
MODEL 4
REMARK VINA RESULT:    -3.150      8.511      9.121
REMARK INTER + INTRA:          -3.870
REMARK INTER:                  -3.695
REMARK INTRA:                  -0.175
REMARK UNBOUND:                 0.016
REMARK SMILES CCCCC=CC(C)=O
REMARK SMILES IDX 4 1 3 2 2 3 1 4 5 5 6 6 7 7 9 8 8 9
REMARK H PARENT
REMARK Flexibility Score: inf
ROOT
ATOM      1  C   UNL     1      73.303  74.317  83.554  1.00  0.00     0.027 C 
ENDROOT
BRANCH   1   2
ATOM      2  C   UNL     1      73.499  73.394  82.342  1.00  0.00     0.004 C 
BRANCH   2   3
ATOM      3  C   UNL     1      72.832  72.024  82.530  1.00  0.00    -0.003 C 
ATOM      4  C   UNL     1      73.760  70.860  82.181  1.00  0.00     0.004 C 
ENDBRANCH   2   3
ENDBRANCH   1   2
BRANCH   1   5
ATOM      5  C   UNL     1      74.323  75.419  83.567  1.00  0.00    -0.023 C 
ATOM      6  C   UNL     1      75.541  75.249  83.037  1.00  0.00     0.042 C 
BRANCH   6   7
ATOM      7  C   UNL     1      76.581  76.299  83.039  1.00  0.00     0.152 C 
ATOM      8  O   UNL     1      77.698  76.040  83.560  1.00  0.00    -0.295 OA
ATOM      9  C   UNL     1      76.354  77.656  82.445  1.00  0.00     0.093 C 
ENDBRANCH   6   7
ENDBRANCH   1   5
TORSDOF 4
ENDMDL
MODEL 5
REMARK VINA RESULT:    -3.120      8.744      9.471
REMARK INTER + INTRA:          -3.834
REMARK INTER:                  -3.591
REMARK INTRA:                  -0.242
REMARK UNBOUND:                 0.016
REMARK SMILES CCCCC=CC(C)=O
REMARK SMILES IDX 4 1 3 2 2 3 1 4 5 5 6 6 7 7 9 8 8 9
REMARK H PARENT
REMARK Flexibility Score: inf
ROOT
ATOM      1  C   UNL     1      77.060  77.215  82.632  1.00  0.00     0.027 C 
ENDROOT
BRANCH   1   2
ATOM      2  C   UNL     1      76.629  78.614  83.099  1.00  0.00     0.004 C 
BRANCH   2   3
ATOM      3  C   UNL     1      75.387  79.126  82.355  1.00  0.00    -0.003 C 
ATOM      4  C   UNL     1      74.130  79.120  83.225  1.00  0.00     0.004 C 
ENDBRANCH   2   3
ENDBRANCH   1   2
BRANCH   1   5
ATOM      5  C   UNL     1      76.282  76.144  83.341  1.00  0.00    -0.023 C 
ATOM      6  C   UNL     1      75.575  75.231  82.663  1.00  0.00     0.042 C 
BRANCH   6   7
ATOM      7  C   UNL     1      74.784  74.168  83.317  1.00  0.00     0.152 C 
ATOM      8  O   UNL     1      75.391  73.180  83.808  1.00  0.00    -0.295 OA
ATOM      9  C   UNL     1      73.289  74.224  83.417  1.00  0.00     0.093 C 
ENDBRANCH   6   7
ENDBRANCH   1   5
TORSDOF 4
ENDMDL
MODEL 6
REMARK VINA RESULT:    -3.112      8.785      9.320
REMARK INTER + INTRA:          -3.824
REMARK INTER:                  -3.611
REMARK INTRA:                  -0.213
REMARK UNBOUND:                 0.016
REMARK SMILES CCCCC=CC(C)=O
REMARK SMILES IDX 4 1 3 2 2 3 1 4 5 5 6 6 7 7 9 8 8 9
REMARK H PARENT
REMARK Flexibility Score: inf
ROOT
ATOM      1  C   UNL     1      73.320  74.577  83.445  1.00  0.00     0.027 C 
ENDROOT
BRANCH   1   2
ATOM      2  C   UNL     1      74.365  75.632  83.838  1.00  0.00     0.004 C 
BRANCH   2   3
ATOM      3  C   UNL     1      75.731  75.382  83.180  1.00  0.00    -0.003 C 
ATOM      4  C   UNL     1      76.246  76.596  82.406  1.00  0.00     0.004 C 
ENDBRANCH   2   3
ENDBRANCH   1   2
BRANCH   1   5
ATOM      5  C   UNL     1      73.935  73.209  83.365  1.00  0.00    -0.023 C 
ATOM      6  C   UNL     1      73.386  72.239  82.623  1.00  0.00     0.042 C 
BRANCH   6   7
ATOM      7  C   UNL     1      73.947  70.876  82.525  1.00  0.00     0.152 C 
ATOM      8  O   UNL     1      73.272  69.986  81.943  1.00  0.00    -0.295 OA
ATOM      9  C   UNL     1      75.287  70.515  83.093  1.00  0.00     0.093 C 
ENDBRANCH   6   7
ENDBRANCH   1   5
TORSDOF 4
ENDMDL
MODEL 7
REMARK VINA RESULT:    -3.084      8.489      9.325
REMARK INTER + INTRA:          -3.789
REMARK INTER:                  -3.669
REMARK INTRA:                  -0.120
REMARK UNBOUND:                 0.016
REMARK SMILES CCCCC=CC(C)=O
REMARK SMILES IDX 4 1 3 2 2 3 1 4 5 5 6 6 7 7 9 8 8 9
REMARK H PARENT
REMARK Flexibility Score: inf
ROOT
ATOM      1  C   UNL     1      75.538  74.580  83.339  1.00  0.00     0.027 C 
ENDROOT
BRANCH   1   2
ATOM      2  C   UNL     1      74.099  74.098  83.578  1.00  0.00     0.004 C 
BRANCH   2   3
ATOM      3  C   UNL     1      73.460  73.502  82.315  1.00  0.00    -0.003 C 
ATOM      4  C   UNL     1      72.771  72.162  82.575  1.00  0.00     0.004 C 
ENDBRANCH   2   3
ENDBRANCH   1   2
BRANCH   1   5
ATOM      5  C   UNL     1      75.618  76.080  83.365  1.00  0.00    -0.023 C 
ATOM      6  C   UNL     1      76.478  76.747  82.586  1.00  0.00     0.042 C 
BRANCH   6   7
ATOM      7  C   UNL     1      76.601  78.219  82.588  1.00  0.00     0.152 C 
ATOM      8  O   UNL     1      77.716  78.731  82.872  1.00  0.00    -0.295 OA
ATOM      9  C   UNL     1      75.449  79.123  82.265  1.00  0.00     0.093 C 
ENDBRANCH   6   7
ENDBRANCH   1   5
TORSDOF 4
ENDMDL
MODEL 8
REMARK VINA RESULT:    -2.955      8.921      9.323
REMARK INTER + INTRA:          -3.630
REMARK INTER:                  -3.456
REMARK INTRA:                  -0.174
REMARK UNBOUND:                 0.016
REMARK SMILES CCCCC=CC(C)=O
REMARK SMILES IDX 4 1 3 2 2 3 1 4 5 5 6 6 7 7 9 8 8 9
REMARK H PARENT
REMARK Flexibility Score: inf
ROOT
ATOM      1  C   UNL     1      74.640  76.316  83.727  1.00  0.00     0.027 C 
ENDROOT
BRANCH   1   2
ATOM      2  C   UNL     1      75.903  76.113  82.876  1.00  0.00     0.004 C 
BRANCH   2   3
ATOM      3  C   UNL     1      76.669  77.423  82.636  1.00  0.00    -0.003 C 
ATOM      4  C   UNL     1      75.750  78.586  82.261  1.00  0.00     0.004 C 
ENDBRANCH   2   3
ENDBRANCH   1   2
BRANCH   1   5
ATOM      5  C   UNL     1      73.883  75.028  83.888  1.00  0.00    -0.023 C 
ATOM      6  C   UNL     1      73.604  74.246  82.837  1.00  0.00     0.042 C 
BRANCH   6   7
ATOM      7  C   UNL     1      72.852  72.980  82.946  1.00  0.00     0.152 C 
ATOM      8  O   UNL     1      71.670  73.016  83.381  1.00  0.00    -0.295 OA
ATOM      9  C   UNL     1      73.441  71.658  82.556  1.00  0.00     0.093 C 
ENDBRANCH   6   7
ENDBRANCH   1   5
TORSDOF 4
ENDMDL
MODEL 9
REMARK VINA RESULT:    -2.831      8.782      9.426
REMARK INTER + INTRA:          -3.476
REMARK INTER:                  -3.275
REMARK INTRA:                  -0.202
REMARK UNBOUND:                 0.016
REMARK SMILES CCCCC=CC(C)=O
REMARK SMILES IDX 4 1 3 2 2 3 1 4 5 5 6 6 7 7 9 8 8 9
REMARK H PARENT
REMARK Flexibility Score: inf
ROOT
ATOM      1  C   UNL     1      72.454  72.182  83.128  1.00  0.00     0.027 C 
ENDROOT
BRANCH   1   2
ATOM      2  C   UNL     1      73.390  71.364  82.225  1.00  0.00     0.004 C 
BRANCH   2   3
ATOM      3  C   UNL     1      73.116  69.855  82.307  1.00  0.00    -0.003 C 
ATOM      4  C   UNL     1      71.738  69.533  82.885  1.00  0.00     0.004 C 
ENDBRANCH   2   3
ENDBRANCH   1   2
BRANCH   1   5
ATOM      5  C   UNL     1      72.994  73.565  83.356  1.00  0.00    -0.023 C 
ATOM      6  C   UNL     1      74.247  73.891  83.015  1.00  0.00     0.042 C 
BRANCH   6   7
ATOM      7  C   UNL     1      74.826  75.232  83.233  1.00  0.00     0.152 C 
ATOM      8  O   UNL     1      75.900  75.529  82.646  1.00  0.00    -0.295 OA
ATOM      9  C   UNL     1      74.182  76.250  84.125  1.00  0.00     0.093 C 
ENDBRANCH   6   7
ENDBRANCH   1   5
TORSDOF 4
ENDMDL
