MODEL 1
REMARK VINA RESULT:    -4.424      0.000      0.000
REMARK INTER + INTRA:          -5.278
REMARK INTER:                  -5.200
REMARK INTRA:                  -0.078
REMARK UNBOUND:                -0.078
REMARK SMILES O=C([O-])CCC(=O)[O-]
REMARK SMILES IDX 4 1 2 2 1 3 3 4 5 5 6 6 7 7 8 8
REMARK H PARENT
REMARK Flexibility Score: inf
ROOT
ATOM      1  C   UNL     1       0.157  -0.156   5.949  1.00  0.00     0.059 C 
ENDROOT
BRANCH   1   2
ATOM      2  C   UNL     1       0.659   0.145   7.326  1.00  0.00     0.042 C 
ATOM      3  O   UNL     1       0.924  -0.793   8.123  1.00  0.00    -0.550 OA
ATOM      4  O   UNL     1       0.878   1.461   7.713  1.00  0.00    -0.550 OA
ENDBRANCH   1   2
BRANCH   1   5
ATOM      5  C   UNL     1       0.964   0.617   4.905  1.00  0.00     0.059 C 
BRANCH   5   6
ATOM      6  C   UNL     1       0.175   1.778   4.388  1.00  0.00     0.042 C 
ATOM      7  O   UNL     1      -0.957   2.041   4.873  1.00  0.00    -0.550 OA
ATOM      8  O   UNL     1       0.668   2.541   3.337  1.00  0.00    -0.550 OA
ENDBRANCH   5   6
ENDBRANCH   1   5
TORSDOF 3
ENDMDL
MODEL 2
REMARK VINA RESULT:    -4.416      0.122      3.841
REMARK INTER + INTRA:          -5.269
REMARK INTER:                  -5.186
REMARK INTRA:                  -0.083
REMARK UNBOUND:                -0.078
REMARK SMILES O=C([O-])CCC(=O)[O-]
REMARK SMILES IDX 4 1 2 2 1 3 3 4 5 5 6 6 7 7 8 8
REMARK H PARENT
REMARK Flexibility Score: inf
ROOT
ATOM      1  C   UNL     1       1.108   0.782   4.943  1.00  0.00     0.059 C 
ENDROOT
BRANCH   1   2
ATOM      2  C   UNL     1       0.205   1.819   4.354  1.00  0.00     0.042 C 
ATOM      3  O   UNL     1      -0.937   2.019   4.847  1.00  0.00    -0.550 OA
ATOM      4  O   UNL     1       0.641   2.598   3.290  1.00  0.00    -0.550 OA
ENDBRANCH   1   2
BRANCH   1   5
ATOM      5  C   UNL     1       0.332  -0.120   5.904  1.00  0.00     0.059 C 
BRANCH   5   6
ATOM      6  C   UNL     1       0.701   0.186   7.321  1.00  0.00     0.042 C 
ATOM      7  O   UNL     1       0.837   1.380   7.698  1.00  0.00    -0.550 OA
ATOM      8  O   UNL     1       0.941  -0.849   8.216  1.00  0.00    -0.550 OA
ENDBRANCH   5   6
ENDBRANCH   1   5
TORSDOF 3
ENDMDL
MODEL 3
REMARK VINA RESULT:    -4.296      0.312      1.177
REMARK INTER + INTRA:          -5.128
REMARK INTER:                  -5.037
REMARK INTRA:                  -0.090
REMARK UNBOUND:                -0.078
REMARK SMILES O=C([O-])CCC(=O)[O-]
REMARK SMILES IDX 4 1 2 2 1 3 3 4 5 5 6 6 7 7 8 8
REMARK H PARENT
REMARK Flexibility Score: inf
ROOT
ATOM      1  C   UNL     1       0.518  -0.089   5.769  1.00  0.00     0.059 C 
ENDROOT
BRANCH   1   2
ATOM      2  C   UNL     1       0.631   0.123   7.246  1.00  0.00     0.042 C 
ATOM      3  O   UNL     1       0.843   1.276   7.707  1.00  0.00    -0.550 OA
ATOM      4  O   UNL     1       0.454  -0.945   8.117  1.00  0.00    -0.550 OA
ENDBRANCH   1   2
BRANCH   1   5
ATOM      5  C   UNL     1       1.226   1.036   5.012  1.00  0.00     0.059 C 
BRANCH   5   6
ATOM      6  C   UNL     1       0.225   1.930   4.350  1.00  0.00     0.042 C 
ATOM      7  O   UNL     1      -0.950   2.007   4.795  1.00  0.00    -0.550 OA
ATOM      8  O   UNL     1       0.578   2.644   3.211  1.00  0.00    -0.550 OA
ENDBRANCH   5   6
ENDBRANCH   1   5
TORSDOF 3
ENDMDL
MODEL 4
REMARK VINA RESULT:    -4.275      0.208      3.785
REMARK INTER + INTRA:          -5.103
REMARK INTER:                  -5.024
REMARK INTRA:                  -0.078
REMARK UNBOUND:                -0.078
REMARK SMILES O=C([O-])CCC(=O)[O-]
REMARK SMILES IDX 4 1 2 2 1 3 3 4 5 5 6 6 7 7 8 8
REMARK H PARENT
REMARK Flexibility Score: inf
ROOT
ATOM      1  C   UNL     1       0.847   0.456   4.976  1.00  0.00     0.059 C 
ENDROOT
BRANCH   1   2
ATOM      2  C   UNL     1       0.085   1.653   4.501  1.00  0.00     0.042 C 
ATOM      3  O   UNL     1       0.535   2.359   3.560  1.00  0.00    -0.550 OA
ATOM      4  O   UNL     1      -1.146   1.963   5.065  1.00  0.00    -0.550 OA
ENDBRANCH   1   2
BRANCH   1   5
ATOM      5  C   UNL     1       0.073  -0.265   6.081  1.00  0.00     0.059 C 
BRANCH   5   6
ATOM      6  C   UNL     1       0.655   0.057   7.421  1.00  0.00     0.042 C 
ATOM      7  O   UNL     1       0.951  -0.867   8.223  1.00  0.00    -0.550 OA
ATOM      8  O   UNL     1       0.826   1.382   7.804  1.00  0.00    -0.550 OA
ENDBRANCH   5   6
ENDBRANCH   1   5
TORSDOF 3
ENDMDL
MODEL 5
REMARK VINA RESULT:    -4.189      1.620      3.720
REMARK INTER + INTRA:          -5.002
REMARK INTER:                  -4.878
REMARK INTRA:                  -0.124
REMARK UNBOUND:                -0.078
REMARK SMILES O=C([O-])CCC(=O)[O-]
REMARK SMILES IDX 4 1 2 2 1 3 3 4 5 5 6 6 7 7 8 8
REMARK H PARENT
REMARK Flexibility Score: inf
ROOT
ATOM      1  C   UNL     1      -1.257   1.017   5.794  1.00  0.00     0.059 C 
ENDROOT
BRANCH   1   2
ATOM      2  C   UNL     1      -0.198   1.284   4.771  1.00  0.00     0.042 C 
ATOM      3  O   UNL     1      -0.143   2.400   4.191  1.00  0.00    -0.550 OA
ATOM      4  O   UNL     1       0.760   0.316   4.494  1.00  0.00    -0.550 OA
ENDBRANCH   1   2
BRANCH   1   5
ATOM      5  C   UNL     1      -0.993   1.832   7.061  1.00  0.00     0.059 C 
BRANCH   5   6
ATOM      6  C   UNL     1       0.354   1.503   7.623  1.00  0.00     0.042 C 
ATOM      7  O   UNL     1       1.199   2.415   7.818  1.00  0.00    -0.550 OA
ATOM      8  O   UNL     1       0.693   0.182   7.887  1.00  0.00    -0.550 OA
ENDBRANCH   5   6
ENDBRANCH   1   5
TORSDOF 3
ENDMDL
MODEL 6
REMARK VINA RESULT:    -4.156      1.855      3.921
REMARK INTER + INTRA:          -4.963
REMARK INTER:                  -4.804
REMARK INTRA:                  -0.159
REMARK UNBOUND:                -0.078
REMARK SMILES O=C([O-])CCC(=O)[O-]
REMARK SMILES IDX 4 1 2 2 1 3 3 4 5 5 6 6 7 7 8 8
REMARK H PARENT
REMARK Flexibility Score: inf
ROOT
ATOM      1  C   UNL     1      -1.903   1.391   7.179  1.00  0.00     0.059 C 
ENDROOT
BRANCH   1   2
ATOM      2  C   UNL     1      -1.899   1.261   5.689  1.00  0.00     0.042 C 
ATOM      3  O   UNL     1      -2.794   0.593   5.108  1.00  0.00    -0.550 OA
ATOM      4  O   UNL     1      -0.932   1.917   4.937  1.00  0.00    -0.550 OA
ENDBRANCH   1   2
BRANCH   1   5
ATOM      5  C   UNL     1      -1.401   0.101   7.830  1.00  0.00     0.059 C 
BRANCH   5   6
ATOM      6  C   UNL     1       0.047  -0.113   7.519  1.00  0.00     0.042 C 
ATOM      7  O   UNL     1       0.899   0.758   7.835  1.00  0.00    -0.550 OA
ATOM      8  O   UNL     1       0.450  -1.254   6.835  1.00  0.00    -0.550 OA
ENDBRANCH   5   6
ENDBRANCH   1   5
TORSDOF 3
ENDMDL
MODEL 7
REMARK VINA RESULT:    -4.154      1.602      2.057
REMARK INTER + INTRA:          -4.961
REMARK INTER:                  -4.855
REMARK INTRA:                  -0.106
REMARK UNBOUND:                -0.078
REMARK SMILES O=C([O-])CCC(=O)[O-]
REMARK SMILES IDX 4 1 2 2 1 3 3 4 5 5 6 6 7 7 8 8
REMARK H PARENT
REMARK Flexibility Score: inf
ROOT
ATOM      1  C   UNL     1      -0.995   1.757   7.070  1.00  0.00     0.059 C 
ENDROOT
BRANCH   1   2
ATOM      2  C   UNL     1       0.342   1.476   7.680  1.00  0.00     0.042 C 
ATOM      3  O   UNL     1       1.095   2.425   8.022  1.00  0.00    -0.550 OA
ATOM      4  O   UNL     1       0.736   0.164   7.916  1.00  0.00    -0.550 OA
ENDBRANCH   1   2
BRANCH   1   5
ATOM      5  C   UNL     1      -1.169   0.963   5.774  1.00  0.00     0.059 C 
BRANCH   5   6
ATOM      6  C   UNL     1      -0.078   1.298   4.807  1.00  0.00     0.042 C 
ATOM      7  O   UNL     1      -0.100   2.388   4.178  1.00  0.00    -0.550 OA
ATOM      8  O   UNL     1       0.940   0.384   4.564  1.00  0.00    -0.550 OA
ENDBRANCH   5   6
ENDBRANCH   1   5
TORSDOF 3
ENDMDL
MODEL 8
REMARK VINA RESULT:    -4.105      1.944      2.239
REMARK INTER + INTRA:          -4.903
REMARK INTER:                  -4.789
REMARK INTRA:                  -0.114
REMARK UNBOUND:                -0.078
REMARK SMILES O=C([O-])CCC(=O)[O-]
REMARK SMILES IDX 4 1 2 2 1 3 3 4 5 5 6 6 7 7 8 8
REMARK H PARENT
REMARK Flexibility Score: inf
ROOT
ATOM      1  C   UNL     1      -1.052  -0.769   7.166  1.00  0.00     0.059 C 
ENDROOT
BRANCH   1   2
ATOM      2  C   UNL     1       0.277  -0.487   7.792  1.00  0.00     0.042 C 
ATOM      3  O   UNL     1       0.874  -1.383   8.445  1.00  0.00    -0.550 OA
ATOM      4  O   UNL     1       0.880   0.753   7.614  1.00  0.00    -0.550 OA
ENDBRANCH   1   2
BRANCH   1   5
ATOM      5  C   UNL     1      -1.912   0.496   7.146  1.00  0.00     0.059 C 
BRANCH   5   6
ATOM      6  C   UNL     1      -2.109   0.972   5.742  1.00  0.00     0.042 C 
ATOM      7  O   UNL     1      -3.080   0.552   5.060  1.00  0.00    -0.550 OA
ATOM      8  O   UNL     1      -1.192   1.845   5.169  1.00  0.00    -0.550 OA
ENDBRANCH   5   6
ENDBRANCH   1   5
TORSDOF 3
ENDMDL
MODEL 9
REMARK VINA RESULT:    -3.925      1.568      2.158
REMARK INTER + INTRA:          -4.692
REMARK INTER:                  -4.583
REMARK INTRA:                  -0.108
REMARK UNBOUND:                -0.078
REMARK SMILES O=C([O-])CCC(=O)[O-]
REMARK SMILES IDX 4 1 2 2 1 3 3 4 5 5 6 6 7 7 8 8
REMARK H PARENT
REMARK Flexibility Score: inf
ROOT
ATOM      1  C   UNL     1       0.558  -0.335   6.322  1.00  0.00     0.059 C 
ENDROOT
BRANCH   1   2
ATOM      2  C   UNL     1       0.090  -1.194   7.454  1.00  0.00     0.042 C 
ATOM      3  O   UNL     1      -1.064  -1.697   7.434  1.00  0.00    -0.550 OA
ATOM      4  O   UNL     1       0.947  -1.478   8.511  1.00  0.00    -0.550 OA
ENDBRANCH   1   2
BRANCH   1   5
ATOM      5  C   UNL     1       0.064   1.101   6.501  1.00  0.00     0.059 C 
BRANCH   5   6
ATOM      6  C   UNL     1      -0.830   1.492   5.367  1.00  0.00     0.042 C 
ATOM      7  O   UNL     1      -0.416   2.278   4.475  1.00  0.00    -0.550 OA
ATOM      8  O   UNL     1      -2.138   1.025   5.320  1.00  0.00    -0.550 OA
ENDBRANCH   5   6
ENDBRANCH   1   5
TORSDOF 3
ENDMDL
