MODEL 1
REMARK VINA RESULT:    -4.320      0.000      0.000
REMARK INTER + INTRA:          -6.122
REMARK INTER:                  -5.835
REMARK INTRA:                  -0.287
REMARK UNBOUND:                -0.287
REMARK SMILES CCCCCCC=CC(=O)[O-]
REMARK SMILES IDX 5 1 6 2 7 3 8 4 9 5 10 6 11 7 4 8 3 9 2 10 1 11
REMARK H PARENT
REMARK Flexibility Score: inf
ROOT
ATOM      1  C   UNL     1       6.793   7.632  80.680  1.00  0.00     0.004 C 
ENDROOT
BRANCH   1   2
ATOM      2  C   UNL     1       6.278   8.737  81.615  1.00  0.00     0.027 C 
BRANCH   2   3
ATOM      3  C   UNL     1       4.909   8.431  82.165  1.00  0.00    -0.025 C 
ATOM      4  C   UNL     1       3.993   9.332  82.556  1.00  0.00     0.020 C 
BRANCH   4   5
ATOM      5  C   UNL     1       4.117  10.802  82.480  1.00  0.00     0.064 C 
ATOM      6  O   UNL     1       3.937  11.372  81.372  1.00  0.00    -0.545 OA
ATOM      7  O   UNL     1       4.454  11.577  83.583  1.00  0.00    -0.545 OA
ENDBRANCH   4   5
ENDBRANCH   2   3
ENDBRANCH   1   2
BRANCH   1   8
ATOM      8  C   UNL     1       7.830   8.161  79.678  1.00  0.00     0.000 C 
BRANCH   8   9
ATOM      9  C   UNL     1       8.827   7.064  79.286  1.00  0.00    -0.000 C 
BRANCH   9  10
ATOM     10  C   UNL     1       8.299   5.678  79.671  1.00  0.00    -0.003 C 
ATOM     11  C   UNL     1       9.444   4.709  79.948  1.00  0.00     0.004 C 
ENDBRANCH   9  10
ENDBRANCH   8   9
ENDBRANCH   1   8
TORSDOF 6
ENDMDL
MODEL 2
REMARK VINA RESULT:    -4.277      3.656      6.385
REMARK INTER + INTRA:          -6.065
REMARK INTER:                  -5.996
REMARK INTRA:                  -0.069
REMARK UNBOUND:                -0.287
REMARK SMILES CCCCCCC=CC(=O)[O-]
REMARK SMILES IDX 5 1 6 2 7 3 8 4 9 5 10 6 11 7 4 8 3 9 2 10 1 11
REMARK H PARENT
REMARK Flexibility Score: inf
ROOT
ATOM      1  C   UNL     1       6.865   8.727  81.691  1.00  0.00     0.004 C 
ENDROOT
BRANCH   1   2
ATOM      2  C   UNL     1       7.279   8.196  80.309  1.00  0.00     0.027 C 
BRANCH   2   3
ATOM      3  C   UNL     1       6.727   6.822  80.034  1.00  0.00    -0.025 C 
ATOM      4  C   UNL     1       7.436   5.745  79.658  1.00  0.00     0.020 C 
BRANCH   4   5
ATOM      5  C   UNL     1       8.901   5.673  79.485  1.00  0.00     0.064 C 
ATOM      6  O   UNL     1       9.522   4.685  79.959  1.00  0.00    -0.545 OA
ATOM      7  O   UNL     1       9.623   6.670  78.842  1.00  0.00    -0.545 OA
ENDBRANCH   4   5
ENDBRANCH   2   3
ENDBRANCH   1   2
BRANCH   1   8
ATOM      8  C   UNL     1       5.358   8.567  81.942  1.00  0.00     0.000 C 
BRANCH   8   9
ATOM      9  C   UNL     1       4.723   9.902  82.350  1.00  0.00    -0.000 C 
BRANCH   9  10
ATOM     10  C   UNL     1       3.315   9.692  82.916  1.00  0.00    -0.003 C 
ATOM     11  C   UNL     1       2.357  10.773  82.426  1.00  0.00     0.004 C 
ENDBRANCH   9  10
ENDBRANCH   8   9
ENDBRANCH   1   8
TORSDOF 6
ENDMDL
MODEL 3
REMARK VINA RESULT:    -4.065      1.338      1.673
REMARK INTER + INTRA:          -5.778
REMARK INTER:                  -5.523
REMARK INTRA:                  -0.255
REMARK UNBOUND:                -0.287
REMARK SMILES CCCCCCC=CC(=O)[O-]
REMARK SMILES IDX 5 1 6 2 7 3 8 4 9 5 10 6 11 7 4 8 3 9 2 10 1 11
REMARK H PARENT
REMARK Flexibility Score: inf
ROOT
ATOM      1  C   UNL     1       7.007   8.694  81.514  1.00  0.00     0.004 C 
ENDROOT
BRANCH   1   2
ATOM      2  C   UNL     1       5.526   8.881  81.880  1.00  0.00     0.027 C 
BRANCH   2   3
ATOM      3  C   UNL     1       5.100  10.325  81.825  1.00  0.00    -0.025 C 
ATOM      4  C   UNL     1       4.059  10.868  82.475  1.00  0.00     0.020 C 
BRANCH   4   5
ATOM      5  C   UNL     1       3.150  10.178  83.414  1.00  0.00     0.064 C 
ATOM      6  O   UNL     1       2.188   9.512  82.950  1.00  0.00    -0.545 OA
ATOM      7  O   UNL     1       3.302  10.262  84.792  1.00  0.00    -0.545 OA
ENDBRANCH   4   5
ENDBRANCH   2   3
ENDBRANCH   1   2
BRANCH   1   8
ATOM      8  C   UNL     1       7.191   7.737  80.326  1.00  0.00     0.000 C 
BRANCH   8   9
ATOM      9  C   UNL     1       8.460   8.078  79.536  1.00  0.00    -0.000 C 
BRANCH   9  10
ATOM     10  C   UNL     1       9.164   6.807  79.050  1.00  0.00    -0.003 C 
ATOM     11  C   UNL     1       8.481   5.556  79.593  1.00  0.00     0.004 C 
ENDBRANCH   9  10
ENDBRANCH   8   9
ENDBRANCH   1   8
TORSDOF 6
ENDMDL
MODEL 4
REMARK VINA RESULT:    -4.029      1.465      1.883
REMARK INTER + INTRA:          -5.730
REMARK INTER:                  -5.272
REMARK INTRA:                  -0.458
REMARK UNBOUND:                -0.287
REMARK SMILES CCCCCCC=CC(=O)[O-]
REMARK SMILES IDX 5 1 6 2 7 3 8 4 9 5 10 6 11 7 4 8 3 9 2 10 1 11
REMARK H PARENT
REMARK Flexibility Score: inf
ROOT
ATOM      1  C   UNL     1       6.755   8.604  81.581  1.00  0.00     0.004 C 
ENDROOT
BRANCH   1   2
ATOM      2  C   UNL     1       5.301   9.014  81.862  1.00  0.00     0.027 C 
BRANCH   2   3
ATOM      3  C   UNL     1       5.209  10.279  82.675  1.00  0.00    -0.025 C 
ATOM      4  C   UNL     1       4.836  11.486  82.220  1.00  0.00     0.020 C 
BRANCH   4   5
ATOM      5  C   UNL     1       4.392  11.812  80.849  1.00  0.00     0.064 C 
ATOM      6  O   UNL     1       5.261  12.024  79.962  1.00  0.00    -0.545 OA
ATOM      7  O   UNL     1       3.050  11.921  80.508  1.00  0.00    -0.545 OA
ENDBRANCH   4   5
ENDBRANCH   2   3
ENDBRANCH   1   2
BRANCH   1   8
ATOM      8  C   UNL     1       7.247   9.120  80.221  1.00  0.00     0.000 C 
BRANCH   8   9
ATOM      9  C   UNL     1       7.660   7.959  79.308  1.00  0.00    -0.000 C 
BRANCH   9  10
ATOM     10  C   UNL     1       7.359   6.608  79.966  1.00  0.00    -0.003 C 
ATOM     11  C   UNL     1       8.426   5.575  79.617  1.00  0.00     0.004 C 
ENDBRANCH   9  10
ENDBRANCH   8   9
ENDBRANCH   1   8
TORSDOF 6
ENDMDL
MODEL 5
REMARK VINA RESULT:    -3.946      1.643      2.825
REMARK INTER + INTRA:          -5.618
REMARK INTER:                  -5.230
REMARK INTRA:                  -0.388
REMARK UNBOUND:                -0.287
REMARK SMILES CCCCCCC=CC(=O)[O-]
REMARK SMILES IDX 5 1 6 2 7 3 8 4 9 5 10 6 11 7 4 8 3 9 2 10 1 11
REMARK H PARENT
REMARK Flexibility Score: inf
ROOT
ATOM      1  C   UNL     1       5.402   8.734  81.999  1.00  0.00     0.004 C 
ENDROOT
BRANCH   1   2
ATOM      2  C   UNL     1       4.778  10.128  82.174  1.00  0.00     0.027 C 
BRANCH   2   3
ATOM      3  C   UNL     1       5.233  11.096  81.113  1.00  0.00    -0.025 C 
ATOM      4  C   UNL     1       4.481  12.046  80.534  1.00  0.00     0.020 C 
BRANCH   4   5
ATOM      5  C   UNL     1       3.075  12.370  80.851  1.00  0.00     0.064 C 
ATOM      6  O   UNL     1       2.824  13.058  81.876  1.00  0.00    -0.545 OA
ATOM      7  O   UNL     1       2.015  11.919  80.074  1.00  0.00    -0.545 OA
ENDBRANCH   4   5
ENDBRANCH   2   3
ENDBRANCH   1   2
BRANCH   1   8
ATOM      8  C   UNL     1       6.742   8.792  81.250  1.00  0.00     0.000 C 
BRANCH   8   9
ATOM      9  C   UNL     1       6.971   7.515  80.433  1.00  0.00    -0.000 C 
BRANCH   9  10
ATOM     10  C   UNL     1       8.309   7.570  79.689  1.00  0.00    -0.003 C 
ATOM     11  C   UNL     1       9.116   8.800  80.096  1.00  0.00     0.004 C 
ENDBRANCH   9  10
ENDBRANCH   8   9
ENDBRANCH   1   8
TORSDOF 6
ENDMDL
MODEL 6
REMARK VINA RESULT:    -3.907      7.184      8.647
REMARK INTER + INTRA:          -5.564
REMARK INTER:                  -5.205
REMARK INTRA:                  -0.359
REMARK UNBOUND:                -0.287
REMARK SMILES CCCCCCC=CC(=O)[O-]
REMARK SMILES IDX 5 1 6 2 7 3 8 4 9 5 10 6 11 7 4 8 3 9 2 10 1 11
REMARK H PARENT
REMARK Flexibility Score: inf
ROOT
ATOM      1  C   UNL     1       1.598   3.828  87.469  1.00  0.00     0.004 C 
ENDROOT
BRANCH   1   2
ATOM      2  C   UNL     1       1.447   5.142  86.685  1.00  0.00     0.027 C 
BRANCH   2   3
ATOM      3  C   UNL     1       2.555   5.342  85.685  1.00  0.00    -0.025 C 
ATOM      4  C   UNL     1       2.964   6.518  85.182  1.00  0.00     0.020 C 
BRANCH   4   5
ATOM      5  C   UNL     1       2.450   7.856  85.541  1.00  0.00     0.064 C 
ATOM      6  O   UNL     1       2.764   8.349  86.656  1.00  0.00    -0.545 OA
ATOM      7  O   UNL     1       1.608   8.576  84.704  1.00  0.00    -0.545 OA
ENDBRANCH   4   5
ENDBRANCH   2   3
ENDBRANCH   1   2
BRANCH   1   8
ATOM      8  C   UNL     1       2.886   3.079  87.096  1.00  0.00     0.000 C 
BRANCH   8   9
ATOM      9  C   UNL     1       3.066   1.828  87.964  1.00  0.00    -0.000 C 
BRANCH   9  10
ATOM     10  C   UNL     1       1.848   1.604  88.866  1.00  0.00    -0.003 C 
ATOM     11  C   UNL     1       1.807   0.173  89.393  1.00  0.00     0.004 C 
ENDBRANCH   9  10
ENDBRANCH   8   9
ENDBRANCH   1   8
TORSDOF 6
ENDMDL
MODEL 7
REMARK VINA RESULT:    -3.906      6.811      8.137
REMARK INTER + INTRA:          -5.564
REMARK INTER:                  -5.169
REMARK INTRA:                  -0.394
REMARK UNBOUND:                -0.287
REMARK SMILES CCCCCCC=CC(=O)[O-]
REMARK SMILES IDX 5 1 6 2 7 3 8 4 9 5 10 6 11 7 4 8 3 9 2 10 1 11
REMARK H PARENT
REMARK Flexibility Score: inf
ROOT
ATOM      1  C   UNL     1       2.712   5.268  85.576  1.00  0.00     0.004 C 
ENDROOT
BRANCH   1   2
ATOM      2  C   UNL     1       2.292   6.724  85.833  1.00  0.00     0.027 C 
BRANCH   2   3
ATOM      3  C   UNL     1       1.243   6.836  86.909  1.00  0.00    -0.025 C 
ATOM      4  C   UNL     1       1.103   7.853  87.775  1.00  0.00     0.020 C 
BRANCH   4   5
ATOM      5  C   UNL     1       1.911   9.088  87.820  1.00  0.00     0.064 C 
ATOM      6  O   UNL     1       2.803   9.201  88.701  1.00  0.00    -0.545 OA
ATOM      7  O   UNL     1       1.703  10.144  86.942  1.00  0.00    -0.545 OA
ENDBRANCH   4   5
ENDBRANCH   2   3
ENDBRANCH   1   2
BRANCH   1   8
ATOM      8  C   UNL     1       2.299   4.337  86.727  1.00  0.00     0.000 C 
BRANCH   8   9
ATOM      9  C   UNL     1       3.210   3.105  86.791  1.00  0.00    -0.000 C 
BRANCH   9  10
ATOM     10  C   UNL     1       2.784   2.165  87.924  1.00  0.00    -0.003 C 
ATOM     11  C   UNL     1       1.606   2.739  88.704  1.00  0.00     0.004 C 
ENDBRANCH   9  10
ENDBRANCH   8   9
ENDBRANCH   1   8
TORSDOF 6
ENDMDL
MODEL 8
REMARK VINA RESULT:    -3.863      3.089      5.701
REMARK INTER + INTRA:          -5.505
REMARK INTER:                  -5.148
REMARK INTRA:                  -0.357
REMARK UNBOUND:                -0.287
REMARK SMILES CCCCCCC=CC(=O)[O-]
REMARK SMILES IDX 5 1 6 2 7 3 8 4 9 5 10 6 11 7 4 8 3 9 2 10 1 11
REMARK H PARENT
REMARK Flexibility Score: inf
ROOT
ATOM      1  C   UNL     1       5.338   8.917  82.005  1.00  0.00     0.004 C 
ENDROOT
BRANCH   1   2
ATOM      2  C   UNL     1       6.805   8.601  81.674  1.00  0.00     0.027 C 
BRANCH   2   3
ATOM      3  C   UNL     1       6.941   7.723  80.458  1.00  0.00    -0.025 C 
ATOM      4  C   UNL     1       7.940   7.763  79.561  1.00  0.00     0.020 C 
BRANCH   4   5
ATOM      5  C   UNL     1       9.131   8.636  79.608  1.00  0.00     0.064 C 
ATOM      6  O   UNL     1      10.274   8.108  79.621  1.00  0.00    -0.545 OA
ATOM      7  O   UNL     1       9.035  10.021  79.668  1.00  0.00    -0.545 OA
ENDBRANCH   4   5
ENDBRANCH   2   3
ENDBRANCH   1   2
BRANCH   1   8
ATOM      8  C   UNL     1       5.142  10.386  82.410  1.00  0.00     0.000 C 
BRANCH   8   9
ATOM      9  C   UNL     1       4.025  11.040  81.589  1.00  0.00    -0.000 C 
BRANCH   9  10
ATOM     10  C   UNL     1       4.556  12.235  80.790  1.00  0.00    -0.003 C 
ATOM     11  C   UNL     1       5.763  11.842  79.945  1.00  0.00     0.004 C 
ENDBRANCH   9  10
ENDBRANCH   8   9
ENDBRANCH   1   8
TORSDOF 6
ENDMDL
MODEL 9
REMARK VINA RESULT:    -3.858      5.867      6.963
REMARK INTER + INTRA:          -5.498
REMARK INTER:                  -5.080
REMARK INTRA:                  -0.418
REMARK UNBOUND:                -0.287
REMARK SMILES CCCCCCC=CC(=O)[O-]
REMARK SMILES IDX 5 1 6 2 7 3 8 4 9 5 10 6 11 7 4 8 3 9 2 10 1 11
REMARK H PARENT
REMARK Flexibility Score: inf
ROOT
ATOM      1  C   UNL     1       2.949   6.408  85.318  1.00  0.00     0.004 C 
ENDROOT
BRANCH   1   2
ATOM      2  C   UNL     1       1.915   7.329  85.987  1.00  0.00     0.027 C 
BRANCH   2   3
ATOM      3  C   UNL     1       2.560   8.464  86.738  1.00  0.00    -0.025 C 
ATOM      4  C   UNL     1       2.814   9.690  86.252  1.00  0.00     0.020 C 
BRANCH   4   5
ATOM      5  C   UNL     1       2.468  10.193  84.907  1.00  0.00     0.064 C 
ATOM      6  O   UNL     1       3.172   9.837  83.925  1.00  0.00    -0.545 OA
ATOM      7  O   UNL     1       1.412  11.069  84.690  1.00  0.00    -0.545 OA
ENDBRANCH   4   5
ENDBRANCH   2   3
ENDBRANCH   1   2
BRANCH   1   8
ATOM      8  C   UNL     1       2.686   4.926  85.627  1.00  0.00     0.000 C 
BRANCH   8   9
ATOM      9  C   UNL     1       1.749   4.773  86.831  1.00  0.00    -0.000 C 
BRANCH   9  10
ATOM     10  C   UNL     1       1.955   3.421  87.521  1.00  0.00    -0.003 C 
ATOM     11  C   UNL     1       3.297   2.805  87.137  1.00  0.00     0.004 C 
ENDBRANCH   9  10
ENDBRANCH   8   9
ENDBRANCH   1   8
TORSDOF 6
ENDMDL
