MODEL 1
REMARK VINA RESULT:    -3.527      0.000      0.000
REMARK INTER + INTRA:          -4.759
REMARK INTER:                  -4.249
REMARK INTRA:                  -0.511
REMARK UNBOUND:                -0.511
REMARK SMILES NC(=O)C[C@@H]([NH3+])C(=O)[O-]
REMARK SMILES IDX 4 1 5 2 6 3 7 7 8 8 9 9 2 10 3 11 1 12
REMARK H PARENT 6 4 6 5 6 6 1 13 1 14
REMARK Flexibility Score: inf
ROOT
ATOM      1  C   UNL     1       0.676   9.881  -4.219  1.00  0.00     0.171 C 
ENDROOT
BRANCH   1   2
ATOM      2  C   UNL     1       0.539  11.386  -3.907  1.00  0.00     0.237 C 
BRANCH   2   3
ATOM      3  N   UNL     1       0.759  11.672  -2.482  1.00  0.00    -0.350 N 
ATOM      4  H   UNL     1       0.630  10.812  -1.899  1.00  0.00     0.345 HD
ATOM      5  H   UNL     1       1.731  12.032  -2.342  1.00  0.00     0.345 HD
ATOM      6  H   UNL     1       0.088  12.407  -2.160  1.00  0.00     0.345 HD
ENDBRANCH   2   3
BRANCH   2   7
ATOM      7  C   UNL     1       1.446  12.216  -4.781  1.00  0.00     0.100 C 
ATOM      8  O   UNL     1       2.698  12.158  -4.651  1.00  0.00    -0.544 OA
ATOM      9  O   UNL     1       0.899  13.016  -5.777  1.00  0.00    -0.544 OA
ENDBRANCH   2   7
ENDBRANCH   1   2
BRANCH   1  10
ATOM     10  C   UNL     1       1.592   9.158  -3.271  1.00  0.00     0.223 C 
ATOM     11  O   UNL     1       1.117   8.587  -2.253  1.00  0.00    -0.275 OA
ATOM     12  N   UNL     1       3.000   9.128  -3.503  1.00  0.00    -0.369 N 
ATOM     13  H   UNL     1       3.635   8.636  -2.837  1.00  0.00     0.159 HD
ATOM     14  H   UNL     1       3.413   9.598  -4.341  1.00  0.00     0.159 HD
ENDBRANCH   1  10
TORSDOF 4
ENDMDL
MODEL 2
REMARK VINA RESULT:    -3.414     14.937     15.365
REMARK INTER + INTRA:          -4.623
REMARK INTER:                  -4.394
REMARK INTRA:                  -0.229
REMARK UNBOUND:                -0.511
REMARK SMILES NC(=O)C[C@@H]([NH3+])C(=O)[O-]
REMARK SMILES IDX 4 1 5 2 6 3 7 7 8 8 9 9 2 10 3 11 1 12
REMARK H PARENT 6 4 6 5 6 6 1 13 1 14
REMARK Flexibility Score: inf
ROOT
ATOM      1  C   UNL     1       6.137   6.181 -16.960  1.00  0.00     0.171 C 
ENDROOT
BRANCH   1   2
ATOM      2  C   UNL     1       5.193   6.647 -18.089  1.00  0.00     0.237 C 
BRANCH   2   3
ATOM      3  N   UNL     1       3.847   6.076 -17.948  1.00  0.00    -0.350 N 
ATOM      4  H   UNL     1       3.118   6.827 -17.913  1.00  0.00     0.345 HD
ATOM      5  H   UNL     1       3.645   5.447 -18.759  1.00  0.00     0.345 HD
ATOM      6  H   UNL     1       3.793   5.507 -17.072  1.00  0.00     0.345 HD
ENDBRANCH   2   3
BRANCH   2   7
ATOM      7  C   UNL     1       5.146   8.151 -18.183  1.00  0.00     0.100 C 
ATOM      8  O   UNL     1       4.048   8.756 -18.304  1.00  0.00    -0.544 OA
ATOM      9  O   UNL     1       6.322   8.885 -18.084  1.00  0.00    -0.544 OA
ENDBRANCH   2   7
ENDBRANCH   1   2
BRANCH   1  10
ATOM     10  C   UNL     1       7.475   5.710 -17.460  1.00  0.00     0.223 C 
ATOM     11  O   UNL     1       8.125   4.855 -16.801  1.00  0.00    -0.275 OA
ATOM     12  N   UNL     1       8.025   6.238 -18.667  1.00  0.00    -0.369 N 
ATOM     13  H   UNL     1       8.960   5.918 -19.005  1.00  0.00     0.159 HD
ATOM     14  H   UNL     1       7.501   6.949 -19.226  1.00  0.00     0.159 HD
ENDBRANCH   1  10
TORSDOF 4
ENDMDL
MODEL 3
REMARK VINA RESULT:    -3.351     14.878     15.582
REMARK INTER + INTRA:          -4.548
REMARK INTER:                  -4.233
REMARK INTRA:                  -0.315
REMARK UNBOUND:                -0.511
REMARK SMILES NC(=O)C[C@@H]([NH3+])C(=O)[O-]
REMARK SMILES IDX 4 1 5 2 6 3 7 7 8 8 9 9 2 10 3 11 1 12
REMARK H PARENT 6 4 6 5 6 6 1 13 1 14
REMARK Flexibility Score: inf
ROOT
ATOM      1  C   UNL     1       5.782   6.334 -19.053  1.00  0.00     0.171 C 
ENDROOT
BRANCH   1   2
ATOM      2  C   UNL     1       7.086   6.916 -18.467  1.00  0.00     0.237 C 
BRANCH   2   3
ATOM      3  N   UNL     1       7.213   8.355 -18.737  1.00  0.00    -0.350 N 
ATOM      4  H   UNL     1       7.497   8.878 -17.876  1.00  0.00     0.345 HD
ATOM      5  H   UNL     1       7.934   8.511 -19.479  1.00  0.00     0.345 HD
ATOM      6  H   UNL     1       6.301   8.733 -19.082  1.00  0.00     0.345 HD
ENDBRANCH   2   3
BRANCH   2   7
ATOM      7  C   UNL     1       7.212   6.618 -16.994  1.00  0.00     0.100 C 
ATOM      8  O   UNL     1       7.601   7.504 -16.188  1.00  0.00    -0.544 OA
ATOM      9  O   UNL     1       6.844   5.368 -16.510  1.00  0.00    -0.544 OA
ENDBRANCH   2   7
ENDBRANCH   1   2
BRANCH   1  10
ATOM     10  C   UNL     1       4.541   6.936 -18.453  1.00  0.00     0.223 C 
ATOM     11  O   UNL     1       4.436   8.188 -18.356  1.00  0.00    -0.275 OA
ATOM     12  N   UNL     1       3.488   6.101 -17.973  1.00  0.00    -0.369 N 
ATOM     13  H   UNL     1       2.633   6.521 -17.546  1.00  0.00     0.159 HD
ATOM     14  H   UNL     1       3.559   5.060 -18.043  1.00  0.00     0.159 HD
ENDBRANCH   1  10
TORSDOF 4
ENDMDL
MODEL 4
REMARK VINA RESULT:    -3.321     14.651     15.314
REMARK INTER + INTRA:          -4.511
REMARK INTER:                  -4.452
REMARK INTRA:                  -0.059
REMARK UNBOUND:                -0.511
REMARK SMILES NC(=O)C[C@@H]([NH3+])C(=O)[O-]
REMARK SMILES IDX 4 1 5 2 6 3 7 7 8 8 9 9 2 10 3 11 1 12
REMARK H PARENT 6 4 6 5 6 6 1 13 1 14
REMARK Flexibility Score: inf
ROOT
ATOM      1  C   UNL     1       4.562   6.229 -18.853  1.00  0.00     0.171 C 
ENDROOT
BRANCH   1   2
ATOM      2  C   UNL     1       5.292   6.708 -17.580  1.00  0.00     0.237 C 
BRANCH   2   3
ATOM      3  N   UNL     1       6.490   5.904 -17.301  1.00  0.00    -0.350 N 
ATOM      4  H   UNL     1       7.364   6.441 -17.510  1.00  0.00     0.345 HD
ATOM      5  H   UNL     1       6.499   5.625 -16.292  1.00  0.00     0.345 HD
ATOM      6  H   UNL     1       6.476   5.033 -17.880  1.00  0.00     0.345 HD
ENDBRANCH   2   3
BRANCH   2   7
ATOM      7  C   UNL     1       5.620   8.178 -17.651  1.00  0.00     0.100 C 
ATOM      8  O   UNL     1       4.780   9.045 -17.293  1.00  0.00    -0.544 OA
ATOM      9  O   UNL     1       6.883   8.583 -18.067  1.00  0.00    -0.544 OA
ENDBRANCH   2   7
ENDBRANCH   1   2
BRANCH   1  10
ATOM     10  C   UNL     1       3.066   6.356 -18.764  1.00  0.00     0.223 C 
ATOM     11  O   UNL     1       2.520   7.477 -18.944  1.00  0.00    -0.275 OA
ATOM     12  N   UNL     1       2.260   5.220 -18.456  1.00  0.00    -0.369 N 
ATOM     13  H   UNL     1       1.222   5.313 -18.383  1.00  0.00     0.159 HD
ATOM     14  H   UNL     1       2.694   4.282 -18.301  1.00  0.00     0.159 HD
ENDBRANCH   1  10
TORSDOF 4
ENDMDL
MODEL 5
REMARK VINA RESULT:    -3.320      2.029      2.275
REMARK INTER + INTRA:          -4.509
REMARK INTER:                  -4.072
REMARK INTRA:                  -0.438
REMARK UNBOUND:                -0.511
REMARK SMILES NC(=O)C[C@@H]([NH3+])C(=O)[O-]
REMARK SMILES IDX 4 1 5 2 6 3 7 7 8 8 9 9 2 10 3 11 1 12
REMARK H PARENT 6 4 6 5 6 6 1 13 1 14
REMARK Flexibility Score: inf
ROOT
ATOM      1  C   UNL     1       2.099  10.712  -2.740  1.00  0.00     0.171 C 
ENDROOT
BRANCH   1   2
ATOM      2  C   UNL     1       1.897  11.891  -3.715  1.00  0.00     0.237 C 
BRANCH   2   3
ATOM      3  N   UNL     1       3.115  12.177  -4.487  1.00  0.00    -0.350 N 
ATOM      4  H   UNL     1       2.941  12.087  -5.516  1.00  0.00     0.345 HD
ATOM      5  H   UNL     1       3.440  13.150  -4.283  1.00  0.00     0.345 HD
ATOM      6  H   UNL     1       3.875  11.514  -4.210  1.00  0.00     0.345 HD
ENDBRANCH   2   3
BRANCH   2   7
ATOM      7  C   UNL     1       0.713  11.664  -4.620  1.00  0.00     0.100 C 
ATOM      8  O   UNL     1       0.537  12.374  -5.644  1.00  0.00    -0.544 OA
ATOM      9  O   UNL     1      -0.170  10.624  -4.351  1.00  0.00    -0.544 OA
ENDBRANCH   2   7
ENDBRANCH   1   2
BRANCH   1  10
ATOM     10  C   UNL     1       2.764   9.522  -3.375  1.00  0.00     0.223 C 
ATOM     11  O   UNL     1       4.001   9.548  -3.612  1.00  0.00    -0.275 OA
ATOM     12  N   UNL     1       2.002   8.369  -3.731  1.00  0.00    -0.369 N 
ATOM     13  H   UNL     1       2.465   7.549  -4.183  1.00  0.00     0.159 HD
ATOM     14  H   UNL     1       0.975   8.330  -3.544  1.00  0.00     0.159 HD
ENDBRANCH   1  10
TORSDOF 4
ENDMDL
MODEL 6
REMARK VINA RESULT:    -3.260      1.727      2.043
REMARK INTER + INTRA:          -4.437
REMARK INTER:                  -3.972
REMARK INTRA:                  -0.465
REMARK UNBOUND:                -0.511
REMARK SMILES NC(=O)C[C@@H]([NH3+])C(=O)[O-]
REMARK SMILES IDX 4 1 5 2 6 3 7 7 8 8 9 9 2 10 3 11 1 12
REMARK H PARENT 6 4 6 5 6 6 1 13 1 14
REMARK Flexibility Score: inf
ROOT
ATOM      1  C   UNL     1       1.996  10.850  -3.283  1.00  0.00     0.171 C 
ENDROOT
BRANCH   1   2
ATOM      2  C   UNL     1       1.152  11.213  -4.524  1.00  0.00     0.237 C 
BRANCH   2   3
ATOM      3  N   UNL     1       0.010  10.303  -4.695  1.00  0.00    -0.350 N 
ATOM      4  H   UNL     1      -0.159   9.741  -3.828  1.00  0.00     0.345 HD
ATOM      5  H   UNL     1      -0.850  10.856  -4.913  1.00  0.00     0.345 HD
ATOM      6  H   UNL     1       0.192   9.653  -5.494  1.00  0.00     0.345 HD
ENDBRANCH   2   3
BRANCH   2   7
ATOM      7  C   UNL     1       0.707  12.653  -4.487  1.00  0.00     0.100 C 
ATOM      8  O   UNL     1       0.318  13.182  -3.412  1.00  0.00    -0.544 OA
ATOM      9  O   UNL     1       0.775  13.425  -5.641  1.00  0.00    -0.544 OA
ENDBRANCH   2   7
ENDBRANCH   1   2
BRANCH   1  10
ATOM     10  C   UNL     1       1.205  10.154  -2.210  1.00  0.00     0.223 C 
ATOM     11  O   UNL     1       0.983   8.917  -2.297  1.00  0.00    -0.275 OA
ATOM     12  N   UNL     1       0.687  10.887  -1.101  1.00  0.00    -0.369 N 
ATOM     13  H   UNL     1       0.128  10.403  -0.363  1.00  0.00     0.159 HD
ATOM     14  H   UNL     1       0.859  11.914  -1.012  1.00  0.00     0.159 HD
ENDBRANCH   1  10
TORSDOF 4
ENDMDL
MODEL 7
REMARK VINA RESULT:    -3.218      1.913      3.720
REMARK INTER + INTRA:          -4.387
REMARK INTER:                  -4.033
REMARK INTRA:                  -0.354
REMARK UNBOUND:                -0.511
REMARK SMILES NC(=O)C[C@@H]([NH3+])C(=O)[O-]
REMARK SMILES IDX 4 1 5 2 6 3 7 7 8 8 9 9 2 10 3 11 1 12
REMARK H PARENT 6 4 6 5 6 6 1 13 1 14
REMARK Flexibility Score: inf
ROOT
ATOM      1  C   UNL     1       2.355  11.958  -4.200  1.00  0.00     0.171 C 
ENDROOT
BRANCH   1   2
ATOM      2  C   UNL     1       1.415  11.634  -3.018  1.00  0.00     0.237 C 
BRANCH   2   3
ATOM      3  N   UNL     1       0.255  12.536  -2.979  1.00  0.00    -0.350 N 
ATOM      4  H   UNL     1      -0.054  12.712  -1.994  1.00  0.00     0.345 HD
ATOM      5  H   UNL     1       0.505  13.449  -3.423  1.00  0.00     0.345 HD
ATOM      6  H   UNL     1      -0.538  12.117  -3.516  1.00  0.00     0.345 HD
ENDBRANCH   2   3
BRANCH   2   7
ATOM      7  C   UNL     1       0.988  10.188  -3.032  1.00  0.00     0.100 C 
ATOM      8  O   UNL     1       0.915   9.526  -1.963  1.00  0.00    -0.544 OA
ATOM      9  O   UNL     1       0.620   9.590  -4.232  1.00  0.00    -0.544 OA
ENDBRANCH   2   7
ENDBRANCH   1   2
BRANCH   1  10
ATOM     10  C   UNL     1       1.739  12.882  -5.213  1.00  0.00     0.223 C 
ATOM     11  O   UNL     1       0.674  12.549  -5.799  1.00  0.00    -0.275 OA
ATOM     12  N   UNL     1       2.360  14.125  -5.533  1.00  0.00    -0.369 N 
ATOM     13  H   UNL     1       1.937  14.760  -6.247  1.00  0.00     0.159 HD
ATOM     14  H   UNL     1       3.245  14.418  -5.060  1.00  0.00     0.159 HD
ENDBRANCH   1  10
TORSDOF 4
ENDMDL
MODEL 8
REMARK VINA RESULT:    -3.193      1.702      2.380
REMARK INTER + INTRA:          -4.357
REMARK INTER:                  -3.935
REMARK INTRA:                  -0.422
REMARK UNBOUND:                -0.511
REMARK SMILES NC(=O)C[C@@H]([NH3+])C(=O)[O-]
REMARK SMILES IDX 4 1 5 2 6 3 7 7 8 8 9 9 2 10 3 11 1 12
REMARK H PARENT 6 4 6 5 6 6 1 13 1 14
REMARK Flexibility Score: inf
ROOT
ATOM      1  C   UNL     1       1.075  12.105  -3.381  1.00  0.00     0.171 C 
ENDROOT
BRANCH   1   2
ATOM      2  C   UNL     1       2.388  12.477  -4.102  1.00  0.00     0.237 C 
BRANCH   2   3
ATOM      3  N   UNL     1       3.357  11.372  -4.080  1.00  0.00    -0.350 N 
ATOM      4  H   UNL     1       3.986  11.436  -3.247  1.00  0.00     0.345 HD
ATOM      5  H   UNL     1       2.847  10.459  -4.049  1.00  0.00     0.345 HD
ATOM      6  H   UNL     1       3.938  11.393  -4.950  1.00  0.00     0.345 HD
ENDBRANCH   2   3
BRANCH   2   7
ATOM      7  C   UNL     1       2.130  12.956  -5.508  1.00  0.00     0.100 C 
ATOM      8  O   UNL     1       0.960  13.207  -5.900  1.00  0.00    -0.544 OA
ATOM      9  O   UNL     1       3.199  13.172  -6.370  1.00  0.00    -0.544 OA
ENDBRANCH   2   7
ENDBRANCH   1   2
BRANCH   1  10
ATOM     10  C   UNL     1       0.619  10.700  -3.664  1.00  0.00     0.223 C 
ATOM     11  O   UNL     1       0.869   9.782  -2.838  1.00  0.00    -0.275 OA
ATOM     12  N   UNL     1      -0.078  10.393  -4.871  1.00  0.00    -0.369 N 
ATOM     13  H   UNL     1      -0.382   9.414  -5.070  1.00  0.00     0.159 HD
ATOM     14  H   UNL     1      -0.292  11.141  -5.568  1.00  0.00     0.159 HD
ENDBRANCH   1  10
TORSDOF 4
ENDMDL
MODEL 9
REMARK VINA RESULT:    -3.112      1.577      3.997
REMARK INTER + INTRA:          -4.259
REMARK INTER:                  -3.991
REMARK INTRA:                  -0.268
REMARK UNBOUND:                -0.511
REMARK SMILES NC(=O)C[C@@H]([NH3+])C(=O)[O-]
REMARK SMILES IDX 4 1 5 2 6 3 7 7 8 8 9 9 2 10 3 11 1 12
REMARK H PARENT 6 4 6 5 6 6 1 13 1 14
REMARK Flexibility Score: inf
ROOT
ATOM      1  C   UNL     1       1.975  11.652  -3.822  1.00  0.00     0.171 C 
ENDROOT
BRANCH   1   2
ATOM      2  C   UNL     1       2.648  10.271  -3.663  1.00  0.00     0.237 C 
BRANCH   2   3
ATOM      3  N   UNL     1       4.113  10.365  -3.730  1.00  0.00    -0.350 N 
ATOM      4  H   UNL     1       4.423  10.822  -4.619  1.00  0.00     0.345 HD
ATOM      5  H   UNL     1       4.466  10.927  -2.921  1.00  0.00     0.345 HD
ATOM      6  H   UNL     1       4.533   9.409  -3.672  1.00  0.00     0.345 HD
ENDBRANCH   2   3
BRANCH   2   7
ATOM      7  C   UNL     1       2.197   9.579  -2.401  1.00  0.00     0.100 C 
ATOM      8  O   UNL     1       1.026   9.129  -2.295  1.00  0.00    -0.544 OA
ATOM      9  O   UNL     1       3.099   9.388  -1.361  1.00  0.00    -0.544 OA
ENDBRANCH   2   7
ENDBRANCH   1   2
BRANCH   1  10
ATOM     10  C   UNL     1       0.845  11.651  -4.814  1.00  0.00     0.223 C 
ATOM     11  O   UNL     1       0.715  12.614  -5.616  1.00  0.00    -0.275 OA
ATOM     12  N   UNL     1      -0.095  10.578  -4.842  1.00  0.00    -0.369 N 
ATOM     13  H   UNL     1      -0.886  10.587  -5.524  1.00  0.00     0.159 HD
ATOM     14  H   UNL     1      -0.005   9.772  -4.183  1.00  0.00     0.159 HD
ENDBRANCH   1  10
TORSDOF 4
ENDMDL
