MODEL 1
REMARK VINA RESULT:    -1.044      0.000      0.000
REMARK INTER + INTRA:          -1.044
REMARK INTER:                  -1.044
REMARK INTRA:                   0.000
REMARK UNBOUND:                 0.000
REMARK SMILES CC(=O)[O-]
REMARK SMILES IDX 1 1 2 2 3 3 4 4
REMARK H PARENT
REMARK Flexibility Score: inf
ROOT
ATOM      1  C   UNL     1      30.622 -11.092  16.307  1.00  0.00     0.063 C 
ATOM      2  C   UNL     1      30.120 -10.687  17.651  1.00  0.00     0.038 C 
ATOM      3  O   UNL     1      29.017 -11.125  18.072  1.00  0.00    -0.550 OA
ATOM      4  O   UNL     1      30.892  -9.869  18.466  1.00  0.00    -0.550 OA
ENDROOT
TORSDOF 0
ENDMDL
MODEL 2
REMARK VINA RESULT:    -1.007      1.483      2.090
REMARK INTER + INTRA:          -1.007
REMARK INTER:                  -1.007
REMARK INTRA:                   0.000
REMARK UNBOUND:                 0.000
REMARK SMILES CC(=O)[O-]
REMARK SMILES IDX 1 1 2 2 3 3 4 4
REMARK H PARENT
REMARK Flexibility Score: inf
ROOT
ATOM      1  C   UNL     1      31.080  -9.442  18.078  1.00  0.00     0.063 C 
ATOM      2  C   UNL     1      30.424 -10.593  17.395  1.00  0.00     0.038 C 
ATOM      3  O   UNL     1      30.963 -11.121  16.388  1.00  0.00    -0.550 OA
ATOM      4  O   UNL     1      29.242 -11.121  17.900  1.00  0.00    -0.550 OA
ENDROOT
TORSDOF 0
ENDMDL
MODEL 3
REMARK VINA RESULT:    -1.004      1.426      1.700
REMARK INTER + INTRA:          -1.004
REMARK INTER:                  -1.004
REMARK INTRA:                   0.000
REMARK UNBOUND:                 0.000
REMARK SMILES CC(=O)[O-]
REMARK SMILES IDX 1 1 2 2 3 3 4 4
REMARK H PARENT
REMARK Flexibility Score: inf
ROOT
ATOM      1  C   UNL     1      28.921 -10.793  17.990  1.00  0.00     0.063 C 
ATOM      2  C   UNL     1      30.365 -10.531  17.725  1.00  0.00     0.038 C 
ATOM      3  O   UNL     1      30.891 -10.926  16.651  1.00  0.00    -0.550 OA
ATOM      4  O   UNL     1      31.120  -9.805  18.636  1.00  0.00    -0.550 OA
ENDROOT
TORSDOF 0
ENDMDL
MODEL 4
REMARK VINA RESULT:    -0.935      0.740      1.775
REMARK INTER + INTRA:          -0.935
REMARK INTER:                  -0.935
REMARK INTRA:                   0.000
REMARK UNBOUND:                 0.000
REMARK SMILES CC(=O)[O-]
REMARK SMILES IDX 1 1 2 2 3 3 4 4
REMARK H PARENT
REMARK Flexibility Score: inf
ROOT
ATOM      1  C   UNL     1      30.716  -9.892  16.477  1.00  0.00     0.063 C 
ATOM      2  C   UNL     1      30.417 -10.218  17.901  1.00  0.00     0.038 C 
ATOM      3  O   UNL     1      31.091  -9.691  18.825  1.00  0.00    -0.550 OA
ATOM      4  O   UNL     1      29.359 -11.061  18.215  1.00  0.00    -0.550 OA
ENDROOT
TORSDOF 0
ENDMDL
MODEL 5
REMARK VINA RESULT:    -0.896      1.794      2.076
REMARK INTER + INTRA:          -0.896
REMARK INTER:                  -0.896
REMARK INTRA:                   0.000
REMARK UNBOUND:                 0.000
REMARK SMILES CC(=O)[O-]
REMARK SMILES IDX 1 1 2 2 3 3 4 4
REMARK H PARENT
REMARK Flexibility Score: inf
ROOT
ATOM      1  C   UNL     1      29.218 -10.964  18.194  1.00  0.00     0.063 C 
ATOM      2  C   UNL     1      29.719 -10.816  16.798  1.00  0.00     0.038 C 
ATOM      3  O   UNL     1      28.961 -10.366  15.899  1.00  0.00    -0.550 OA
ATOM      4  O   UNL     1      31.039 -11.124  16.495  1.00  0.00    -0.550 OA
ENDROOT
TORSDOF 0
ENDMDL
MODEL 6
REMARK VINA RESULT:    -0.885      1.319      2.014
REMARK INTER + INTRA:          -0.885
REMARK INTER:                  -0.885
REMARK INTRA:                   0.000
REMARK UNBOUND:                 0.000
REMARK SMILES CC(=O)[O-]
REMARK SMILES IDX 1 1 2 2 3 3 4 4
REMARK H PARENT
REMARK Flexibility Score: inf
ROOT
ATOM      1  C   UNL     1      30.255 -11.124  14.981  1.00  0.00     0.063 C 
ATOM      2  C   UNL     1      29.932 -10.760  16.390  1.00  0.00     0.038 C 
ATOM      3  O   UNL     1      30.850 -10.672  17.246  1.00  0.00    -0.550 OA
ATOM      4  O   UNL     1      28.623 -10.465  16.751  1.00  0.00    -0.550 OA
ENDROOT
TORSDOF 0
ENDMDL
MODEL 7
REMARK VINA RESULT:    -0.778      6.205      6.643
REMARK INTER + INTRA:          -0.778
REMARK INTER:                  -0.778
REMARK INTRA:                   0.000
REMARK UNBOUND:                 0.000
REMARK SMILES CC(=O)[O-]
REMARK SMILES IDX 1 1 2 2 3 3 4 4
REMARK H PARENT
REMARK Flexibility Score: inf
ROOT
ATOM      1  C   UNL     1      31.125  -8.884  23.665  1.00  0.00     0.063 C 
ATOM      2  C   UNL     1      30.727 -10.269  24.047  1.00  0.00     0.038 C 
ATOM      3  O   UNL     1      30.280 -11.060  23.176  1.00  0.00    -0.550 OA
ATOM      4  O   UNL     1      30.899 -10.708  25.353  1.00  0.00    -0.550 OA
ENDROOT
TORSDOF 0
ENDMDL
MODEL 8
REMARK VINA RESULT:    -0.744      3.575      3.817
REMARK INTER + INTRA:          -0.744
REMARK INTER:                  -0.744
REMARK INTRA:                   0.000
REMARK UNBOUND:                 0.000
REMARK SMILES CC(=O)[O-]
REMARK SMILES IDX 1 1 2 2 3 3 4 4
REMARK H PARENT
REMARK Flexibility Score: inf
ROOT
ATOM      1  C   UNL     1      29.298 -11.125  13.004  1.00  0.00     0.063 C 
ATOM      2  C   UNL     1      30.079 -10.448  14.079  1.00  0.00     0.038 C 
ATOM      3  O   UNL     1      29.767  -9.287  14.451  1.00  0.00    -0.550 OA
ATOM      4  O   UNL     1      31.120 -11.118  14.710  1.00  0.00    -0.550 OA
ENDROOT
TORSDOF 0
ENDMDL
