MODEL 1
REMARK VINA RESULT:    -4.527      0.000      0.000
REMARK INTER + INTRA:          -9.985
REMARK INTER:                  -8.233
REMARK INTRA:                  -1.752
REMARK UNBOUND:                -1.752
REMARK SMILES CCCCCCCCCCCCCCCC(=O)[O-]
REMARK SMILES IDX 9 1 10 2 11 3 12 4 13 5 14 6 15 7 16 8 17 9 18 10 8 11 7 12
REMARK SMILES IDX 6 13 5 14 4 15 3 16 2 17 1 18
REMARK H PARENT
REMARK Flexibility Score: inf
ROOT
ATOM      1  C   UNL     1      14.334   2.403   2.488  1.00  0.00     0.000 C 
ENDROOT
BRANCH   1   2
ATOM      2  C   UNL     1      13.024   3.013   1.962  1.00  0.00     0.000 C 
BRANCH   2   3
ATOM      3  C   UNL     1      12.303   3.871   3.018  1.00  0.00     0.000 C 
BRANCH   3   4
ATOM      4  C   UNL     1      11.354   4.905   2.390  1.00  0.00     0.000 C 
BRANCH   4   5
ATOM      5  C   UNL     1      11.295   4.800   0.860  1.00  0.00     0.000 C 
BRANCH   5   6
ATOM      6  C   UNL     1       9.923   4.288   0.396  1.00  0.00     0.006 C 
BRANCH   6   7
ATOM      7  C   UNL     1       9.851   4.115  -1.126  1.00  0.00     0.053 C 
BRANCH   7   8
ATOM      8  C   UNL     1       9.420   5.377  -1.809  1.00  0.00     0.041 C 
ATOM      9  O   UNL     1      10.196   5.960  -2.612  1.00  0.00    -0.550 OA
ATOM     10  O   UNL     1       8.176   5.930  -1.532  1.00  0.00    -0.550 OA
ENDBRANCH   7   8
ENDBRANCH   6   7
ENDBRANCH   5   6
ENDBRANCH   4   5
ENDBRANCH   3   4
ENDBRANCH   2   3
ENDBRANCH   1   2
BRANCH   1  11
ATOM     11  C   UNL     1      15.561   2.853   1.678  1.00  0.00     0.000 C 
BRANCH  11  12
ATOM     12  C   UNL     1      15.217   3.930   0.637  1.00  0.00    -0.000 C 
BRANCH  12  13
ATOM     13  C   UNL     1      16.138   3.880  -0.596  1.00  0.00    -0.000 C 
BRANCH  13  14
ATOM     14  C   UNL     1      15.365   3.652  -1.905  1.00  0.00    -0.000 C 
BRANCH  14  15
ATOM     15  C   UNL     1      13.913   3.206  -1.660  1.00  0.00    -0.000 C 
BRANCH  15  16
ATOM     16  C   UNL     1      13.588   1.861  -2.331  1.00  0.00    -0.000 C 
BRANCH  16  17
ATOM     17  C   UNL     1      14.341   0.684  -1.695  1.00  0.00    -0.003 C 
ATOM     18  C   UNL     1      15.238  -0.010  -2.716  1.00  0.00     0.004 C 
ENDBRANCH  16  17
ENDBRANCH  15  16
ENDBRANCH  14  15
ENDBRANCH  13  14
ENDBRANCH  12  13
ENDBRANCH  11  12
ENDBRANCH   1  11
TORSDOF 14
ENDMDL
MODEL 2
REMARK VINA RESULT:    -4.484      1.351      2.537
REMARK INTER + INTRA:          -9.905
REMARK INTER:                  -7.769
REMARK INTRA:                  -2.136
REMARK UNBOUND:                -1.752
REMARK SMILES CCCCCCCCCCCCCCCC(=O)[O-]
REMARK SMILES IDX 9 1 10 2 11 3 12 4 13 5 14 6 15 7 16 8 17 9 18 10 8 11 7 12
REMARK SMILES IDX 6 13 5 14 4 15 3 16 2 17 1 18
REMARK H PARENT
REMARK Flexibility Score: inf
ROOT
ATOM      1  C   UNL     1      15.567   4.121   0.498  1.00  0.00     0.000 C 
ENDROOT
BRANCH   1   2
ATOM      2  C   UNL     1      15.259   3.066   1.573  1.00  0.00     0.000 C 
BRANCH   2   3
ATOM      3  C   UNL     1      13.795   3.111   2.047  1.00  0.00     0.000 C 
BRANCH   3   4
ATOM      4  C   UNL     1      13.137   4.478   1.801  1.00  0.00     0.000 C 
BRANCH   4   5
ATOM      5  C   UNL     1      11.826   4.652   2.581  1.00  0.00     0.000 C 
BRANCH   5   6
ATOM      6  C   UNL     1      10.612   4.337   1.694  1.00  0.00     0.006 C 
BRANCH   6   7
ATOM      7  C   UNL     1      10.731   4.969   0.301  1.00  0.00     0.053 C 
BRANCH   7   8
ATOM      8  C   UNL     1       9.700   6.036   0.085  1.00  0.00     0.041 C 
ATOM      9  O   UNL     1       9.053   6.497   1.062  1.00  0.00    -0.550 OA
ATOM     10  O   UNL     1       9.430   6.494  -1.197  1.00  0.00    -0.550 OA
ENDBRANCH   7   8
ENDBRANCH   6   7
ENDBRANCH   5   6
ENDBRANCH   4   5
ENDBRANCH   3   4
ENDBRANCH   2   3
ENDBRANCH   1   2
BRANCH   1  11
ATOM     11  C   UNL     1      16.348   3.539  -0.692  1.00  0.00     0.000 C 
BRANCH  11  12
ATOM     12  C   UNL     1      16.527   2.016  -0.592  1.00  0.00    -0.000 C 
BRANCH  12  13
ATOM     13  C   UNL     1      16.864   1.368  -1.947  1.00  0.00    -0.000 C 
BRANCH  13  14
ATOM     14  C   UNL     1      15.796   0.360  -2.404  1.00  0.00    -0.000 C 
BRANCH  14  15
ATOM     15  C   UNL     1      14.716   0.121  -1.335  1.00  0.00    -0.000 C 
BRANCH  15  16
ATOM     16  C   UNL     1      13.304   0.472  -1.834  1.00  0.00    -0.000 C 
BRANCH  16  17
ATOM     17  C   UNL     1      12.700   1.680  -1.103  1.00  0.00    -0.003 C 
ATOM     18  C   UNL     1      13.043   2.982  -1.821  1.00  0.00     0.004 C 
ENDBRANCH  16  17
ENDBRANCH  15  16
ENDBRANCH  14  15
ENDBRANCH  13  14
ENDBRANCH  12  13
ENDBRANCH  11  12
ENDBRANCH   1  11
TORSDOF 14
ENDMDL
MODEL 3
REMARK VINA RESULT:    -4.479      1.500      2.782
REMARK INTER + INTRA:          -9.897
REMARK INTER:                  -7.750
REMARK INTRA:                  -2.147
REMARK UNBOUND:                -1.752
REMARK SMILES CCCCCCCCCCCCCCCC(=O)[O-]
REMARK SMILES IDX 9 1 10 2 11 3 12 4 13 5 14 6 15 7 16 8 17 9 18 10 8 11 7 12
REMARK SMILES IDX 6 13 5 14 4 15 3 16 2 17 1 18
REMARK H PARENT
REMARK Flexibility Score: inf
ROOT
ATOM      1  C   UNL     1      16.365   2.100  -0.057  1.00  0.00     0.000 C 
ENDROOT
BRANCH   1   2
ATOM      2  C   UNL     1      15.508   2.054   1.219  1.00  0.00     0.000 C 
BRANCH   2   3
ATOM      3  C   UNL     1      15.324   3.440   1.862  1.00  0.00     0.000 C 
BRANCH   3   4
ATOM      4  C   UNL     1      13.896   3.984   1.693  1.00  0.00     0.000 C 
BRANCH   4   5
ATOM      5  C   UNL     1      12.823   2.930   1.998  1.00  0.00     0.000 C 
BRANCH   5   6
ATOM      6  C   UNL     1      11.582   3.577   2.633  1.00  0.00     0.006 C 
BRANCH   6   7
ATOM      7  C   UNL     1      11.342   5.003   2.119  1.00  0.00     0.053 C 
BRANCH   7   8
ATOM      8  C   UNL     1      10.272   5.041   1.070  1.00  0.00     0.041 C 
ATOM      9  O   UNL     1       9.429   4.109   0.990  1.00  0.00    -0.550 OA
ATOM     10  O   UNL     1      10.228   6.087   0.158  1.00  0.00    -0.550 OA
ENDBRANCH   7   8
ENDBRANCH   6   7
ENDBRANCH   5   6
ENDBRANCH   4   5
ENDBRANCH   3   4
ENDBRANCH   2   3
ENDBRANCH   1   2
BRANCH   1  11
ATOM     11  C   UNL     1      16.251   3.445  -0.794  1.00  0.00     0.000 C 
BRANCH  11  12
ATOM     12  C   UNL     1      15.557   3.311  -2.160  1.00  0.00    -0.000 C 
BRANCH  12  13
ATOM     13  C   UNL     1      14.060   3.666  -2.101  1.00  0.00    -0.000 C 
BRANCH  13  14
ATOM     14  C   UNL     1      13.177   2.454  -1.757  1.00  0.00    -0.000 C 
BRANCH  14  15
ATOM     15  C   UNL     1      13.546   1.205  -2.577  1.00  0.00    -0.000 C 
BRANCH  15  16
ATOM     16  C   UNL     1      13.683  -0.053  -1.704  1.00  0.00    -0.000 C 
BRANCH  16  17
ATOM     17  C   UNL     1      15.021  -0.778  -1.915  1.00  0.00    -0.003 C 
ATOM     18  C   UNL     1      15.682  -0.340  -3.219  1.00  0.00     0.004 C 
ENDBRANCH  16  17
ENDBRANCH  15  16
ENDBRANCH  14  15
ENDBRANCH  13  14
ENDBRANCH  12  13
ENDBRANCH  11  12
ENDBRANCH   1  11
TORSDOF 14
ENDMDL
MODEL 4
REMARK VINA RESULT:    -4.426      1.345      2.275
REMARK INTER + INTRA:          -9.800
REMARK INTER:                  -7.893
REMARK INTRA:                  -1.908
REMARK UNBOUND:                -1.752
REMARK SMILES CCCCCCCCCCCCCCCC(=O)[O-]
REMARK SMILES IDX 9 1 10 2 11 3 12 4 13 5 14 6 15 7 16 8 17 9 18 10 8 11 7 12
REMARK SMILES IDX 6 13 5 14 4 15 3 16 2 17 1 18
REMARK H PARENT
REMARK Flexibility Score: inf
ROOT
ATOM      1  C   UNL     1      14.327   3.311   0.783  1.00  0.00     0.000 C 
ENDROOT
BRANCH   1   2
ATOM      2  C   UNL     1      13.635   4.526   1.423  1.00  0.00     0.000 C 
BRANCH   2   3
ATOM      3  C   UNL     1      12.646   4.129   2.534  1.00  0.00     0.000 C 
BRANCH   3   4
ATOM      4  C   UNL     1      11.297   4.855   2.410  1.00  0.00     0.000 C 
BRANCH   4   5
ATOM      5  C   UNL     1      10.891   5.101   0.950  1.00  0.00     0.000 C 
BRANCH   5   6
ATOM      6  C   UNL     1       9.939   4.003   0.452  1.00  0.00     0.006 C 
BRANCH   6   7
ATOM      7  C   UNL     1       9.858   3.954  -1.080  1.00  0.00     0.053 C 
BRANCH   7   8
ATOM      8  C   UNL     1       9.389   5.257  -1.653  1.00  0.00     0.041 C 
ATOM      9  O   UNL     1       8.230   5.678  -1.401  1.00  0.00    -0.550 OA
ATOM     10  O   UNL     1      10.218   5.986  -2.494  1.00  0.00    -0.550 OA
ENDBRANCH   7   8
ENDBRANCH   6   7
ENDBRANCH   5   6
ENDBRANCH   4   5
ENDBRANCH   3   4
ENDBRANCH   2   3
ENDBRANCH   1   2
BRANCH   1  11
ATOM     11  C   UNL     1      13.536   2.007   0.986  1.00  0.00     0.000 C 
BRANCH  11  12
ATOM     12  C   UNL     1      12.706   1.623  -0.250  1.00  0.00    -0.000 C 
BRANCH  12  13
ATOM     13  C   UNL     1      13.223   2.286  -1.540  1.00  0.00    -0.000 C 
BRANCH  13  14
ATOM     14  C   UNL     1      13.616   1.259  -2.616  1.00  0.00    -0.000 C 
BRANCH  14  15
ATOM     15  C   UNL     1      14.599   0.199  -2.088  1.00  0.00    -0.000 C 
BRANCH  15  16
ATOM     16  C   UNL     1      16.039   0.437  -2.572  1.00  0.00    -0.000 C 
BRANCH  16  17
ATOM     17  C   UNL     1      16.788   1.472  -1.719  1.00  0.00    -0.003 C 
ATOM     18  C   UNL     1      18.293   1.224  -1.753  1.00  0.00     0.004 C 
ENDBRANCH  16  17
ENDBRANCH  15  16
ENDBRANCH  14  15
ENDBRANCH  13  14
ENDBRANCH  12  13
ENDBRANCH  11  12
ENDBRANCH   1  11
TORSDOF 14
ENDMDL
MODEL 5
REMARK VINA RESULT:    -4.426      2.507      5.890
REMARK INTER + INTRA:          -9.800
REMARK INTER:                  -7.699
REMARK INTRA:                  -2.101
REMARK UNBOUND:                -1.752
REMARK SMILES CCCCCCCCCCCCCCCC(=O)[O-]
REMARK SMILES IDX 9 1 10 2 11 3 12 4 13 5 14 6 15 7 16 8 17 9 18 10 8 11 7 12
REMARK SMILES IDX 6 13 5 14 4 15 3 16 2 17 1 18
REMARK H PARENT
REMARK Flexibility Score: inf
ROOT
ATOM      1  C   UNL     1      12.237   1.926   0.360  1.00  0.00     0.000 C 
ENDROOT
BRANCH   1   2
ATOM      2  C   UNL     1      12.424   2.520  -1.046  1.00  0.00     0.000 C 
BRANCH   2   3
ATOM      3  C   UNL     1      12.876   1.471  -2.078  1.00  0.00     0.000 C 
BRANCH   3   4
ATOM      4  C   UNL     1      13.669   0.319  -1.440  1.00  0.00     0.000 C 
BRANCH   4   5
ATOM      5  C   UNL     1      15.159   0.354  -1.804  1.00  0.00     0.000 C 
BRANCH   5   6
ATOM      6  C   UNL     1      15.982   1.019  -0.690  1.00  0.00     0.006 C 
BRANCH   6   7
ATOM      7  C   UNL     1      16.820   2.195  -1.209  1.00  0.00     0.053 C 
BRANCH   7   8
ATOM      8  C   UNL     1      16.083   3.495  -1.096  1.00  0.00     0.041 C 
ATOM      9  O   UNL     1      16.073   4.123  -0.005  1.00  0.00    -0.550 OA
ATOM     10  O   UNL     1      15.379   3.993  -2.183  1.00  0.00    -0.550 OA
ENDBRANCH   7   8
ENDBRANCH   6   7
ENDBRANCH   5   6
ENDBRANCH   4   5
ENDBRANCH   3   4
ENDBRANCH   2   3
ENDBRANCH   1   2
BRANCH   1  11
ATOM     11  C   UNL     1      13.014   2.704   1.436  1.00  0.00     0.000 C 
BRANCH  11  12
ATOM     12  C   UNL     1      12.958   4.224   1.219  1.00  0.00    -0.000 C 
BRANCH  12  13
ATOM     13  C   UNL     1      11.745   4.878   1.905  1.00  0.00    -0.000 C 
BRANCH  13  14
ATOM     14  C   UNL     1      10.701   5.390   0.899  1.00  0.00    -0.000 C 
BRANCH  14  15
ATOM     15  C   UNL     1       9.482   4.457   0.789  1.00  0.00    -0.000 C 
BRANCH  15  16
ATOM     16  C   UNL     1       9.026   4.251  -0.665  1.00  0.00    -0.000 C 
BRANCH  16  17
ATOM     17  C   UNL     1       9.909   5.000  -1.675  1.00  0.00    -0.003 C 
ATOM     18  C   UNL     1       9.113   6.075  -2.409  1.00  0.00     0.004 C 
ENDBRANCH  16  17
ENDBRANCH  15  16
ENDBRANCH  14  15
ENDBRANCH  13  14
ENDBRANCH  12  13
ENDBRANCH  11  12
ENDBRANCH   1  11
TORSDOF 14
ENDMDL
MODEL 6
REMARK VINA RESULT:    -4.416      1.555      3.247
REMARK INTER + INTRA:          -9.781
REMARK INTER:                  -7.318
REMARK INTRA:                  -2.464
REMARK UNBOUND:                -1.752
REMARK SMILES CCCCCCCCCCCCCCCC(=O)[O-]
REMARK SMILES IDX 9 1 10 2 11 3 12 4 13 5 14 6 15 7 16 8 17 9 18 10 8 11 7 12
REMARK SMILES IDX 6 13 5 14 4 15 3 16 2 17 1 18
REMARK H PARENT
REMARK Flexibility Score: inf
ROOT
ATOM      1  C   UNL     1      16.129   3.790  -0.501  1.00  0.00     0.000 C 
ENDROOT
BRANCH   1   2
ATOM      2  C   UNL     1      15.555   3.731  -1.926  1.00  0.00     0.000 C 
BRANCH   2   3
ATOM      3  C   UNL     1      14.015   3.717  -1.946  1.00  0.00     0.000 C 
BRANCH   3   4
ATOM      4  C   UNL     1      13.441   2.306  -2.147  1.00  0.00     0.000 C 
BRANCH   4   5
ATOM      5  C   UNL     1      12.214   2.036  -1.264  1.00  0.00     0.000 C 
BRANCH   5   6
ATOM      6  C   UNL     1      11.665   3.343  -0.672  1.00  0.00     0.006 C 
BRANCH   6   7
ATOM      7  C   UNL     1      10.197   3.581  -1.051  1.00  0.00     0.053 C 
BRANCH   7   8
ATOM      8  C   UNL     1       9.906   5.036  -1.258  1.00  0.00     0.041 C 
ATOM      9  O   UNL     1       9.947   5.835  -0.286  1.00  0.00    -0.550 OA
ATOM     10  O   UNL     1       9.554   5.503  -2.517  1.00  0.00    -0.550 OA
ENDBRANCH   7   8
ENDBRANCH   6   7
ENDBRANCH   5   6
ENDBRANCH   4   5
ENDBRANCH   3   4
ENDBRANCH   2   3
ENDBRANCH   1   2
BRANCH   1  11
ATOM     11  C   UNL     1      15.064   4.146   0.550  1.00  0.00     0.000 C 
BRANCH  11  12
ATOM     12  C   UNL     1      14.897   3.050   1.614  1.00  0.00    -0.000 C 
BRANCH  12  13
ATOM     13  C   UNL     1      15.744   1.799   1.316  1.00  0.00    -0.000 C 
BRANCH  13  14
ATOM     14  C   UNL     1      14.886   0.547   1.073  1.00  0.00    -0.000 C 
BRANCH  14  15
ATOM     15  C   UNL     1      15.187  -0.121  -0.280  1.00  0.00    -0.000 C 
BRANCH  15  16
ATOM     16  C   UNL     1      16.597   0.208  -0.799  1.00  0.00    -0.000 C 
BRANCH  16  17
ATOM     17  C   UNL     1      16.617   0.522  -2.302  1.00  0.00    -0.003 C 
ATOM     18  C   UNL     1      15.685  -0.411  -3.070  1.00  0.00     0.004 C 
ENDBRANCH  16  17
ENDBRANCH  15  16
ENDBRANCH  14  15
ENDBRANCH  13  14
ENDBRANCH  12  13
ENDBRANCH  11  12
ENDBRANCH   1  11
TORSDOF 14
ENDMDL
MODEL 7
REMARK VINA RESULT:    -4.412      1.764      3.519
REMARK INTER + INTRA:          -9.775
REMARK INTER:                  -7.409
REMARK INTRA:                  -2.366
REMARK UNBOUND:                -1.752
REMARK SMILES CCCCCCCCCCCCCCCC(=O)[O-]
REMARK SMILES IDX 9 1 10 2 11 3 12 4 13 5 14 6 15 7 16 8 17 9 18 10 8 11 7 12
REMARK SMILES IDX 6 13 5 14 4 15 3 16 2 17 1 18
REMARK H PARENT
REMARK Flexibility Score: inf
ROOT
ATOM      1  C   UNL     1      12.409   1.819  -1.012  1.00  0.00     0.000 C 
ENDROOT
BRANCH   1   2
ATOM      2  C   UNL     1      12.510   1.228   0.403  1.00  0.00     0.000 C 
BRANCH   2   3
ATOM      3  C   UNL     1      13.007   2.252   1.440  1.00  0.00     0.000 C 
BRANCH   3   4
ATOM      4  C   UNL     1      12.932   3.698   0.924  1.00  0.00     0.000 C 
BRANCH   4   5
ATOM      5  C   UNL     1      12.686   4.714   2.048  1.00  0.00     0.000 C 
BRANCH   5   6
ATOM      6  C   UNL     1      11.184   4.980   2.231  1.00  0.00     0.006 C 
BRANCH   6   7
ATOM      7  C   UNL     1      10.458   5.159   0.891  1.00  0.00     0.053 C 
BRANCH   7   8
ATOM      8  C   UNL     1       9.267   4.257   0.779  1.00  0.00     0.041 C 
ATOM      9  O   UNL     1       9.421   3.009   0.720  1.00  0.00    -0.550 OA
ATOM     10  O   UNL     1       7.989   4.795   0.705  1.00  0.00    -0.550 OA
ENDBRANCH   7   8
ENDBRANCH   6   7
ENDBRANCH   5   6
ENDBRANCH   4   5
ENDBRANCH   3   4
ENDBRANCH   2   3
ENDBRANCH   1   2
BRANCH   1  11
ATOM     11  C   UNL     1      12.592   0.757  -2.109  1.00  0.00     0.000 C 
BRANCH  11  12
ATOM     12  C   UNL     1      14.061   0.593  -2.533  1.00  0.00    -0.000 C 
BRANCH  12  13
ATOM     13  C   UNL     1      14.773  -0.543  -1.777  1.00  0.00    -0.000 C 
BRANCH  13  14
ATOM     14  C   UNL     1      15.961  -0.043  -0.938  1.00  0.00    -0.000 C 
BRANCH  14  15
ATOM     15  C   UNL     1      16.409   1.374  -1.337  1.00  0.00    -0.000 C 
BRANCH  15  16
ATOM     16  C   UNL     1      16.325   2.370  -0.168  1.00  0.00    -0.000 C 
BRANCH  16  17
ATOM     17  C   UNL     1      16.153   3.822  -0.638  1.00  0.00    -0.003 C 
ATOM     18  C   UNL     1      15.356   3.887  -1.938  1.00  0.00     0.004 C 
ENDBRANCH  16  17
ENDBRANCH  15  16
ENDBRANCH  14  15
ENDBRANCH  13  14
ENDBRANCH  12  13
ENDBRANCH  11  12
ENDBRANCH   1  11
TORSDOF 14
ENDMDL
MODEL 8
REMARK VINA RESULT:    -4.394      1.956      4.609
REMARK INTER + INTRA:          -9.741
REMARK INTER:                  -7.290
REMARK INTRA:                  -2.451
REMARK UNBOUND:                -1.752
REMARK SMILES CCCCCCCCCCCCCCCC(=O)[O-]
REMARK SMILES IDX 9 1 10 2 11 3 12 4 13 5 14 6 15 7 16 8 17 9 18 10 8 11 7 12
REMARK SMILES IDX 6 13 5 14 4 15 3 16 2 17 1 18
REMARK H PARENT
REMARK Flexibility Score: inf
ROOT
ATOM      1  C   UNL     1      16.469   0.716  -2.179  1.00  0.00     0.000 C 
ENDROOT
BRANCH   1   2
ATOM      2  C   UNL     1      14.958   0.591  -2.437  1.00  0.00     0.000 C 
BRANCH   2   3
ATOM      3  C   UNL     1      14.254  -0.314  -1.410  1.00  0.00     0.000 C 
BRANCH   3   4
ATOM      4  C   UNL     1      12.919   0.274  -0.924  1.00  0.00     0.000 C 
BRANCH   4   5
ATOM      5  C   UNL     1      12.375   1.361  -1.863  1.00  0.00     0.000 C 
BRANCH   5   6
ATOM      6  C   UNL     1      11.680   2.476  -1.067  1.00  0.00     0.006 C 
BRANCH   6   7
ATOM      7  C   UNL     1      10.810   1.925   0.070  1.00  0.00     0.053 C 
BRANCH   7   8
ATOM      8  C   UNL     1       9.450   2.552   0.083  1.00  0.00     0.041 C 
ATOM      9  O   UNL     1       9.126   3.343   1.008  1.00  0.00    -0.550 OA
ATOM     10  O   UNL     1       8.527   2.235  -0.904  1.00  0.00    -0.550 OA
ENDBRANCH   7   8
ENDBRANCH   6   7
ENDBRANCH   5   6
ENDBRANCH   4   5
ENDBRANCH   3   4
ENDBRANCH   2   3
ENDBRANCH   1   2
BRANCH   1  11
ATOM     11  C   UNL     1      16.849   2.067  -1.550  1.00  0.00     0.000 C 
BRANCH  11  12
ATOM     12  C   UNL     1      15.778   3.146  -1.779  1.00  0.00    -0.000 C 
BRANCH  12  13
ATOM     13  C   UNL     1      15.320   3.814  -0.470  1.00  0.00    -0.000 C 
BRANCH  13  14
ATOM     14  C   UNL     1      15.190   2.815   0.691  1.00  0.00    -0.000 C 
BRANCH  14  15
ATOM     15  C   UNL     1      14.035   3.166   1.645  1.00  0.00    -0.000 C 
BRANCH  15  16
ATOM     16  C   UNL     1      13.691   4.665   1.627  1.00  0.00    -0.000 C 
BRANCH  16  17
ATOM     17  C   UNL     1      12.180   4.927   1.714  1.00  0.00    -0.003 C 
ATOM     18  C   UNL     1      11.666   4.703   3.133  1.00  0.00     0.004 C 
ENDBRANCH  16  17
ENDBRANCH  15  16
ENDBRANCH  14  15
ENDBRANCH  13  14
ENDBRANCH  12  13
ENDBRANCH  11  12
ENDBRANCH   1  11
TORSDOF 14
ENDMDL
MODEL 9
REMARK VINA RESULT:    -4.365      1.280      3.976
REMARK INTER + INTRA:          -9.689
REMARK INTER:                  -7.630
REMARK INTRA:                  -2.060
REMARK UNBOUND:                -1.752
REMARK SMILES CCCCCCCCCCCCCCCC(=O)[O-]
REMARK SMILES IDX 9 1 10 2 11 3 12 4 13 5 14 6 15 7 16 8 17 9 18 10 8 11 7 12
REMARK SMILES IDX 6 13 5 14 4 15 3 16 2 17 1 18
REMARK H PARENT
REMARK Flexibility Score: inf
ROOT
ATOM      1  C   UNL     1      13.880   3.250  -2.192  1.00  0.00     0.000 C 
ENDROOT
BRANCH   1   2
ATOM      2  C   UNL     1      13.733   1.775  -2.603  1.00  0.00     0.000 C 
BRANCH   2   3
ATOM      3  C   UNL     1      12.515   1.097  -1.951  1.00  0.00     0.000 C 
BRANCH   3   4
ATOM      4  C   UNL     1      11.788   2.017  -0.957  1.00  0.00     0.000 C 
BRANCH   4   5
ATOM      5  C   UNL     1      10.266   1.820  -0.973  1.00  0.00     0.000 C 
BRANCH   5   6
ATOM      6  C   UNL     1       9.538   3.171  -1.045  1.00  0.00     0.006 C 
BRANCH   6   7
ATOM      7  C   UNL     1      10.513   4.356  -1.079  1.00  0.00     0.053 C 
BRANCH   7   8
ATOM      8  C   UNL     1       9.797   5.659  -1.272  1.00  0.00     0.041 C 
ATOM      9  O   UNL     1       9.282   5.939  -2.386  1.00  0.00    -0.550 OA
ATOM     10  O   UNL     1       9.730   6.577  -0.233  1.00  0.00    -0.550 OA
ENDBRANCH   7   8
ENDBRANCH   6   7
ENDBRANCH   5   6
ENDBRANCH   4   5
ENDBRANCH   3   4
ENDBRANCH   2   3
ENDBRANCH   1   2
BRANCH   1  11
ATOM     11  C   UNL     1      15.349   3.665  -2.003  1.00  0.00     0.000 C 
BRANCH  11  12
ATOM     12  C   UNL     1      16.247   2.486  -1.596  1.00  0.00    -0.000 C 
BRANCH  12  13
ATOM     13  C   UNL     1      16.205   2.203  -0.083  1.00  0.00    -0.000 C 
BRANCH  13  14
ATOM     14  C   UNL     1      15.773   3.429   0.737  1.00  0.00    -0.000 C 
BRANCH  14  15
ATOM     15  C   UNL     1      14.590   3.125   1.672  1.00  0.00    -0.000 C 
BRANCH  15  16
ATOM     16  C   UNL     1      13.493   4.200   1.604  1.00  0.00    -0.000 C 
BRANCH  16  17
ATOM     17  C   UNL     1      12.204   3.779   2.324  1.00  0.00    -0.003 C 
ATOM     18  C   UNL     1      11.272   4.971   2.524  1.00  0.00     0.004 C 
ENDBRANCH  16  17
ENDBRANCH  15  16
ENDBRANCH  14  15
ENDBRANCH  13  14
ENDBRANCH  12  13
ENDBRANCH  11  12
ENDBRANCH   1  11
TORSDOF 14
ENDMDL
