MODEL 1
REMARK VINA RESULT:    -3.568      0.000      0.000
REMARK INTER + INTRA:          -3.568
REMARK INTER:                  -3.568
REMARK INTRA:                   0.000
REMARK UNBOUND:                 0.000
REMARK SMILES CC1(C)C(=O)[C@@]2(C)CC[C@@H]1C2
REMARK SMILES IDX 1 1 2 2 10 3 9 4 8 5 6 6 11 7 4 8 5 9 7 10 3 11
REMARK H PARENT
REMARK Flexibility Score: inf
ROOT
ATOM      1  C   UNL     1     145.788 139.316 140.541  1.00  0.00     0.020 C 
ATOM      2  C   UNL     1     146.900 139.990 141.375  1.00  0.00     0.027 C 
ATOM      3  C   UNL     1     147.233 141.462 140.938  1.00  0.00     0.003 C 
ATOM      4  C   UNL     1     147.426 141.559 139.402  1.00  0.00     0.005 C 
ATOM      5  C   UNL     1     148.737 140.775 139.166  1.00  0.00     0.015 C 
ATOM      6  C   UNL     1     149.179 140.418 140.598  1.00  0.00     0.027 C 
ATOM      7  C   UNL     1     148.688 141.621 141.377  1.00  0.00     0.019 C 
ATOM      8  C   UNL     1     148.240 139.364 141.115  1.00  0.00     0.144 C 
ATOM      9  O   UNL     1     148.499 138.175 141.232  1.00  0.00    -0.298 OA
ATOM     10  C   UNL     1     150.668 140.109 140.767  1.00  0.00     0.020 C 
ATOM     11  C   UNL     1     146.528 139.912 142.870  1.00  0.00     0.020 C 
ENDROOT
TORSDOF 0
ENDMDL
MODEL 2
REMARK VINA RESULT:    -3.558     12.764     14.753
REMARK INTER + INTRA:          -3.558
REMARK INTER:                  -3.558
REMARK INTRA:                   0.000
REMARK UNBOUND:                 0.000
REMARK SMILES CC1(C)C(=O)[C@@]2(C)CC[C@@H]1C2
REMARK SMILES IDX 1 1 2 2 10 3 9 4 8 5 6 6 11 7 4 8 5 9 7 10 3 11
REMARK H PARENT
REMARK Flexibility Score: inf
ROOT
ATOM      1  C   UNL     1     135.888 142.286 140.571  1.00  0.00     0.020 C 
ATOM      2  C   UNL     1     134.751 141.646 141.400  1.00  0.00     0.027 C 
ATOM      3  C   UNL     1     134.398 140.174 140.981  1.00  0.00     0.003 C 
ATOM      4  C   UNL     1     134.227 140.055 139.445  1.00  0.00     0.005 C 
ATOM      5  C   UNL     1     132.933 140.857 139.176  1.00  0.00     0.015 C 
ATOM      6  C   UNL     1     132.476 141.246 140.595  1.00  0.00     0.027 C 
ATOM      7  C   UNL     1     132.935 140.048 141.401  1.00  0.00     0.019 C 
ATOM      8  C   UNL     1     133.427 142.292 141.108  1.00  0.00     0.144 C 
ATOM      9  O   UNL     1     133.187 143.487 141.201  1.00  0.00    -0.298 OA
ATOM     10  C   UNL     1     130.992 141.585 140.736  1.00  0.00     0.020 C 
ATOM     11  C   UNL     1     135.102 141.743 142.899  1.00  0.00     0.020 C 
ENDROOT
TORSDOF 0
ENDMDL
MODEL 3
REMARK VINA RESULT:    -3.520      9.170     10.323
REMARK INTER + INTRA:          -3.520
REMARK INTER:                  -3.520
REMARK INTRA:                   0.000
REMARK UNBOUND:                 0.000
REMARK SMILES CC1(C)C(=O)[C@@]2(C)CC[C@@H]1C2
REMARK SMILES IDX 1 1 2 2 10 3 9 4 8 5 6 6 11 7 4 8 5 9 7 10 3 11
REMARK H PARENT
REMARK Flexibility Score: inf
ROOT
ATOM      1  C   UNL     1     142.396 145.665 140.563  1.00  0.00     0.020 C 
ATOM      2  C   UNL     1     141.724 146.783 141.392  1.00  0.00     0.027 C 
ATOM      3  C   UNL     1     140.236 147.082 140.985  1.00  0.00     0.003 C 
ATOM      4  C   UNL     1     140.098 147.242 139.450  1.00  0.00     0.005 C 
ATOM      5  C   UNL     1     140.852 148.562 139.168  1.00  0.00     0.015 C 
ATOM      6  C   UNL     1     141.237 149.038 140.582  1.00  0.00     0.027 C 
ATOM      7  C   UNL     1     140.063 148.542 141.400  1.00  0.00     0.019 C 
ATOM      8  C   UNL     1     142.320 148.127 141.090  1.00  0.00     0.144 C 
ATOM      9  O   UNL     1     143.507 148.409 141.171  1.00  0.00    -0.298 OA
ATOM     10  C   UNL     1     141.525 150.534 140.714  1.00  0.00     0.020 C 
ATOM     11  C   UNL     1     141.846 146.441 142.892  1.00  0.00     0.020 C 
ENDROOT
TORSDOF 0
ENDMDL
MODEL 4
REMARK VINA RESULT:    -3.485      9.264     10.420
REMARK INTER + INTRA:          -3.485
REMARK INTER:                  -3.485
REMARK INTRA:                   0.000
REMARK UNBOUND:                 0.000
REMARK SMILES CC1(C)C(=O)[C@@]2(C)CC[C@@H]1C2
REMARK SMILES IDX 1 1 2 2 10 3 9 4 8 5 6 6 11 7 4 8 5 9 7 10 3 11
REMARK H PARENT
REMARK Flexibility Score: inf
ROOT
ATOM      1  C   UNL     1     139.204 135.959 140.584  1.00  0.00     0.020 C 
ATOM      2  C   UNL     1     139.874 134.838 141.409  1.00  0.00     0.027 C 
ATOM      3  C   UNL     1     141.364 134.544 141.009  1.00  0.00     0.003 C 
ATOM      4  C   UNL     1     141.512 134.395 139.473  1.00  0.00     0.005 C 
ATOM      5  C   UNL     1     140.762 133.076 139.178  1.00  0.00     0.015 C 
ATOM      6  C   UNL     1     140.370 132.589 140.586  1.00  0.00     0.027 C 
ATOM      7  C   UNL     1     141.538 133.082 141.414  1.00  0.00     0.019 C 
ATOM      8  C   UNL     1     139.282 133.494 141.094  1.00  0.00     0.144 C 
ATOM      9  O   UNL     1     138.096 133.209 141.167  1.00  0.00    -0.298 OA
ATOM     10  C   UNL     1     140.085 131.091 140.706  1.00  0.00     0.020 C 
ATOM     11  C   UNL     1     139.743 135.169 142.910  1.00  0.00     0.020 C 
ENDROOT
TORSDOF 0
ENDMDL
MODEL 5
REMARK VINA RESULT:    -3.262     13.116     14.693
REMARK INTER + INTRA:          -3.262
REMARK INTER:                  -3.262
REMARK INTRA:                   0.000
REMARK UNBOUND:                 0.000
REMARK SMILES CC1(C)C(=O)[C@@]2(C)CC[C@@H]1C2
REMARK SMILES IDX 1 1 2 2 10 3 9 4 8 5 6 6 11 7 4 8 5 9 7 10 3 11
REMARK H PARENT
REMARK Flexibility Score: inf
ROOT
ATOM      1  C   UNL     1     132.415 140.977 138.766  1.00  0.00     0.020 C 
ATOM      2  C   UNL     1     132.404 141.656 140.154  1.00  0.00     0.027 C 
ATOM      3  C   UNL     1     133.086 143.070 140.185  1.00  0.00     0.003 C 
ATOM      4  C   UNL     1     134.472 143.038 139.490  1.00  0.00     0.005 C 
ATOM      5  C   UNL     1     135.322 142.173 140.448  1.00  0.00     0.015 C 
ATOM      6  C   UNL     1     134.350 141.906 141.614  1.00  0.00     0.027 C 
ATOM      7  C   UNL     1     133.544 143.189 141.638  1.00  0.00     0.019 C 
ATOM      8  C   UNL     1     133.304 140.944 141.122  1.00  0.00     0.144 C 
ATOM      9  O   UNL     1     133.242 139.756 141.404  1.00  0.00    -0.298 OA
ATOM     10  C   UNL     1     135.007 141.536 142.944  1.00  0.00     0.020 C 
ATOM     11  C   UNL     1     130.953 141.712 140.677  1.00  0.00     0.020 C 
ENDROOT
TORSDOF 0
ENDMDL
MODEL 6
REMARK VINA RESULT:    -3.236      9.068     10.294
REMARK INTER + INTRA:          -3.236
REMARK INTER:                  -3.236
REMARK INTRA:                   0.000
REMARK UNBOUND:                 0.000
REMARK SMILES CC1(C)C(=O)[C@@]2(C)CC[C@@H]1C2
REMARK SMILES IDX 1 1 2 2 10 3 9 4 8 5 6 6 11 7 4 8 5 9 7 10 3 11
REMARK H PARENT
REMARK Flexibility Score: inf
ROOT
ATOM      1  C   UNL     1     141.026 149.023 138.774  1.00  0.00     0.020 C 
ATOM      2  C   UNL     1     141.670 149.061 140.179  1.00  0.00     0.027 C 
ATOM      3  C   UNL     1     143.094 148.404 140.253  1.00  0.00     0.003 C 
ATOM      4  C   UNL     1     143.103 147.010 139.574  1.00  0.00     0.005 C 
ATOM      5  C   UNL     1     142.229 146.156 140.520  1.00  0.00     0.015 C 
ATOM      6  C   UNL     1     141.916 147.136 141.667  1.00  0.00     0.027 C 
ATOM      7  C   UNL     1     143.184 147.964 141.713  1.00  0.00     0.019 C 
ATOM      8  C   UNL     1     140.949 148.159 141.139  1.00  0.00     0.144 C 
ATOM      9  O   UNL     1     139.754 148.204 141.390  1.00  0.00    -0.298 OA
ATOM     10  C   UNL     1     141.524 146.488 142.995  1.00  0.00     0.020 C 
ATOM     11  C   UNL     1     141.688 150.518 140.686  1.00  0.00     0.020 C 
ENDROOT
TORSDOF 0
ENDMDL
MODEL 7
REMARK VINA RESULT:    -3.218     12.902     14.110
REMARK INTER + INTRA:          -3.218
REMARK INTER:                  -3.218
REMARK INTRA:                   0.000
REMARK UNBOUND:                 0.000
REMARK SMILES CC1(C)C(=O)[C@@]2(C)CC[C@@H]1C2
REMARK SMILES IDX 1 1 2 2 10 3 9 4 8 5 6 6 11 7 4 8 5 9 7 10 3 11
REMARK H PARENT
REMARK Flexibility Score: inf
ROOT
ATOM      1  C   UNL     1     133.181 139.763 141.331  1.00  0.00     0.020 C 
ATOM      2  C   UNL     1     134.213 140.533 140.476  1.00  0.00     0.027 C 
ATOM      3  C   UNL     1     135.338 141.246 141.310  1.00  0.00     0.003 C 
ATOM      4  C   UNL     1     134.734 142.057 142.485  1.00  0.00     0.005 C 
ATOM      5  C   UNL     1     133.991 143.208 141.768  1.00  0.00     0.015 C 
ATOM      6  C   UNL     1     134.347 142.968 140.288  1.00  0.00     0.027 C 
ATOM      7  C   UNL     1     135.748 142.402 140.400  1.00  0.00     0.019 C 
ATOM      8  C   UNL     1     133.601 141.744 139.833  1.00  0.00     0.144 C 
ATOM      9  O   UNL     1     132.609 141.741 139.118  1.00  0.00    -0.298 OA
ATOM     10  C   UNL     1     134.219 144.189 139.376  1.00  0.00     0.020 C 
ATOM     11  C   UNL     1     134.807 139.579 139.419  1.00  0.00     0.020 C 
ENDROOT
TORSDOF 0
ENDMDL
MODEL 8
REMARK VINA RESULT:    -3.216      1.423      3.201
REMARK INTER + INTRA:          -3.216
REMARK INTER:                  -3.216
REMARK INTRA:                   0.000
REMARK UNBOUND:                 0.000
REMARK SMILES CC1(C)C(=O)[C@@]2(C)CC[C@@H]1C2
REMARK SMILES IDX 1 1 2 2 10 3 9 4 8 5 6 6 11 7 4 8 5 9 7 10 3 11
REMARK H PARENT
REMARK Flexibility Score: inf
ROOT
ATOM      1  C   UNL     1     148.504 141.852 141.376  1.00  0.00     0.020 C 
ATOM      2  C   UNL     1     147.472 141.095 140.511  1.00  0.00     0.027 C 
ATOM      3  C   UNL     1     146.317 140.416 141.332  1.00  0.00     0.003 C 
ATOM      4  C   UNL     1     146.881 139.605 142.526  1.00  0.00     0.005 C 
ATOM      5  C   UNL     1     147.612 138.430 141.836  1.00  0.00     0.015 C 
ATOM      6  C   UNL     1     147.289 138.661 140.347  1.00  0.00     0.027 C 
ATOM      7  C   UNL     1     145.899 139.258 140.427  1.00  0.00     0.019 C 
ATOM      8  C   UNL     1     148.070 139.864 139.893  1.00  0.00     0.144 C 
ATOM      9  O   UNL     1     149.074 139.838 139.197  1.00  0.00    -0.298 OA
ATOM     10  C   UNL     1     147.407 137.427 139.451  1.00  0.00     0.020 C 
ATOM     11  C   UNL     1     146.919 142.049 139.433  1.00  0.00     0.020 C 
ENDROOT
TORSDOF 0
ENDMDL
MODEL 9
REMARK VINA RESULT:    -3.154      9.779     10.927
REMARK INTER + INTRA:          -3.154
REMARK INTER:                  -3.154
REMARK INTRA:                   0.000
REMARK UNBOUND:                 0.000
REMARK SMILES CC1(C)C(=O)[C@@]2(C)CC[C@@H]1C2
REMARK SMILES IDX 1 1 2 2 10 3 9 4 8 5 6 6 11 7 4 8 5 9 7 10 3 11
REMARK H PARENT
REMARK Flexibility Score: inf
ROOT
ATOM      1  C   UNL     1     140.466 132.542 138.720  1.00  0.00     0.020 C 
ATOM      2  C   UNL     1     139.875 132.486 140.147  1.00  0.00     0.027 C 
ATOM      3  C   UNL     1     138.448 133.129 140.279  1.00  0.00     0.003 C 
ATOM      4  C   UNL     1     138.401 134.528 139.613  1.00  0.00     0.005 C 
ATOM      5  C   UNL     1     139.301 135.383 140.534  1.00  0.00     0.015 C 
ATOM      6  C   UNL     1     139.666 134.396 141.660  1.00  0.00     0.027 C 
ATOM      7  C   UNL     1     138.408 133.556 141.746  1.00  0.00     0.019 C 
ATOM      8  C   UNL     1     140.622 133.386 141.088  1.00  0.00     0.144 C 
ATOM      9  O   UNL     1     141.826 133.350 141.294  1.00  0.00    -0.298 OA
ATOM     10  C   UNL     1     140.101 135.037 142.978  1.00  0.00     0.020 C 
ATOM     11  C   UNL     1     139.888 131.025 140.641  1.00  0.00     0.020 C 
ENDROOT
TORSDOF 0
ENDMDL
