MODEL 1
REMARK VINA RESULT:    -6.927      0.000      0.000
REMARK INTER + INTRA:         -16.752
REMARK INTER:                 -15.025
REMARK INTRA:                  -1.727
REMARK UNBOUND:                -1.727
REMARK SMILES CCCCCCCCCCCCCCCCCCCCCC(=O)[O-]
REMARK SMILES IDX 12 1 11 2 10 3 9 4 8 5 7 6 6 7 5 8 4 9 3 10 2 11 1 12 13 13
REMARK SMILES IDX 14 14 15 15 16 16 17 17 18 18 19 19 20 20 21 21 22 22 23 23
REMARK SMILES IDX 24 24
REMARK H PARENT
REMARK Flexibility Score: inf
ROOT
ATOM      1  C   UNL     1      27.969  -4.187  19.650  1.00  0.00     0.000 C 
ENDROOT
BRANCH   1   2
ATOM      2  C   UNL     1      29.340  -4.099  18.947  1.00  0.00     0.000 C 
BRANCH   2   3
ATOM      3  C   UNL     1      29.950  -2.684  18.846  1.00  0.00     0.000 C 
BRANCH   3   4
ATOM      4  C   UNL     1      29.366  -1.643  19.816  1.00  0.00    -0.000 C 
BRANCH   4   5
ATOM      5  C   UNL     1      28.488  -0.599  19.110  1.00  0.00    -0.000 C 
BRANCH   5   6
ATOM      6  C   UNL     1      27.359  -0.117  20.029  1.00  0.00    -0.000 C 
BRANCH   6   7
ATOM      7  C   UNL     1      26.277  -1.198  20.184  1.00  0.00    -0.000 C 
BRANCH   7   8
ATOM      8  C   UNL     1      24.875  -0.711  19.771  1.00  0.00    -0.000 C 
BRANCH   8   9
ATOM      9  C   UNL     1      24.695   0.817  19.761  1.00  0.00    -0.000 C 
BRANCH   9  10
ATOM     10  C   UNL     1      23.431   1.265  19.007  1.00  0.00    -0.000 C 
BRANCH  10  11
ATOM     11  C   UNL     1      23.694   2.453  18.067  1.00  0.00    -0.003 C 
ATOM     12  C   UNL     1      23.379   2.129  16.607  1.00  0.00     0.004 C 
ENDBRANCH  10  11
ENDBRANCH   9  10
ENDBRANCH   8   9
ENDBRANCH   7   8
ENDBRANCH   6   7
ENDBRANCH   5   6
ENDBRANCH   4   5
ENDBRANCH   3   4
ENDBRANCH   2   3
ENDBRANCH   1   2
BRANCH   1  13
ATOM     13  C   UNL     1      26.762  -4.283  18.688  1.00  0.00     0.000 C 
BRANCH  13  14
ATOM     14  C   UNL     1      25.426  -4.588  19.388  1.00  0.00     0.000 C 
BRANCH  14  15
ATOM     15  C   UNL     1      25.079  -6.085  19.378  1.00  0.00     0.000 C 
BRANCH  15  16
ATOM     16  C   UNL     1      26.136  -6.946  18.661  1.00  0.00     0.000 C 
BRANCH  16  17
ATOM     17  C   UNL     1      26.769  -8.061  19.517  1.00  0.00     0.000 C 
BRANCH  17  18
ATOM     18  C   UNL     1      26.053  -8.267  20.863  1.00  0.00     0.000 C 
BRANCH  18  19
ATOM     19  C   UNL     1      25.012  -9.398  20.813  1.00  0.00     0.000 C 
BRANCH  19  20
ATOM     20  C   UNL     1      23.620  -8.942  21.290  1.00  0.00     0.006 C 
BRANCH  20  21
ATOM     21  C   UNL     1      23.634  -8.474  22.750  1.00  0.00     0.053 C 
BRANCH  21  22
ATOM     22  C   UNL     1      22.591  -9.173  23.567  1.00  0.00     0.041 C 
ATOM     23  O   UNL     1      22.796 -10.341  23.992  1.00  0.00    -0.550 OA
ATOM     24  O   UNL     1      21.407  -8.522  23.888  1.00  0.00    -0.550 OA
ENDBRANCH  21  22
ENDBRANCH  20  21
ENDBRANCH  19  20
ENDBRANCH  18  19
ENDBRANCH  17  18
ENDBRANCH  16  17
ENDBRANCH  15  16
ENDBRANCH  14  15
ENDBRANCH  13  14
ENDBRANCH   1  13
TORSDOF 20
ENDMDL
MODEL 2
REMARK VINA RESULT:    -6.746      1.062      2.163
REMARK INTER + INTRA:         -16.361
REMARK INTER:                 -14.959
REMARK INTRA:                  -1.402
REMARK UNBOUND:                -1.727
REMARK SMILES CCCCCCCCCCCCCCCCCCCCCC(=O)[O-]
REMARK SMILES IDX 12 1 11 2 10 3 9 4 8 5 7 6 6 7 5 8 4 9 3 10 2 11 1 12 13 13
REMARK SMILES IDX 14 14 15 15 16 16 17 17 18 18 19 19 20 20 21 21 22 22 23 23
REMARK SMILES IDX 24 24
REMARK H PARENT
REMARK Flexibility Score: inf
ROOT
ATOM      1  C   UNL     1      29.274  -3.506  19.740  1.00  0.00     0.000 C 
ENDROOT
BRANCH   1   2
ATOM      2  C   UNL     1      29.697  -2.056  19.421  1.00  0.00     0.000 C 
BRANCH   2   3
ATOM      3  C   UNL     1      28.908  -0.952  20.159  1.00  0.00     0.000 C 
BRANCH   3   4
ATOM      4  C   UNL     1      27.478  -1.332  20.580  1.00  0.00    -0.000 C 
BRANCH   4   5
ATOM      5  C   UNL     1      26.404  -0.607  19.756  1.00  0.00    -0.000 C 
BRANCH   5   6
ATOM      6  C   UNL     1      25.029  -1.260  19.949  1.00  0.00    -0.000 C 
BRANCH   6   7
ATOM      7  C   UNL     1      23.900  -0.271  19.621  1.00  0.00    -0.000 C 
BRANCH   7   8
ATOM      8  C   UNL     1      24.416   1.123  19.219  1.00  0.00    -0.000 C 
BRANCH   8   9
ATOM      9  C   UNL     1      23.333   2.100  18.727  1.00  0.00    -0.000 C 
BRANCH   9  10
ATOM     10  C   UNL     1      23.732   2.835  17.437  1.00  0.00    -0.000 C 
BRANCH  10  11
ATOM     11  C   UNL     1      22.974   2.318  16.203  1.00  0.00    -0.003 C 
ATOM     12  C   UNL     1      22.569   3.440  15.248  1.00  0.00     0.004 C 
ENDBRANCH  10  11
ENDBRANCH   9  10
ENDBRANCH   8   9
ENDBRANCH   7   8
ENDBRANCH   6   7
ENDBRANCH   5   6
ENDBRANCH   4   5
ENDBRANCH   3   4
ENDBRANCH   2   3
ENDBRANCH   1   2
BRANCH   1  13
ATOM     13  C   UNL     1      29.432  -4.492  18.558  1.00  0.00     0.000 C 
BRANCH  13  14
ATOM     14  C   UNL     1      28.132  -5.218  18.172  1.00  0.00     0.000 C 
BRANCH  14  15
ATOM     15  C   UNL     1      26.874  -4.390  18.483  1.00  0.00     0.000 C 
BRANCH  15  16
ATOM     16  C   UNL     1      26.264  -4.711  19.861  1.00  0.00     0.000 C 
BRANCH  16  17
ATOM     17  C   UNL     1      25.527  -6.060  19.957  1.00  0.00     0.000 C 
BRANCH  17  18
ATOM     18  C   UNL     1      26.455  -7.230  20.328  1.00  0.00     0.000 C 
BRANCH  18  19
ATOM     19  C   UNL     1      25.709  -8.570  20.426  1.00  0.00     0.000 C 
BRANCH  19  20
ATOM     20  C   UNL     1      24.179  -8.393  20.477  1.00  0.00     0.006 C 
BRANCH  20  21
ATOM     21  C   UNL     1      23.502  -9.453  21.354  1.00  0.00     0.053 C 
BRANCH  21  22
ATOM     22  C   UNL     1      23.306  -8.969  22.758  1.00  0.00     0.041 C 
ATOM     23  O   UNL     1      23.561  -7.772  23.057  1.00  0.00    -0.550 OA
ATOM     24  O   UNL     1      22.810  -9.830  23.727  1.00  0.00    -0.550 OA
ENDBRANCH  21  22
ENDBRANCH  20  21
ENDBRANCH  19  20
ENDBRANCH  18  19
ENDBRANCH  17  18
ENDBRANCH  16  17
ENDBRANCH  15  16
ENDBRANCH  14  15
ENDBRANCH  13  14
ENDBRANCH   1  13
TORSDOF 20
ENDMDL
MODEL 3
REMARK VINA RESULT:    -6.548      2.979      5.483
REMARK INTER + INTRA:         -15.930
REMARK INTER:                 -14.638
REMARK INTRA:                  -1.292
REMARK UNBOUND:                -1.727
REMARK SMILES CCCCCCCCCCCCCCCCCCCCCC(=O)[O-]
REMARK SMILES IDX 12 1 11 2 10 3 9 4 8 5 7 6 6 7 5 8 4 9 3 10 2 11 1 12 13 13
REMARK SMILES IDX 14 14 15 15 16 16 17 17 18 18 19 19 20 20 21 21 22 22 23 23
REMARK SMILES IDX 24 24
REMARK H PARENT
REMARK Flexibility Score: inf
ROOT
ATOM      1  C   UNL     1      23.987  -6.799  20.113  1.00  0.00     0.000 C 
ENDROOT
BRANCH   1   2
ATOM      2  C   UNL     1      24.945  -5.663  19.698  1.00  0.00     0.000 C 
BRANCH   2   3
ATOM      3  C   UNL     1      26.426  -6.065  19.528  1.00  0.00     0.000 C 
BRANCH   3   4
ATOM      4  C   UNL     1      27.437  -4.909  19.603  1.00  0.00    -0.000 C 
BRANCH   4   5
ATOM      5  C   UNL     1      28.463  -4.941  18.460  1.00  0.00    -0.000 C 
BRANCH   5   6
ATOM      6  C   UNL     1      29.493  -3.815  18.614  1.00  0.00    -0.000 C 
BRANCH   6   7
ATOM      7  C   UNL     1      29.291  -3.062  19.938  1.00  0.00    -0.000 C 
BRANCH   7   8
ATOM      8  C   UNL     1      29.094  -1.546  19.746  1.00  0.00    -0.000 C 
BRANCH   8   9
ATOM      9  C   UNL     1      27.658  -1.117  19.399  1.00  0.00    -0.000 C 
BRANCH   9  10
ATOM     10  C   UNL     1      26.640  -1.497  20.488  1.00  0.00    -0.000 C 
BRANCH  10  11
ATOM     11  C   UNL     1      25.191  -1.476  19.977  1.00  0.00    -0.003 C 
ATOM     12  C   UNL     1      24.675  -0.060  19.725  1.00  0.00     0.004 C 
ENDBRANCH  10  11
ENDBRANCH   9  10
ENDBRANCH   8   9
ENDBRANCH   7   8
ENDBRANCH   6   7
ENDBRANCH   5   6
ENDBRANCH   4   5
ENDBRANCH   3   4
ENDBRANCH   2   3
ENDBRANCH   1   2
BRANCH   1  13
ATOM     13  C   UNL     1      24.692  -8.061  20.662  1.00  0.00     0.000 C 
BRANCH  13  14
ATOM     14  C   UNL     1      23.744  -9.056  21.355  1.00  0.00     0.000 C 
BRANCH  14  15
ATOM     15  C   UNL     1      23.322  -8.593  22.760  1.00  0.00     0.000 C 
BRANCH  15  16
ATOM     16  C   UNL     1      22.833  -9.747  23.654  1.00  0.00     0.000 C 
BRANCH  16  17
ATOM     17  C   UNL     1      21.742  -9.372  24.676  1.00  0.00     0.000 C 
BRANCH  17  18
ATOM     18  C   UNL     1      20.600  -8.544  24.062  1.00  0.00     0.000 C 
BRANCH  18  19
ATOM     19  C   UNL     1      19.557  -8.108  25.105  1.00  0.00     0.000 C 
BRANCH  19  20
ATOM     20  C   UNL     1      18.595  -7.033  24.564  1.00  0.00     0.006 C 
BRANCH  20  21
ATOM     21  C   UNL     1      17.272  -7.635  24.073  1.00  0.00     0.053 C 
BRANCH  21  22
ATOM     22  C   UNL     1      16.095  -7.049  24.790  1.00  0.00     0.041 C 
ATOM     23  O   UNL     1      15.067  -6.708  24.147  1.00  0.00    -0.550 OA
ATOM     24  O   UNL     1      16.121  -6.912  26.172  1.00  0.00    -0.550 OA
ENDBRANCH  21  22
ENDBRANCH  20  21
ENDBRANCH  19  20
ENDBRANCH  18  19
ENDBRANCH  17  18
ENDBRANCH  16  17
ENDBRANCH  15  16
ENDBRANCH  14  15
ENDBRANCH  13  14
ENDBRANCH   1  13
TORSDOF 20
ENDMDL
MODEL 4
REMARK VINA RESULT:    -6.478      5.024      9.663
REMARK INTER + INTRA:         -15.778
REMARK INTER:                 -14.560
REMARK INTRA:                  -1.219
REMARK UNBOUND:                -1.727
REMARK SMILES CCCCCCCCCCCCCCCCCCCCCC(=O)[O-]
REMARK SMILES IDX 12 1 11 2 10 3 9 4 8 5 7 6 6 7 5 8 4 9 3 10 2 11 1 12 13 13
REMARK SMILES IDX 14 14 15 15 16 16 17 17 18 18 19 19 20 20 21 21 22 22 23 23
REMARK SMILES IDX 24 24
REMARK H PARENT
REMARK Flexibility Score: inf
ROOT
ATOM      1  C   UNL     1      23.469  -8.452  22.633  1.00  0.00     0.000 C 
ENDROOT
BRANCH   1   2
ATOM      2  C   UNL     1      22.867  -9.723  23.270  1.00  0.00     0.000 C 
BRANCH   2   3
ATOM      3  C   UNL     1      22.122  -9.512  24.606  1.00  0.00     0.000 C 
BRANCH   3   4
ATOM      4  C   UNL     1      20.810  -8.714  24.511  1.00  0.00    -0.000 C 
BRANCH   4   5
ATOM      5  C   UNL     1      19.908  -8.905  25.740  1.00  0.00    -0.000 C 
BRANCH   5   6
ATOM      6  C   UNL     1      18.695  -7.968  25.682  1.00  0.00    -0.000 C 
BRANCH   6   7
ATOM      7  C   UNL     1      18.449  -7.474  24.248  1.00  0.00    -0.000 C 
BRANCH   7   8
ATOM      8  C   UNL     1      16.964  -7.525  23.840  1.00  0.00    -0.000 C 
BRANCH   8   9
ATOM      9  C   UNL     1      15.978  -7.037  24.916  1.00  0.00    -0.000 C 
BRANCH   9  10
ATOM     10  C   UNL     1      15.356  -5.671  24.582  1.00  0.00    -0.000 C 
BRANCH  10  11
ATOM     11  C   UNL     1      15.834  -4.556  25.527  1.00  0.00    -0.003 C 
ATOM     12  C   UNL     1      16.925  -3.685  24.906  1.00  0.00     0.004 C 
ENDBRANCH  10  11
ENDBRANCH   9  10
ENDBRANCH   8   9
ENDBRANCH   7   8
ENDBRANCH   6   7
ENDBRANCH   5   6
ENDBRANCH   4   5
ENDBRANCH   3   4
ENDBRANCH   2   3
ENDBRANCH   1   2
BRANCH   1  13
ATOM     13  C   UNL     1      23.940  -8.633  21.171  1.00  0.00     0.000 C 
BRANCH  13  14
ATOM     14  C   UNL     1      24.823  -7.485  20.652  1.00  0.00     0.000 C 
BRANCH  14  15
ATOM     15  C   UNL     1      26.144  -7.982  20.041  1.00  0.00     0.000 C 
BRANCH  15  16
ATOM     16  C   UNL     1      26.931  -6.872  19.319  1.00  0.00     0.000 C 
BRANCH  16  17
ATOM     17  C   UNL     1      26.814  -5.468  19.944  1.00  0.00     0.000 C 
BRANCH  17  18
ATOM     18  C   UNL     1      26.230  -4.424  18.976  1.00  0.00     0.000 C 
BRANCH  18  19
ATOM     19  C   UNL     1      25.471  -3.302  19.703  1.00  0.00     0.000 C 
BRANCH  19  20
ATOM     20  C   UNL     1      26.220  -1.957  19.660  1.00  0.00     0.006 C 
BRANCH  20  21
ATOM     21  C   UNL     1      27.306  -1.865  20.740  1.00  0.00     0.053 C 
BRANCH  21  22
ATOM     22  C   UNL     1      28.679  -1.810  20.143  1.00  0.00     0.041 C 
ATOM     23  O   UNL     1      29.115  -0.734  19.654  1.00  0.00    -0.550 OA
ATOM     24  O   UNL     1      29.489  -2.938  20.158  1.00  0.00    -0.550 OA
ENDBRANCH  21  22
ENDBRANCH  20  21
ENDBRANCH  19  20
ENDBRANCH  18  19
ENDBRANCH  17  18
ENDBRANCH  16  17
ENDBRANCH  15  16
ENDBRANCH  14  15
ENDBRANCH  13  14
ENDBRANCH   1  13
TORSDOF 20
ENDMDL
MODEL 5
REMARK VINA RESULT:    -6.468      4.648      9.553
REMARK INTER + INTRA:         -15.756
REMARK INTER:                 -14.755
REMARK INTRA:                  -1.001
REMARK UNBOUND:                -1.727
REMARK SMILES CCCCCCCCCCCCCCCCCCCCCC(=O)[O-]
REMARK SMILES IDX 12 1 11 2 10 3 9 4 8 5 7 6 6 7 5 8 4 9 3 10 2 11 1 12 13 13
REMARK SMILES IDX 14 14 15 15 16 16 17 17 18 18 19 19 20 20 21 21 22 22 23 23
REMARK SMILES IDX 24 24
REMARK H PARENT
REMARK Flexibility Score: inf
ROOT
ATOM      1  C   UNL     1      24.182  -7.836  20.681  1.00  0.00     0.000 C 
ENDROOT
BRANCH   1   2
ATOM      2  C   UNL     1      23.581  -8.995  21.505  1.00  0.00     0.000 C 
BRANCH   2   3
ATOM      3  C   UNL     1      23.220  -8.658  22.968  1.00  0.00     0.000 C 
BRANCH   3   4
ATOM      4  C   UNL     1      22.803  -9.857  23.838  1.00  0.00    -0.000 C 
BRANCH   4   5
ATOM      5  C   UNL     1      21.627  -9.533  24.771  1.00  0.00    -0.000 C 
BRANCH   5   6
ATOM      6  C   UNL     1      20.965  -8.205  24.381  1.00  0.00    -0.000 C 
BRANCH   6   7
ATOM      7  C   UNL     1      19.542  -8.110  24.954  1.00  0.00    -0.000 C 
BRANCH   7   8
ATOM      8  C   UNL     1      18.553  -7.414  24.000  1.00  0.00    -0.000 C 
BRANCH   8   9
ATOM      9  C   UNL     1      17.104  -7.334  24.513  1.00  0.00    -0.000 C 
BRANCH   9  10
ATOM     10  C   UNL     1      16.971  -6.505  25.802  1.00  0.00    -0.000 C 
BRANCH  10  11
ATOM     11  C   UNL     1      16.301  -5.142  25.561  1.00  0.00    -0.003 C 
ATOM     12  C   UNL     1      15.076  -5.240  24.653  1.00  0.00     0.004 C 
ENDBRANCH  10  11
ENDBRANCH   9  10
ENDBRANCH   8   9
ENDBRANCH   7   8
ENDBRANCH   6   7
ENDBRANCH   5   6
ENDBRANCH   4   5
ENDBRANCH   3   4
ENDBRANCH   2   3
ENDBRANCH   1   2
BRANCH   1  13
ATOM     13  C   UNL     1      25.695  -7.975  20.392  1.00  0.00     0.000 C 
BRANCH  13  14
ATOM     14  C   UNL     1      26.339  -6.707  19.806  1.00  0.00     0.000 C 
BRANCH  14  15
ATOM     15  C   UNL     1      25.347  -5.538  19.689  1.00  0.00     0.000 C 
BRANCH  15  16
ATOM     16  C   UNL     1      26.034  -4.159  19.702  1.00  0.00     0.000 C 
BRANCH  16  17
ATOM     17  C   UNL     1      25.084  -2.950  19.802  1.00  0.00     0.000 C 
BRANCH  17  18
ATOM     18  C   UNL     1      25.812  -1.600  19.685  1.00  0.00     0.000 C 
BRANCH  18  19
ATOM     19  C   UNL     1      27.200  -1.616  20.346  1.00  0.00     0.000 C 
BRANCH  19  20
ATOM     20  C   UNL     1      28.332  -1.288  19.353  1.00  0.00     0.006 C 
BRANCH  20  21
ATOM     21  C   UNL     1      29.685  -1.844  19.815  1.00  0.00     0.053 C 
BRANCH  21  22
ATOM     22  C   UNL     1      30.087  -3.052  19.026  1.00  0.00     0.041 C 
ATOM     23  O   UNL     1      31.287  -3.434  19.019  1.00  0.00    -0.550 OA
ATOM     24  O   UNL     1      29.130  -3.776  18.327  1.00  0.00    -0.550 OA
ENDBRANCH  21  22
ENDBRANCH  20  21
ENDBRANCH  19  20
ENDBRANCH  18  19
ENDBRANCH  17  18
ENDBRANCH  16  17
ENDBRANCH  15  16
ENDBRANCH  14  15
ENDBRANCH  13  14
ENDBRANCH   1  13
TORSDOF 20
ENDMDL
MODEL 6
REMARK VINA RESULT:    -6.427      4.836      9.431
REMARK INTER + INTRA:         -15.667
REMARK INTER:                 -14.518
REMARK INTRA:                  -1.149
REMARK UNBOUND:                -1.727
REMARK SMILES CCCCCCCCCCCCCCCCCCCCCC(=O)[O-]
REMARK SMILES IDX 12 1 11 2 10 3 9 4 8 5 7 6 6 7 5 8 4 9 3 10 2 11 1 12 13 13
REMARK SMILES IDX 14 14 15 15 16 16 17 17 18 18 19 19 20 20 21 21 22 22 23 23
REMARK SMILES IDX 24 24
REMARK H PARENT
REMARK Flexibility Score: inf
ROOT
ATOM      1  C   UNL     1      24.015  -8.989  21.442  1.00  0.00     0.000 C 
ENDROOT
BRANCH   1   2
ATOM      2  C   UNL     1      23.304  -8.552  22.740  1.00  0.00     0.000 C 
BRANCH   2   3
ATOM      3  C   UNL     1      22.626  -9.682  23.545  1.00  0.00     0.000 C 
BRANCH   3   4
ATOM      4  C   UNL     1      21.703  -9.219  24.685  1.00  0.00    -0.000 C 
BRANCH   4   5
ATOM      5  C   UNL     1      20.607  -8.254  24.207  1.00  0.00    -0.000 C 
BRANCH   5   6
ATOM      6  C   UNL     1      19.407  -8.269  25.163  1.00  0.00    -0.000 C 
BRANCH   6   7
ATOM      7  C   UNL     1      18.440  -7.117  24.850  1.00  0.00    -0.000 C 
BRANCH   7   8
ATOM      8  C   UNL     1      17.182  -7.575  24.089  1.00  0.00    -0.000 C 
BRANCH   8   9
ATOM      9  C   UNL     1      15.903  -6.782  24.410  1.00  0.00    -0.000 C 
BRANCH   9  10
ATOM     10  C   UNL     1      16.064  -5.856  25.628  1.00  0.00    -0.000 C 
BRANCH  10  11
ATOM     11  C   UNL     1      15.874  -4.372  25.271  1.00  0.00    -0.003 C 
ATOM     12  C   UNL     1      17.179  -3.693  24.859  1.00  0.00     0.004 C 
ENDBRANCH  10  11
ENDBRANCH   9  10
ENDBRANCH   8   9
ENDBRANCH   7   8
ENDBRANCH   6   7
ENDBRANCH   5   6
ENDBRANCH   4   5
ENDBRANCH   3   4
ENDBRANCH   2   3
ENDBRANCH   1   2
BRANCH   1  13
ATOM     13  C   UNL     1      24.942  -7.914  20.828  1.00  0.00     0.000 C 
BRANCH  13  14
ATOM     14  C   UNL     1      24.197  -6.821  20.042  1.00  0.00     0.000 C 
BRANCH  14  15
ATOM     15  C   UNL     1      25.073  -5.588  19.766  1.00  0.00     0.000 C 
BRANCH  15  16
ATOM     16  C   UNL     1      26.472  -5.947  19.232  1.00  0.00     0.000 C 
BRANCH  16  17
ATOM     17  C   UNL     1      27.204  -4.814  18.486  1.00  0.00     0.000 C 
BRANCH  17  18
ATOM     18  C   UNL     1      28.206  -4.056  19.375  1.00  0.00     0.000 C 
BRANCH  18  19
ATOM     19  C   UNL     1      27.935  -2.544  19.417  1.00  0.00     0.000 C 
BRANCH  19  20
ATOM     20  C   UNL     1      26.855  -2.165  20.449  1.00  0.00     0.006 C 
BRANCH  20  21
ATOM     21  C   UNL     1      25.567  -1.668  19.783  1.00  0.00     0.053 C 
BRANCH  21  22
ATOM     22  C   UNL     1      25.487  -0.172  19.776  1.00  0.00     0.041 C 
ATOM     23  O   UNL     1      24.368   0.403  19.727  1.00  0.00    -0.550 OA
ATOM     24  O   UNL     1      26.648   0.586  19.860  1.00  0.00    -0.550 OA
ENDBRANCH  21  22
ENDBRANCH  20  21
ENDBRANCH  19  20
ENDBRANCH  18  19
ENDBRANCH  17  18
ENDBRANCH  16  17
ENDBRANCH  15  16
ENDBRANCH  14  15
ENDBRANCH  13  14
ENDBRANCH   1  13
TORSDOF 20
ENDMDL
MODEL 7
REMARK VINA RESULT:    -6.396      3.558      6.221
REMARK INTER + INTRA:         -15.600
REMARK INTER:                 -14.655
REMARK INTRA:                  -0.945
REMARK UNBOUND:                -1.727
REMARK SMILES CCCCCCCCCCCCCCCCCCCCCC(=O)[O-]
REMARK SMILES IDX 12 1 11 2 10 3 9 4 8 5 7 6 6 7 5 8 4 9 3 10 2 11 1 12 13 13
REMARK SMILES IDX 14 14 15 15 16 16 17 17 18 18 19 19 20 20 21 21 22 22 23 23
REMARK SMILES IDX 24 24
REMARK H PARENT
REMARK Flexibility Score: inf
ROOT
ATOM      1  C   UNL     1      23.833  -7.816  20.403  1.00  0.00     0.000 C 
ENDROOT
BRANCH   1   2
ATOM      2  C   UNL     1      25.181  -7.083  20.563  1.00  0.00     0.000 C 
BRANCH   2   3
ATOM      3  C   UNL     1      26.297  -7.514  19.587  1.00  0.00     0.000 C 
BRANCH   3   4
ATOM      4  C   UNL     1      26.914  -6.382  18.748  1.00  0.00    -0.000 C 
BRANCH   4   5
ATOM      5  C   UNL     1      27.119  -5.090  19.552  1.00  0.00    -0.000 C 
BRANCH   5   6
ATOM      6  C   UNL     1      28.001  -4.098  18.784  1.00  0.00    -0.000 C 
BRANCH   6   7
ATOM      7  C   UNL     1      28.945  -3.348  19.736  1.00  0.00    -0.000 C 
BRANCH   7   8
ATOM      8  C   UNL     1      28.781  -1.818  19.668  1.00  0.00    -0.000 C 
BRANCH   8   9
ATOM      9  C   UNL     1      27.621  -1.251  20.505  1.00  0.00    -0.000 C 
BRANCH   9  10
ATOM     10  C   UNL     1      27.246   0.188  20.111  1.00  0.00    -0.000 C 
BRANCH  10  11
ATOM     11  C   UNL     1      25.757   0.336  19.760  1.00  0.00    -0.003 C 
ATOM     12  C   UNL     1      25.009  -0.997  19.789  1.00  0.00     0.004 C 
ENDBRANCH  10  11
ENDBRANCH   9  10
ENDBRANCH   8   9
ENDBRANCH   7   8
ENDBRANCH   6   7
ENDBRANCH   5   6
ENDBRANCH   4   5
ENDBRANCH   3   4
ENDBRANCH   2   3
ENDBRANCH   1   2
BRANCH   1  13
ATOM     13  C   UNL     1      23.621  -8.988  21.390  1.00  0.00     0.000 C 
BRANCH  13  14
ATOM     14  C   UNL     1      23.576  -8.560  22.867  1.00  0.00     0.000 C 
BRANCH  14  15
ATOM     15  C   UNL     1      22.560  -9.371  23.689  1.00  0.00     0.000 C 
BRANCH  15  16
ATOM     16  C   UNL     1      21.271  -8.586  24.000  1.00  0.00     0.000 C 
BRANCH  16  17
ATOM     17  C   UNL     1      20.680  -8.819  25.404  1.00  0.00     0.000 C 
BRANCH  17  18
ATOM     18  C   UNL     1      19.198  -8.419  25.508  1.00  0.00     0.000 C 
BRANCH  18  19
ATOM     19  C   UNL     1      18.708  -7.638  24.278  1.00  0.00     0.000 C 
BRANCH  19  20
ATOM     20  C   UNL     1      17.252  -7.156  24.425  1.00  0.00     0.006 C 
BRANCH  20  21
ATOM     21  C   UNL     1      17.160  -5.805  25.144  1.00  0.00     0.053 C 
BRANCH  21  22
ATOM     22  C   UNL     1      15.844  -5.133  24.896  1.00  0.00     0.041 C 
ATOM     23  O   UNL     1      14.851  -5.807  24.514  1.00  0.00    -0.550 OA
ATOM     24  O   UNL     1      15.706  -3.770  25.121  1.00  0.00    -0.550 OA
ENDBRANCH  21  22
ENDBRANCH  20  21
ENDBRANCH  19  20
ENDBRANCH  18  19
ENDBRANCH  17  18
ENDBRANCH  16  17
ENDBRANCH  15  16
ENDBRANCH  14  15
ENDBRANCH  13  14
ENDBRANCH   1  13
TORSDOF 20
ENDMDL
MODEL 8
REMARK VINA RESULT:    -6.352      3.601      6.486
REMARK INTER + INTRA:         -15.506
REMARK INTER:                 -14.069
REMARK INTRA:                  -1.437
REMARK UNBOUND:                -1.727
REMARK SMILES CCCCCCCCCCCCCCCCCCCCCC(=O)[O-]
REMARK SMILES IDX 12 1 11 2 10 3 9 4 8 5 7 6 6 7 5 8 4 9 3 10 2 11 1 12 13 13
REMARK SMILES IDX 14 14 15 15 16 16 17 17 18 18 19 19 20 20 21 21 22 22 23 23
REMARK SMILES IDX 24 24
REMARK H PARENT
REMARK Flexibility Score: inf
ROOT
ATOM      1  C   UNL     1      24.392  -7.678  20.570  1.00  0.00     0.000 C 
ENDROOT
BRANCH   1   2
ATOM      2  C   UNL     1      25.910  -7.928  20.439  1.00  0.00     0.000 C 
BRANCH   2   3
ATOM      3  C   UNL     1      26.627  -7.122  19.333  1.00  0.00     0.000 C 
BRANCH   3   4
ATOM      4  C   UNL     1      27.043  -5.693  19.722  1.00  0.00    -0.000 C 
BRANCH   4   5
ATOM      5  C   UNL     1      26.533  -4.636  18.732  1.00  0.00    -0.000 C 
BRANCH   5   6
ATOM      6  C   UNL     1      25.178  -4.073  19.178  1.00  0.00    -0.000 C 
BRANCH   6   7
ATOM      7  C   UNL     1      25.362  -2.828  20.059  1.00  0.00    -0.000 C 
BRANCH   7   8
ATOM      8  C   UNL     1      26.496  -1.906  19.571  1.00  0.00    -0.000 C 
BRANCH   8   9
ATOM      9  C   UNL     1      27.540  -1.540  20.641  1.00  0.00    -0.000 C 
BRANCH   9  10
ATOM     10  C   UNL     1      28.911  -1.185  20.040  1.00  0.00    -0.000 C 
BRANCH  10  11
ATOM     11  C   UNL     1      29.327  -2.141  18.910  1.00  0.00    -0.003 C 
ATOM     12  C   UNL     1      29.982  -3.419  19.431  1.00  0.00     0.004 C 
ENDBRANCH  10  11
ENDBRANCH   9  10
ENDBRANCH   8   9
ENDBRANCH   7   8
ENDBRANCH   6   7
ENDBRANCH   5   6
ENDBRANCH   4   5
ENDBRANCH   3   4
ENDBRANCH   2   3
ENDBRANCH   1   2
BRANCH   1  13
ATOM     13  C   UNL     1      23.619  -8.809  21.287  1.00  0.00     0.000 C 
BRANCH  13  14
ATOM     14  C   UNL     1      23.342  -8.532  22.775  1.00  0.00     0.000 C 
BRANCH  14  15
ATOM     15  C   UNL     1      22.870  -9.783  23.534  1.00  0.00     0.000 C 
BRANCH  15  16
ATOM     16  C   UNL     1      21.798  -9.476  24.598  1.00  0.00     0.000 C 
BRANCH  16  17
ATOM     17  C   UNL     1      20.921  -8.241  24.313  1.00  0.00     0.000 C 
BRANCH  17  18
ATOM     18  C   UNL     1      19.628  -8.216  25.146  1.00  0.00     0.000 C 
BRANCH  18  19
ATOM     19  C   UNL     1      18.410  -7.744  24.335  1.00  0.00     0.000 C 
BRANCH  19  20
ATOM     20  C   UNL     1      17.285  -7.186  25.227  1.00  0.00     0.006 C 
BRANCH  20  21
ATOM     21  C   UNL     1      17.130  -5.667  25.081  1.00  0.00     0.053 C 
BRANCH  21  22
ATOM     22  C   UNL     1      15.708  -5.235  25.265  1.00  0.00     0.041 C 
ATOM     23  O   UNL     1      14.829  -5.576  24.429  1.00  0.00    -0.550 OA
ATOM     24  O   UNL     1      15.347  -4.485  26.376  1.00  0.00    -0.550 OA
ENDBRANCH  21  22
ENDBRANCH  20  21
ENDBRANCH  19  20
ENDBRANCH  18  19
ENDBRANCH  17  18
ENDBRANCH  16  17
ENDBRANCH  15  16
ENDBRANCH  14  15
ENDBRANCH  13  14
ENDBRANCH   1  13
TORSDOF 20
ENDMDL
MODEL 9
REMARK VINA RESULT:    -6.350      4.082      7.337
REMARK INTER + INTRA:         -15.501
REMARK INTER:                 -14.411
REMARK INTRA:                  -1.090
REMARK UNBOUND:                -1.727
REMARK SMILES CCCCCCCCCCCCCCCCCCCCCC(=O)[O-]
REMARK SMILES IDX 12 1 11 2 10 3 9 4 8 5 7 6 6 7 5 8 4 9 3 10 2 11 1 12 13 13
REMARK SMILES IDX 14 14 15 15 16 16 17 17 18 18 19 19 20 20 21 21 22 22 23 23
REMARK SMILES IDX 24 24
REMARK H PARENT
REMARK Flexibility Score: inf
ROOT
ATOM      1  C   UNL     1      23.547  -9.099  21.743  1.00  0.00     0.000 C 
ENDROOT
BRANCH   1   2
ATOM      2  C   UNL     1      23.956  -7.924  20.830  1.00  0.00     0.000 C 
BRANCH   2   3
ATOM      3  C   UNL     1      25.403  -7.965  20.294  1.00  0.00     0.000 C 
BRANCH   3   4
ATOM      4  C   UNL     1      26.104  -6.601  20.180  1.00  0.00    -0.000 C 
BRANCH   4   5
ATOM      5  C   UNL     1      25.219  -5.530  19.525  1.00  0.00    -0.000 C 
BRANCH   5   6
ATOM      6  C   UNL     1      25.977  -4.206  19.376  1.00  0.00    -0.000 C 
BRANCH   6   7
ATOM      7  C   UNL     1      26.984  -4.275  18.217  1.00  0.00    -0.000 C 
BRANCH   7   8
ATOM      8  C   UNL     1      28.434  -4.491  18.691  1.00  0.00    -0.000 C 
BRANCH   8   9
ATOM      9  C   UNL     1      28.895  -3.553  19.821  1.00  0.00    -0.000 C 
BRANCH   9  10
ATOM     10  C   UNL     1      29.495  -2.237  19.298  1.00  0.00    -0.000 C 
BRANCH  10  11
ATOM     11  C   UNL     1      28.867  -0.998  19.958  1.00  0.00    -0.003 C 
ATOM     12  C   UNL     1      27.385  -0.839  19.622  1.00  0.00     0.004 C 
ENDBRANCH  10  11
ENDBRANCH   9  10
ENDBRANCH   8   9
ENDBRANCH   7   8
ENDBRANCH   6   7
ENDBRANCH   5   6
ENDBRANCH   4   5
ENDBRANCH   3   4
ENDBRANCH   2   3
ENDBRANCH   1   2
BRANCH   1  13
ATOM     13  C   UNL     1      23.164  -8.687  23.183  1.00  0.00     0.000 C 
BRANCH  13  14
ATOM     14  C   UNL     1      22.583  -9.833  24.028  1.00  0.00     0.000 C 
BRANCH  14  15
ATOM     15  C   UNL     1      21.440  -9.372  24.947  1.00  0.00     0.000 C 
BRANCH  15  16
ATOM     16  C   UNL     1      20.545  -8.295  24.306  1.00  0.00     0.000 C 
BRANCH  16  17
ATOM     17  C   UNL     1      19.213  -8.026  25.033  1.00  0.00     0.000 C 
BRANCH  17  18
ATOM     18  C   UNL     1      18.324  -7.002  24.304  1.00  0.00     0.000 C 
BRANCH  18  19
ATOM     19  C   UNL     1      16.914  -7.541  24.016  1.00  0.00     0.000 C 
BRANCH  19  20
ATOM     20  C   UNL     1      15.862  -7.003  25.006  1.00  0.00     0.006 C 
BRANCH  20  21
ATOM     21  C   UNL     1      15.165  -5.743  24.479  1.00  0.00     0.053 C 
BRANCH  21  22
ATOM     22  C   UNL     1      15.565  -4.523  25.252  1.00  0.00     0.041 C 
ATOM     23  O   UNL     1      15.493  -4.517  26.509  1.00  0.00    -0.550 OA
ATOM     24  O   UNL     1      16.051  -3.406  24.584  1.00  0.00    -0.550 OA
ENDBRANCH  21  22
ENDBRANCH  20  21
ENDBRANCH  19  20
ENDBRANCH  18  19
ENDBRANCH  17  18
ENDBRANCH  16  17
ENDBRANCH  15  16
ENDBRANCH  14  15
ENDBRANCH  13  14
ENDBRANCH   1  13
TORSDOF 20
ENDMDL
