MODEL 1
REMARK VINA RESULT:    -3.552      0.000      0.000
REMARK INTER + INTRA:          -4.474
REMARK INTER:                  -4.279
REMARK INTRA:                  -0.195
REMARK UNBOUND:                -0.195
REMARK SMILES OCC(O)CO
REMARK SMILES IDX 3 1 5 2 6 3 2 5 1 6 4 8
REMARK H PARENT 6 4 1 7 4 9
REMARK Flexibility Score: inf
ROOT
ATOM      1  C   UNL     1       8.306  27.167  17.548  1.00  0.00     0.165 C 
ENDROOT
BRANCH   1   2
ATOM      2  C   UNL     1       7.382  26.799  18.722  1.00  0.00     0.190 C 
BRANCH   2   3
ATOM      3  O   UNL     1       6.660  25.632  18.430  1.00  0.00    -0.394 OA
ATOM      4  H   UNL     1       6.062  25.852  17.669  1.00  0.00     0.210 HD
ENDBRANCH   2   3
ENDBRANCH   1   2
BRANCH   1   5
ATOM      5  C   UNL     1       7.517  27.753  16.364  1.00  0.00     0.190 C 
BRANCH   5   6
ATOM      6  O   UNL     1       7.031  26.734  15.533  1.00  0.00    -0.394 OA
ATOM      7  H   UNL     1       7.515  26.814  14.670  1.00  0.00     0.210 HD
ENDBRANCH   5   6
ENDBRANCH   1   5
BRANCH   1   8
ATOM      8  O   UNL     1       9.048  26.047  17.132  1.00  0.00    -0.388 OA
ATOM      9  H   UNL     1       9.226  25.490  17.935  1.00  0.00     0.211 HD
ENDBRANCH   1   8
TORSDOF 5
ENDMDL
MODEL 2
REMARK VINA RESULT:    -3.327      1.446      3.008
REMARK INTER + INTRA:          -4.204
REMARK INTER:                  -4.195
REMARK INTRA:                  -0.009
REMARK UNBOUND:                -0.195
REMARK SMILES OCC(O)CO
REMARK SMILES IDX 3 1 5 2 6 3 2 5 1 6 4 8
REMARK H PARENT 6 4 1 7 4 9
REMARK Flexibility Score: inf
ROOT
ATOM      1  C   UNL     1       7.717  27.145  18.197  1.00  0.00     0.165 C 
ENDROOT
BRANCH   1   2
ATOM      2  C   UNL     1       8.679  26.939  17.013  1.00  0.00     0.190 C 
BRANCH   2   3
ATOM      3  O   UNL     1       7.969  26.908  15.804  1.00  0.00    -0.394 OA
ATOM      4  H   UNL     1       8.438  26.259  15.217  1.00  0.00     0.210 HD
ENDBRANCH   2   3
ENDBRANCH   1   2
BRANCH   1   5
ATOM      5  C   UNL     1       8.433  27.757  19.413  1.00  0.00     0.190 C 
BRANCH   5   6
ATOM      6  O   UNL     1       9.825  27.642  19.285  1.00  0.00    -0.394 OA
ATOM      7  H   UNL     1      10.120  26.984  19.966  1.00  0.00     0.210 HD
ENDBRANCH   5   6
ENDBRANCH   1   5
BRANCH   1   8
ATOM      8  O   UNL     1       7.104  25.930  18.553  1.00  0.00    -0.388 OA
ATOM      9  H   UNL     1       6.227  26.145  18.964  1.00  0.00     0.211 HD
ENDBRANCH   1   8
TORSDOF 5
ENDMDL
MODEL 3
REMARK VINA RESULT:    -3.312     18.619     19.052
REMARK INTER + INTRA:          -4.186
REMARK INTER:                  -4.183
REMARK INTRA:                  -0.003
REMARK UNBOUND:                -0.195
REMARK SMILES OCC(O)CO
REMARK SMILES IDX 3 1 5 2 6 3 2 5 1 6 4 8
REMARK H PARENT 6 4 1 7 4 9
REMARK Flexibility Score: inf
ROOT
ATOM      1  C   UNL     1      -5.824  13.129  15.496  1.00  0.00     0.165 C 
ENDROOT
BRANCH   1   2
ATOM      2  C   UNL     1      -6.163  14.486  14.857  1.00  0.00     0.190 C 
BRANCH   2   3
ATOM      3  O   UNL     1      -6.384  14.338  13.479  1.00  0.00    -0.394 OA
ATOM      4  H   UNL     1      -7.341  14.549  13.322  1.00  0.00     0.210 HD
ENDBRANCH   2   3
ENDBRANCH   1   2
BRANCH   1   5
ATOM      5  C   UNL     1      -6.128  13.119  17.005  1.00  0.00     0.190 C 
BRANCH   5   6
ATOM      6  O   UNL     1      -4.973  12.837  17.747  1.00  0.00    -0.394 OA
ATOM      7  H   UNL     1      -5.050  11.894  18.048  1.00  0.00     0.210 HD
ENDBRANCH   5   6
ENDBRANCH   1   5
BRANCH   1   8
ATOM      8  O   UNL     1      -4.476  12.798  15.269  1.00  0.00    -0.388 OA
ATOM      9  H   UNL     1      -3.937  13.227  15.984  1.00  0.00     0.211 HD
ENDBRANCH   1   8
TORSDOF 5
ENDMDL
MODEL 4
REMARK VINA RESULT:    -3.225     18.849     19.241
REMARK INTER + INTRA:          -4.080
REMARK INTER:                  -3.883
REMARK INTRA:                  -0.197
REMARK UNBOUND:                -0.195
REMARK SMILES OCC(O)CO
REMARK SMILES IDX 3 1 5 2 6 3 2 5 1 6 4 8
REMARK H PARENT 6 4 1 7 4 9
REMARK Flexibility Score: inf
ROOT
ATOM      1  C   UNL     1      -5.021  11.982  17.462  1.00  0.00     0.165 C 
ENDROOT
BRANCH   1   2
ATOM      2  C   UNL     1      -4.483  10.541  17.471  1.00  0.00     0.190 C 
BRANCH   2   3
ATOM      3  O   UNL     1      -3.224  10.484  16.856  1.00  0.00    -0.394 OA
ATOM      4  H   UNL     1      -3.332   9.931  16.038  1.00  0.00     0.210 HD
ENDBRANCH   2   3
ENDBRANCH   1   2
BRANCH   1   5
ATOM      5  C   UNL     1      -5.535  12.390  16.070  1.00  0.00     0.190 C 
BRANCH   5   6
ATOM      6  O   UNL     1      -4.484  12.849  15.264  1.00  0.00    -0.394 OA
ATOM      7  H   UNL     1      -3.767  12.165  15.313  1.00  0.00     0.210 HD
ENDBRANCH   5   6
ENDBRANCH   1   5
BRANCH   1   8
ATOM      8  O   UNL     1      -4.032  12.882  17.899  1.00  0.00    -0.388 OA
ATOM      9  H   UNL     1      -3.426  13.058  17.133  1.00  0.00     0.211 HD
ENDBRANCH   1   8
TORSDOF 5
ENDMDL
MODEL 5
REMARK VINA RESULT:    -3.183      1.527      2.065
REMARK INTER + INTRA:          -4.030
REMARK INTER:                  -4.028
REMARK INTRA:                  -0.002
REMARK UNBOUND:                -0.195
REMARK SMILES OCC(O)CO
REMARK SMILES IDX 3 1 5 2 6 3 2 5 1 6 4 8
REMARK H PARENT 6 4 1 7 4 9
REMARK Flexibility Score: inf
ROOT
ATOM      1  C   UNL     1       8.238  26.884  18.053  1.00  0.00     0.165 C 
ENDROOT
BRANCH   1   2
ATOM      2  C   UNL     1       8.530  27.793  19.259  1.00  0.00     0.190 C 
BRANCH   2   3
ATOM      3  O   UNL     1       9.903  27.801  19.547  1.00  0.00    -0.394 OA
ATOM      4  H   UNL     1      10.373  27.915  18.681  1.00  0.00     0.210 HD
ENDBRANCH   2   3
ENDBRANCH   1   2
BRANCH   1   5
ATOM      5  C   UNL     1       8.115  27.692  16.748  1.00  0.00     0.190 C 
BRANCH   5   6
ATOM      6  O   UNL     1       7.675  26.877  15.695  1.00  0.00    -0.394 OA
ATOM      7  H   UNL     1       7.188  27.467  15.063  1.00  0.00     0.210 HD
ENDBRANCH   5   6
ENDBRANCH   1   5
BRANCH   1   8
ATOM      8  O   UNL     1       7.071  26.132  18.272  1.00  0.00    -0.388 OA
ATOM      9  H   UNL     1       7.265  25.193  18.014  1.00  0.00     0.211 HD
ENDBRANCH   1   8
TORSDOF 5
ENDMDL
MODEL 6
REMARK VINA RESULT:    -3.115     17.964     18.769
REMARK INTER + INTRA:          -3.948
REMARK INTER:                  -3.749
REMARK INTRA:                  -0.198
REMARK UNBOUND:                -0.195
REMARK SMILES OCC(O)CO
REMARK SMILES IDX 3 1 5 2 6 3 2 5 1 6 4 8
REMARK H PARENT 6 4 1 7 4 9
REMARK Flexibility Score: inf
ROOT
ATOM      1  C   UNL     1      -3.457  10.939  17.875  1.00  0.00     0.165 C 
ENDROOT
BRANCH   1   2
ATOM      2  C   UNL     1      -4.539  11.849  17.269  1.00  0.00     0.190 C 
BRANCH   2   3
ATOM      3  O   UNL     1      -4.116  12.360  16.034  1.00  0.00    -0.394 OA
ATOM      4  H   UNL     1      -3.799  13.286  16.203  1.00  0.00     0.210 HD
ENDBRANCH   2   3
ENDBRANCH   1   2
BRANCH   1   5
ATOM      5  C   UNL     1      -2.382  11.751  18.619  1.00  0.00     0.190 C 
BRANCH   5   6
ATOM      6  O   UNL     1      -2.760  13.096  18.735  1.00  0.00    -0.394 OA
ATOM      7  H   UNL     1      -3.752  13.117  18.698  1.00  0.00     0.210 HD
ENDBRANCH   5   6
ENDBRANCH   1   5
BRANCH   1   8
ATOM      8  O   UNL     1      -2.863  10.146  16.877  1.00  0.00    -0.388 OA
ATOM      9  H   UNL     1      -2.625  10.743  16.120  1.00  0.00     0.211 HD
ENDBRANCH   1   8
TORSDOF 5
ENDMDL
MODEL 7
REMARK VINA RESULT:    -3.054     19.020     19.807
REMARK INTER + INTRA:          -3.875
REMARK INTER:                  -3.656
REMARK INTRA:                  -0.219
REMARK UNBOUND:                -0.195
REMARK SMILES OCC(O)CO
REMARK SMILES IDX 3 1 5 2 6 3 2 5 1 6 4 8
REMARK H PARENT 6 4 1 7 4 9
REMARK Flexibility Score: inf
ROOT
ATOM      1  C   UNL     1      -5.409  11.475  17.151  1.00  0.00     0.165 C 
ENDROOT
BRANCH   1   2
ATOM      2  C   UNL     1      -5.731  12.407  15.970  1.00  0.00     0.190 C 
BRANCH   2   3
ATOM      3  O   UNL     1      -4.551  12.812  15.329  1.00  0.00    -0.394 OA
ATOM      4  H   UNL     1      -3.875  12.951  16.042  1.00  0.00     0.210 HD
ENDBRANCH   2   3
ENDBRANCH   1   2
BRANCH   1   5
ATOM      5  C   UNL     1      -3.924  11.551  17.548  1.00  0.00     0.190 C 
BRANCH   5   6
ATOM      6  O   UNL     1      -3.169  10.602  16.844  1.00  0.00    -0.394 OA
ATOM      7  H   UNL     1      -2.727  11.087  16.099  1.00  0.00     0.210 HD
ENDBRANCH   5   6
ENDBRANCH   1   5
BRANCH   1   8
ATOM      8  O   UNL     1      -5.764  10.149  16.845  1.00  0.00    -0.388 OA
ATOM      9  H   UNL     1      -6.494   9.882  17.464  1.00  0.00     0.211 HD
ENDBRANCH   1   8
TORSDOF 5
ENDMDL
MODEL 8
REMARK VINA RESULT:    -3.045     17.854     18.608
REMARK INTER + INTRA:          -3.864
REMARK INTER:                  -3.641
REMARK INTRA:                  -0.223
REMARK UNBOUND:                -0.195
REMARK SMILES OCC(O)CO
REMARK SMILES IDX 3 1 5 2 6 3 2 5 1 6 4 8
REMARK H PARENT 6 4 1 7 4 9
REMARK Flexibility Score: inf
ROOT
ATOM      1  C   UNL     1      -3.066  11.406  17.389  1.00  0.00     0.165 C 
ENDROOT
BRANCH   1   2
ATOM      2  C   UNL     1      -2.460  11.749  18.762  1.00  0.00     0.190 C 
BRANCH   2   3
ATOM      3  O   UNL     1      -2.392  13.139  18.935  1.00  0.00    -0.394 OA
ATOM      4  H   UNL     1      -3.154  13.525  18.430  1.00  0.00     0.210 HD
ENDBRANCH   2   3
ENDBRANCH   1   2
BRANCH   1   5
ATOM      5  C   UNL     1      -4.591  11.613  17.373  1.00  0.00     0.190 C 
BRANCH   5   6
ATOM      6  O   UNL     1      -4.914  12.970  17.510  1.00  0.00    -0.394 OA
ATOM      7  H   UNL     1      -4.532  13.268  18.377  1.00  0.00     0.210 HD
ENDBRANCH   5   6
ENDBRANCH   1   5
BRANCH   1   8
ATOM      8  O   UNL     1      -2.750  10.085  17.025  1.00  0.00    -0.388 OA
ATOM      9  H   UNL     1      -2.114   9.731  17.701  1.00  0.00     0.211 HD
ENDBRANCH   1   8
TORSDOF 5
ENDMDL
MODEL 9
REMARK VINA RESULT:    -3.000     17.862     18.657
REMARK INTER + INTRA:          -3.809
REMARK INTER:                  -3.785
REMARK INTRA:                  -0.024
REMARK UNBOUND:                -0.195
REMARK SMILES OCC(O)CO
REMARK SMILES IDX 3 1 5 2 6 3 2 5 1 6 4 8
REMARK H PARENT 6 4 1 7 4 9
REMARK Flexibility Score: inf
ROOT
ATOM      1  C   UNL     1      -3.124  11.169  18.097  1.00  0.00     0.165 C 
ENDROOT
BRANCH   1   2
ATOM      2  C   UNL     1      -2.359  12.115  19.039  1.00  0.00     0.190 C 
BRANCH   2   3
ATOM      3  O   UNL     1      -1.340  12.782  18.343  1.00  0.00    -0.394 OA
ATOM      4  H   UNL     1      -0.579  12.874  18.974  1.00  0.00     0.210 HD
ENDBRANCH   2   3
ENDBRANCH   1   2
BRANCH   1   5
ATOM      5  C   UNL     1      -2.466   9.780  18.029  1.00  0.00     0.190 C 
BRANCH   5   6
ATOM      6  O   UNL     1      -2.031   9.496  16.726  1.00  0.00    -0.394 OA
ATOM      7  H   UNL     1      -1.499  10.279  16.427  1.00  0.00     0.210 HD
ENDBRANCH   5   6
ENDBRANCH   1   5
BRANCH   1   8
ATOM      8  O   UNL     1      -3.221  11.726  16.810  1.00  0.00    -0.388 OA
ATOM      9  H   UNL     1      -4.134  11.536  16.468  1.00  0.00     0.211 HD
ENDBRANCH   1   8
TORSDOF 5
ENDMDL
