MODEL 1
REMARK VINA RESULT:    -4.920      0.000      0.000
REMARK INTER + INTRA:          -6.444
REMARK INTER:                  -6.071
REMARK INTRA:                  -0.373
REMARK UNBOUND:                -0.373
REMARK SMILES Oc1cc(O)c2cc(O)c(-c3cc(O)c(O)c(O)c3)[o+]c2c1
REMARK SMILES IDX 10 1 20 2 21 3 22 4 2 5 3 6 4 7 6 8 7 9 8 10 11 11 12 12
REMARK SMILES IDX 13 13 19 14 15 15 17 16 14 17 16 19 18 21 9 23 1 25 5 27
REMARK H PARENT 14 18 16 20 18 22 9 24 1 26 5 28
REMARK Flexibility Score: inf
ROOT
ATOM      1  C   UNL     1      34.563  12.568  -1.392  1.00  0.00     0.402 A 
ATOM      2  O   UNL     1      35.339  11.670  -0.788  1.00  0.00    -0.202 OA
ATOM      3  C   UNL     1      34.886  10.510  -0.323  1.00  0.00     0.368 A 
ATOM      4  C   UNL     1      35.779   9.633   0.300  1.00  0.00     0.162 A 
ATOM      5  C   UNL     1      35.332   8.410   0.800  1.00  0.00     0.128 A 
ATOM      6  C   UNL     1      33.982   8.059   0.681  1.00  0.00     0.093 A 
ATOM      7  C   UNL     1      33.068   8.920   0.061  1.00  0.00     0.136 A 
ATOM      8  C   UNL     1      33.519  10.164  -0.452  1.00  0.00     0.125 A 
ATOM      9  C   UNL     1      32.678  11.084  -1.099  1.00  0.00     0.078 A 
ATOM     10  C   UNL     1      33.197  12.289  -1.583  1.00  0.00     0.223 A 
ENDROOT
BRANCH   1  11
ATOM     11  C   UNL     1      35.184  13.828  -1.859  1.00  0.00     0.091 A 
ATOM     12  C   UNL     1      35.800  13.917  -3.117  1.00  0.00     0.068 A 
ATOM     13  C   UNL     1      36.363  15.120  -3.560  1.00  0.00     0.162 A 
ATOM     14  C   UNL     1      35.106  14.974  -1.057  1.00  0.00     0.068 A 
ATOM     15  C   UNL     1      36.304  16.266  -2.732  1.00  0.00     0.200 A 
ATOM     16  C   UNL     1      35.666  16.181  -1.480  1.00  0.00     0.162 A 
BRANCH  13  17
ATOM     17  O   UNL     1      36.959  15.129  -4.822  1.00  0.00    -0.504 OA
ATOM     18  H   UNL     1      37.524  14.376  -5.189  1.00  0.00     0.293 HD
ENDBRANCH  13  17
BRANCH  15  19
ATOM     19  O   UNL     1      36.860  17.490  -3.114  1.00  0.00    -0.502 OA
ATOM     20  H   UNL     1      36.380  18.375  -3.054  1.00  0.00     0.293 HD
ENDBRANCH  15  19
BRANCH  16  21
ATOM     21  O   UNL     1      35.578  17.292  -0.641  1.00  0.00    -0.504 OA
ATOM     22  H   UNL     1      36.332  17.564  -0.021  1.00  0.00     0.293 HD
ENDBRANCH  16  21
ENDBRANCH   1  11
BRANCH  10  23
ATOM     23  O   UNL     1      32.372  13.180  -2.270  1.00  0.00    -0.500 OA
ATOM     24  H   UNL     1      31.367  13.056  -2.306  1.00  0.00     0.294 HD
ENDBRANCH  10  23
BRANCH   5  25
ATOM     25  O   UNL     1      36.237   7.549   1.418  1.00  0.00    -0.507 OA
ATOM     26  H   UNL     1      37.161   7.860   1.693  1.00  0.00     0.293 HD
ENDBRANCH   5  25
BRANCH   7  27
ATOM     27  O   UNL     1      31.738   8.499  -0.016  1.00  0.00    -0.507 OA
ATOM     28  H   UNL     1      30.977   8.912   0.506  1.00  0.00     0.293 HD
ENDBRANCH   7  27
TORSDOF 7
ENDMDL
MODEL 2
REMARK VINA RESULT:    -4.871      0.156      1.811
REMARK INTER + INTRA:          -6.383
REMARK INTER:                  -6.000
REMARK INTRA:                  -0.383
REMARK UNBOUND:                -0.373
REMARK SMILES Oc1cc(O)c2cc(O)c(-c3cc(O)c(O)c(O)c3)[o+]c2c1
REMARK SMILES IDX 10 1 20 2 21 3 22 4 2 5 3 6 4 7 6 8 7 9 8 10 11 11 12 12
REMARK SMILES IDX 13 13 19 14 15 15 17 16 14 17 16 19 18 21 9 23 1 25 5 27
REMARK H PARENT 14 18 16 20 18 22 9 24 1 26 5 28
REMARK Flexibility Score: inf
ROOT
ATOM      1  C   UNL     1      34.534  12.548  -1.446  1.00  0.00     0.402 A 
ATOM      2  O   UNL     1      35.347  11.665  -0.870  1.00  0.00    -0.202 OA
ATOM      3  C   UNL     1      34.930  10.503  -0.378  1.00  0.00     0.368 A 
ATOM      4  C   UNL     1      35.860   9.642   0.212  1.00  0.00     0.162 A 
ATOM      5  C   UNL     1      35.451   8.417   0.740  1.00  0.00     0.128 A 
ATOM      6  C   UNL     1      34.102   8.048   0.681  1.00  0.00     0.093 A 
ATOM      7  C   UNL     1      33.151   8.893   0.096  1.00  0.00     0.136 A 
ATOM      8  C   UNL     1      33.563  10.138  -0.445  1.00  0.00     0.125 A 
ATOM      9  C   UNL     1      32.683  11.042  -1.061  1.00  0.00     0.078 A 
ATOM     10  C   UNL     1      33.165  12.250  -1.575  1.00  0.00     0.223 A 
ENDROOT
BRANCH   1  11
ATOM     11  C   UNL     1      35.117  13.813  -1.949  1.00  0.00     0.091 A 
ATOM     12  C   UNL     1      35.142  14.971  -1.157  1.00  0.00     0.068 A 
ATOM     13  C   UNL     1      35.717  16.156  -1.631  1.00  0.00     0.162 A 
ATOM     14  C   UNL     1      35.710  13.843  -3.218  1.00  0.00     0.068 A 
ATOM     15  C   UNL     1      36.289  16.186  -2.926  1.00  0.00     0.200 A 
ATOM     16  C   UNL     1      36.284  15.017  -3.710  1.00  0.00     0.162 A 
BRANCH  13  17
ATOM     17  O   UNL     1      35.702  17.267  -0.786  1.00  0.00    -0.504 OA
ATOM     18  H   UNL     1      35.210  17.302   0.096  1.00  0.00     0.293 HD
ENDBRANCH  13  17
BRANCH  15  19
ATOM     19  O   UNL     1      36.865  17.342  -3.459  1.00  0.00    -0.502 OA
ATOM     20  H   UNL     1      37.314  18.058  -2.908  1.00  0.00     0.293 HD
ENDBRANCH  15  19
BRANCH  16  21
ATOM     21  O   UNL     1      36.848  15.004  -4.986  1.00  0.00    -0.504 OA
ATOM     22  H   UNL     1      36.286  15.062  -5.827  1.00  0.00     0.293 HD
ENDBRANCH  16  21
ENDBRANCH   1  11
BRANCH  10  23
ATOM     23  O   UNL     1      32.299  13.126  -2.233  1.00  0.00    -0.500 OA
ATOM     24  H   UNL     1      32.593  14.053  -2.514  1.00  0.00     0.294 HD
ENDBRANCH  10  23
BRANCH   5  25
ATOM     25  O   UNL     1      36.393   7.572   1.323  1.00  0.00    -0.507 OA
ATOM     26  H   UNL     1      36.354   7.335   2.307  1.00  0.00     0.293 HD
ENDBRANCH   5  25
BRANCH   7  27
ATOM     27  O   UNL     1      31.824   8.454   0.079  1.00  0.00    -0.507 OA
ATOM     28  H   UNL     1      31.366   7.994   0.853  1.00  0.00     0.293 HD
ENDBRANCH   7  27
TORSDOF 7
ENDMDL
MODEL 3
REMARK VINA RESULT:    -4.867      1.752      6.857
REMARK INTER + INTRA:          -6.378
REMARK INTER:                  -6.014
REMARK INTRA:                  -0.364
REMARK UNBOUND:                -0.373
REMARK SMILES Oc1cc(O)c2cc(O)c(-c3cc(O)c(O)c(O)c3)[o+]c2c1
REMARK SMILES IDX 10 1 20 2 21 3 22 4 2 5 3 6 4 7 6 8 7 9 8 10 11 11 12 12
REMARK SMILES IDX 13 13 19 14 15 15 17 16 14 17 16 19 18 21 9 23 1 25 5 27
REMARK H PARENT 14 18 16 20 18 22 9 24 1 26 5 28
REMARK Flexibility Score: inf
ROOT
ATOM      1  C   UNL     1      34.238  11.454  -1.268  1.00  0.00     0.402 A 
ATOM      2  O   UNL     1      35.111  12.382  -0.881  1.00  0.00    -0.202 OA
ATOM      3  C   UNL     1      35.098  13.630  -1.339  1.00  0.00     0.368 A 
ATOM      4  C   UNL     1      36.058  14.533  -0.874  1.00  0.00     0.162 A 
ATOM      5  C   UNL     1      36.071  15.849  -1.339  1.00  0.00     0.128 A 
ATOM      6  C   UNL     1      35.119  16.267  -2.276  1.00  0.00     0.093 A 
ATOM      7  C   UNL     1      34.147  15.381  -2.756  1.00  0.00     0.136 A 
ATOM      8  C   UNL     1      34.128  14.043  -2.284  1.00  0.00     0.125 A 
ATOM      9  C   UNL     1      33.184  13.091  -2.700  1.00  0.00     0.078 A 
ATOM     10  C   UNL     1      33.227  11.791  -2.186  1.00  0.00     0.223 A 
ENDROOT
BRANCH   1  11
ATOM     11  C   UNL     1      34.361  10.095  -0.692  1.00  0.00     0.091 A 
ATOM     12  C   UNL     1      34.954   9.047  -1.414  1.00  0.00     0.068 A 
ATOM     13  C   UNL     1      35.087   7.771  -0.853  1.00  0.00     0.162 A 
ATOM     14  C   UNL     1      33.930   9.860   0.620  1.00  0.00     0.068 A 
ATOM     15  C   UNL     1      34.625   7.535   0.464  1.00  0.00     0.200 A 
ATOM     16  C   UNL     1      34.051   8.593   1.195  1.00  0.00     0.162 A 
BRANCH  13  17
ATOM     17  O   UNL     1      35.687   6.780  -1.632  1.00  0.00    -0.504 OA
ATOM     18  H   UNL     1      35.286   6.407  -2.482  1.00  0.00     0.293 HD
ENDBRANCH  13  17
BRANCH  15  19
ATOM     19  O   UNL     1      34.718   6.280   1.072  1.00  0.00    -0.502 OA
ATOM     20  H   UNL     1      33.935   5.660   1.218  1.00  0.00     0.293 HD
ENDBRANCH  15  19
BRANCH  16  21
ATOM     21  O   UNL     1      33.594   8.402   2.498  1.00  0.00    -0.504 OA
ATOM     22  H   UNL     1      34.053   7.775   3.148  1.00  0.00     0.293 HD
ENDBRANCH  16  21
ENDBRANCH   1  11
BRANCH  10  23
ATOM     23  O   UNL     1      32.258  10.858  -2.560  1.00  0.00    -0.500 OA
ATOM     24  H   UNL     1      31.535  10.554  -1.918  1.00  0.00     0.294 HD
ENDBRANCH  10  23
BRANCH   5  25
ATOM     25  O   UNL     1      37.037  16.735  -0.865  1.00  0.00    -0.507 OA
ATOM     26  H   UNL     1      37.863  16.958  -1.407  1.00  0.00     0.293 HD
ENDBRANCH   5  25
BRANCH   7  27
ATOM     27  O   UNL     1      33.234  15.874  -3.692  1.00  0.00    -0.507 OA
ATOM     28  H   UNL     1      33.479  16.174  -4.626  1.00  0.00     0.293 HD
ENDBRANCH   7  27
TORSDOF 7
ENDMDL
MODEL 4
REMARK VINA RESULT:    -4.866      1.624      3.011
REMARK INTER + INTRA:          -6.378
REMARK INTER:                  -6.485
REMARK INTRA:                   0.107
REMARK UNBOUND:                -0.373
REMARK SMILES Oc1cc(O)c2cc(O)c(-c3cc(O)c(O)c(O)c3)[o+]c2c1
REMARK SMILES IDX 10 1 20 2 21 3 22 4 2 5 3 6 4 7 6 8 7 9 8 10 11 11 12 12
REMARK SMILES IDX 13 13 19 14 15 15 17 16 14 17 16 19 18 21 9 23 1 25 5 27
REMARK H PARENT 14 18 16 20 18 22 9 24 1 26 5 28
REMARK Flexibility Score: inf
ROOT
ATOM      1  C   UNL     1      35.175  12.218  -1.124  1.00  0.00     0.402 A 
ATOM      2  O   UNL     1      34.029  11.547  -1.028  1.00  0.00    -0.202 OA
ATOM      3  C   UNL     1      33.965  10.250  -0.745  1.00  0.00     0.368 A 
ATOM      4  C   UNL     1      32.713   9.633  -0.668  1.00  0.00     0.162 A 
ATOM      5  C   UNL     1      32.615   8.272  -0.375  1.00  0.00     0.128 A 
ATOM      6  C   UNL     1      33.775   7.520  -0.159  1.00  0.00     0.093 A 
ATOM      7  C   UNL     1      35.041   8.115  -0.230  1.00  0.00     0.136 A 
ATOM      8  C   UNL     1      35.145   9.499  -0.524  1.00  0.00     0.125 A 
ATOM      9  C   UNL     1      36.369  10.182  -0.604  1.00  0.00     0.078 A 
ATOM     10  C   UNL     1      36.392  11.550  -0.894  1.00  0.00     0.223 A 
ENDROOT
BRANCH   1  11
ATOM     11  C   UNL     1      35.116  13.660  -1.455  1.00  0.00     0.091 A 
ATOM     12  C   UNL     1      35.991  14.582  -0.859  1.00  0.00     0.068 A 
ATOM     13  C   UNL     1      35.944  15.940  -1.195  1.00  0.00     0.162 A 
ATOM     14  C   UNL     1      34.210  14.110  -2.424  1.00  0.00     0.068 A 
ATOM     15  C   UNL     1      35.006  16.391  -2.156  1.00  0.00     0.200 A 
ATOM     16  C   UNL     1      34.146  15.461  -2.769  1.00  0.00     0.162 A 
BRANCH  13  17
ATOM     17  O   UNL     1      36.845  16.796  -0.560  1.00  0.00    -0.504 OA
ATOM     18  H   UNL     1      37.230  16.633   0.360  1.00  0.00     0.293 HD
ENDBRANCH  13  17
BRANCH  15  19
ATOM     19  O   UNL     1      34.903  17.736  -2.522  1.00  0.00    -0.502 OA
ATOM     20  H   UNL     1      34.908  18.066  -3.475  1.00  0.00     0.293 HD
ENDBRANCH  15  19
BRANCH  16  21
ATOM     21  O   UNL     1      33.216  15.865  -3.728  1.00  0.00    -0.504 OA
ATOM     22  H   UNL     1      33.439  15.907  -4.715  1.00  0.00     0.293 HD
ENDBRANCH  16  21
ENDBRANCH   1  11
BRANCH  10  23
ATOM     23  O   UNL     1      37.605  12.240  -0.923  1.00  0.00    -0.500 OA
ATOM     24  H   UNL     1      38.040  12.587  -0.077  1.00  0.00     0.294 HD
ENDBRANCH  10  23
BRANCH   5  25
ATOM     25  O   UNL     1      31.358   7.675  -0.303  1.00  0.00    -0.507 OA
ATOM     26  H   UNL     1      31.253   6.680  -0.144  1.00  0.00     0.293 HD
ENDBRANCH   5  25
BRANCH   7  27
ATOM     27  O   UNL     1      36.150   7.296  -0.005  1.00  0.00    -0.507 OA
ATOM     28  H   UNL     1      37.067   7.635   0.251  1.00  0.00     0.293 HD
ENDBRANCH   7  27
TORSDOF 7
ENDMDL
MODEL 5
REMARK VINA RESULT:    -4.853      1.855      7.315
REMARK INTER + INTRA:          -6.361
REMARK INTER:                  -6.003
REMARK INTRA:                  -0.358
REMARK UNBOUND:                -0.373
REMARK SMILES Oc1cc(O)c2cc(O)c(-c3cc(O)c(O)c(O)c3)[o+]c2c1
REMARK SMILES IDX 10 1 20 2 21 3 22 4 2 5 3 6 4 7 6 8 7 9 8 10 11 11 12 12
REMARK SMILES IDX 13 13 19 14 15 15 17 16 14 17 16 19 18 21 9 23 1 25 5 27
REMARK H PARENT 14 18 16 20 18 22 9 24 1 26 5 28
REMARK Flexibility Score: inf
ROOT
ATOM      1  C   UNL     1      35.575  11.766  -1.344  1.00  0.00     0.402 A 
ATOM      2  O   UNL     1      35.166  13.009  -1.103  1.00  0.00    -0.202 OA
ATOM      3  C   UNL     1      35.936  14.078  -1.279  1.00  0.00     0.368 A 
ATOM      4  C   UNL     1      35.417  15.344  -0.995  1.00  0.00     0.162 A 
ATOM      5  C   UNL     1      36.203  16.483  -1.167  1.00  0.00     0.128 A 
ATOM      6  C   UNL     1      37.520  16.359  -1.625  1.00  0.00     0.093 A 
ATOM      7  C   UNL     1      38.064  15.101  -1.915  1.00  0.00     0.136 A 
ATOM      8  C   UNL     1      37.266  13.941  -1.745  1.00  0.00     0.125 A 
ATOM      9  C   UNL     1      37.723  12.642  -2.023  1.00  0.00     0.078 A 
ATOM     10  C   UNL     1      36.875  11.545  -1.834  1.00  0.00     0.223 A 
ENDROOT
BRANCH   1  11
ATOM     11  C   UNL     1      34.625  10.656  -1.100  1.00  0.00     0.091 A 
ATOM     12  C   UNL     1      34.419  10.141   0.189  1.00  0.00     0.068 A 
ATOM     13  C   UNL     1      33.501   9.107   0.413  1.00  0.00     0.162 A 
ATOM     14  C   UNL     1      33.872  10.146  -2.166  1.00  0.00     0.068 A 
ATOM     15  C   UNL     1      32.764   8.579  -0.674  1.00  0.00     0.200 A 
ATOM     16  C   UNL     1      32.955   9.113  -1.963  1.00  0.00     0.162 A 
BRANCH  13  17
ATOM     17  O   UNL     1      33.351   8.647   1.722  1.00  0.00    -0.504 OA
ATOM     18  H   UNL     1      34.112   8.548   2.379  1.00  0.00     0.293 HD
ENDBRANCH  13  17
BRANCH  15  19
ATOM     19  O   UNL     1      31.844   7.539  -0.515  1.00  0.00    -0.502 OA
ATOM     20  H   UNL     1      30.921   7.652  -0.123  1.00  0.00     0.293 HD
ENDBRANCH  15  19
BRANCH  16  21
ATOM     21  O   UNL     1      32.240   8.626  -3.057  1.00  0.00    -0.504 OA
ATOM     22  H   UNL     1      32.678   8.438  -3.951  1.00  0.00     0.293 HD
ENDBRANCH  16  21
ENDBRANCH   1  11
BRANCH  10  23
ATOM     23  O   UNL     1      37.312  10.260  -2.158  1.00  0.00    -0.500 OA
ATOM     24  H   UNL     1      37.658  10.033  -3.083  1.00  0.00     0.294 HD
ENDBRANCH  10  23
BRANCH   5  25
ATOM     25  O   UNL     1      35.668  17.737  -0.879  1.00  0.00    -0.507 OA
ATOM     26  H   UNL     1      35.623  18.089   0.070  1.00  0.00     0.293 HD
ENDBRANCH   5  25
BRANCH   7  27
ATOM     27  O   UNL     1      39.387  15.061  -2.364  1.00  0.00    -0.507 OA
ATOM     28  H   UNL     1      39.985  14.248  -2.305  1.00  0.00     0.293 HD
ENDBRANCH   7  27
TORSDOF 7
ENDMDL
MODEL 6
REMARK VINA RESULT:    -4.814      1.837      7.567
REMARK INTER + INTRA:          -6.313
REMARK INTER:                  -5.934
REMARK INTRA:                  -0.379
REMARK UNBOUND:                -0.373
REMARK SMILES Oc1cc(O)c2cc(O)c(-c3cc(O)c(O)c(O)c3)[o+]c2c1
REMARK SMILES IDX 10 1 20 2 21 3 22 4 2 5 3 6 4 7 6 8 7 9 8 10 11 11 12 12
REMARK SMILES IDX 13 13 19 14 15 15 17 16 14 17 16 19 18 21 9 23 1 25 5 27
REMARK H PARENT 14 18 16 20 18 22 9 24 1 26 5 28
REMARK Flexibility Score: inf
ROOT
ATOM      1  C   UNL     1      34.219   9.570   0.140  1.00  0.00     0.402 A 
ATOM      2  O   UNL     1      35.133  10.500  -0.125  1.00  0.00    -0.202 OA
ATOM      3  C   UNL     1      34.900  11.551  -0.904  1.00  0.00     0.368 A 
ATOM      4  C   UNL     1      35.926  12.474  -1.125  1.00  0.00     0.162 A 
ATOM      5  C   UNL     1      35.711  13.585  -1.941  1.00  0.00     0.128 A 
ATOM      6  C   UNL     1      34.462  13.777  -2.543  1.00  0.00     0.093 A 
ATOM      7  C   UNL     1      33.418  12.866  -2.337  1.00  0.00     0.136 A 
ATOM      8  C   UNL     1      33.632  11.737  -1.506  1.00  0.00     0.125 A 
ATOM      9  C   UNL     1      32.640  10.780  -1.233  1.00  0.00     0.078 A 
ATOM     10  C   UNL     1      32.925   9.694  -0.399  1.00  0.00     0.223 A 
ENDROOT
BRANCH   1  11
ATOM     11  C   UNL     1      34.603   8.440   1.017  1.00  0.00     0.091 A 
ATOM     12  C   UNL     1      34.457   8.514   2.411  1.00  0.00     0.068 A 
ATOM     13  C   UNL     1      34.801   7.432   3.230  1.00  0.00     0.162 A 
ATOM     14  C   UNL     1      35.067   7.249   0.444  1.00  0.00     0.068 A 
ATOM     15  C   UNL     1      35.295   6.242   2.644  1.00  0.00     0.200 A 
ATOM     16  C   UNL     1      35.419   6.160   1.245  1.00  0.00     0.162 A 
BRANCH  13  17
ATOM     17  O   UNL     1      34.629   7.582   4.607  1.00  0.00    -0.504 OA
ATOM     18  H   UNL     1      33.886   7.147   5.136  1.00  0.00     0.293 HD
ENDBRANCH  13  17
BRANCH  15  19
ATOM     19  O   UNL     1      35.667   5.134   3.411  1.00  0.00    -0.502 OA
ATOM     20  H   UNL     1      36.291   5.175   4.203  1.00  0.00     0.293 HD
ENDBRANCH  15  19
BRANCH  16  21
ATOM     21  O   UNL     1      35.892   5.001   0.630  1.00  0.00    -0.504 OA
ATOM     22  H   UNL     1      36.565   4.388   1.075  1.00  0.00     0.293 HD
ENDBRANCH  16  21
ENDBRANCH   1  11
BRANCH  10  23
ATOM     23  O   UNL     1      31.926   8.771  -0.087  1.00  0.00    -0.500 OA
ATOM     24  H   UNL     1      32.020   7.788  -0.312  1.00  0.00     0.294 HD
ENDBRANCH  10  23
BRANCH   5  25
ATOM     25  O   UNL     1      36.746  14.494  -2.150  1.00  0.00    -0.507 OA
ATOM     26  H   UNL     1      37.177  14.607  -3.060  1.00  0.00     0.293 HD
ENDBRANCH   5  25
BRANCH   7  27
ATOM     27  O   UNL     1      32.203  13.126  -2.976  1.00  0.00    -0.507 OA
ATOM     28  H   UNL     1      31.358  12.591  -2.835  1.00  0.00     0.293 HD
ENDBRANCH   7  27
TORSDOF 7
ENDMDL
MODEL 7
REMARK VINA RESULT:    -4.805      1.853      7.353
REMARK INTER + INTRA:          -6.301
REMARK INTER:                  -5.917
REMARK INTRA:                  -0.384
REMARK UNBOUND:                -0.373
REMARK SMILES Oc1cc(O)c2cc(O)c(-c3cc(O)c(O)c(O)c3)[o+]c2c1
REMARK SMILES IDX 10 1 20 2 21 3 22 4 2 5 3 6 4 7 6 8 7 9 8 10 11 11 12 12
REMARK SMILES IDX 13 13 19 14 15 15 17 16 14 17 16 19 18 21 9 23 1 25 5 27
REMARK H PARENT 14 18 16 20 18 22 9 24 1 26 5 28
REMARK Flexibility Score: inf
ROOT
ATOM      1  C   UNL     1      34.196   9.523   0.117  1.00  0.00     0.402 A 
ATOM      2  O   UNL     1      35.125  10.446  -0.123  1.00  0.00    -0.202 OA
ATOM      3  C   UNL     1      34.915  11.508  -0.895  1.00  0.00     0.368 A 
ATOM      4  C   UNL     1      35.955  12.422  -1.089  1.00  0.00     0.162 A 
ATOM      5  C   UNL     1      35.765  13.544  -1.896  1.00  0.00     0.128 A 
ATOM      6  C   UNL     1      34.528  13.756  -2.516  1.00  0.00     0.093 A 
ATOM      7  C   UNL     1      33.471  12.855  -2.337  1.00  0.00     0.136 A 
ATOM      8  C   UNL     1      33.659  11.715  -1.514  1.00  0.00     0.125 A 
ATOM      9  C   UNL     1      32.653  10.766  -1.268  1.00  0.00     0.078 A 
ATOM     10  C   UNL     1      32.913   9.668  -0.441  1.00  0.00     0.223 A 
ENDROOT
BRANCH   1  11
ATOM     11  C   UNL     1      34.554   8.380   0.987  1.00  0.00     0.091 A 
ATOM     12  C   UNL     1      35.014   7.168   0.449  1.00  0.00     0.068 A 
ATOM     13  C   UNL     1      35.372   6.101   1.281  1.00  0.00     0.162 A 
ATOM     14  C   UNL     1      34.488   8.526   2.379  1.00  0.00     0.068 A 
ATOM     15  C   UNL     1      35.277   6.247   2.686  1.00  0.00     0.200 A 
ATOM     16  C   UNL     1      34.838   7.470   3.225  1.00  0.00     0.162 A 
BRANCH  13  17
ATOM     17  O   UNL     1      35.820   4.927   0.672  1.00  0.00    -0.504 OA
ATOM     18  H   UNL     1      35.350   4.473  -0.098  1.00  0.00     0.293 HD
ENDBRANCH  13  17
BRANCH  15  19
ATOM     19  O   UNL     1      35.607   5.212   3.566  1.00  0.00    -0.502 OA
ATOM     20  H   UNL     1      35.563   5.287   4.572  1.00  0.00     0.293 HD
ENDBRANCH  15  19
BRANCH  16  21
ATOM     21  O   UNL     1      34.741   7.656   4.604  1.00  0.00    -0.504 OA
ATOM     22  H   UNL     1      34.521   6.898   5.239  1.00  0.00     0.293 HD
ENDBRANCH  16  21
ENDBRANCH   1  11
BRANCH  10  23
ATOM     23  O   UNL     1      31.899   8.752  -0.155  1.00  0.00    -0.500 OA
ATOM     24  H   UNL     1      31.066   9.022   0.354  1.00  0.00     0.294 HD
ENDBRANCH  10  23
BRANCH   5  25
ATOM     25  O   UNL     1      36.813  14.444  -2.078  1.00  0.00    -0.507 OA
ATOM     26  H   UNL     1      37.259  14.563  -2.980  1.00  0.00     0.293 HD
ENDBRANCH   5  25
BRANCH   7  27
ATOM     27  O   UNL     1      32.269  13.135  -2.992  1.00  0.00    -0.507 OA
ATOM     28  H   UNL     1      32.047  12.835  -3.931  1.00  0.00     0.293 HD
ENDBRANCH   7  27
TORSDOF 7
ENDMDL
MODEL 8
REMARK VINA RESULT:    -4.772      4.613      7.970
REMARK INTER + INTRA:          -6.262
REMARK INTER:                  -5.960
REMARK INTRA:                  -0.302
REMARK UNBOUND:                -0.373
REMARK SMILES Oc1cc(O)c2cc(O)c(-c3cc(O)c(O)c(O)c3)[o+]c2c1
REMARK SMILES IDX 10 1 20 2 21 3 22 4 2 5 3 6 4 7 6 8 7 9 8 10 11 11 12 12
REMARK SMILES IDX 13 13 19 14 15 15 17 16 14 17 16 19 18 21 9 23 1 25 5 27
REMARK H PARENT 14 18 16 20 18 22 9 24 1 26 5 28
REMARK Flexibility Score: inf
ROOT
ATOM      1  C   UNL     1      35.287   6.446   3.098  1.00  0.00     0.402 A 
ATOM      2  O   UNL     1      34.698   6.554   4.286  1.00  0.00    -0.202 OA
ATOM      3  C   UNL     1      34.630   5.554   5.160  1.00  0.00     0.368 A 
ATOM      4  C   UNL     1      33.986   5.764   6.383  1.00  0.00     0.162 A 
ATOM      5  C   UNL     1      33.897   4.732   7.318  1.00  0.00     0.128 A 
ATOM      6  C   UNL     1      34.452   3.480   7.030  1.00  0.00     0.093 A 
ATOM      7  C   UNL     1      35.102   3.245   5.812  1.00  0.00     0.136 A 
ATOM      8  C   UNL     1      35.198   4.293   4.860  1.00  0.00     0.125 A 
ATOM      9  C   UNL     1      35.841   4.152   3.619  1.00  0.00     0.078 A 
ATOM     10  C   UNL     1      35.899   5.233   2.733  1.00  0.00     0.223 A 
ENDROOT
BRANCH   1  11
ATOM     11  C   UNL     1      35.290   7.630   2.208  1.00  0.00     0.091 A 
ATOM     12  C   UNL     1      36.458   8.378   1.990  1.00  0.00     0.068 A 
ATOM     13  C   UNL     1      36.457   9.481   1.129  1.00  0.00     0.162 A 
ATOM     14  C   UNL     1      34.120   7.980   1.521  1.00  0.00     0.068 A 
ATOM     15  C   UNL     1      35.263   9.844   0.460  1.00  0.00     0.200 A 
ATOM     16  C   UNL     1      34.099   9.079   0.661  1.00  0.00     0.162 A 
BRANCH  13  17
ATOM     17  O   UNL     1      37.656  10.176   0.964  1.00  0.00    -0.504 OA
ATOM     18  H   UNL     1      38.527   9.746   0.683  1.00  0.00     0.293 HD
ENDBRANCH  13  17
BRANCH  15  19
ATOM     19  O   UNL     1      35.197  10.943  -0.401  1.00  0.00    -0.502 OA
ATOM     20  H   UNL     1      35.439  10.912  -1.381  1.00  0.00     0.293 HD
ENDBRANCH  15  19
BRANCH  16  21
ATOM     21  O   UNL     1      32.906   9.400   0.012  1.00  0.00    -0.504 OA
ATOM     22  H   UNL     1      32.217  10.020   0.419  1.00  0.00     0.293 HD
ENDBRANCH  16  21
ENDBRANCH   1  11
BRANCH  10  23
ATOM     23  O   UNL     1      36.582   5.109   1.522  1.00  0.00    -0.500 OA
ATOM     24  H   UNL     1      36.701   5.895   0.895  1.00  0.00     0.294 HD
ENDBRANCH  10  23
BRANCH   5  25
ATOM     25  O   UNL     1      33.251   4.960   8.531  1.00  0.00    -0.507 OA
ATOM     26  H   UNL     1      33.768   5.041   9.399  1.00  0.00     0.293 HD
ENDBRANCH   5  25
BRANCH   7  27
ATOM     27  O   UNL     1      35.627   1.968   5.599  1.00  0.00    -0.507 OA
ATOM     28  H   UNL     1      36.439   1.598   6.074  1.00  0.00     0.293 HD
ENDBRANCH   7  27
TORSDOF 7
ENDMDL
MODEL 9
REMARK VINA RESULT:    -4.651      2.149      7.649
REMARK INTER + INTRA:          -6.113
REMARK INTER:                  -5.819
REMARK INTRA:                  -0.294
REMARK UNBOUND:                -0.373
REMARK SMILES Oc1cc(O)c2cc(O)c(-c3cc(O)c(O)c(O)c3)[o+]c2c1
REMARK SMILES IDX 10 1 20 2 21 3 22 4 2 5 3 6 4 7 6 8 7 9 8 10 11 11 12 12
REMARK SMILES IDX 13 13 19 14 15 15 17 16 14 17 16 19 18 21 9 23 1 25 5 27
REMARK H PARENT 14 18 16 20 18 22 9 24 1 26 5 28
REMARK Flexibility Score: inf
ROOT
ATOM      1  C   UNL     1      36.201  14.657  -1.981  1.00  0.00     0.402 A 
ATOM      2  O   UNL     1      35.911  15.833  -1.429  1.00  0.00    -0.202 OA
ATOM      3  C   UNL     1      36.737  16.874  -1.451  1.00  0.00     0.368 A 
ATOM      4  C   UNL     1      36.343  18.067  -0.840  1.00  0.00     0.162 A 
ATOM      5  C   UNL     1      37.191  19.175  -0.845  1.00  0.00     0.128 A 
ATOM      6  C   UNL     1      38.443  19.092  -1.464  1.00  0.00     0.093 A 
ATOM      7  C   UNL     1      38.861  17.907  -2.083  1.00  0.00     0.136 A 
ATOM      8  C   UNL     1      38.001  16.779  -2.083  1.00  0.00     0.125 A 
ATOM      9  C   UNL     1      38.330  15.556  -2.690  1.00  0.00     0.078 A 
ATOM     10  C   UNL     1      37.427  14.489  -2.651  1.00  0.00     0.223 A 
ENDROOT
BRANCH   1  11
ATOM     11  C   UNL     1      35.200  13.570  -1.882  1.00  0.00     0.091 A 
ATOM     12  C   UNL     1      35.437  12.429  -1.100  1.00  0.00     0.068 A 
ATOM     13  C   UNL     1      34.475  11.417  -0.994  1.00  0.00     0.162 A 
ATOM     14  C   UNL     1      33.968  13.706  -2.534  1.00  0.00     0.068 A 
ATOM     15  C   UNL     1      33.242  11.550  -1.677  1.00  0.00     0.200 A 
ATOM     16  C   UNL     1      32.998  12.705  -2.442  1.00  0.00     0.162 A 
BRANCH  13  17
ATOM     17  O   UNL     1      34.783  10.312  -0.198  1.00  0.00    -0.504 OA
ATOM     18  H   UNL     1      35.713   9.933  -0.089  1.00  0.00     0.293 HD
ENDBRANCH  13  17
BRANCH  15  19
ATOM     19  O   UNL     1      32.250  10.567  -1.620  1.00  0.00    -0.502 OA
ATOM     20  H   UNL     1      31.778  10.286  -0.773  1.00  0.00     0.293 HD
ENDBRANCH  15  19
BRANCH  16  21
ATOM     21  O   UNL     1      31.792  12.877  -3.122  1.00  0.00    -0.504 OA
ATOM     22  H   UNL     1      31.156  12.108  -3.299  1.00  0.00     0.293 HD
ENDBRANCH  16  21
ENDBRANCH   1  11
BRANCH  10  23
ATOM     23  O   UNL     1      37.733  13.290  -3.298  1.00  0.00    -0.500 OA
ATOM     24  H   UNL     1      37.210  12.972  -4.105  1.00  0.00     0.294 HD
ENDBRANCH  10  23
BRANCH   5  25
ATOM     25  O   UNL     1      36.781  20.356  -0.230  1.00  0.00    -0.507 OA
ATOM     26  H   UNL     1      37.199  20.676   0.636  1.00  0.00     0.293 HD
ENDBRANCH   5  25
BRANCH   7  27
ATOM     27  O   UNL     1      40.127  17.903  -2.677  1.00  0.00    -0.507 OA
ATOM     28  H   UNL     1      40.810  18.640  -2.569  1.00  0.00     0.293 HD
ENDBRANCH   7  27
TORSDOF 7
ENDMDL
