MODEL 1
REMARK VINA RESULT:    -4.120      0.000      0.000
REMARK INTER + INTRA:          -8.840
REMARK INTER:                  -7.251
REMARK INTRA:                  -1.589
REMARK UNBOUND:                -1.589
REMARK SMILES CCCCCCCCCCCCCCC(=O)[O-]
REMARK SMILES IDX 9 1 10 2 11 3 12 4 13 5 14 6 15 7 16 8 17 9 8 10 7 11 6 12
REMARK SMILES IDX 5 13 4 14 3 15 2 16 1 17
REMARK H PARENT
REMARK Flexibility Score: inf
ROOT
ATOM      1  C   UNL     1     -44.830 -32.787  39.404  1.00  0.00     0.000 C 
ENDROOT
BRANCH   1   2
ATOM      2  C   UNL     1     -43.608 -32.254  38.639  1.00  0.00     0.000 C 
BRANCH   2   3
ATOM      3  C   UNL     1     -42.320 -32.290  39.478  1.00  0.00     0.000 C 
BRANCH   3   4
ATOM      4  C   UNL     1     -41.934 -33.683  40.011  1.00  0.00     0.000 C 
BRANCH   4   5
ATOM      5  C   UNL     1     -40.689 -34.293  39.328  1.00  0.00     0.006 C 
BRANCH   5   6
ATOM      6  C   UNL     1     -40.675 -34.040  37.814  1.00  0.00     0.053 C 
BRANCH   6   7
ATOM      7  C   UNL     1     -40.221 -35.261  37.080  1.00  0.00     0.041 C 
ATOM      8  O   UNL     1     -39.170 -35.858  37.434  1.00  0.00    -0.550 OA
ATOM      9  O   UNL     1     -40.982 -35.765  36.033  1.00  0.00    -0.550 OA
ENDBRANCH   6   7
ENDBRANCH   5   6
ENDBRANCH   4   5
ENDBRANCH   3   4
ENDBRANCH   2   3
ENDBRANCH   1   2
BRANCH   1  10
ATOM     10  C   UNL     1     -45.623 -33.837  38.609  1.00  0.00     0.000 C 
BRANCH  10  11
ATOM     11  C   UNL     1     -45.495 -33.653  37.085  1.00  0.00    -0.000 C 
BRANCH  11  12
ATOM     12  C   UNL     1     -44.605 -34.719  36.422  1.00  0.00    -0.000 C 
BRANCH  12  13
ATOM     13  C   UNL     1     -44.292 -35.940  37.311  1.00  0.00    -0.000 C 
BRANCH  13  14
ATOM     14  C   UNL     1     -44.743 -37.284  36.700  1.00  0.00    -0.000 C 
BRANCH  14  15
ATOM     15  C   UNL     1     -46.141 -37.701  37.185  1.00  0.00    -0.000 C 
BRANCH  15  16
ATOM     16  C   UNL     1     -46.264 -37.564  38.706  1.00  0.00    -0.003 C 
ATOM     17  C   UNL     1     -47.657 -37.087  39.106  1.00  0.00     0.004 C 
ENDBRANCH  15  16
ENDBRANCH  14  15
ENDBRANCH  13  14
ENDBRANCH  12  13
ENDBRANCH  11  12
ENDBRANCH  10  11
ENDBRANCH   1  10
TORSDOF 13
ENDMDL
MODEL 2
REMARK VINA RESULT:    -4.106      3.203      5.855
REMARK INTER + INTRA:          -8.815
REMARK INTER:                  -7.385
REMARK INTRA:                  -1.429
REMARK UNBOUND:                -1.589
REMARK SMILES CCCCCCCCCCCCCCC(=O)[O-]
REMARK SMILES IDX 9 1 10 2 11 3 12 4 13 5 14 6 15 7 16 8 17 9 8 10 7 11 6 12
REMARK SMILES IDX 5 13 4 14 3 15 2 16 1 17
REMARK H PARENT
REMARK Flexibility Score: inf
ROOT
ATOM      1  C   UNL     1     -46.461 -37.683  39.090  1.00  0.00     0.000 C 
ENDROOT
BRANCH   1   2
ATOM      2  C   UNL     1     -46.415 -36.427  39.976  1.00  0.00     0.000 C 
BRANCH   2   3
ATOM      3  C   UNL     1     -47.082 -35.210  39.314  1.00  0.00     0.000 C 
BRANCH   3   4
ATOM      4  C   UNL     1     -46.247 -33.915  39.352  1.00  0.00     0.000 C 
BRANCH   4   5
ATOM      5  C   UNL     1     -46.883 -32.737  38.580  1.00  0.00     0.006 C 
BRANCH   5   6
ATOM      6  C   UNL     1     -46.229 -32.520  37.208  1.00  0.00     0.053 C 
BRANCH   6   7
ATOM      7  C   UNL     1     -47.023 -31.548  36.394  1.00  0.00     0.041 C 
ATOM      8  O   UNL     1     -46.444 -30.603  35.797  1.00  0.00    -0.550 OA
ATOM      9  O   UNL     1     -48.396 -31.712  36.260  1.00  0.00    -0.550 OA
ENDBRANCH   6   7
ENDBRANCH   5   6
ENDBRANCH   4   5
ENDBRANCH   3   4
ENDBRANCH   2   3
ENDBRANCH   1   2
BRANCH   1  10
ATOM     10  C   UNL     1     -46.604 -37.358  37.595  1.00  0.00     0.000 C 
BRANCH  10  11
ATOM     11  C   UNL     1     -45.251 -37.343  36.857  1.00  0.00    -0.000 C 
BRANCH  11  12
ATOM     12  C   UNL     1     -44.764 -35.923  36.520  1.00  0.00    -0.000 C 
BRANCH  12  13
ATOM     13  C   UNL     1     -43.251 -35.697  36.716  1.00  0.00    -0.000 C 
BRANCH  13  14
ATOM     14  C   UNL     1     -42.910 -34.754  37.890  1.00  0.00    -0.000 C 
BRANCH  14  15
ATOM     15  C   UNL     1     -41.512 -35.028  38.466  1.00  0.00    -0.000 C 
BRANCH  15  16
ATOM     16  C   UNL     1     -40.415 -34.509  37.531  1.00  0.00    -0.003 C 
ATOM     17  C   UNL     1     -39.633 -35.660  36.905  1.00  0.00     0.004 C 
ENDBRANCH  15  16
ENDBRANCH  14  15
ENDBRANCH  13  14
ENDBRANCH  12  13
ENDBRANCH  11  12
ENDBRANCH  10  11
ENDBRANCH   1  10
TORSDOF 13
ENDMDL
MODEL 3
REMARK VINA RESULT:    -4.055      2.973      4.988
REMARK INTER + INTRA:          -8.725
REMARK INTER:                  -7.469
REMARK INTRA:                  -1.256
REMARK UNBOUND:                -1.589
REMARK SMILES CCCCCCCCCCCCCCC(=O)[O-]
REMARK SMILES IDX 9 1 10 2 11 3 12 4 13 5 14 6 15 7 16 8 17 9 8 10 7 11 6 12
REMARK SMILES IDX 5 13 4 14 3 15 2 16 1 17
REMARK H PARENT
REMARK Flexibility Score: inf
ROOT
ATOM      1  C   UNL     1     -45.516 -33.924  36.843  1.00  0.00     0.000 C 
ENDROOT
BRANCH   1   2
ATOM      2  C   UNL     1     -45.970 -32.880  37.877  1.00  0.00     0.000 C 
BRANCH   2   3
ATOM      3  C   UNL     1     -44.814 -32.001  38.381  1.00  0.00     0.000 C 
BRANCH   3   4
ATOM      4  C   UNL     1     -43.577 -32.778  38.873  1.00  0.00     0.000 C 
BRANCH   4   5
ATOM      5  C   UNL     1     -42.291 -31.925  38.950  1.00  0.00     0.006 C 
BRANCH   5   6
ATOM      6  C   UNL     1     -42.415 -30.776  39.961  1.00  0.00     0.053 C 
BRANCH   6   7
ATOM      7  C   UNL     1     -41.891 -29.503  39.378  1.00  0.00     0.041 C 
ATOM      8  O   UNL     1     -42.528 -28.915  38.465  1.00  0.00    -0.550 OA
ATOM      9  O   UNL     1     -40.720 -28.942  39.873  1.00  0.00    -0.550 OA
ENDBRANCH   6   7
ENDBRANCH   5   6
ENDBRANCH   4   5
ENDBRANCH   3   4
ENDBRANCH   2   3
ENDBRANCH   1   2
BRANCH   1  10
ATOM     10  C   UNL     1     -45.570 -35.363  37.381  1.00  0.00     0.000 C 
BRANCH  10  11
ATOM     11  C   UNL     1     -44.544 -36.291  36.703  1.00  0.00    -0.000 C 
BRANCH  11  12
ATOM     12  C   UNL     1     -43.375 -35.526  36.056  1.00  0.00    -0.000 C 
BRANCH  12  13
ATOM     13  C   UNL     1     -42.088 -35.479  36.906  1.00  0.00    -0.000 C 
BRANCH  13  14
ATOM     14  C   UNL     1     -40.814 -35.865  36.124  1.00  0.00    -0.000 C 
BRANCH  14  15
ATOM     15  C   UNL     1     -39.535 -35.601  36.934  1.00  0.00    -0.000 C 
BRANCH  15  16
ATOM     16  C   UNL     1     -39.865 -35.120  38.351  1.00  0.00    -0.003 C 
ATOM     17  C   UNL     1     -39.147 -35.965  39.400  1.00  0.00     0.004 C 
ENDBRANCH  15  16
ENDBRANCH  14  15
ENDBRANCH  13  14
ENDBRANCH  12  13
ENDBRANCH  11  12
ENDBRANCH  10  11
ENDBRANCH   1  10
TORSDOF 13
ENDMDL
MODEL 4
REMARK VINA RESULT:    -4.042      2.940      6.321
REMARK INTER + INTRA:          -8.703
REMARK INTER:                  -7.205
REMARK INTRA:                  -1.498
REMARK UNBOUND:                -1.589
REMARK SMILES CCCCCCCCCCCCCCC(=O)[O-]
REMARK SMILES IDX 9 1 10 2 11 3 12 4 13 5 14 6 15 7 16 8 17 9 8 10 7 11 6 12
REMARK SMILES IDX 5 13 4 14 3 15 2 16 1 17
REMARK H PARENT
REMARK Flexibility Score: inf
ROOT
ATOM      1  C   UNL     1     -42.443 -35.437  36.513  1.00  0.00     0.000 C 
ENDROOT
BRANCH   1   2
ATOM      2  C   UNL     1     -43.609 -36.409  36.269  1.00  0.00     0.000 C 
BRANCH   2   3
ATOM      3  C   UNL     1     -44.674 -36.351  37.376  1.00  0.00     0.000 C 
BRANCH   3   4
ATOM      4  C   UNL     1     -45.867 -37.306  37.177  1.00  0.00     0.000 C 
BRANCH   4   5
ATOM      5  C   UNL     1     -46.987 -37.137  38.228  1.00  0.00     0.006 C 
BRANCH   5   6
ATOM      6  C   UNL     1     -46.497 -36.411  39.488  1.00  0.00     0.053 C 
BRANCH   6   7
ATOM      7  C   UNL     1     -47.295 -35.169  39.726  1.00  0.00     0.041 C 
ATOM      8  O   UNL     1     -47.342 -34.270  38.846  1.00  0.00    -0.550 OA
ATOM      9  O   UNL     1     -48.022 -35.024  40.900  1.00  0.00    -0.550 OA
ENDBRANCH   6   7
ENDBRANCH   5   6
ENDBRANCH   4   5
ENDBRANCH   3   4
ENDBRANCH   2   3
ENDBRANCH   1   2
BRANCH   1  10
ATOM     10  C   UNL     1     -41.086 -36.005  36.069  1.00  0.00     0.000 C 
BRANCH  10  11
ATOM     11  C   UNL     1     -39.896 -35.318  36.767  1.00  0.00    -0.000 C 
BRANCH  11  12
ATOM     12  C   UNL     1     -39.898 -35.517  38.293  1.00  0.00    -0.000 C 
BRANCH  12  13
ATOM     13  C   UNL     1     -39.952 -34.211  39.113  1.00  0.00    -0.000 C 
BRANCH  13  14
ATOM     14  C   UNL     1     -40.276 -32.960  38.267  1.00  0.00    -0.000 C 
BRANCH  14  15
ATOM     15  C   UNL     1     -41.486 -32.187  38.817  1.00  0.00    -0.000 C 
BRANCH  15  16
ATOM     16  C   UNL     1     -42.505 -33.135  39.458  1.00  0.00    -0.003 C 
ATOM     17  C   UNL     1     -43.885 -32.968  38.827  1.00  0.00     0.004 C 
ENDBRANCH  15  16
ENDBRANCH  14  15
ENDBRANCH  13  14
ENDBRANCH  12  13
ENDBRANCH  11  12
ENDBRANCH  10  11
ENDBRANCH   1  10
TORSDOF 13
ENDMDL
MODEL 5
REMARK VINA RESULT:    -4.036      2.380      5.331
REMARK INTER + INTRA:          -8.692
REMARK INTER:                  -6.958
REMARK INTRA:                  -1.734
REMARK UNBOUND:                -1.589
REMARK SMILES CCCCCCCCCCCCCCC(=O)[O-]
REMARK SMILES IDX 9 1 10 2 11 3 12 4 13 5 14 6 15 7 16 8 17 9 8 10 7 11 6 12
REMARK SMILES IDX 5 13 4 14 3 15 2 16 1 17
REMARK H PARENT
REMARK Flexibility Score: inf
ROOT
ATOM      1  C   UNL     1     -45.581 -32.182  39.035  1.00  0.00     0.000 C 
ENDROOT
BRANCH   1   2
ATOM      2  C   UNL     1     -45.386 -32.349  37.519  1.00  0.00     0.000 C 
BRANCH   2   3
ATOM      3  C   UNL     1     -45.811 -33.738  37.014  1.00  0.00     0.000 C 
BRANCH   3   4
ATOM      4  C   UNL     1     -44.645 -34.695  36.695  1.00  0.00     0.000 C 
BRANCH   4   5
ATOM      5  C   UNL     1     -44.385 -35.753  37.790  1.00  0.00     0.006 C 
BRANCH   5   6
ATOM      6  C   UNL     1     -45.658 -36.103  38.574  1.00  0.00     0.053 C 
BRANCH   6   7
ATOM      7  C   UNL     1     -46.376 -37.246  37.931  1.00  0.00     0.041 C 
ATOM      8  O   UNL     1     -47.601 -37.430  38.154  1.00  0.00    -0.550 OA
ATOM      9  O   UNL     1     -45.701 -38.083  37.051  1.00  0.00    -0.550 OA
ENDBRANCH   6   7
ENDBRANCH   5   6
ENDBRANCH   4   5
ENDBRANCH   3   4
ENDBRANCH   2   3
ENDBRANCH   1   2
BRANCH   1  10
ATOM     10  C   UNL     1     -44.703 -31.072  39.634  1.00  0.00     0.000 C 
BRANCH  10  11
ATOM     11  C   UNL     1     -43.274 -31.551  39.955  1.00  0.00    -0.000 C 
BRANCH  11  12
ATOM     12  C   UNL     1     -43.197 -33.059  40.251  1.00  0.00    -0.000 C 
BRANCH  12  13
ATOM     13  C   UNL     1     -41.821 -33.700  39.974  1.00  0.00    -0.000 C 
BRANCH  13  14
ATOM     14  C   UNL     1     -41.438 -33.728  38.479  1.00  0.00    -0.000 C 
BRANCH  14  15
ATOM     15  C   UNL     1     -39.980 -34.165  38.263  1.00  0.00    -0.000 C 
BRANCH  15  16
ATOM     16  C   UNL     1     -39.905 -35.480  37.481  1.00  0.00    -0.003 C 
ATOM     17  C   UNL     1     -40.922 -35.505  36.344  1.00  0.00     0.004 C 
ENDBRANCH  15  16
ENDBRANCH  14  15
ENDBRANCH  13  14
ENDBRANCH  12  13
ENDBRANCH  11  12
ENDBRANCH  10  11
ENDBRANCH   1  10
TORSDOF 13
ENDMDL
MODEL 6
REMARK VINA RESULT:    -4.018      3.253      6.448
REMARK INTER + INTRA:          -8.660
REMARK INTER:                  -7.080
REMARK INTRA:                  -1.579
REMARK UNBOUND:                -1.589
REMARK SMILES CCCCCCCCCCCCCCC(=O)[O-]
REMARK SMILES IDX 9 1 10 2 11 3 12 4 13 5 14 6 15 7 16 8 17 9 8 10 7 11 6 12
REMARK SMILES IDX 5 13 4 14 3 15 2 16 1 17
REMARK H PARENT
REMARK Flexibility Score: inf
ROOT
ATOM      1  C   UNL     1     -44.420 -35.248  36.184  1.00  0.00     0.000 C 
ENDROOT
BRANCH   1   2
ATOM      2  C   UNL     1     -44.348 -36.657  36.794  1.00  0.00     0.000 C 
BRANCH   2   3
ATOM      3  C   UNL     1     -45.699 -37.391  36.754  1.00  0.00     0.000 C 
BRANCH   3   4
ATOM      4  C   UNL     1     -46.266 -37.776  38.135  1.00  0.00     0.000 C 
BRANCH   4   5
ATOM      5  C   UNL     1     -47.550 -37.007  38.521  1.00  0.00     0.006 C 
BRANCH   5   6
ATOM      6  C   UNL     1     -48.294 -37.667  39.690  1.00  0.00     0.053 C 
BRANCH   6   7
ATOM      7  C   UNL     1     -48.107 -36.878  40.946  1.00  0.00     0.041 C 
ATOM      8  O   UNL     1     -47.355 -35.868  40.954  1.00  0.00    -0.550 OA
ATOM      9  O   UNL     1     -48.798 -37.232  42.098  1.00  0.00    -0.550 OA
ENDBRANCH   6   7
ENDBRANCH   5   6
ENDBRANCH   4   5
ENDBRANCH   3   4
ENDBRANCH   2   3
ENDBRANCH   1   2
BRANCH   1  10
ATOM     10  C   UNL     1     -45.405 -34.325  36.919  1.00  0.00     0.000 C 
BRANCH  10  11
ATOM     11  C   UNL     1     -44.702 -33.351  37.883  1.00  0.00    -0.000 C 
BRANCH  11  12
ATOM     12  C   UNL     1     -44.375 -33.984  39.247  1.00  0.00    -0.000 C 
BRANCH  12  13
ATOM     13  C   UNL     1     -42.915 -34.458  39.404  1.00  0.00    -0.000 C 
BRANCH  13  14
ATOM     14  C   UNL     1     -41.878 -33.320  39.292  1.00  0.00    -0.000 C 
BRANCH  14  15
ATOM     15  C   UNL     1     -40.771 -33.643  38.275  1.00  0.00    -0.000 C 
BRANCH  15  16
ATOM     16  C   UNL     1     -40.644 -35.154  38.056  1.00  0.00    -0.003 C 
ATOM     17  C   UNL     1     -40.688 -35.500  36.570  1.00  0.00     0.004 C 
ENDBRANCH  15  16
ENDBRANCH  14  15
ENDBRANCH  13  14
ENDBRANCH  12  13
ENDBRANCH  11  12
ENDBRANCH  10  11
ENDBRANCH   1  10
TORSDOF 13
ENDMDL
MODEL 7
REMARK VINA RESULT:    -4.016      1.264      2.548
REMARK INTER + INTRA:          -8.657
REMARK INTER:                  -6.623
REMARK INTRA:                  -2.034
REMARK UNBOUND:                -1.589
REMARK SMILES CCCCCCCCCCCCCCC(=O)[O-]
REMARK SMILES IDX 9 1 10 2 11 3 12 4 13 5 14 6 15 7 16 8 17 9 8 10 7 11 6 12
REMARK SMILES IDX 5 13 4 14 3 15 2 16 1 17
REMARK H PARENT
REMARK Flexibility Score: inf
ROOT
ATOM      1  C   UNL     1     -45.193 -34.455  36.676  1.00  0.00     0.000 C 
ENDROOT
BRANCH   1   2
ATOM      2  C   UNL     1     -44.882 -33.312  37.656  1.00  0.00     0.000 C 
BRANCH   2   3
ATOM      3  C   UNL     1     -43.997 -33.761  38.831  1.00  0.00     0.000 C 
BRANCH   3   4
ATOM      4  C   UNL     1     -42.769 -32.867  39.094  1.00  0.00     0.000 C 
BRANCH   4   5
ATOM      5  C   UNL     1     -41.462 -33.398  38.464  1.00  0.00     0.006 C 
BRANCH   5   6
ATOM      6  C   UNL     1     -41.104 -34.805  38.964  1.00  0.00     0.053 C 
BRANCH   6   7
ATOM      7  C   UNL     1     -40.050 -35.419  38.100  1.00  0.00     0.041 C 
ATOM      8  O   UNL     1     -39.080 -36.029  38.623  1.00  0.00    -0.550 OA
ATOM      9  O   UNL     1     -40.161 -35.356  36.717  1.00  0.00    -0.550 OA
ENDBRANCH   6   7
ENDBRANCH   5   6
ENDBRANCH   4   5
ENDBRANCH   3   4
ENDBRANCH   2   3
ENDBRANCH   1   2
BRANCH   1  10
ATOM     10  C   UNL     1     -44.103 -35.538  36.652  1.00  0.00     0.000 C 
BRANCH  10  11
ATOM     11  C   UNL     1     -44.649 -36.940  36.984  1.00  0.00    -0.000 C 
BRANCH  11  12
ATOM     12  C   UNL     1     -46.181 -37.033  36.863  1.00  0.00    -0.000 C 
BRANCH  12  13
ATOM     13  C   UNL     1     -46.915 -37.321  38.189  1.00  0.00    -0.000 C 
BRANCH  13  14
ATOM     14  C   UNL     1     -46.039 -37.107  39.443  1.00  0.00    -0.000 C 
BRANCH  14  15
ATOM     15  C   UNL     1     -46.485 -35.882  40.258  1.00  0.00    -0.000 C 
BRANCH  15  16
ATOM     16  C   UNL     1     -47.740 -35.242  39.656  1.00  0.00    -0.003 C 
ATOM     17  C   UNL     1     -47.793 -33.746  39.953  1.00  0.00     0.004 C 
ENDBRANCH  15  16
ENDBRANCH  14  15
ENDBRANCH  13  14
ENDBRANCH  12  13
ENDBRANCH  11  12
ENDBRANCH  10  11
ENDBRANCH   1  10
TORSDOF 13
ENDMDL
MODEL 8
REMARK VINA RESULT:    -4.000      2.356      4.878
REMARK INTER + INTRA:          -8.629
REMARK INTER:                  -7.213
REMARK INTRA:                  -1.416
REMARK UNBOUND:                -1.589
REMARK SMILES CCCCCCCCCCCCCCC(=O)[O-]
REMARK SMILES IDX 9 1 10 2 11 3 12 4 13 5 14 6 15 7 16 8 17 9 8 10 7 11 6 12
REMARK SMILES IDX 5 13 4 14 3 15 2 16 1 17
REMARK H PARENT
REMARK Flexibility Score: inf
ROOT
ATOM      1  C   UNL     1     -45.580 -34.486  37.063  1.00  0.00     0.000 C 
ENDROOT
BRANCH   1   2
ATOM      2  C   UNL     1     -45.893 -34.030  38.498  1.00  0.00     0.000 C 
BRANCH   2   3
ATOM      3  C   UNL     1     -45.691 -35.148  39.534  1.00  0.00     0.000 C 
BRANCH   3   4
ATOM      4  C   UNL     1     -45.114 -34.680  40.885  1.00  0.00     0.000 C 
BRANCH   4   5
ATOM      5  C   UNL     1     -44.520 -33.254  40.853  1.00  0.00     0.006 C 
BRANCH   5   6
ATOM      6  C   UNL     1     -43.035 -33.251  40.467  1.00  0.00     0.053 C 
BRANCH   6   7
ATOM      7  C   UNL     1     -42.680 -31.992  39.744  1.00  0.00     0.041 C 
ATOM      8  O   UNL     1     -42.215 -31.008  40.377  1.00  0.00    -0.550 OA
ATOM      9  O   UNL     1     -42.822 -31.920  38.364  1.00  0.00    -0.550 OA
ENDBRANCH   6   7
ENDBRANCH   5   6
ENDBRANCH   4   5
ENDBRANCH   3   4
ENDBRANCH   2   3
ENDBRANCH   1   2
BRANCH   1  10
ATOM     10  C   UNL     1     -44.950 -35.887  37.003  1.00  0.00     0.000 C 
BRANCH  10  11
ATOM     11  C   UNL     1     -43.650 -35.920  36.178  1.00  0.00    -0.000 C 
BRANCH  11  12
ATOM     12  C   UNL     1     -42.421 -35.440  36.970  1.00  0.00    -0.000 C 
BRANCH  12  13
ATOM     13  C   UNL     1     -41.069 -35.674  36.265  1.00  0.00    -0.000 C 
BRANCH  13  14
ATOM     14  C   UNL     1     -39.845 -35.401  37.165  1.00  0.00    -0.000 C 
BRANCH  14  15
ATOM     15  C   UNL     1     -40.130 -34.319  38.219  1.00  0.00    -0.000 C 
BRANCH  15  16
ATOM     16  C   UNL     1     -39.764 -34.804  39.625  1.00  0.00    -0.003 C 
ATOM     17  C   UNL     1     -39.075 -36.165  39.577  1.00  0.00     0.004 C 
ENDBRANCH  15  16
ENDBRANCH  14  15
ENDBRANCH  13  14
ENDBRANCH  12  13
ENDBRANCH  11  12
ENDBRANCH  10  11
ENDBRANCH   1  10
TORSDOF 13
ENDMDL
MODEL 9
REMARK VINA RESULT:    -3.928      1.614      4.259
REMARK INTER + INTRA:          -8.501
REMARK INTER:                  -6.394
REMARK INTRA:                  -2.108
REMARK UNBOUND:                -1.589
REMARK SMILES CCCCCCCCCCCCCCC(=O)[O-]
REMARK SMILES IDX 9 1 10 2 11 3 12 4 13 5 14 6 15 7 16 8 17 9 8 10 7 11 6 12
REMARK SMILES IDX 5 13 4 14 3 15 2 16 1 17
REMARK H PARENT
REMARK Flexibility Score: inf
ROOT
ATOM      1  C   UNL     1     -46.026 -38.026  37.904  1.00  0.00     0.000 C 
ENDROOT
BRANCH   1   2
ATOM      2  C   UNL     1     -45.292 -37.237  36.807  1.00  0.00     0.000 C 
BRANCH   2   3
ATOM      3  C   UNL     1     -45.655 -35.743  36.805  1.00  0.00     0.000 C 
BRANCH   3   4
ATOM      4  C   UNL     1     -44.448 -34.784  36.818  1.00  0.00     0.000 C 
BRANCH   4   5
ATOM      5  C   UNL     1     -43.087 -35.494  36.995  1.00  0.00     0.006 C 
BRANCH   5   6
ATOM      6  C   UNL     1     -42.231 -34.844  38.091  1.00  0.00     0.053 C 
BRANCH   6   7
ATOM      7  C   UNL     1     -40.804 -34.741  37.654  1.00  0.00     0.041 C 
ATOM      8  O   UNL     1     -40.367 -35.489  36.741  1.00  0.00    -0.550 OA
ATOM      9  O   UNL     1     -39.969 -33.789  38.225  1.00  0.00    -0.550 OA
ENDBRANCH   6   7
ENDBRANCH   5   6
ENDBRANCH   4   5
ENDBRANCH   3   4
ENDBRANCH   2   3
ENDBRANCH   1   2
BRANCH   1  10
ATOM     10  C   UNL     1     -47.322 -37.342  38.368  1.00  0.00     0.000 C 
BRANCH  10  11
ATOM     11  C   UNL     1     -47.583 -37.523  39.875  1.00  0.00    -0.000 C 
BRANCH  11  12
ATOM     12  C   UNL     1     -46.293 -37.718  40.691  1.00  0.00    -0.000 C 
BRANCH  12  13
ATOM     13  C   UNL     1     -45.773 -36.443  41.387  1.00  0.00    -0.000 C 
BRANCH  13  14
ATOM     14  C   UNL     1     -44.934 -35.531  40.466  1.00  0.00    -0.000 C 
BRANCH  14  15
ATOM     15  C   UNL     1     -45.003 -34.056  40.894  1.00  0.00    -0.000 C 
BRANCH  15  16
ATOM     16  C   UNL     1     -45.691 -33.200  39.826  1.00  0.00    -0.003 C 
ATOM     17  C   UNL     1     -47.113 -33.688  39.562  1.00  0.00     0.004 C 
ENDBRANCH  15  16
ENDBRANCH  14  15
ENDBRANCH  13  14
ENDBRANCH  12  13
ENDBRANCH  11  12
ENDBRANCH  10  11
ENDBRANCH   1  10
TORSDOF 13
ENDMDL
