MODEL 1
REMARK VINA RESULT:    -6.117      0.000      0.000
REMARK INTER + INTRA:         -11.541
REMARK INTER:                 -10.765
REMARK INTRA:                  -0.776
REMARK UNBOUND:                -0.776
REMARK SMILES CCCCCCC=CCCCCCCCC(=O)[O-]
REMARK SMILES IDX 10 1 11 2 12 3 13 4 14 5 15 6 16 7 17 8 18 9 9 10 8 11 7 12
REMARK SMILES IDX 6 13 5 14 4 15 3 16 2 17 1 18
REMARK H PARENT
REMARK Flexibility Score: inf
ROOT
ATOM      1  C   UNL     1       5.042  43.391   9.935  1.00  0.00     0.004 C 
ENDROOT
BRANCH   1   2
ATOM      2  C   UNL     1       4.635  44.723  10.575  1.00  0.00     0.000 C 
BRANCH   2   3
ATOM      3  C   UNL     1       3.147  44.716  10.955  1.00  0.00     0.000 C 
BRANCH   3   4
ATOM      4  C   UNL     1       2.809  45.710  12.078  1.00  0.00     0.000 C 
BRANCH   4   5
ATOM      5  C   UNL     1       1.306  45.901  12.359  1.00  0.00     0.006 C 
BRANCH   5   6
ATOM      6  C   UNL     1       0.384  45.259  11.305  1.00  0.00     0.053 C 
BRANCH   6   7
ATOM      7  C   UNL     1      -0.323  46.280  10.465  1.00  0.00     0.041 C 
ATOM      8  O   UNL     1      -0.861  45.943   9.378  1.00  0.00    -0.550 OA
ATOM      9  O   UNL     1      -0.353  47.611  10.861  1.00  0.00    -0.550 OA
ENDBRANCH   6   7
ENDBRANCH   5   6
ENDBRANCH   4   5
ENDBRANCH   3   4
ENDBRANCH   2   3
ENDBRANCH   1   2
BRANCH   1  10
ATOM     10  C   UNL     1       3.810  42.598   9.482  1.00  0.00     0.027 C 
BRANCH  10  11
ATOM     11  C   UNL     1       3.550  42.798   8.015  1.00  0.00    -0.031 C 
ATOM     12  C   UNL     1       4.355  43.559   7.259  1.00  0.00    -0.031 C 
BRANCH  12  13
ATOM     13  C   UNL     1       4.067  43.812   5.802  1.00  0.00     0.027 C 
BRANCH  13  14
ATOM     14  C   UNL     1       5.190  44.619   5.141  1.00  0.00     0.004 C 
BRANCH  14  15
ATOM     15  C   UNL     1       4.685  45.440   3.942  1.00  0.00     0.000 C 
BRANCH  15  16
ATOM     16  C   UNL     1       3.242  45.086   3.539  1.00  0.00    -0.000 C 
BRANCH  16  17
ATOM     17  C   UNL     1       2.755  45.741   2.235  1.00  0.00    -0.003 C 
ATOM     18  C   UNL     1       2.228  44.730   1.216  1.00  0.00     0.004 C 
ENDBRANCH  16  17
ENDBRANCH  15  16
ENDBRANCH  14  15
ENDBRANCH  13  14
ENDBRANCH  12  13
ENDBRANCH  10  11
ENDBRANCH   1  10
TORSDOF 13
ENDMDL
MODEL 2
REMARK VINA RESULT:    -6.036      7.208     11.654
REMARK INTER + INTRA:         -11.398
REMARK INTER:                 -10.388
REMARK INTRA:                  -1.010
REMARK UNBOUND:                -0.776
REMARK SMILES CCCCCCC=CCCCCCCCC(=O)[O-]
REMARK SMILES IDX 10 1 11 2 12 3 13 4 14 5 15 6 16 7 17 8 18 9 9 10 8 11 7 12
REMARK SMILES IDX 6 13 5 14 4 15 3 16 2 17 1 18
REMARK H PARENT
REMARK Flexibility Score: inf
ROOT
ATOM      1  C   UNL     1       9.163  46.591   0.362  1.00  0.00     0.004 C 
ENDROOT
BRANCH   1   2
ATOM      2  C   UNL     1       9.777  47.716  -0.477  1.00  0.00     0.000 C 
BRANCH   2   3
ATOM      3  C   UNL     1       9.513  47.490  -1.974  1.00  0.00     0.000 C 
BRANCH   3   4
ATOM      4  C   UNL     1       8.039  47.180  -2.283  1.00  0.00     0.000 C 
BRANCH   4   5
ATOM      5  C   UNL     1       7.747  46.753  -3.734  1.00  0.00     0.006 C 
BRANCH   5   6
ATOM      6  C   UNL     1       7.494  45.243  -3.906  1.00  0.00     0.053 C 
BRANCH   6   7
ATOM      7  C   UNL     1       6.218  44.957  -4.640  1.00  0.00     0.041 C 
ATOM      8  O   UNL     1       5.956  43.786  -5.022  1.00  0.00    -0.550 OA
ATOM      9  O   UNL     1       5.337  45.989  -4.939  1.00  0.00    -0.550 OA
ENDBRANCH   6   7
ENDBRANCH   5   6
ENDBRANCH   4   5
ENDBRANCH   3   4
ENDBRANCH   2   3
ENDBRANCH   1   2
BRANCH   1  10
ATOM     10  C   UNL     1       8.899  47.057   1.800  1.00  0.00     0.027 C 
BRANCH  10  11
ATOM     11  C   UNL     1       7.425  47.180   2.065  1.00  0.00    -0.031 C 
ATOM     12  C   UNL     1       6.586  47.667   1.139  1.00  0.00    -0.031 C 
BRANCH  12  13
ATOM     13  C   UNL     1       5.117  47.849   1.419  1.00  0.00     0.027 C 
BRANCH  13  14
ATOM     14  C   UNL     1       4.680  47.050   2.652  1.00  0.00     0.004 C 
BRANCH  14  15
ATOM     15  C   UNL     1       3.415  46.216   2.384  1.00  0.00     0.000 C 
BRANCH  15  16
ATOM     16  C   UNL     1       3.084  45.244   3.532  1.00  0.00    -0.000 C 
BRANCH  16  17
ATOM     17  C   UNL     1       4.308  44.647   4.248  1.00  0.00    -0.003 C 
ATOM     18  C   UNL     1       3.987  44.125   5.648  1.00  0.00     0.004 C 
ENDBRANCH  16  17
ENDBRANCH  15  16
ENDBRANCH  14  15
ENDBRANCH  13  14
ENDBRANCH  12  13
ENDBRANCH  10  11
ENDBRANCH   1  10
TORSDOF 13
ENDMDL
MODEL 3
REMARK VINA RESULT:    -5.997      7.991     11.338
REMARK INTER + INTRA:         -11.330
REMARK INTER:                 -10.414
REMARK INTRA:                  -0.916
REMARK UNBOUND:                -0.776
REMARK SMILES CCCCCCC=CCCCCCCCC(=O)[O-]
REMARK SMILES IDX 10 1 11 2 12 3 13 4 14 5 15 6 16 7 17 8 18 9 9 10 8 11 7 12
REMARK SMILES IDX 6 13 5 14 4 15 3 16 2 17 1 18
REMARK H PARENT
REMARK Flexibility Score: inf
ROOT
ATOM      1  C   UNL     1       5.139  48.620   0.354  1.00  0.00     0.004 C 
ENDROOT
BRANCH   1   2
ATOM      2  C   UNL     1       5.858  48.613  -1.000  1.00  0.00     0.000 C 
BRANCH   2   3
ATOM      3  C   UNL     1       7.342  48.254  -0.831  1.00  0.00     0.000 C 
BRANCH   3   4
ATOM      4  C   UNL     1       7.945  47.594  -2.082  1.00  0.00     0.000 C 
BRANCH   4   5
ATOM      5  C   UNL     1       6.998  47.490  -3.293  1.00  0.00     0.006 C 
BRANCH   5   6
ATOM      6  C   UNL     1       7.313  46.315  -4.238  1.00  0.00     0.053 C 
BRANCH   6   7
ATOM      7  C   UNL     1       6.102  45.486  -4.543  1.00  0.00     0.041 C 
ATOM      8  O   UNL     1       5.106  46.004  -5.114  1.00  0.00    -0.550 OA
ATOM      9  O   UNL     1       6.055  44.151  -4.160  1.00  0.00    -0.550 OA
ENDBRANCH   6   7
ENDBRANCH   5   6
ENDBRANCH   4   5
ENDBRANCH   3   4
ENDBRANCH   2   3
ENDBRANCH   1   2
BRANCH   1  10
ATOM     10  C   UNL     1       6.043  48.060   1.460  1.00  0.00     0.027 C 
BRANCH  10  11
ATOM     11  C   UNL     1       5.263  47.185   2.401  1.00  0.00    -0.031 C 
ATOM     12  C   UNL     1       4.037  46.739   2.089  1.00  0.00    -0.031 C 
BRANCH  12  13
ATOM     13  C   UNL     1       3.228  45.910   3.051  1.00  0.00     0.027 C 
BRANCH  13  14
ATOM     14  C   UNL     1       1.877  45.509   2.446  1.00  0.00     0.004 C 
BRANCH  14  15
ATOM     15  C   UNL     1       2.042  44.672   1.165  1.00  0.00     0.000 C 
BRANCH  15  16
ATOM     16  C   UNL     1       0.702  44.374   0.469  1.00  0.00    -0.000 C 
BRANCH  16  17
ATOM     17  C   UNL     1      -0.521  45.069   1.092  1.00  0.00    -0.003 C 
ATOM     18  C   UNL     1      -1.743  45.068   0.174  1.00  0.00     0.004 C 
ENDBRANCH  16  17
ENDBRANCH  15  16
ENDBRANCH  14  15
ENDBRANCH  13  14
ENDBRANCH  12  13
ENDBRANCH  10  11
ENDBRANCH   1  10
TORSDOF 13
ENDMDL
MODEL 4
REMARK VINA RESULT:    -5.988      4.578      8.532
REMARK INTER + INTRA:         -11.314
REMARK INTER:                 -10.486
REMARK INTRA:                  -0.828
REMARK UNBOUND:                -0.776
REMARK SMILES CCCCCCC=CCCCCCCCC(=O)[O-]
REMARK SMILES IDX 10 1 11 2 12 3 13 4 14 5 15 6 16 7 17 8 18 9 9 10 8 11 7 12
REMARK SMILES IDX 6 13 5 14 4 15 3 16 2 17 1 18
REMARK H PARENT
REMARK Flexibility Score: inf
ROOT
ATOM      1  C   UNL     1       1.255  46.412   3.515  1.00  0.00     0.004 C 
ENDROOT
BRANCH   1   2
ATOM      2  C   UNL     1      -0.180  45.941   3.771  1.00  0.00     0.000 C 
BRANCH   2   3
ATOM      3  C   UNL     1      -1.042  46.098   2.509  1.00  0.00     0.000 C 
BRANCH   3   4
ATOM      4  C   UNL     1      -1.904  44.859   2.213  1.00  0.00     0.000 C 
BRANCH   4   5
ATOM      5  C   UNL     1      -1.526  44.085   0.935  1.00  0.00     0.006 C 
BRANCH   5   6
ATOM      6  C   UNL     1      -0.103  44.377   0.421  1.00  0.00     0.053 C 
BRANCH   6   7
ATOM      7  C   UNL     1      -0.087  44.768  -1.026  1.00  0.00     0.041 C 
ATOM      8  O   UNL     1       0.993  44.753  -1.674  1.00  0.00    -0.550 OA
ATOM      9  O   UNL     1      -1.255  45.189  -1.649  1.00  0.00    -0.550 OA
ENDBRANCH   6   7
ENDBRANCH   5   6
ENDBRANCH   4   5
ENDBRANCH   3   4
ENDBRANCH   2   3
ENDBRANCH   1   2
BRANCH   1  10
ATOM     10  C   UNL     1       2.077  45.321   2.817  1.00  0.00     0.027 C 
BRANCH  10  11
ATOM     11  C   UNL     1       3.476  45.266   3.365  1.00  0.00    -0.031 C 
ATOM     12  C   UNL     1       3.752  44.635   4.516  1.00  0.00    -0.031 C 
BRANCH  12  13
ATOM     13  C   UNL     1       5.140  44.627   5.100  1.00  0.00     0.027 C 
BRANCH  13  14
ATOM     14  C   UNL     1       5.115  44.294   6.597  1.00  0.00     0.004 C 
BRANCH  14  15
ATOM     15  C   UNL     1       3.989  43.308   6.953  1.00  0.00     0.000 C 
BRANCH  15  16
ATOM     16  C   UNL     1       4.496  42.072   7.718  1.00  0.00    -0.000 C 
BRANCH  16  17
ATOM     17  C   UNL     1       4.294  42.126   9.242  1.00  0.00    -0.003 C 
ATOM     18  C   UNL     1       3.210  43.116   9.668  1.00  0.00     0.004 C 
ENDBRANCH  16  17
ENDBRANCH  15  16
ENDBRANCH  14  15
ENDBRANCH  13  14
ENDBRANCH  12  13
ENDBRANCH  10  11
ENDBRANCH   1  10
TORSDOF 13
ENDMDL
MODEL 5
REMARK VINA RESULT:    -5.982      1.513      2.133
REMARK INTER + INTRA:         -11.303
REMARK INTER:                 -10.219
REMARK INTRA:                  -1.084
REMARK UNBOUND:                -0.776
REMARK SMILES CCCCCCC=CCCCCCCCC(=O)[O-]
REMARK SMILES IDX 10 1 11 2 12 3 13 4 14 5 15 6 16 7 17 8 18 9 9 10 8 11 7 12
REMARK SMILES IDX 6 13 5 14 4 15 3 16 2 17 1 18
REMARK H PARENT
REMARK Flexibility Score: inf
ROOT
ATOM      1  C   UNL     1       4.706  42.713   8.442  1.00  0.00     0.004 C 
ENDROOT
BRANCH   1   2
ATOM      2  C   UNL     1       4.641  43.326   9.845  1.00  0.00     0.000 C 
BRANCH   2   3
ATOM      3  C   UNL     1       4.714  44.859   9.777  1.00  0.00     0.000 C 
BRANCH   3   4
ATOM      4  C   UNL     1       3.576  45.549  10.547  1.00  0.00     0.000 C 
BRANCH   4   5
ATOM      5  C   UNL     1       2.263  44.747  10.637  1.00  0.00     0.006 C 
BRANCH   5   6
ATOM      6  C   UNL     1       1.249  45.315  11.648  1.00  0.00     0.053 C 
BRANCH   6   7
ATOM      7  C   UNL     1       0.144  46.079  10.983  1.00  0.00     0.041 C 
ATOM      8  O   UNL     1      -0.772  45.467  10.373  1.00  0.00    -0.550 OA
ATOM      9  O   UNL     1       0.147  47.469  11.000  1.00  0.00    -0.550 OA
ENDBRANCH   6   7
ENDBRANCH   5   6
ENDBRANCH   4   5
ENDBRANCH   3   4
ENDBRANCH   2   3
ENDBRANCH   1   2
BRANCH   1  10
ATOM     10  C   UNL     1       3.375  42.888   7.701  1.00  0.00     0.027 C 
BRANCH  10  11
ATOM     11  C   UNL     1       3.582  43.552   6.369  1.00  0.00    -0.031 C 
ATOM     12  C   UNL     1       4.748  44.135   6.051  1.00  0.00    -0.031 C 
BRANCH  12  13
ATOM     13  C   UNL     1       4.942  44.853   4.742  1.00  0.00     0.027 C 
BRANCH  13  14
ATOM     14  C   UNL     1       3.656  44.854   3.907  1.00  0.00     0.004 C 
BRANCH  14  15
ATOM     15  C   UNL     1       3.658  45.962   2.840  1.00  0.00     0.000 C 
BRANCH  15  16
ATOM     16  C   UNL     1       4.993  46.725   2.772  1.00  0.00    -0.000 C 
BRANCH  16  17
ATOM     17  C   UNL     1       5.050  47.837   1.710  1.00  0.00    -0.003 C 
ATOM     18  C   UNL     1       6.382  47.884   0.962  1.00  0.00     0.004 C 
ENDBRANCH  16  17
ENDBRANCH  15  16
ENDBRANCH  14  15
ENDBRANCH  13  14
ENDBRANCH  12  13
ENDBRANCH  10  11
ENDBRANCH   1  10
TORSDOF 13
ENDMDL
MODEL 6
REMARK VINA RESULT:    -5.968      6.886      8.896
REMARK INTER + INTRA:         -11.280
REMARK INTER:                 -10.339
REMARK INTRA:                  -0.940
REMARK UNBOUND:                -0.776
REMARK SMILES CCCCCCC=CCCCCCCCC(=O)[O-]
REMARK SMILES IDX 10 1 11 2 12 3 13 4 14 5 15 6 16 7 17 8 18 9 9 10 8 11 7 12
REMARK SMILES IDX 6 13 5 14 4 15 3 16 2 17 1 18
REMARK H PARENT
REMARK Flexibility Score: inf
ROOT
ATOM      1  C   UNL     1       1.522  46.488   3.317  1.00  0.00     0.004 C 
ENDROOT
BRANCH   1   2
ATOM      2  C   UNL     1       0.171  45.921   3.766  1.00  0.00     0.000 C 
BRANCH   2   3
ATOM      3  C   UNL     1      -0.892  46.105   2.672  1.00  0.00     0.000 C 
BRANCH   3   4
ATOM      4  C   UNL     1      -1.367  44.773   2.068  1.00  0.00     0.000 C 
BRANCH   4   5
ATOM      5  C   UNL     1      -1.296  44.686   0.531  1.00  0.00     0.006 C 
BRANCH   5   6
ATOM      6  C   UNL     1       0.135  44.731  -0.035  1.00  0.00     0.053 C 
BRANCH   6   7
ATOM      7  C   UNL     1       0.157  44.794  -1.533  1.00  0.00     0.041 C 
ATOM      8  O   UNL     1      -0.863  45.174  -2.166  1.00  0.00    -0.550 OA
ATOM      9  O   UNL     1       1.288  44.393  -2.233  1.00  0.00    -0.550 OA
ENDBRANCH   6   7
ENDBRANCH   5   6
ENDBRANCH   4   5
ENDBRANCH   3   4
ENDBRANCH   2   3
ENDBRANCH   1   2
BRANCH   1  10
ATOM     10  C   UNL     1       2.589  45.388   3.258  1.00  0.00     0.027 C 
BRANCH  10  11
ATOM     11  C   UNL     1       3.971  45.972   3.348  1.00  0.00    -0.031 C 
ATOM     12  C   UNL     1       4.404  46.887   2.467  1.00  0.00    -0.031 C 
BRANCH  12  13
ATOM     13  C   UNL     1       5.806  47.432   2.517  1.00  0.00     0.027 C 
BRANCH  13  14
ATOM     14  C   UNL     1       6.277  47.893   1.132  1.00  0.00     0.004 C 
BRANCH  14  15
ATOM     15  C   UNL     1       5.158  48.594   0.344  1.00  0.00     0.000 C 
BRANCH  15  16
ATOM     16  C   UNL     1       5.527  48.838  -1.131  1.00  0.00    -0.000 C 
BRANCH  16  17
ATOM     17  C   UNL     1       6.959  49.350  -1.364  1.00  0.00    -0.003 C 
ATOM     18  C   UNL     1       7.091  50.863  -1.189  1.00  0.00     0.004 C 
ENDBRANCH  16  17
ENDBRANCH  15  16
ENDBRANCH  14  15
ENDBRANCH  13  14
ENDBRANCH  12  13
ENDBRANCH  10  11
ENDBRANCH   1  10
TORSDOF 13
ENDMDL
MODEL 7
REMARK VINA RESULT:    -5.943      7.544     12.167
REMARK INTER + INTRA:         -11.236
REMARK INTER:                 -10.476
REMARK INTRA:                  -0.760
REMARK UNBOUND:                -0.776
REMARK SMILES CCCCCCC=CCCCCCCCC(=O)[O-]
REMARK SMILES IDX 10 1 11 2 12 3 13 4 14 5 15 6 16 7 17 8 18 9 9 10 8 11 7 12
REMARK SMILES IDX 6 13 5 14 4 15 3 16 2 17 1 18
REMARK H PARENT
REMARK Flexibility Score: inf
ROOT
ATOM      1  C   UNL     1       7.517  49.034  -1.295  1.00  0.00     0.004 C 
ENDROOT
BRANCH   1   2
ATOM      2  C   UNL     1       8.178  47.797  -1.912  1.00  0.00     0.000 C 
BRANCH   2   3
ATOM      3  C   UNL     1       7.348  47.261  -3.088  1.00  0.00     0.000 C 
BRANCH   3   4
ATOM      4  C   UNL     1       8.212  46.637  -4.197  1.00  0.00     0.000 C 
BRANCH   4   5
ATOM      5  C   UNL     1       7.431  45.898  -5.300  1.00  0.00     0.006 C 
BRANCH   5   6
ATOM      6  C   UNL     1       5.908  46.118  -5.248  1.00  0.00     0.053 C 
BRANCH   6   7
ATOM      7  C   UNL     1       5.160  44.862  -4.914  1.00  0.00     0.041 C 
ATOM      8  O   UNL     1       5.706  43.738  -5.070  1.00  0.00    -0.550 OA
ATOM      9  O   UNL     1       3.844  44.929  -4.472  1.00  0.00    -0.550 OA
ENDBRANCH   6   7
ENDBRANCH   5   6
ENDBRANCH   4   5
ENDBRANCH   3   4
ENDBRANCH   2   3
ENDBRANCH   1   2
BRANCH   1  10
ATOM     10  C   UNL     1       5.990  48.888  -1.267  1.00  0.00     0.027 C 
BRANCH  10  11
ATOM     11  C   UNL     1       5.497  48.650   0.132  1.00  0.00    -0.031 C 
ATOM     12  C   UNL     1       6.200  47.916   1.007  1.00  0.00    -0.031 C 
BRANCH  12  13
ATOM     13  C   UNL     1       5.683  47.625   2.391  1.00  0.00     0.027 C 
BRANCH  13  14
ATOM     14  C   UNL     1       4.300  46.964   2.344  1.00  0.00     0.004 C 
BRANCH  14  15
ATOM     15  C   UNL     1       4.196  45.770   3.310  1.00  0.00     0.000 C 
BRANCH  15  16
ATOM     16  C   UNL     1       2.751  45.270   3.489  1.00  0.00    -0.000 C 
BRANCH  16  17
ATOM     17  C   UNL     1       1.811  45.570   2.308  1.00  0.00    -0.003 C 
ATOM     18  C   UNL     1       2.015  44.624   1.125  1.00  0.00     0.004 C 
ENDBRANCH  16  17
ENDBRANCH  15  16
ENDBRANCH  14  15
ENDBRANCH  13  14
ENDBRANCH  12  13
ENDBRANCH  10  11
ENDBRANCH   1  10
TORSDOF 13
ENDMDL
MODEL 8
REMARK VINA RESULT:    -5.907      1.924      3.206
REMARK INTER + INTRA:         -11.171
REMARK INTER:                 -10.515
REMARK INTRA:                  -0.656
REMARK UNBOUND:                -0.776
REMARK SMILES CCCCCCC=CCCCCCCCC(=O)[O-]
REMARK SMILES IDX 10 1 11 2 12 3 13 4 14 5 15 6 16 7 17 8 18 9 9 10 8 11 7 12
REMARK SMILES IDX 6 13 5 14 4 15 3 16 2 17 1 18
REMARK H PARENT
REMARK Flexibility Score: inf
ROOT
ATOM      1  C   UNL     1       4.064  43.743   6.752  1.00  0.00     0.004 C 
ENDROOT
BRANCH   1   2
ATOM      2  C   UNL     1       4.454  43.902   8.226  1.00  0.00     0.000 C 
BRANCH   2   3
ATOM      3  C   UNL     1       3.213  43.858   9.130  1.00  0.00     0.000 C 
BRANCH   3   4
ATOM      4  C   UNL     1       3.399  44.637  10.443  1.00  0.00     0.000 C 
BRANCH   4   5
ATOM      5  C   UNL     1       2.109  45.218  11.051  1.00  0.00     0.006 C 
BRANCH   5   6
ATOM      6  C   UNL     1       2.035  46.757  11.018  1.00  0.00     0.053 C 
BRANCH   6   7
ATOM      7  C   UNL     1       0.633  47.259  10.855  1.00  0.00     0.041 C 
ATOM      8  O   UNL     1      -0.314  46.712  11.481  1.00  0.00    -0.550 OA
ATOM      9  O   UNL     1       0.362  48.305   9.981  1.00  0.00    -0.550 OA
ENDBRANCH   6   7
ENDBRANCH   5   6
ENDBRANCH   4   5
ENDBRANCH   3   4
ENDBRANCH   2   3
ENDBRANCH   1   2
BRANCH   1  10
ATOM     10  C   UNL     1       5.265  43.997   5.833  1.00  0.00     0.027 C 
BRANCH  10  11
ATOM     11  C   UNL     1       4.873  44.845   4.656  1.00  0.00    -0.031 C 
ATOM     12  C   UNL     1       3.622  44.836   4.172  1.00  0.00    -0.031 C 
BRANCH  12  13
ATOM     13  C   UNL     1       3.239  45.640   2.957  1.00  0.00     0.027 C 
BRANCH  13  14
ATOM     14  C   UNL     1       1.744  45.503   2.646  1.00  0.00     0.004 C 
BRANCH  14  15
ATOM     15  C   UNL     1       0.869  46.260   3.660  1.00  0.00     0.000 C 
BRANCH  15  16
ATOM     16  C   UNL     1      -0.638  46.064   3.414  1.00  0.00    -0.000 C 
BRANCH  16  17
ATOM     17  C   UNL     1      -0.992  45.347   2.100  1.00  0.00    -0.003 C 
ATOM     18  C   UNL     1      -1.948  46.149   1.218  1.00  0.00     0.004 C 
ENDBRANCH  16  17
ENDBRANCH  15  16
ENDBRANCH  14  15
ENDBRANCH  13  14
ENDBRANCH  12  13
ENDBRANCH  10  11
ENDBRANCH   1  10
TORSDOF 13
ENDMDL
MODEL 9
REMARK VINA RESULT:    -5.890      2.381      6.988
REMARK INTER + INTRA:         -11.143
REMARK INTER:                 -10.343
REMARK INTRA:                  -0.800
REMARK UNBOUND:                -0.776
REMARK SMILES CCCCCCC=CCCCCCCCC(=O)[O-]
REMARK SMILES IDX 10 1 11 2 12 3 13 4 14 5 15 6 16 7 17 8 18 9 9 10 8 11 7 12
REMARK SMILES IDX 6 13 5 14 4 15 3 16 2 17 1 18
REMARK H PARENT
REMARK Flexibility Score: inf
ROOT
ATOM      1  C   UNL     1       5.445  45.142   4.481  1.00  0.00     0.004 C 
ENDROOT
BRANCH   1   2
ATOM      2  C   UNL     1       3.980  44.874   4.122  1.00  0.00     0.000 C 
BRANCH   2   3
ATOM      3  C   UNL     1       3.517  45.794   2.982  1.00  0.00     0.000 C 
BRANCH   3   4
ATOM      4  C   UNL     1       2.027  45.626   2.643  1.00  0.00     0.000 C 
BRANCH   4   5
ATOM      5  C   UNL     1       1.047  46.054   3.753  1.00  0.00     0.006 C 
BRANCH   5   6
ATOM      6  C   UNL     1      -0.353  46.442   3.240  1.00  0.00     0.053 C 
BRANCH   6   7
ATOM      7  C   UNL     1      -1.446  45.693   3.941  1.00  0.00     0.041 C 
ATOM      8  O   UNL     1      -2.308  45.061   3.275  1.00  0.00    -0.550 OA
ATOM      9  O   UNL     1      -1.540  45.727   5.327  1.00  0.00    -0.550 OA
ENDBRANCH   6   7
ENDBRANCH   5   6
ENDBRANCH   4   5
ENDBRANCH   3   4
ENDBRANCH   2   3
ENDBRANCH   1   2
BRANCH   1  10
ATOM     10  C   UNL     1       5.723  44.809   5.952  1.00  0.00     0.027 C 
BRANCH  10  11
ATOM     11  C   UNL     1       4.497  44.251   6.618  1.00  0.00    -0.031 C 
ATOM     12  C   UNL     1       4.583  43.293   7.554  1.00  0.00    -0.031 C 
BRANCH  12  13
ATOM     13  C   UNL     1       3.355  42.689   8.183  1.00  0.00     0.027 C 
BRANCH  13  14
ATOM     14  C   UNL     1       3.398  42.799   9.712  1.00  0.00     0.004 C 
BRANCH  14  15
ATOM     15  C   UNL     1       2.739  44.094  10.218  1.00  0.00     0.000 C 
BRANCH  15  16
ATOM     16  C   UNL     1       3.715  44.997  10.994  1.00  0.00    -0.000 C 
BRANCH  16  17
ATOM     17  C   UNL     1       3.046  46.009  11.942  1.00  0.00    -0.003 C 
ATOM     18  C   UNL     1       1.843  45.429  12.684  1.00  0.00     0.004 C 
ENDBRANCH  16  17
ENDBRANCH  15  16
ENDBRANCH  14  15
ENDBRANCH  13  14
ENDBRANCH  12  13
ENDBRANCH  10  11
ENDBRANCH   1  10
TORSDOF 13
ENDMDL
