MODEL 1
REMARK VINA RESULT:    -6.805      0.000      0.000
REMARK INTER + INTRA:          -8.615
REMARK INTER:                  -8.197
REMARK INTRA:                  -0.418
REMARK UNBOUND:                -0.418
REMARK SMILES O=c1c(O)c(-c2ccc(O)cc2O)oc2cc(O)cc(O)c12
REMARK SMILES IDX 5 1 3 2 2 3 1 4 22 5 20 6 19 7 17 8 16 9 15 10 14 11 6 12
REMARK SMILES IDX 8 13 7 14 9 15 11 16 12 17 10 18 13 20 4 22 21 24 18 26
REMARK H PARENT 10 19 13 21 4 23 21 25 18 27
REMARK Flexibility Score: inf
ROOT
ATOM      1  C   UNL     1       2.782  -0.523 -11.044  1.00  0.00     0.184 A 
ATOM      2  C   UNL     1       1.806   0.434 -10.727  1.00  0.00     0.208 A 
ATOM      3  C   UNL     1       1.299   1.253 -11.747  1.00  0.00     0.238 A 
ATOM      4  O   UNL     1       0.469   2.150 -11.445  1.00  0.00    -0.285 OA
ATOM      5  C   UNL     1       1.755   1.084 -13.078  1.00  0.00     0.111 A 
ATOM      6  C   UNL     1       1.282   1.831 -14.198  1.00  0.00     0.134 A 
ATOM      7  C   UNL     1       1.894   1.664 -15.447  1.00  0.00     0.093 A 
ATOM      8  C   UNL     1       2.915   0.730 -15.630  1.00  0.00     0.123 A 
ATOM      9  C   UNL     1       3.345  -0.046 -14.555  1.00  0.00     0.094 A 
ATOM     10  C   UNL     1       2.780   0.125 -13.289  1.00  0.00     0.146 A 
ATOM     11  O   UNL     1       3.229  -0.625 -12.290  1.00  0.00    -0.451 OA
ENDROOT
BRANCH   1  12
ATOM     12  C   UNL     1       3.335  -1.428 -10.014  1.00  0.00     0.063 A 
ATOM     13  C   UNL     1       3.265  -3.577  -8.873  1.00  0.00     0.047 A 
ATOM     14  C   UNL     1       2.730  -2.680  -9.800  1.00  0.00     0.020 A 
ATOM     15  C   UNL     1       4.414  -3.243  -8.154  1.00  0.00     0.119 A 
ATOM     16  C   UNL     1       5.027  -2.001  -8.360  1.00  0.00     0.093 A 
ATOM     17  C   UNL     1       4.494  -1.088  -9.278  1.00  0.00     0.130 A 
BRANCH  15  18
ATOM     18  O   UNL     1       4.940  -4.151  -7.237  1.00  0.00    -0.508 OA
ATOM     19  H   UNL     1       4.351  -4.823  -6.760  1.00  0.00     0.293 HD
ENDBRANCH  15  18
BRANCH  17  20
ATOM     20  O   UNL     1       5.125   0.151  -9.418  1.00  0.00    -0.507 OA
ATOM     21  H   UNL     1       6.037   0.353  -9.027  1.00  0.00     0.293 HD
ENDBRANCH  17  20
ENDBRANCH   1  12
BRANCH   2  22
ATOM     22  O   UNL     1       1.371   0.576  -9.406  1.00  0.00    -0.502 OA
ATOM     23  H   UNL     1       1.379   1.467  -8.924  1.00  0.00     0.293 HD
ENDBRANCH   2  22
BRANCH   6  24
ATOM     24  O   UNL     1       0.207   2.723 -14.145  1.00  0.00    -0.507 OA
ATOM     25  H   UNL     1      -0.553   2.670 -13.485  1.00  0.00     0.293 HD
ENDBRANCH   6  24
BRANCH   8  26
ATOM     26  O   UNL     1       3.506   0.558 -16.879  1.00  0.00    -0.508 OA
ATOM     27  H   UNL     1       3.836   1.348 -17.423  1.00  0.00     0.293 HD
ENDBRANCH   8  26
TORSDOF 6
ENDMDL
MODEL 2
REMARK VINA RESULT:    -6.725      1.751      6.506
REMARK INTER + INTRA:          -8.518
REMARK INTER:                  -8.228
REMARK INTRA:                  -0.291
REMARK UNBOUND:                -0.418
REMARK SMILES O=c1c(O)c(-c2ccc(O)cc2O)oc2cc(O)cc(O)c12
REMARK SMILES IDX 5 1 3 2 2 3 1 4 22 5 20 6 19 7 17 8 16 9 15 10 14 11 6 12
REMARK SMILES IDX 8 13 7 14 9 15 11 16 12 17 10 18 13 20 4 22 21 24 18 26
REMARK H PARENT 10 19 13 21 4 23 21 25 18 27
REMARK Flexibility Score: inf
ROOT
ATOM      1  C   UNL     1       2.879  -0.763 -11.622  1.00  0.00     0.184 A 
ATOM      2  C   UNL     1       2.347  -0.192 -10.455  1.00  0.00     0.208 A 
ATOM      3  C   UNL     1       2.244  -0.979  -9.298  1.00  0.00     0.238 A 
ATOM      4  O   UNL     1       1.711  -0.480  -8.273  1.00  0.00    -0.285 OA
ATOM      5  C   UNL     1       2.703  -2.320  -9.316  1.00  0.00     0.111 A 
ATOM      6  C   UNL     1       2.684  -3.198  -8.191  1.00  0.00     0.134 A 
ATOM      7  C   UNL     1       3.048  -4.540  -8.357  1.00  0.00     0.093 A 
ATOM      8  C   UNL     1       3.492  -5.019  -9.591  1.00  0.00     0.123 A 
ATOM      9  C   UNL     1       3.569  -4.156 -10.681  1.00  0.00     0.094 A 
ATOM     10  C   UNL     1       3.177  -2.820 -10.557  1.00  0.00     0.146 A 
ATOM     11  O   UNL     1       3.253  -2.036 -11.625  1.00  0.00    -0.451 OA
ENDROOT
BRANCH   1  12
ATOM     12  C   UNL     1       3.032   0.026 -12.863  1.00  0.00     0.063 A 
ATOM     13  C   UNL     1       4.491   0.954 -14.577  1.00  0.00     0.047 A 
ATOM     14  C   UNL     1       4.321   0.260 -13.376  1.00  0.00     0.020 A 
ATOM     15  C   UNL     1       3.380   1.416 -15.285  1.00  0.00     0.119 A 
ATOM     16  C   UNL     1       2.093   1.188 -14.785  1.00  0.00     0.093 A 
ATOM     17  C   UNL     1       1.909   0.503 -13.577  1.00  0.00     0.130 A 
BRANCH  15  18
ATOM     18  O   UNL     1       3.566   2.102 -16.484  1.00  0.00    -0.508 OA
ATOM     19  H   UNL     1       3.886   1.629 -17.320  1.00  0.00     0.293 HD
ENDBRANCH  15  18
BRANCH  17  20
ATOM     20  O   UNL     1       0.604   0.334 -13.107  1.00  0.00    -0.507 OA
ATOM     21  H   UNL     1       0.354  -0.353 -12.408  1.00  0.00     0.293 HD
ENDBRANCH  17  20
ENDBRANCH   1  12
BRANCH   2  22
ATOM     22  O   UNL     1       1.907   1.135 -10.465  1.00  0.00    -0.502 OA
ATOM     23  H   UNL     1       2.547   1.919 -10.423  1.00  0.00     0.293 HD
ENDBRANCH   2  22
BRANCH   6  24
ATOM     24  O   UNL     1       2.345  -2.800  -6.895  1.00  0.00    -0.507 OA
ATOM     25  H   UNL     1       2.918  -2.946  -6.078  1.00  0.00     0.293 HD
ENDBRANCH   6  24
BRANCH   8  26
ATOM     26  O   UNL     1       3.868  -6.351  -9.743  1.00  0.00    -0.508 OA
ATOM     27  H   UNL     1       3.678  -7.042  -9.025  1.00  0.00     0.293 HD
ENDBRANCH   8  26
TORSDOF 6
ENDMDL
MODEL 3
REMARK VINA RESULT:    -6.716      1.704      2.230
REMARK INTER + INTRA:          -8.508
REMARK INTER:                  -8.480
REMARK INTRA:                  -0.028
REMARK UNBOUND:                -0.418
REMARK SMILES O=c1c(O)c(-c2ccc(O)cc2O)oc2cc(O)cc(O)c12
REMARK SMILES IDX 5 1 3 2 2 3 1 4 22 5 20 6 19 7 17 8 16 9 15 10 14 11 6 12
REMARK SMILES IDX 8 13 7 14 9 15 11 16 12 17 10 18 13 20 4 22 21 24 18 26
REMARK H PARENT 10 19 13 21 4 23 21 25 18 27
REMARK Flexibility Score: inf
ROOT
ATOM      1  C   UNL     1       2.076   0.334 -11.534  1.00  0.00     0.184 A 
ATOM      2  C   UNL     1       1.057   1.244 -11.856  1.00  0.00     0.208 A 
ATOM      3  C   UNL     1       1.013   1.786 -13.149  1.00  0.00     0.238 A 
ATOM      4  O   UNL     1       0.134   2.647 -13.413  1.00  0.00    -0.285 OA
ATOM      5  C   UNL     1       1.973   1.389 -14.112  1.00  0.00     0.111 A 
ATOM      6  C   UNL     1       2.001   1.844 -15.465  1.00  0.00     0.134 A 
ATOM      7  C   UNL     1       3.069   1.479 -16.294  1.00  0.00     0.093 A 
ATOM      8  C   UNL     1       4.075   0.624 -15.839  1.00  0.00     0.123 A 
ATOM      9  C   UNL     1       4.026   0.128 -14.539  1.00  0.00     0.094 A 
ATOM     10  C   UNL     1       2.993   0.503 -13.676  1.00  0.00     0.146 A 
ATOM     11  O   UNL     1       2.993   0.018 -12.440  1.00  0.00    -0.451 OA
ENDROOT
BRANCH   1  12
ATOM     12  C   UNL     1       2.158  -0.287 -10.195  1.00  0.00     0.063 A 
ATOM     13  C   UNL     1       1.935  -0.073  -7.780  1.00  0.00     0.047 A 
ATOM     14  C   UNL     1       1.919   0.500  -9.054  1.00  0.00     0.020 A 
ATOM     15  C   UNL     1       2.181  -1.439  -7.627  1.00  0.00     0.119 A 
ATOM     16  C   UNL     1       2.419  -2.233  -8.755  1.00  0.00     0.093 A 
ATOM     17  C   UNL     1       2.417  -1.669 -10.037  1.00  0.00     0.130 A 
BRANCH  15  18
ATOM     18  O   UNL     1       2.189  -1.997  -6.350  1.00  0.00    -0.508 OA
ATOM     19  H   UNL     1       3.055  -2.199  -5.866  1.00  0.00     0.293 HD
ENDBRANCH  15  18
BRANCH  17  20
ATOM     20  O   UNL     1       2.695  -2.501 -11.124  1.00  0.00    -0.507 OA
ATOM     21  H   UNL     1       3.287  -2.221 -11.896  1.00  0.00     0.293 HD
ENDBRANCH  17  20
ENDBRANCH   1  12
BRANCH   2  22
ATOM     22  O   UNL     1       0.121   1.614 -10.887  1.00  0.00    -0.502 OA
ATOM     23  H   UNL     1      -0.034   1.071 -10.046  1.00  0.00     0.293 HD
ENDBRANCH   2  22
BRANCH   6  24
ATOM     24  O   UNL     1       1.000   2.627 -16.046  1.00  0.00    -0.507 OA
ATOM     25  H   UNL     1       0.049   2.686 -15.715  1.00  0.00     0.293 HD
ENDBRANCH   6  24
BRANCH   8  26
ATOM     26  O   UNL     1       5.125   0.253 -16.676  1.00  0.00    -0.508 OA
ATOM     27  H   UNL     1       6.089   0.459 -16.440  1.00  0.00     0.293 HD
ENDBRANCH   8  26
TORSDOF 6
ENDMDL
MODEL 4
REMARK VINA RESULT:    -6.490      1.911      6.078
REMARK INTER + INTRA:          -8.235
REMARK INTER:                  -8.170
REMARK INTRA:                  -0.065
REMARK UNBOUND:                -0.418
REMARK SMILES O=c1c(O)c(-c2ccc(O)cc2O)oc2cc(O)cc(O)c12
REMARK SMILES IDX 5 1 3 2 2 3 1 4 22 5 20 6 19 7 17 8 16 9 15 10 14 11 6 12
REMARK SMILES IDX 8 13 7 14 9 15 11 16 12 17 10 18 13 20 4 22 21 24 18 26
REMARK H PARENT 10 19 13 21 4 23 21 25 18 27
REMARK Flexibility Score: inf
ROOT
ATOM      1  C   UNL     1       2.183   0.663 -11.860  1.00  0.00     0.184 A 
ATOM      2  C   UNL     1       1.147   1.572 -11.592  1.00  0.00     0.208 A 
ATOM      3  C   UNL     1       0.625   1.644 -10.292  1.00  0.00     0.238 A 
ATOM      4  O   UNL     1      -0.344   2.417 -10.072  1.00  0.00    -0.285 OA
ATOM      5  C   UNL     1       1.166   0.826  -9.269  1.00  0.00     0.111 A 
ATOM      6  C   UNL     1       0.741   0.843  -7.906  1.00  0.00     0.134 A 
ATOM      7  C   UNL     1       1.262  -0.097  -7.009  1.00  0.00     0.093 A 
ATOM      8  C   UNL     1       2.240  -1.010  -7.409  1.00  0.00     0.123 A 
ATOM      9  C   UNL     1       2.703  -0.997  -8.722  1.00  0.00     0.094 A 
ATOM     10  C   UNL     1       2.176  -0.096  -9.651  1.00  0.00     0.146 A 
ATOM     11  O   UNL     1       2.636  -0.128 -10.895  1.00  0.00    -0.451 OA
ENDROOT
BRANCH   1  12
ATOM     12  C   UNL     1       2.787   0.560 -13.205  1.00  0.00     0.063 A 
ATOM     13  C   UNL     1       2.499   0.512 -15.622  1.00  0.00     0.047 A 
ATOM     14  C   UNL     1       1.952   0.552 -14.337  1.00  0.00     0.020 A 
ATOM     15  C   UNL     1       3.884   0.488 -15.796  1.00  0.00     0.119 A 
ATOM     16  C   UNL     1       4.725   0.498 -14.677  1.00  0.00     0.093 A 
ATOM     17  C   UNL     1       4.190   0.527 -13.383  1.00  0.00     0.130 A 
BRANCH  15  18
ATOM     18  O   UNL     1       4.415   0.454 -17.084  1.00  0.00    -0.508 OA
ATOM     19  H   UNL     1       5.350   0.109 -17.262  1.00  0.00     0.293 HD
ENDBRANCH  15  18
BRANCH  17  20
ATOM     20  O   UNL     1       5.075   0.500 -12.302  1.00  0.00    -0.507 OA
ATOM     21  H   UNL     1       6.044   0.782 -12.376  1.00  0.00     0.293 HD
ENDBRANCH  17  20
ENDBRANCH   1  12
BRANCH   2  22
ATOM     22  O   UNL     1       0.636   2.370 -12.619  1.00  0.00    -0.502 OA
ATOM     23  H   UNL     1       1.014   2.354 -13.558  1.00  0.00     0.293 HD
ENDBRANCH   2  22
BRANCH   6  24
ATOM     24  O   UNL     1      -0.162   1.772  -7.382  1.00  0.00    -0.507 OA
ATOM     25  H   UNL     1      -0.749   1.615  -6.577  1.00  0.00     0.293 HD
ENDBRANCH   6  24
BRANCH   8  26
ATOM     26  O   UNL     1       2.765  -1.931  -6.505  1.00  0.00    -0.508 OA
ATOM     27  H   UNL     1       2.200  -2.324  -5.760  1.00  0.00     0.293 HD
ENDBRANCH   8  26
TORSDOF 6
ENDMDL
MODEL 5
REMARK VINA RESULT:    -6.434      2.664      6.846
REMARK INTER + INTRA:          -8.168
REMARK INTER:                  -7.797
REMARK INTRA:                  -0.370
REMARK UNBOUND:                -0.418
REMARK SMILES O=c1c(O)c(-c2ccc(O)cc2O)oc2cc(O)cc(O)c12
REMARK SMILES IDX 5 1 3 2 2 3 1 4 22 5 20 6 19 7 17 8 16 9 15 10 14 11 6 12
REMARK SMILES IDX 8 13 7 14 9 15 11 16 12 17 10 18 13 20 4 22 21 24 18 26
REMARK H PARENT 10 19 13 21 4 23 21 25 18 27
REMARK Flexibility Score: inf
ROOT
ATOM      1  C   UNL     1       2.426  -0.679 -10.463  1.00  0.00     0.184 A 
ATOM      2  C   UNL     1       2.443  -2.043 -10.134  1.00  0.00     0.208 A 
ATOM      3  C   UNL     1       2.041  -2.439  -8.850  1.00  0.00     0.238 A 
ATOM      4  O   UNL     1       2.116  -3.657  -8.541  1.00  0.00    -0.285 OA
ATOM      5  C   UNL     1       1.597  -1.466  -7.920  1.00  0.00     0.111 A 
ATOM      6  C   UNL     1       1.128  -1.756  -6.603  1.00  0.00     0.134 A 
ATOM      7  C   UNL     1       0.832  -0.703  -5.728  1.00  0.00     0.093 A 
ATOM      8  C   UNL     1       0.925   0.626  -6.144  1.00  0.00     0.123 A 
ATOM      9  C   UNL     1       1.325   0.919  -7.445  1.00  0.00     0.094 A 
ATOM     10  C   UNL     1       1.664  -0.108  -8.330  1.00  0.00     0.146 A 
ATOM     11  O   UNL     1       2.055   0.216  -9.556  1.00  0.00    -0.451 OA
ENDROOT
BRANCH   1  12
ATOM     12  C   UNL     1       2.817  -0.207 -11.808  1.00  0.00     0.063 A 
ATOM     13  C   UNL     1       4.572   0.199 -13.447  1.00  0.00     0.047 A 
ATOM     14  C   UNL     1       4.178  -0.190 -12.164  1.00  0.00     0.020 A 
ATOM     15  C   UNL     1       3.614   0.567 -14.394  1.00  0.00     0.119 A 
ATOM     16  C   UNL     1       2.257   0.552 -14.053  1.00  0.00     0.093 A 
ATOM     17  C   UNL     1       1.850   0.175 -12.766  1.00  0.00     0.130 A 
BRANCH  15  18
ATOM     18  O   UNL     1       4.022   0.946 -15.671  1.00  0.00    -0.508 OA
ATOM     19  H   UNL     1       4.613   0.351 -16.237  1.00  0.00     0.293 HD
ENDBRANCH  15  18
BRANCH  17  20
ATOM     20  O   UNL     1       0.485   0.213 -12.469  1.00  0.00    -0.507 OA
ATOM     21  H   UNL     1      -0.204  -0.336 -12.969  1.00  0.00     0.293 HD
ENDBRANCH  17  20
ENDBRANCH   1  12
BRANCH   2  22
ATOM     22  O   UNL     1       2.881  -2.982 -11.073  1.00  0.00    -0.502 OA
ATOM     23  H   UNL     1       3.269  -2.713 -11.969  1.00  0.00     0.293 HD
ENDBRANCH   2  22
BRANCH   6  24
ATOM     24  O   UNL     1       0.913  -3.049  -6.119  1.00  0.00    -0.507 OA
ATOM     25  H   UNL     1       0.805  -3.290  -5.145  1.00  0.00     0.293 HD
ENDBRANCH   6  24
BRANCH   8  26
ATOM     26  O   UNL     1       0.612   1.667  -5.272  1.00  0.00    -0.508 OA
ATOM     27  H   UNL     1      -0.284   2.141  -5.311  1.00  0.00     0.293 HD
ENDBRANCH   8  26
TORSDOF 6
ENDMDL
MODEL 6
REMARK VINA RESULT:    -6.411      4.152      7.138
REMARK INTER + INTRA:          -8.141
REMARK INTER:                  -7.742
REMARK INTRA:                  -0.399
REMARK UNBOUND:                -0.418
REMARK SMILES O=c1c(O)c(-c2ccc(O)cc2O)oc2cc(O)cc(O)c12
REMARK SMILES IDX 5 1 3 2 2 3 1 4 22 5 20 6 19 7 17 8 16 9 15 10 14 11 6 12
REMARK SMILES IDX 8 13 7 14 9 15 11 16 12 17 10 18 13 20 4 22 21 24 18 26
REMARK H PARENT 10 19 13 21 4 23 21 25 18 27
REMARK Flexibility Score: inf
ROOT
ATOM      1  C   UNL     1      -1.135   2.448  -9.602  1.00  0.00     0.184 A 
ATOM      2  C   UNL     1      -0.325   1.938  -8.575  1.00  0.00     0.208 A 
ATOM      3  C   UNL     1       0.830   1.216  -8.914  1.00  0.00     0.238 A 
ATOM      4  O   UNL     1       1.519   0.710  -7.991  1.00  0.00    -0.285 OA
ATOM      5  C   UNL     1       1.174   1.039 -10.277  1.00  0.00     0.111 A 
ATOM      6  C   UNL     1       2.342   0.359 -10.737  1.00  0.00     0.134 A 
ATOM      7  C   UNL     1       2.517   0.137 -12.109  1.00  0.00     0.093 A 
ATOM      8  C   UNL     1       1.600   0.628 -13.041  1.00  0.00     0.123 A 
ATOM      9  C   UNL     1       0.487   1.343 -12.606  1.00  0.00     0.094 A 
ATOM     10  C   UNL     1       0.265   1.548 -11.242  1.00  0.00     0.146 A 
ATOM     11  O   UNL     1      -0.816   2.223 -10.870  1.00  0.00    -0.451 OA
ENDROOT
BRANCH   1  12
ATOM     12  C   UNL     1      -2.350   3.235  -9.303  1.00  0.00     0.063 A 
ATOM     13  C   UNL     1      -3.349   5.331  -8.572  1.00  0.00     0.047 A 
ATOM     14  C   UNL     1      -2.218   4.545  -8.810  1.00  0.00     0.020 A 
ATOM     15  C   UNL     1      -4.624   4.824  -8.831  1.00  0.00     0.119 A 
ATOM     16  C   UNL     1      -4.768   3.522  -9.324  1.00  0.00     0.093 A 
ATOM     17  C   UNL     1      -3.643   2.720  -9.556  1.00  0.00     0.130 A 
BRANCH  15  18
ATOM     18  O   UNL     1      -5.742   5.622  -8.594  1.00  0.00    -0.508 OA
ATOM     19  H   UNL     1      -6.243   5.583  -7.715  1.00  0.00     0.293 HD
ENDBRANCH  15  18
BRANCH  17  20
ATOM     20  O   UNL     1      -3.846   1.416 -10.015  1.00  0.00    -0.507 OA
ATOM     21  H   UNL     1      -4.766   1.020 -10.161  1.00  0.00     0.293 HD
ENDBRANCH  17  20
ENDBRANCH   1  12
BRANCH   2  22
ATOM     22  O   UNL     1      -0.686   2.132  -7.239  1.00  0.00    -0.502 OA
ATOM     23  H   UNL     1      -0.439   2.969  -6.726  1.00  0.00     0.293 HD
ENDBRANCH   2  22
BRANCH   6  24
ATOM     24  O   UNL     1       3.365  -0.091  -9.898  1.00  0.00    -0.507 OA
ATOM     25  H   UNL     1       3.298  -0.889  -9.284  1.00  0.00     0.293 HD
ENDBRANCH   6  24
BRANCH   8  26
ATOM     26  O   UNL     1       1.790   0.417 -14.404  1.00  0.00    -0.508 OA
ATOM     27  H   UNL     1       1.431  -0.410 -14.868  1.00  0.00     0.293 HD
ENDBRANCH   8  26
TORSDOF 6
ENDMDL
MODEL 7
REMARK VINA RESULT:    -6.377      8.403     11.592
REMARK INTER + INTRA:          -8.099
REMARK INTER:                  -7.682
REMARK INTRA:                  -0.416
REMARK UNBOUND:                -0.418
REMARK SMILES O=c1c(O)c(-c2ccc(O)cc2O)oc2cc(O)cc(O)c12
REMARK SMILES IDX 5 1 3 2 2 3 1 4 22 5 20 6 19 7 17 8 16 9 15 10 14 11 6 12
REMARK SMILES IDX 8 13 7 14 9 15 11 16 12 17 10 18 13 20 4 22 21 24 18 26
REMARK H PARENT 10 19 13 21 4 23 21 25 18 27
REMARK Flexibility Score: inf
ROOT
ATOM      1  C   UNL     1      -6.039   4.223  -9.039  1.00  0.00     0.184 A 
ATOM      2  C   UNL     1      -5.573   3.410 -10.085  1.00  0.00     0.208 A 
ATOM      3  C   UNL     1      -4.234   2.991 -10.076  1.00  0.00     0.238 A 
ATOM      4  O   UNL     1      -3.808   2.313 -11.047  1.00  0.00    -0.285 OA
ATOM      5  C   UNL     1      -3.386   3.366  -9.006  1.00  0.00     0.111 A 
ATOM      6  C   UNL     1      -2.022   2.966  -8.873  1.00  0.00     0.134 A 
ATOM      7  C   UNL     1      -1.244   3.499  -7.837  1.00  0.00     0.093 A 
ATOM      8  C   UNL     1      -1.797   4.366  -6.893  1.00  0.00     0.123 A 
ATOM      9  C   UNL     1      -3.143   4.717  -6.980  1.00  0.00     0.094 A 
ATOM     10  C   UNL     1      -3.935   4.231  -8.023  1.00  0.00     0.146 A 
ATOM     11  O   UNL     1      -5.208   4.603  -8.076  1.00  0.00    -0.451 OA
ENDROOT
BRANCH   1  12
ATOM     12  C   UNL     1      -7.445   4.676  -8.984  1.00  0.00     0.063 A 
ATOM     13  C   UNL     1      -9.708   4.353  -8.147  1.00  0.00     0.047 A 
ATOM     14  C   UNL     1      -8.385   3.919  -8.261  1.00  0.00     0.020 A 
ATOM     15  C   UNL     1     -10.109   5.550  -8.744  1.00  0.00     0.119 A 
ATOM     16  C   UNL     1      -9.182   6.312  -9.465  1.00  0.00     0.093 A 
ATOM     17  C   UNL     1      -7.856   5.883  -9.597  1.00  0.00     0.130 A 
BRANCH  15  18
ATOM     18  O   UNL     1     -11.431   5.973  -8.616  1.00  0.00    -0.508 OA
ATOM     19  H   UNL     1     -11.823   6.677  -9.229  1.00  0.00     0.293 HD
ENDBRANCH  15  18
BRANCH  17  20
ATOM     20  O   UNL     1      -6.982   6.664 -10.357  1.00  0.00    -0.507 OA
ATOM     21  H   UNL     1      -6.198   6.278 -10.867  1.00  0.00     0.293 HD
ENDBRANCH  17  20
ENDBRANCH   1  12
BRANCH   2  22
ATOM     22  O   UNL     1      -6.434   3.051 -11.125  1.00  0.00    -0.502 OA
ATOM     23  H   UNL     1      -6.121   2.526 -11.933  1.00  0.00     0.293 HD
ENDBRANCH   2  22
BRANCH   6  24
ATOM     24  O   UNL     1      -1.396   2.037  -9.708  1.00  0.00    -0.507 OA
ATOM     25  H   UNL     1      -0.566   2.217 -10.252  1.00  0.00     0.293 HD
ENDBRANCH   6  24
BRANCH   8  26
ATOM     26  O   UNL     1      -1.020   4.878  -5.857  1.00  0.00    -0.508 OA
ATOM     27  H   UNL     1      -1.382   5.577  -5.217  1.00  0.00     0.293 HD
ENDBRANCH   8  26
TORSDOF 6
ENDMDL
MODEL 8
REMARK VINA RESULT:    -6.318      7.037      9.159
REMARK INTER + INTRA:          -8.029
REMARK INTER:                  -7.685
REMARK INTRA:                  -0.343
REMARK UNBOUND:                -0.418
REMARK SMILES O=c1c(O)c(-c2ccc(O)cc2O)oc2cc(O)cc(O)c12
REMARK SMILES IDX 5 1 3 2 2 3 1 4 22 5 20 6 19 7 17 8 16 9 15 10 14 11 6 12
REMARK SMILES IDX 8 13 7 14 9 15 11 16 12 17 10 18 13 20 4 22 21 24 18 26
REMARK H PARENT 10 19 13 21 4 23 21 25 18 27
REMARK Flexibility Score: inf
ROOT
ATOM      1  C   UNL     1      -3.417   3.152  -8.335  1.00  0.00     0.184 A 
ATOM      2  C   UNL     1      -3.377   2.654  -9.647  1.00  0.00     0.208 A 
ATOM      3  C   UNL     1      -4.528   2.742 -10.444  1.00  0.00     0.238 A 
ATOM      4  O   UNL     1      -4.504   2.240 -11.598  1.00  0.00    -0.285 OA
ATOM      5  C   UNL     1      -5.697   3.354  -9.928  1.00  0.00     0.111 A 
ATOM      6  C   UNL     1      -6.910   3.534 -10.659  1.00  0.00     0.134 A 
ATOM      7  C   UNL     1      -8.041   4.040 -10.007  1.00  0.00     0.093 A 
ATOM      8  C   UNL     1      -7.985   4.434  -8.669  1.00  0.00     0.123 A 
ATOM      9  C   UNL     1      -6.790   4.317  -7.962  1.00  0.00     0.094 A 
ATOM     10  C   UNL     1      -5.655   3.780  -8.574  1.00  0.00     0.146 A 
ATOM     11  O   UNL     1      -4.541   3.673  -7.859  1.00  0.00    -0.451 OA
ENDROOT
BRANCH   1  12
ATOM     12  C   UNL     1      -2.228   3.106  -7.458  1.00  0.00     0.063 A 
ATOM     13  C   UNL     1      -0.488   4.298  -6.242  1.00  0.00     0.047 A 
ATOM     14  C   UNL     1      -1.580   4.306  -7.113  1.00  0.00     0.020 A 
ATOM     15  C   UNL     1      -0.033   3.095  -5.697  1.00  0.00     0.119 A 
ATOM     16  C   UNL     1      -0.671   1.895  -6.032  1.00  0.00     0.093 A 
ATOM     17  C   UNL     1      -1.760   1.888  -6.913  1.00  0.00     0.130 A 
BRANCH  15  18
ATOM     18  O   UNL     1       1.053   3.103  -4.825  1.00  0.00    -0.508 OA
ATOM     19  H   UNL     1       1.264   2.309  -4.233  1.00  0.00     0.293 HD
ENDBRANCH  15  18
BRANCH  17  20
ATOM     20  O   UNL     1      -2.336   0.658  -7.240  1.00  0.00    -0.507 OA
ATOM     21  H   UNL     1      -3.235   0.358  -6.884  1.00  0.00     0.293 HD
ENDBRANCH  17  20
ENDBRANCH   1  12
BRANCH   2  22
ATOM     22  O   UNL     1      -2.209   2.060 -10.132  1.00  0.00    -0.502 OA
ATOM     23  H   UNL     1      -2.167   1.599 -11.033  1.00  0.00     0.293 HD
ENDBRANCH   2  22
BRANCH   6  24
ATOM     24  O   UNL     1      -7.047   3.258 -12.023  1.00  0.00    -0.507 OA
ATOM     25  H   UNL     1      -6.432   3.600 -12.745  1.00  0.00     0.293 HD
ENDBRANCH   6  24
BRANCH   8  26
ATOM     26  O   UNL     1      -9.110   4.952  -8.033  1.00  0.00    -0.508 OA
ATOM     27  H   UNL     1      -9.665   5.689  -8.453  1.00  0.00     0.293 HD
ENDBRANCH   8  26
TORSDOF 6
ENDMDL
MODEL 9
REMARK VINA RESULT:    -6.207      7.893      9.998
REMARK INTER + INTRA:          -7.894
REMARK INTER:                  -7.558
REMARK INTRA:                  -0.336
REMARK UNBOUND:                -0.418
REMARK SMILES O=c1c(O)c(-c2ccc(O)cc2O)oc2cc(O)cc(O)c12
REMARK SMILES IDX 5 1 3 2 2 3 1 4 22 5 20 6 19 7 17 8 16 9 15 10 14 11 6 12
REMARK SMILES IDX 8 13 7 14 9 15 11 16 12 17 10 18 13 20 4 22 21 24 18 26
REMARK H PARENT 10 19 13 21 4 23 21 25 18 27
REMARK Flexibility Score: inf
ROOT
ATOM      1  C   UNL     1      -4.080   3.968  -8.043  1.00  0.00     0.184 A 
ATOM      2  C   UNL     1      -4.120   5.080  -8.899  1.00  0.00     0.208 A 
ATOM      3  C   UNL     1      -5.363   5.546  -9.352  1.00  0.00     0.238 A 
ATOM      4  O   UNL     1      -5.388   6.505 -10.167  1.00  0.00    -0.285 OA
ATOM      5  C   UNL     1      -6.554   4.911  -8.919  1.00  0.00     0.111 A 
ATOM      6  C   UNL     1      -7.871   5.323  -9.282  1.00  0.00     0.134 A 
ATOM      7  C   UNL     1      -8.969   4.546  -8.894  1.00  0.00     0.093 A 
ATOM      8  C   UNL     1      -8.803   3.409  -8.101  1.00  0.00     0.123 A 
ATOM      9  C   UNL     1      -7.526   3.031  -7.692  1.00  0.00     0.094 A 
ATOM     10  C   UNL     1      -6.407   3.765  -8.094  1.00  0.00     0.146 A 
ATOM     11  O   UNL     1      -5.208   3.361  -7.694  1.00  0.00    -0.451 OA
ENDROOT
BRANCH   1  12
ATOM     12  C   UNL     1      -2.801   3.448  -7.516  1.00  0.00     0.063 A 
ATOM     13  C   UNL     1      -0.812   3.792  -6.155  1.00  0.00     0.047 A 
ATOM     14  C   UNL     1      -1.999   4.276  -6.711  1.00  0.00     0.020 A 
ATOM     15  C   UNL     1      -0.414   2.474  -6.386  1.00  0.00     0.119 A 
ATOM     16  C   UNL     1      -1.205   1.639  -7.185  1.00  0.00     0.093 A 
ATOM     17  C   UNL     1      -2.391   2.116  -7.758  1.00  0.00     0.130 A 
BRANCH  15  18
ATOM     18  O   UNL     1       0.768   2.003  -5.820  1.00  0.00    -0.508 OA
ATOM     19  H   UNL     1       1.627   1.949  -6.355  1.00  0.00     0.293 HD
ENDBRANCH  15  18
BRANCH  17  20
ATOM     20  O   UNL     1      -3.123   1.250  -8.574  1.00  0.00    -0.507 OA
ATOM     21  H   UNL     1      -4.085   0.996  -8.387  1.00  0.00     0.293 HD
ENDBRANCH  17  20
ENDBRANCH   1  12
BRANCH   2  22
ATOM     22  O   UNL     1      -2.930   5.689  -9.306  1.00  0.00    -0.502 OA
ATOM     23  H   UNL     1      -2.035   5.217  -9.261  1.00  0.00     0.293 HD
ENDBRANCH   2  22
BRANCH   6  24
ATOM     24  O   UNL     1      -8.155   6.492  -9.995  1.00  0.00    -0.507 OA
ATOM     25  H   UNL     1      -8.125   6.576 -11.000  1.00  0.00     0.293 HD
ENDBRANCH   6  24
BRANCH   8  26
ATOM     26  O   UNL     1      -9.902   2.651  -7.705  1.00  0.00    -0.508 OA
ATOM     27  H   UNL     1     -10.662   3.057  -7.170  1.00  0.00     0.293 HD
ENDBRANCH   8  26
TORSDOF 6
ENDMDL
