MODEL 1
REMARK VINA RESULT:    -4.713      0.000      0.000
REMARK INTER + INTRA:          -6.989
REMARK INTER:                  -6.366
REMARK INTRA:                  -0.623
REMARK UNBOUND:                -0.623
REMARK SMILES O=C[C@H](O)[C@H](O)[C@H](O)CO
REMARK SMILES IDX 7 1 9 2 10 3 5 5 3 6 2 7 1 8 4 9 6 11 8 13
REMARK H PARENT 10 4 4 10 6 12 8 14
REMARK Flexibility Score: inf
ROOT
ATOM      1  C   UNL     1      -0.016  33.251  49.837  1.00  0.00     0.171 C 
ENDROOT
BRANCH   1   2
ATOM      2  C   UNL     1      -1.397  33.322  49.168  1.00  0.00     0.190 C 
BRANCH   2   3
ATOM      3  O   UNL     1      -1.826  34.653  49.046  1.00  0.00    -0.394 OA
ATOM      4  H   UNL     1      -1.014  35.214  48.938  1.00  0.00     0.210 HD
ENDBRANCH   2   3
ENDBRANCH   1   2
BRANCH   1   5
ATOM      5  C   UNL     1       0.571  34.668  50.098  1.00  0.00     0.181 C 
BRANCH   5   6
ATOM      6  C   UNL     1       1.571  35.145  49.013  1.00  0.00     0.209 C 
BRANCH   6   7
ATOM      7  C   UNL     1       2.305  36.391  49.442  1.00  0.00     0.258 C 
ATOM      8  O   UNL     1       1.702  37.415  49.722  1.00  0.00    -0.300 OA
ENDBRANCH   6   7
BRANCH   6   9
ATOM      9  O   UNL     1       0.902  35.349  47.793  1.00  0.00    -0.383 OA
ATOM     10  H   UNL     1       0.405  34.512  47.593  1.00  0.00     0.211 HD
ENDBRANCH   6   9
ENDBRANCH   5   6
BRANCH   5  11
ATOM     11  O   UNL     1       1.193  34.723  51.359  1.00  0.00    -0.387 OA
ATOM     12  H   UNL     1       1.455  35.668  51.524  1.00  0.00     0.211 HD
ENDBRANCH   5  11
ENDBRANCH   1   5
BRANCH   1  13
ATOM     13  O   UNL     1       0.839  32.526  48.987  1.00  0.00    -0.388 OA
ATOM     14  H   UNL     1       0.304  32.240  48.201  1.00  0.00     0.211 HD
ENDBRANCH   1  13
TORSDOF 8
ENDMDL
MODEL 2
REMARK VINA RESULT:    -4.679      0.695      1.774
REMARK INTER + INTRA:          -6.943
REMARK INTER:                  -6.464
REMARK INTRA:                  -0.478
REMARK UNBOUND:                -0.623
REMARK SMILES O=C[C@H](O)[C@H](O)[C@H](O)CO
REMARK SMILES IDX 7 1 9 2 10 3 5 5 3 6 2 7 1 8 4 9 6 11 8 13
REMARK H PARENT 10 4 4 10 6 12 8 14
REMARK Flexibility Score: inf
ROOT
ATOM      1  C   UNL     1      -0.277  33.368  49.868  1.00  0.00     0.171 C 
ENDROOT
BRANCH   1   2
ATOM      2  C   UNL     1      -1.535  33.595  49.015  1.00  0.00     0.190 C 
BRANCH   2   3
ATOM      3  O   UNL     1      -1.959  34.930  49.095  1.00  0.00    -0.394 OA
ATOM      4  H   UNL     1      -1.966  35.293  48.171  1.00  0.00     0.210 HD
ENDBRANCH   2   3
ENDBRANCH   1   2
BRANCH   1   5
ATOM      5  C   UNL     1       0.879  34.325  49.456  1.00  0.00     0.181 C 
BRANCH   5   6
ATOM      6  C   UNL     1       1.131  35.478  50.462  1.00  0.00     0.209 C 
BRANCH   6   7
ATOM      7  C   UNL     1       2.163  36.450  49.946  1.00  0.00     0.258 C 
ATOM      8  O   UNL     1       1.850  37.371  49.207  1.00  0.00    -0.300 OA
ENDBRANCH   6   7
BRANCH   6   9
ATOM      9  O   UNL     1       1.508  34.958  51.712  1.00  0.00    -0.383 OA
ATOM     10  H   UNL     1       2.496  34.853  51.694  1.00  0.00     0.211 HD
ENDBRANCH   6   9
ENDBRANCH   5   6
BRANCH   5  11
ATOM     11  O   UNL     1       0.645  34.865  48.178  1.00  0.00    -0.387 OA
ATOM     12  H   UNL     1      -0.282  35.226  48.170  1.00  0.00     0.211 HD
ENDBRANCH   5  11
ENDBRANCH   1   5
BRANCH   1  13
ATOM     13  O   UNL     1       0.123  32.031  49.702  1.00  0.00    -0.388 OA
ATOM     14  H   UNL     1      -0.437  31.476  50.306  1.00  0.00     0.211 HD
ENDBRANCH   1  13
TORSDOF 8
ENDMDL
MODEL 3
REMARK VINA RESULT:    -4.631      1.283      3.288
REMARK INTER + INTRA:          -6.879
REMARK INTER:                  -6.069
REMARK INTRA:                  -0.810
REMARK UNBOUND:                -0.623
REMARK SMILES O=C[C@H](O)[C@H](O)[C@H](O)CO
REMARK SMILES IDX 7 1 9 2 10 3 5 5 3 6 2 7 1 8 4 9 6 11 8 13
REMARK H PARENT 10 4 4 10 6 12 8 14
REMARK Flexibility Score: inf
ROOT
ATOM      1  C   UNL     1       0.920  35.867  48.989  1.00  0.00     0.171 C 
ENDROOT
BRANCH   1   2
ATOM      2  C   UNL     1      -0.228  36.521  49.773  1.00  0.00     0.190 C 
BRANCH   2   3
ATOM      3  O   UNL     1      -1.468  36.003  49.367  1.00  0.00    -0.394 OA
ATOM      4  H   UNL     1      -2.073  36.774  49.212  1.00  0.00     0.210 HD
ENDBRANCH   2   3
ENDBRANCH   1   2
BRANCH   1   5
ATOM      5  C   UNL     1       1.244  34.442  49.524  1.00  0.00     0.181 C 
BRANCH   5   6
ATOM      6  C   UNL     1       0.720  33.297  48.620  1.00  0.00     0.209 C 
BRANCH   6   7
ATOM      7  C   UNL     1      -0.461  32.594  49.243  1.00  0.00     0.258 C 
ATOM      8  O   UNL     1      -1.554  33.135  49.311  1.00  0.00    -0.300 OA
ENDBRANCH   6   7
BRANCH   6   9
ATOM      9  O   UNL     1       1.755  32.389  48.338  1.00  0.00    -0.383 OA
ATOM     10  H   UNL     1       2.361  32.387  49.126  1.00  0.00     0.211 HD
ENDBRANCH   6   9
ENDBRANCH   5   6
BRANCH   5  11
ATOM     11  O   UNL     1       0.740  34.274  50.827  1.00  0.00    -0.387 OA
ATOM     12  H   UNL     1       0.936  33.341  51.107  1.00  0.00     0.211 HD
ENDBRANCH   5  11
ENDBRANCH   1   5
BRANCH   1  13
ATOM     13  O   UNL     1       2.051  36.695  49.109  1.00  0.00    -0.388 OA
ATOM     14  H   UNL     1       2.321  36.964  48.193  1.00  0.00     0.211 HD
ENDBRANCH   1  13
TORSDOF 8
ENDMDL
MODEL 4
REMARK VINA RESULT:    -4.593      1.049      2.315
REMARK INTER + INTRA:          -6.827
REMARK INTER:                  -6.380
REMARK INTRA:                  -0.447
REMARK UNBOUND:                -0.623
REMARK SMILES O=C[C@H](O)[C@H](O)[C@H](O)CO
REMARK SMILES IDX 7 1 9 2 10 3 5 5 3 6 2 7 1 8 4 9 6 11 8 13
REMARK H PARENT 10 4 4 10 6 12 8 14
REMARK Flexibility Score: inf
ROOT
ATOM      1  C   UNL     1      -0.588  34.207  48.937  1.00  0.00     0.171 C 
ENDROOT
BRANCH   1   2
ATOM      2  C   UNL     1      -1.279  33.003  49.597  1.00  0.00     0.190 C 
BRANCH   2   3
ATOM      3  O   UNL     1      -0.392  32.323  50.447  1.00  0.00    -0.394 OA
ATOM      4  H   UNL     1      -0.847  32.221  51.324  1.00  0.00     0.210 HD
ENDBRANCH   2   3
ENDBRANCH   1   2
BRANCH   1   5
ATOM      5  C   UNL     1       0.885  34.358  49.414  1.00  0.00     0.181 C 
BRANCH   5   6
ATOM      6  C   UNL     1       1.100  35.501  50.441  1.00  0.00     0.209 C 
BRANCH   6   7
ATOM      7  C   UNL     1       2.134  36.490  49.964  1.00  0.00     0.258 C 
ATOM      8  O   UNL     1       1.869  37.317  49.105  1.00  0.00    -0.300 OA
ENDBRANCH   6   7
BRANCH   6   9
ATOM      9  O   UNL     1       1.451  34.968  51.693  1.00  0.00    -0.383 OA
ATOM     10  H   UNL     1       0.621  34.944  52.239  1.00  0.00     0.211 HD
ENDBRANCH   6   9
ENDBRANCH   5   6
BRANCH   5  11
ATOM     11  O   UNL     1       1.745  34.552  48.317  1.00  0.00    -0.387 OA
ATOM     12  H   UNL     1       1.779  35.528  48.131  1.00  0.00     0.211 HD
ENDBRANCH   5  11
ENDBRANCH   1   5
BRANCH   1  13
ATOM     13  O   UNL     1      -1.322  35.360  49.268  1.00  0.00    -0.388 OA
ATOM     14  H   UNL     1      -1.389  35.915  48.448  1.00  0.00     0.211 HD
ENDBRANCH   1  13
TORSDOF 8
ENDMDL
MODEL 5
REMARK VINA RESULT:    -4.558      1.254      1.522
REMARK INTER + INTRA:          -6.779
REMARK INTER:                  -6.495
REMARK INTRA:                  -0.284
REMARK UNBOUND:                -0.623
REMARK SMILES O=C[C@H](O)[C@H](O)[C@H](O)CO
REMARK SMILES IDX 7 1 9 2 10 3 5 5 3 6 2 7 1 8 4 9 6 11 8 13
REMARK H PARENT 10 4 4 10 6 12 8 14
REMARK Flexibility Score: inf
ROOT
ATOM      1  C   UNL     1      -0.385  33.351  49.417  1.00  0.00     0.171 C 
ENDROOT
BRANCH   1   2
ATOM      2  C   UNL     1       0.394  32.655  48.290  1.00  0.00     0.190 C 
BRANCH   2   3
ATOM      3  O   UNL     1      -0.385  31.653  47.689  1.00  0.00    -0.394 OA
ATOM      4  H   UNL     1       0.115  31.330  46.895  1.00  0.00     0.210 HD
ENDBRANCH   2   3
ENDBRANCH   1   2
BRANCH   1   5
ATOM      5  C   UNL     1       0.288  34.688  49.842  1.00  0.00     0.181 C 
BRANCH   5   6
ATOM      6  C   UNL     1       1.237  35.284  48.769  1.00  0.00     0.209 C 
BRANCH   6   7
ATOM      7  C   UNL     1       2.342  36.098  49.395  1.00  0.00     0.258 C 
ATOM      8  O   UNL     1       2.108  37.161  49.948  1.00  0.00    -0.300 OA
ENDBRANCH   6   7
BRANCH   6   9
ATOM      9  O   UNL     1       0.505  36.052  47.847  1.00  0.00    -0.383 OA
ATOM     10  H   UNL     1       1.034  36.875  47.673  1.00  0.00     0.211 HD
ENDBRANCH   6   9
ENDBRANCH   5   6
BRANCH   5  11
ATOM     11  O   UNL     1       0.993  34.528  51.049  1.00  0.00    -0.387 OA
ATOM     12  H   UNL     1       1.302  33.584  51.093  1.00  0.00     0.211 HD
ENDBRANCH   5  11
ENDBRANCH   1   5
BRANCH   1  13
ATOM     13  O   UNL     1      -0.439  32.471  50.512  1.00  0.00    -0.388 OA
ATOM     14  H   UNL     1      -1.386  32.195  50.626  1.00  0.00     0.211 HD
ENDBRANCH   1  13
TORSDOF 8
ENDMDL
MODEL 6
REMARK VINA RESULT:    -4.440     11.122     12.812
REMARK INTER + INTRA:          -6.620
REMARK INTER:                  -6.090
REMARK INTRA:                  -0.530
REMARK UNBOUND:                -0.623
REMARK SMILES O=C[C@H](O)[C@H](O)[C@H](O)CO
REMARK SMILES IDX 7 1 9 2 10 3 5 5 3 6 2 7 1 8 4 9 6 11 8 13
REMARK H PARENT 10 4 4 10 6 12 8 14
REMARK Flexibility Score: inf
ROOT
ATOM      1  C   UNL     1      13.892  35.550  52.625  1.00  0.00     0.171 C 
ENDROOT
BRANCH   1   2
ATOM      2  C   UNL     1      13.855  37.022  53.060  1.00  0.00     0.190 C 
BRANCH   2   3
ATOM      3  O   UNL     1      14.578  37.210  54.249  1.00  0.00    -0.394 OA
ATOM      4  H   UNL     1      15.263  37.906  54.070  1.00  0.00     0.210 HD
ENDBRANCH   2   3
ENDBRANCH   1   2
BRANCH   1   5
ATOM      5  C   UNL     1      12.787  35.231  51.576  1.00  0.00     0.181 C 
BRANCH   5   6
ATOM      6  C   UNL     1      11.527  36.127  51.697  1.00  0.00     0.209 C 
BRANCH   6   7
ATOM      7  C   UNL     1      10.495  35.514  52.611  1.00  0.00     0.258 C 
ATOM      8  O   UNL     1      10.809  35.044  53.693  1.00  0.00    -0.300 OA
ENDBRANCH   6   7
BRANCH   6   9
ATOM      9  O   UNL     1      10.987  36.381  50.424  1.00  0.00    -0.383 OA
ATOM     10  H   UNL     1      10.452  37.214  50.499  1.00  0.00     0.211 HD
ENDBRANCH   6   9
ENDBRANCH   5   6
BRANCH   5  11
ATOM     11  O   UNL     1      12.405  33.879  51.652  1.00  0.00    -0.387 OA
ATOM     12  H   UNL     1      11.413  33.851  51.716  1.00  0.00     0.211 HD
ENDBRANCH   5  11
ENDBRANCH   1   5
BRANCH   1  13
ATOM     13  O   UNL     1      13.709  34.756  53.771  1.00  0.00    -0.388 OA
ATOM     14  H   UNL     1      12.793  34.932  54.112  1.00  0.00     0.211 HD
ENDBRANCH   1  13
TORSDOF 8
ENDMDL
MODEL 7
REMARK VINA RESULT:    -4.304      0.947      3.636
REMARK INTER + INTRA:          -6.436
REMARK INTER:                  -5.752
REMARK INTRA:                  -0.685
REMARK UNBOUND:                -0.623
REMARK SMILES O=C[C@H](O)[C@H](O)[C@H](O)CO
REMARK SMILES IDX 7 1 9 2 10 3 5 5 3 6 2 7 1 8 4 9 6 11 8 13
REMARK H PARENT 10 4 4 10 6 12 8 14
REMARK Flexibility Score: inf
ROOT
ATOM      1  C   UNL     1       0.651  36.152  49.075  1.00  0.00     0.171 C 
ENDROOT
BRANCH   1   2
ATOM      2  C   UNL     1       1.761  37.151  49.436  1.00  0.00     0.190 C 
BRANCH   2   3
ATOM      3  O   UNL     1       2.936  36.479  49.807  1.00  0.00    -0.394 OA
ATOM      4  H   UNL     1       3.081  36.652  50.774  1.00  0.00     0.210 HD
ENDBRANCH   2   3
ENDBRANCH   1   2
BRANCH   1   5
ATOM      5  C   UNL     1       0.797  34.818  49.863  1.00  0.00     0.181 C 
BRANCH   5   6
ATOM      6  C   UNL     1      -0.353  33.809  49.611  1.00  0.00     0.209 C 
BRANCH   6   7
ATOM      7  C   UNL     1       0.087  32.676  48.717  1.00  0.00     0.258 C 
ATOM      8  O   UNL     1       1.145  32.726  48.109  1.00  0.00    -0.300 OA
ENDBRANCH   6   7
BRANCH   6   9
ATOM      9  O   UNL     1      -1.470  34.472  49.073  1.00  0.00    -0.383 OA
ATOM     10  H   UNL     1      -2.094  33.769  48.748  1.00  0.00     0.211 HD
ENDBRANCH   6   9
ENDBRANCH   5   6
BRANCH   5  11
ATOM     11  O   UNL     1       0.904  35.066  51.244  1.00  0.00    -0.387 OA
ATOM     12  H   UNL     1       1.576  34.432  51.612  1.00  0.00     0.211 HD
ENDBRANCH   5  11
ENDBRANCH   1   5
BRANCH   1  13
ATOM     13  O   UNL     1       0.727  35.904  47.693  1.00  0.00    -0.388 OA
ATOM     14  H   UNL     1       0.599  34.929  47.558  1.00  0.00     0.211 HD
ENDBRANCH   1  13
TORSDOF 8
ENDMDL
MODEL 8
REMARK VINA RESULT:    -4.272     11.590     13.210
REMARK INTER + INTRA:          -6.393
REMARK INTER:                  -5.681
REMARK INTRA:                  -0.712
REMARK UNBOUND:                -0.623
REMARK SMILES O=C[C@H](O)[C@H](O)[C@H](O)CO
REMARK SMILES IDX 7 1 9 2 10 3 5 5 3 6 2 7 1 8 4 9 6 11 8 13
REMARK H PARENT 10 4 4 10 6 12 8 14
REMARK Flexibility Score: inf
ROOT
ATOM      1  C   UNL     1      13.503  34.982  53.701  1.00  0.00     0.171 C 
ENDROOT
BRANCH   1   2
ATOM      2  C   UNL     1      14.505  35.522  54.733  1.00  0.00     0.190 C 
BRANCH   2   3
ATOM      3  O   UNL     1      14.631  36.916  54.625  1.00  0.00    -0.394 OA
ATOM      4  H   UNL     1      14.945  37.251  55.505  1.00  0.00     0.210 HD
ENDBRANCH   2   3
ENDBRANCH   1   2
BRANCH   1   5
ATOM      5  C   UNL     1      13.312  35.968  52.513  1.00  0.00     0.181 C 
BRANCH   5   6
ATOM      6  C   UNL     1      12.410  35.417  51.377  1.00  0.00     0.209 C 
BRANCH   6   7
ATOM      7  C   UNL     1      11.052  36.074  51.378  1.00  0.00     0.258 C 
ATOM      8  O   UNL     1      10.361  36.095  52.385  1.00  0.00    -0.300 OA
ENDBRANCH   6   7
BRANCH   6   9
ATOM      9  O   UNL     1      12.295  34.020  51.483  1.00  0.00    -0.383 OA
ATOM     10  H   UNL     1      11.954  33.828  52.397  1.00  0.00     0.211 HD
ENDBRANCH   6   9
ENDBRANCH   5   6
BRANCH   5  11
ATOM     11  O   UNL     1      14.556  36.347  51.976  1.00  0.00    -0.387 OA
ATOM     12  H   UNL     1      14.823  35.652  51.317  1.00  0.00     0.211 HD
ENDBRANCH   5  11
ENDBRANCH   1   5
BRANCH   1  13
ATOM     13  O   UNL     1      12.276  34.776  54.357  1.00  0.00    -0.388 OA
ATOM     14  H   UNL     1      11.890  35.670  54.552  1.00  0.00     0.211 HD
ENDBRANCH   1  13
TORSDOF 8
ENDMDL
MODEL 9
REMARK VINA RESULT:    -4.261     11.143     12.584
REMARK INTER + INTRA:          -6.379
REMARK INTER:                  -6.038
REMARK INTRA:                  -0.341
REMARK UNBOUND:                -0.623
REMARK SMILES O=C[C@H](O)[C@H](O)[C@H](O)CO
REMARK SMILES IDX 7 1 9 2 10 3 5 5 3 6 2 7 1 8 4 9 6 11 8 13
REMARK H PARENT 10 4 4 10 6 12 8 14
REMARK Flexibility Score: inf
ROOT
ATOM      1  C   UNL     1      11.530  35.925  51.373  1.00  0.00     0.171 C 
ENDROOT
BRANCH   1   2
ATOM      2  C   UNL     1      11.731  34.569  50.681  1.00  0.00     0.190 C 
BRANCH   2   3
ATOM      3  O   UNL     1      11.207  34.590  49.379  1.00  0.00    -0.394 OA
ATOM      4  H   UNL     1      11.624  35.357  48.907  1.00  0.00     0.210 HD
ENDBRANCH   2   3
ENDBRANCH   1   2
BRANCH   1   5
ATOM      5  C   UNL     1      12.262  35.986  52.746  1.00  0.00     0.181 C 
BRANCH   5   6
ATOM      6  C   UNL     1      13.809  35.961  52.635  1.00  0.00     0.209 C 
BRANCH   6   7
ATOM      7  C   UNL     1      14.395  34.756  53.328  1.00  0.00     0.258 C 
ATOM      8  O   UNL     1      14.376  33.653  52.802  1.00  0.00    -0.300 OA
ENDBRANCH   6   7
BRANCH   6   9
ATOM      9  O   UNL     1      14.352  37.152  53.148  1.00  0.00    -0.383 OA
ATOM     10  H   UNL     1      15.006  36.892  53.849  1.00  0.00     0.211 HD
ENDBRANCH   6   9
ENDBRANCH   5   6
BRANCH   5  11
ATOM     11  O   UNL     1      11.838  34.937  53.581  1.00  0.00    -0.387 OA
ATOM     12  H   UNL     1      11.080  35.276  54.127  1.00  0.00     0.211 HD
ENDBRANCH   5  11
ENDBRANCH   1   5
BRANCH   1  13
ATOM     13  O   UNL     1      10.149  36.116  51.556  1.00  0.00    -0.388 OA
ATOM     14  H   UNL     1       9.924  37.018  51.206  1.00  0.00     0.211 HD
ENDBRANCH   1  13
TORSDOF 8
ENDMDL
