MODEL 1
REMARK VINA RESULT:    -3.415      0.000      0.000
REMARK INTER + INTRA:          -4.299
REMARK INTER:                  -4.214
REMARK INTRA:                  -0.086
REMARK UNBOUND:                -0.086
REMARK SMILES CCCCCC(=O)[O-]
REMARK SMILES IDX 4 1 5 2 6 3 7 4 8 5 3 6 2 7 1 8
REMARK H PARENT
REMARK Flexibility Score: inf
ROOT
ATOM      1  C   UNL     1       3.552  44.685  11.401  1.00  0.00     0.006 C 
ENDROOT
BRANCH   1   2
ATOM      2  C   UNL     1       4.840  43.963  10.980  1.00  0.00     0.053 C 
BRANCH   2   3
ATOM      3  C   UNL     1       5.955  44.208  11.950  1.00  0.00     0.041 C 
ATOM      4  O   UNL     1       6.792  45.125  11.736  1.00  0.00    -0.550 OA
ATOM      5  O   UNL     1       6.088  43.404  13.074  1.00  0.00    -0.550 OA
ENDBRANCH   2   3
ENDBRANCH   1   2
BRANCH   1   6
ATOM      6  C   UNL     1       2.421  43.703  11.741  1.00  0.00     0.000 C 
BRANCH   6   7
ATOM      7  C   UNL     1       1.961  42.941  10.493  1.00  0.00    -0.003 C 
ATOM      8  C   UNL     1       0.515  42.475  10.633  1.00  0.00     0.004 C 
ENDBRANCH   6   7
ENDBRANCH   1   6
TORSDOF 4
ENDMDL
MODEL 2
REMARK VINA RESULT:    -3.218      1.636      2.405
REMARK INTER + INTRA:          -4.056
REMARK INTER:                  -3.994
REMARK INTRA:                  -0.062
REMARK UNBOUND:                -0.086
REMARK SMILES CCCCCC(=O)[O-]
REMARK SMILES IDX 4 1 5 2 6 3 7 4 8 5 3 6 2 7 1 8
REMARK H PARENT
REMARK Flexibility Score: inf
ROOT
ATOM      1  C   UNL     1       5.380  44.005  12.397  1.00  0.00     0.006 C 
ENDROOT
BRANCH   1   2
ATOM      2  C   UNL     1       6.815  43.903  11.863  1.00  0.00     0.053 C 
BRANCH   2   3
ATOM      3  C   UNL     1       7.371  42.522  12.031  1.00  0.00     0.041 C 
ATOM      4  O   UNL     1       7.619  42.074  13.182  1.00  0.00    -0.550 OA
ATOM      5  O   UNL     1       7.646  41.741  10.916  1.00  0.00    -0.550 OA
ENDBRANCH   2   3
ENDBRANCH   1   2
BRANCH   1   6
ATOM      6  C   UNL     1       4.341  44.047  11.267  1.00  0.00     0.000 C 
BRANCH   6   7
ATOM      7  C   UNL     1       2.957  43.627  11.777  1.00  0.00    -0.003 C 
ATOM      8  C   UNL     1       2.059  43.178  10.629  1.00  0.00     0.004 C 
ENDBRANCH   6   7
ENDBRANCH   1   6
TORSDOF 4
ENDMDL
MODEL 3
REMARK VINA RESULT:    -3.174      1.274      1.570
REMARK INTER + INTRA:          -4.002
REMARK INTER:                  -3.765
REMARK INTRA:                  -0.237
REMARK UNBOUND:                -0.086
REMARK SMILES CCCCCC(=O)[O-]
REMARK SMILES IDX 4 1 5 2 6 3 7 4 8 5 3 6 2 7 1 8
REMARK H PARENT
REMARK Flexibility Score: inf
ROOT
ATOM      1  C   UNL     1       4.319  45.051  11.345  1.00  0.00     0.006 C 
ENDROOT
BRANCH   1   2
ATOM      2  C   UNL     1       5.799  45.103  11.748  1.00  0.00     0.053 C 
BRANCH   2   3
ATOM      3  C   UNL     1       6.230  43.845  12.437  1.00  0.00     0.041 C 
ATOM      4  O   UNL     1       7.230  43.202  12.017  1.00  0.00    -0.550 OA
ATOM      5  O   UNL     1       5.510  43.364  13.523  1.00  0.00    -0.550 OA
ENDBRANCH   2   3
ENDBRANCH   1   2
BRANCH   1   6
ATOM      6  C   UNL     1       4.067  44.075  10.186  1.00  0.00     0.000 C 
BRANCH   6   7
ATOM      7  C   UNL     1       2.828  43.212  10.455  1.00  0.00    -0.003 C 
ATOM      8  C   UNL     1       2.114  43.654  11.728  1.00  0.00     0.004 C 
ENDBRANCH   6   7
ENDBRANCH   1   6
TORSDOF 4
ENDMDL
MODEL 4
REMARK VINA RESULT:    -3.096      2.426      4.419
REMARK INTER + INTRA:          -3.905
REMARK INTER:                  -3.765
REMARK INTRA:                  -0.140
REMARK UNBOUND:                -0.086
REMARK SMILES CCCCCC(=O)[O-]
REMARK SMILES IDX 4 1 5 2 6 3 7 4 8 5 3 6 2 7 1 8
REMARK H PARENT
REMARK Flexibility Score: inf
ROOT
ATOM      1  C   UNL     1       5.815  44.398  12.404  1.00  0.00     0.006 C 
ENDROOT
BRANCH   1   2
ATOM      2  C   UNL     1       4.566  45.025  11.769  1.00  0.00     0.053 C 
BRANCH   2   3
ATOM      3  C   UNL     1       3.611  43.980  11.279  1.00  0.00     0.041 C 
ATOM      4  O   UNL     1       3.916  43.252  10.296  1.00  0.00    -0.550 OA
ATOM      5  O   UNL     1       2.371  43.831  11.886  1.00  0.00    -0.550 OA
ENDBRANCH   2   3
ENDBRANCH   1   2
BRANCH   1   6
ATOM      6  C   UNL     1       7.068  44.593  11.536  1.00  0.00     0.000 C 
BRANCH   6   7
ATOM      7  C   UNL     1       7.880  43.295  11.445  1.00  0.00    -0.003 C 
ATOM      8  C   UNL     1       7.616  42.394  12.647  1.00  0.00     0.004 C 
ENDBRANCH   6   7
ENDBRANCH   1   6
TORSDOF 4
ENDMDL
MODEL 5
REMARK VINA RESULT:    -2.908      2.629      4.255
REMARK INTER + INTRA:          -3.674
REMARK INTER:                  -3.525
REMARK INTRA:                  -0.148
REMARK UNBOUND:                -0.086
REMARK SMILES CCCCCC(=O)[O-]
REMARK SMILES IDX 4 1 5 2 6 3 7 4 8 5 3 6 2 7 1 8
REMARK H PARENT
REMARK Flexibility Score: inf
ROOT
ATOM      1  C   UNL     1       6.087  43.329   9.974  1.00  0.00     0.006 C 
ENDROOT
BRANCH   1   2
ATOM      2  C   UNL     1       5.448  44.712  10.158  1.00  0.00     0.053 C 
BRANCH   2   3
ATOM      3  C   UNL     1       4.814  44.854  11.507  1.00  0.00     0.041 C 
ATOM      4  O   UNL     1       5.520  45.125  12.515  1.00  0.00    -0.550 OA
ATOM      5  O   UNL     1       3.447  44.656  11.658  1.00  0.00    -0.550 OA
ENDBRANCH   2   3
ENDBRANCH   1   2
BRANCH   1   6
ATOM      6  C   UNL     1       7.515  43.268  10.536  1.00  0.00     0.000 C 
BRANCH   6   7
ATOM      7  C   UNL     1       7.741  41.972  11.323  1.00  0.00    -0.003 C 
ATOM      8  C   UNL     1       7.641  42.214  12.826  1.00  0.00     0.004 C 
ENDBRANCH   6   7
ENDBRANCH   1   6
TORSDOF 4
ENDMDL
MODEL 6
REMARK VINA RESULT:    -2.268     14.064     14.694
REMARK INTER + INTRA:          -2.885
REMARK INTER:                  -2.665
REMARK INTRA:                  -0.220
REMARK UNBOUND:                -0.086
REMARK SMILES CCCCCC(=O)[O-]
REMARK SMILES IDX 4 1 5 2 6 3 7 4 8 5 3 6 2 7 1 8
REMARK H PARENT
REMARK Flexibility Score: inf
ROOT
ATOM      1  C   UNL     1       7.267  30.767  11.264  1.00  0.00     0.006 C 
ENDROOT
BRANCH   1   2
ATOM      2  C   UNL     1       7.380  29.527  10.366  1.00  0.00     0.053 C 
BRANCH   2   3
ATOM      3  C   UNL     1       8.517  28.644  10.781  1.00  0.00     0.041 C 
ATOM      4  O   UNL     1       8.998  28.732  11.942  1.00  0.00    -0.550 OA
ATOM      5  O   UNL     1       9.067  27.746   9.875  1.00  0.00    -0.550 OA
ENDBRANCH   2   3
ENDBRANCH   1   2
BRANCH   1   6
ATOM      6  C   UNL     1       7.943  31.998  10.643  1.00  0.00     0.000 C 
BRANCH   6   7
ATOM      7  C   UNL     1       9.117  32.474  11.506  1.00  0.00    -0.003 C 
ATOM      8  C   UNL     1       8.959  32.018  12.953  1.00  0.00     0.004 C 
ENDBRANCH   6   7
ENDBRANCH   1   6
TORSDOF 4
ENDMDL
MODEL 7
REMARK VINA RESULT:    -2.238     13.515     13.930
REMARK INTER + INTRA:          -2.847
REMARK INTER:                  -2.816
REMARK INTRA:                  -0.032
REMARK UNBOUND:                -0.086
REMARK SMILES CCCCCC(=O)[O-]
REMARK SMILES IDX 4 1 5 2 6 3 7 4 8 5 3 6 2 7 1 8
REMARK H PARENT
REMARK Flexibility Score: inf
ROOT
ATOM      1  C   UNL     1       7.527  30.543  10.877  1.00  0.00     0.006 C 
ENDROOT
BRANCH   1   2
ATOM      2  C   UNL     1       8.459  31.542  10.177  1.00  0.00     0.053 C 
BRANCH   2   3
ATOM      3  C   UNL     1       8.818  32.686  11.075  1.00  0.00     0.041 C 
ATOM      4  O   UNL     1       9.122  33.806  10.585  1.00  0.00    -0.550 OA
ATOM      5  O   UNL     1       8.848  32.507  12.452  1.00  0.00    -0.550 OA
ENDBRANCH   2   3
ENDBRANCH   1   2
BRANCH   1   6
ATOM      6  C   UNL     1       7.329  29.260  10.056  1.00  0.00     0.000 C 
BRANCH   6   7
ATOM      7  C   UNL     1       8.518  28.308  10.228  1.00  0.00    -0.003 C 
ATOM      8  C   UNL     1       9.125  28.431  11.622  1.00  0.00     0.004 C 
ENDBRANCH   6   7
ENDBRANCH   1   6
TORSDOF 4
ENDMDL
MODEL 8
REMARK VINA RESULT:    -2.168      2.854      3.505
REMARK INTER + INTRA:          -2.760
REMARK INTER:                  -2.597
REMARK INTRA:                  -0.163
REMARK UNBOUND:                -0.086
REMARK SMILES CCCCCC(=O)[O-]
REMARK SMILES IDX 4 1 5 2 6 3 7 4 8 5 3 6 2 7 1 8
REMARK H PARENT
REMARK Flexibility Score: inf
ROOT
ATOM      1  C   UNL     1       6.199  44.580  12.514  1.00  0.00     0.006 C 
ENDROOT
BRANCH   1   2
ATOM      2  C   UNL     1       6.006  43.325  13.376  1.00  0.00     0.053 C 
BRANCH   2   3
ATOM      3  C   UNL     1       7.123  42.345  13.184  1.00  0.00     0.041 C 
ATOM      4  O   UNL     1       7.770  42.323  12.104  1.00  0.00    -0.550 OA
ATOM      5  O   UNL     1       7.429  41.434  14.188  1.00  0.00    -0.550 OA
ENDBRANCH   2   3
ENDBRANCH   1   2
BRANCH   1   6
ATOM      6  C   UNL     1       4.869  45.122  11.971  1.00  0.00     0.000 C 
BRANCH   6   7
ATOM      7  C   UNL     1       4.855  45.105  10.438  1.00  0.00    -0.003 C 
ATOM      8  C   UNL     1       6.251  44.859   9.875  1.00  0.00     0.004 C 
ENDBRANCH   6   7
ENDBRANCH   1   6
TORSDOF 4
ENDMDL
MODEL 9
REMARK VINA RESULT:    -1.529      3.454      4.386
REMARK INTER + INTRA:          -1.972
REMARK INTER:                  -2.143
REMARK INTRA:                   0.171
REMARK UNBOUND:                -0.086
REMARK SMILES CCCCCC(=O)[O-]
REMARK SMILES IDX 4 1 5 2 6 3 7 4 8 5 3 6 2 7 1 8
REMARK H PARENT
REMARK Flexibility Score: inf
ROOT
ATOM      1  C   UNL     1       7.512  42.014  11.436  1.00  0.00     0.006 C 
ENDROOT
BRANCH   1   2
ATOM      2  C   UNL     1       7.490  43.025  10.282  1.00  0.00     0.053 C 
BRANCH   2   3
ATOM      3  C   UNL     1       6.191  43.768  10.221  1.00  0.00     0.041 C 
ATOM      4  O   UNL     1       5.136  43.174   9.875  1.00  0.00    -0.550 OA
ATOM      5  O   UNL     1       6.151  45.125  10.516  1.00  0.00    -0.550 OA
ENDBRANCH   2   3
ENDBRANCH   1   2
BRANCH   1   6
ATOM      6  C   UNL     1       7.629  42.698  12.806  1.00  0.00     0.000 C 
BRANCH   6   7
ATOM      7  C   UNL     1       6.252  43.122  13.328  1.00  0.00    -0.003 C 
ATOM      8  C   UNL     1       5.865  42.328  14.572  1.00  0.00     0.004 C 
ENDBRANCH   6   7
ENDBRANCH   1   6
TORSDOF 4
ENDMDL
