MODEL 1
REMARK VINA RESULT:    -4.205      0.000      0.000
REMARK INTER + INTRA:          -4.749
REMARK INTER:                  -4.697
REMARK INTRA:                  -0.052
REMARK UNBOUND:                -0.052
REMARK SMILES COc1cc2ccc(=O)oc2c(O)c1O
REMARK SMILES IDX 3 1 14 2 12 3 11 4 5 5 4 6 6 7 7 8 8 9 9 10 10 11 2 12 1 13
REMARK SMILES IDX 15 14 13 16
REMARK H PARENT 15 15 13 17
REMARK Flexibility Score: inf
ROOT
ATOM      1  C   UNL     1     -12.091   6.604  -4.713  1.00  0.00     0.165 A 
ATOM      2  C   UNL     1     -12.101   7.175  -3.431  1.00  0.00     0.204 A 
ATOM      3  C   UNL     1     -12.110   6.355  -2.287  1.00  0.00     0.205 A 
ATOM      4  C   UNL     1     -12.109   4.959  -2.428  1.00  0.00     0.184 A 
ATOM      5  C   UNL     1     -12.099   4.383  -3.716  1.00  0.00     0.025 A 
ATOM      6  C   UNL     1     -12.090   5.202  -4.852  1.00  0.00     0.062 A 
ATOM      7  C   UNL     1     -12.099   2.988  -3.827  1.00  0.00     0.020 A 
ATOM      8  C   UNL     1     -12.108   2.210  -2.670  1.00  0.00     0.094 A 
ATOM      9  C   UNL     1     -12.117   2.846  -1.426  1.00  0.00     0.336 A 
ATOM     10  O   UNL     1     -12.125   2.162  -0.370  1.00  0.00    -0.246 OA
ATOM     11  O   UNL     1     -12.117   4.174  -1.350  1.00  0.00    -0.419 OA
ENDROOT
BRANCH   1  12
ATOM     12  O   UNL     1     -12.083   7.462  -5.824  1.00  0.00    -0.493 OA
ATOM     13  C   UNL     1     -11.701   7.075  -7.141  1.00  0.00     0.278 C 
ENDBRANCH   1  12
BRANCH   2  14
ATOM     14  O   UNL     1     -12.101   8.564  -3.311  1.00  0.00    -0.502 OA
ATOM     15  H   UNL     1     -12.593   9.042  -2.566  1.00  0.00     0.293 HD
ENDBRANCH   2  14
BRANCH   3  16
ATOM     16  O   UNL     1     -12.119   6.942  -1.021  1.00  0.00    -0.502 OA
ATOM     17  H   UNL     1     -12.975   7.083  -0.496  1.00  0.00     0.293 HD
ENDBRANCH   3  16
TORSDOF 3
ENDMDL
MODEL 2
REMARK VINA RESULT:    -4.146     17.157     18.084
REMARK INTER + INTRA:          -4.682
REMARK INTER:                  -4.613
REMARK INTRA:                  -0.069
REMARK UNBOUND:                -0.052
REMARK SMILES COc1cc2ccc(=O)oc2c(O)c1O
REMARK SMILES IDX 3 1 14 2 12 3 11 4 5 5 4 6 6 7 7 8 8 9 9 10 10 11 2 12 1 13
REMARK SMILES IDX 15 14 13 16
REMARK H PARENT 15 15 13 17
REMARK Flexibility Score: inf
ROOT
ATOM      1  C   UNL     1       6.221   2.495  -7.628  1.00  0.00     0.165 A 
ATOM      2  C   UNL     1       6.249   3.720  -6.944  1.00  0.00     0.204 A 
ATOM      3  C   UNL     1       5.281   4.706  -7.210  1.00  0.00     0.205 A 
ATOM      4  C   UNL     1       4.281   4.464  -8.166  1.00  0.00     0.184 A 
ATOM      5  C   UNL     1       4.252   3.232  -8.854  1.00  0.00     0.025 A 
ATOM      6  C   UNL     1       5.217   2.254  -8.585  1.00  0.00     0.062 A 
ATOM      7  C   UNL     1       3.245   3.019  -9.801  1.00  0.00     0.020 A 
ATOM      8  C   UNL     1       2.303   4.019 -10.038  1.00  0.00     0.094 A 
ATOM      9  C   UNL     1       2.392   5.215  -9.320  1.00  0.00     0.336 A 
ATOM     10  O   UNL     1       1.552   6.131  -9.518  1.00  0.00    -0.246 OA
ATOM     11  O   UNL     1       3.360   5.392  -8.424  1.00  0.00    -0.419 OA
ENDROOT
BRANCH   1  12
ATOM     12  O   UNL     1       7.208   1.542  -7.327  1.00  0.00    -0.493 OA
ATOM     13  C   UNL     1       7.007   0.407  -6.490  1.00  0.00     0.278 C 
ENDBRANCH   1  12
BRANCH   2  14
ATOM     14  O   UNL     1       7.250   3.943  -5.998  1.00  0.00    -0.502 OA
ATOM     15  H   UNL     1       7.041   4.178  -5.036  1.00  0.00     0.293 HD
ENDBRANCH   2  14
BRANCH   3  16
ATOM     16  O   UNL     1       5.325   5.918  -6.520  1.00  0.00    -0.502 OA
ATOM     17  H   UNL     1       4.727   6.700  -6.760  1.00  0.00     0.293 HD
ENDBRANCH   3  16
TORSDOF 3
ENDMDL
MODEL 3
REMARK VINA RESULT:    -4.030     11.675     13.835
REMARK INTER + INTRA:          -4.553
REMARK INTER:                  -4.497
REMARK INTRA:                  -0.056
REMARK UNBOUND:                -0.052
REMARK SMILES COc1cc2ccc(=O)oc2c(O)c1O
REMARK SMILES IDX 3 1 14 2 12 3 11 4 5 5 4 6 6 7 7 8 8 9 9 10 10 11 2 12 1 13
REMARK SMILES IDX 15 14 13 16
REMARK H PARENT 15 15 13 17
REMARK Flexibility Score: inf
ROOT
ATOM      1  C   UNL     1      -8.596  -0.478   9.308  1.00  0.00     0.165 A 
ATOM      2  C   UNL     1      -9.624  -0.624   8.364  1.00  0.00     0.204 A 
ATOM      3  C   UNL     1     -10.301   0.505   7.868  1.00  0.00     0.205 A 
ATOM      4  C   UNL     1      -9.947   1.786   8.319  1.00  0.00     0.184 A 
ATOM      5  C   UNL     1      -8.913   1.935   9.268  1.00  0.00     0.025 A 
ATOM      6  C   UNL     1      -8.242   0.808   9.759  1.00  0.00     0.062 A 
ATOM      7  C   UNL     1      -8.581   3.224   9.701  1.00  0.00     0.020 A 
ATOM      8  C   UNL     1      -9.274   4.319   9.186  1.00  0.00     0.094 A 
ATOM      9  C   UNL     1     -10.287   4.098   8.248  1.00  0.00     0.336 A 
ATOM     10  O   UNL     1     -10.925   5.072   7.771  1.00  0.00    -0.246 OA
ATOM     11  O   UNL     1     -10.582   2.862   7.854  1.00  0.00    -0.419 OA
ENDROOT
BRANCH   1  12
ATOM     12  O   UNL     1      -7.950  -1.634   9.774  1.00  0.00    -0.493 OA
ATOM     13  C   UNL     1      -6.557  -1.722  10.058  1.00  0.00     0.278 C 
ENDBRANCH   1  12
BRANCH   2  14
ATOM     14  O   UNL     1      -9.962  -1.905   7.928  1.00  0.00    -0.502 OA
ATOM     15  H   UNL     1      -9.355  -2.450   7.327  1.00  0.00     0.293 HD
ENDBRANCH   2  14
BRANCH   3  16
ATOM     16  O   UNL     1     -11.321   0.339   6.930  1.00  0.00    -0.502 OA
ATOM     17  H   UNL     1     -11.133   0.091   5.965  1.00  0.00     0.293 HD
ENDBRANCH   3  16
TORSDOF 3
ENDMDL
MODEL 4
REMARK VINA RESULT:    -3.904     18.648     19.583
REMARK INTER + INTRA:          -4.412
REMARK INTER:                  -4.343
REMARK INTRA:                  -0.070
REMARK UNBOUND:                -0.052
REMARK SMILES COc1cc2ccc(=O)oc2c(O)c1O
REMARK SMILES IDX 3 1 14 2 12 3 11 4 5 5 4 6 6 7 7 8 8 9 9 10 10 11 2 12 1 13
REMARK SMILES IDX 15 14 13 16
REMARK H PARENT 15 15 13 17
REMARK Flexibility Score: inf
ROOT
ATOM      1  C   UNL     1       3.680  -4.190  -7.443  1.00  0.00     0.165 A 
ATOM      2  C   UNL     1       4.004  -2.882  -7.054  1.00  0.00     0.204 A 
ATOM      3  C   UNL     1       4.824  -2.654  -5.933  1.00  0.00     0.205 A 
ATOM      4  C   UNL     1       5.321  -3.743  -5.199  1.00  0.00     0.184 A 
ATOM      5  C   UNL     1       4.997  -5.060  -5.589  1.00  0.00     0.025 A 
ATOM      6  C   UNL     1       4.181  -5.281  -6.706  1.00  0.00     0.062 A 
ATOM      7  C   UNL     1       5.506  -6.125  -4.839  1.00  0.00     0.020 A 
ATOM      8  C   UNL     1       6.315  -5.860  -3.735  1.00  0.00     0.094 A 
ATOM      9  C   UNL     1       6.596  -4.531  -3.405  1.00  0.00     0.336 A 
ATOM     10  O   UNL     1       7.325  -4.271  -2.413  1.00  0.00    -0.246 OA
ATOM     11  O   UNL     1       6.099  -3.537  -4.136  1.00  0.00    -0.419 OA
ENDROOT
BRANCH   1  12
ATOM     12  O   UNL     1       2.859  -4.367  -8.568  1.00  0.00    -0.493 OA
ATOM     13  C   UNL     1       1.479  -4.715  -8.514  1.00  0.00     0.278 C 
ENDBRANCH   1  12
BRANCH   2  14
ATOM     14  O   UNL     1       3.500  -1.813  -7.795  1.00  0.00    -0.502 OA
ATOM     15  H   UNL     1       4.094  -1.073  -8.150  1.00  0.00     0.293 HD
ENDBRANCH   2  14
BRANCH   3  16
ATOM     16  O   UNL     1       5.134  -1.345  -5.561  1.00  0.00    -0.502 OA
ATOM     17  H   UNL     1       5.974  -1.114  -5.043  1.00  0.00     0.293 HD
ENDBRANCH   3  16
TORSDOF 3
ENDMDL
MODEL 5
REMARK VINA RESULT:    -3.876     11.213     12.550
REMARK INTER + INTRA:          -4.381
REMARK INTER:                  -4.312
REMARK INTRA:                  -0.069
REMARK UNBOUND:                -0.052
REMARK SMILES COc1cc2ccc(=O)oc2c(O)c1O
REMARK SMILES IDX 3 1 14 2 12 3 11 4 5 5 4 6 6 7 7 8 8 9 9 10 10 11 2 12 1 13
REMARK SMILES IDX 15 14 13 16
REMARK H PARENT 15 15 13 17
REMARK Flexibility Score: inf
ROOT
ATOM      1  C   UNL     1      -9.658   5.807   9.360  1.00  0.00     0.165 A 
ATOM      2  C   UNL     1     -10.622   5.603   8.361  1.00  0.00     0.204 A 
ATOM      3  C   UNL     1     -10.860   4.311   7.855  1.00  0.00     0.205 A 
ATOM      4  C   UNL     1     -10.129   3.221   8.352  1.00  0.00     0.184 A 
ATOM      5  C   UNL     1      -9.160   3.425   9.357  1.00  0.00     0.025 A 
ATOM      6  C   UNL     1      -8.927   4.712   9.857  1.00  0.00     0.062 A 
ATOM      7  C   UNL     1      -8.446   2.320   9.833  1.00  0.00     0.020 A 
ATOM      8  C   UNL     1      -8.709   1.056   9.307  1.00  0.00     0.094 A 
ATOM      9  C   UNL     1      -9.683   0.926   8.313  1.00  0.00     0.336 A 
ATOM     10  O   UNL     1      -9.937  -0.206   7.826  1.00  0.00    -0.246 OA
ATOM     11  O   UNL     1     -10.348   1.994   7.879  1.00  0.00    -0.419 OA
ENDROOT
BRANCH   1  12
ATOM     12  O   UNL     1      -9.457   7.114   9.833  1.00  0.00    -0.493 OA
ATOM     13  C   UNL     1      -8.291   7.893   9.584  1.00  0.00     0.278 C 
ENDBRANCH   1  12
BRANCH   2  14
ATOM     14  O   UNL     1     -11.339   6.699   7.879  1.00  0.00    -0.502 OA
ATOM     15  H   UNL     1     -11.998   7.208   8.454  1.00  0.00     0.293 HD
ENDBRANCH   2  14
BRANCH   3  16
ATOM     16  O   UNL     1     -11.823   4.128   6.861  1.00  0.00    -0.502 OA
ATOM     17  H   UNL     1     -12.764   3.815   7.070  1.00  0.00     0.293 HD
ENDBRANCH   3  16
TORSDOF 3
ENDMDL
MODEL 6
REMARK VINA RESULT:    -3.875      2.385      5.003
REMARK INTER + INTRA:          -4.379
REMARK INTER:                  -4.328
REMARK INTRA:                  -0.052
REMARK UNBOUND:                -0.052
REMARK SMILES COc1cc2ccc(=O)oc2c(O)c1O
REMARK SMILES IDX 3 1 14 2 12 3 11 4 5 5 4 6 6 7 7 8 8 9 9 10 10 11 2 12 1 13
REMARK SMILES IDX 15 14 13 16
REMARK H PARENT 15 15 13 17
REMARK Flexibility Score: inf
ROOT
ATOM      1  C   UNL     1     -12.072   3.751  -3.372  1.00  0.00     0.165 A 
ATOM      2  C   UNL     1     -12.068   5.102  -3.751  1.00  0.00     0.204 A 
ATOM      3  C   UNL     1     -12.016   5.459  -5.112  1.00  0.00     0.205 A 
ATOM      4  C   UNL     1     -11.968   4.459  -6.095  1.00  0.00     0.184 A 
ATOM      5  C   UNL     1     -11.972   3.099  -5.715  1.00  0.00     0.025 A 
ATOM      6  C   UNL     1     -12.024   2.749  -4.360  1.00  0.00     0.062 A 
ATOM      7  C   UNL     1     -11.923   2.124  -6.717  1.00  0.00     0.020 A 
ATOM      8  C   UNL     1     -11.872   2.516  -8.054  1.00  0.00     0.094 A 
ATOM      9  C   UNL     1     -11.871   3.880  -8.358  1.00  0.00     0.336 A 
ATOM     10  O   UNL     1     -11.826   4.256  -9.559  1.00  0.00    -0.246 OA
ATOM     11  O   UNL     1     -11.918   4.787  -7.386  1.00  0.00    -0.419 OA
ENDROOT
BRANCH   1  12
ATOM     12  O   UNL     1     -12.125   3.444  -2.003  1.00  0.00    -0.493 OA
ATOM     13  C   UNL     1     -11.783   2.179  -1.445  1.00  0.00     0.278 C 
ENDBRANCH   1  12
BRANCH   2  14
ATOM     14  O   UNL     1     -12.116   6.082  -2.760  1.00  0.00    -0.502 OA
ATOM     15  H   UNL     1     -12.816   6.077  -2.029  1.00  0.00     0.293 HD
ENDBRANCH   2  14
BRANCH   3  16
ATOM     16  O   UNL     1     -12.012   6.808  -5.469  1.00  0.00    -0.502 OA
ATOM     17  H   UNL     1     -11.436   7.167  -6.222  1.00  0.00     0.293 HD
ENDBRANCH   3  16
TORSDOF 3
ENDMDL
MODEL 7
REMARK VINA RESULT:    -3.873     16.336     17.058
REMARK INTER + INTRA:          -4.378
REMARK INTER:                  -4.322
REMARK INTRA:                  -0.056
REMARK UNBOUND:                -0.052
REMARK SMILES COc1cc2ccc(=O)oc2c(O)c1O
REMARK SMILES IDX 3 1 14 2 12 3 11 4 5 5 4 6 6 7 7 8 8 9 9 10 10 11 2 12 1 13
REMARK SMILES IDX 15 14 13 16
REMARK H PARENT 15 15 13 17
REMARK Flexibility Score: inf
ROOT
ATOM      1  C   UNL     1       4.909   5.121  -8.881  1.00  0.00     0.165 A 
ATOM      2  C   UNL     1       3.548   5.442  -9.002  1.00  0.00     0.204 A 
ATOM      3  C   UNL     1       2.579   4.423  -9.067  1.00  0.00     0.205 A 
ATOM      4  C   UNL     1       2.976   3.078  -9.010  1.00  0.00     0.184 A 
ATOM      5  C   UNL     1       4.344   2.754  -8.888  1.00  0.00     0.025 A 
ATOM      6  C   UNL     1       5.304   3.771  -8.824  1.00  0.00     0.062 A 
ATOM      7  C   UNL     1       4.710   1.404  -8.834  1.00  0.00     0.020 A 
ATOM      8  C   UNL     1       3.722   0.423  -8.901  1.00  0.00     0.094 A 
ATOM      9  C   UNL     1       2.386   0.816  -9.022  1.00  0.00     0.336 A 
ATOM     10  O   UNL     1       1.478  -0.054  -9.084  1.00  0.00    -0.246 OA
ATOM     11  O   UNL     1       2.065   2.106  -9.071  1.00  0.00    -0.419 OA
ENDROOT
BRANCH   1  12
ATOM     12  O   UNL     1       5.838   6.172  -8.820  1.00  0.00    -0.493 OA
ATOM     13  C   UNL     1       7.115   6.159  -9.451  1.00  0.00     0.278 C 
ENDBRANCH   1  12
BRANCH   2  14
ATOM     14  O   UNL     1       3.174   6.785  -9.057  1.00  0.00    -0.502 OA
ATOM     15  H   UNL     1       3.683   7.509  -8.566  1.00  0.00     0.293 HD
ENDBRANCH   2  14
BRANCH   3  16
ATOM     16  O   UNL     1       1.231   4.763  -9.188  1.00  0.00    -0.502 OA
ATOM     17  H   UNL     1       0.499   4.250  -8.712  1.00  0.00     0.293 HD
ENDBRANCH   3  16
TORSDOF 3
ENDMDL
MODEL 8
REMARK VINA RESULT:    -3.775     18.393     19.532
REMARK INTER + INTRA:          -4.268
REMARK INTER:                  -4.207
REMARK INTRA:                  -0.061
REMARK UNBOUND:                -0.052
REMARK SMILES COc1cc2ccc(=O)oc2c(O)c1O
REMARK SMILES IDX 3 1 14 2 12 3 11 4 5 5 4 6 6 7 7 8 8 9 9 10 10 11 2 12 1 13
REMARK SMILES IDX 15 14 13 16
REMARK H PARENT 15 15 13 17
REMARK Flexibility Score: inf
ROOT
ATOM      1  C   UNL     1       5.626  -3.878  -4.504  1.00  0.00     0.165 A 
ATOM      2  C   UNL     1       5.827  -2.549  -4.908  1.00  0.00     0.204 A 
ATOM      3  C   UNL     1       5.162  -2.040  -6.040  1.00  0.00     0.205 A 
ATOM      4  C   UNL     1       4.293  -2.867  -6.769  1.00  0.00     0.184 A 
ATOM      5  C   UNL     1       4.090  -4.203  -6.364  1.00  0.00     0.025 A 
ATOM      6  C   UNL     1       4.753  -4.705  -5.237  1.00  0.00     0.062 A 
ATOM      7  C   UNL     1       3.218  -5.004  -7.110  1.00  0.00     0.020 A 
ATOM      8  C   UNL     1       2.578  -4.465  -8.225  1.00  0.00     0.094 A 
ATOM      9  C   UNL     1       2.825  -3.134  -8.569  1.00  0.00     0.336 A 
ATOM     10  O   UNL     1       2.257  -2.627  -9.572  1.00  0.00    -0.246 OA
ATOM     11  O   UNL     1       3.658  -2.394  -7.842  1.00  0.00    -0.419 OA
ENDROOT
BRANCH   1  12
ATOM     12  O   UNL     1       6.311  -4.339  -3.369  1.00  0.00    -0.493 OA
ATOM     13  C   UNL     1       7.096  -5.527  -3.327  1.00  0.00     0.278 C 
ENDBRANCH   1  12
BRANCH   2  14
ATOM     14  O   UNL     1       6.694  -1.743  -4.171  1.00  0.00    -0.502 OA
ATOM     15  H   UNL     1       7.056  -0.868  -4.530  1.00  0.00     0.293 HD
ENDBRANCH   2  14
BRANCH   3  16
ATOM     16  O   UNL     1       5.375  -0.716  -6.426  1.00  0.00    -0.502 OA
ATOM     17  H   UNL     1       5.956  -0.083  -5.889  1.00  0.00     0.293 HD
ENDBRANCH   3  16
TORSDOF 3
ENDMDL
MODEL 9
REMARK VINA RESULT:    -3.749     11.728     13.408
REMARK INTER + INTRA:          -4.238
REMARK INTER:                  -4.169
REMARK INTRA:                  -0.070
REMARK UNBOUND:                -0.052
REMARK SMILES COc1cc2ccc(=O)oc2c(O)c1O
REMARK SMILES IDX 3 1 14 2 12 3 11 4 5 5 4 6 6 7 7 8 8 9 9 10 10 11 2 12 1 13
REMARK SMILES IDX 15 14 13 16
REMARK H PARENT 15 15 13 17
REMARK Flexibility Score: inf
ROOT
ATOM      1  C   UNL     1      -9.548   0.884   8.955  1.00  0.00     0.165 A 
ATOM      2  C   UNL     1     -10.660   1.322   8.219  1.00  0.00     0.204 A 
ATOM      3  C   UNL     1     -10.947   2.696   8.113  1.00  0.00     0.205 A 
ATOM      4  C   UNL     1     -10.116   3.634   8.747  1.00  0.00     0.184 A 
ATOM      5  C   UNL     1      -8.998   3.194   9.487  1.00  0.00     0.025 A 
ATOM      6  C   UNL     1      -8.717   1.826   9.589  1.00  0.00     0.062 A 
ATOM      7  C   UNL     1      -8.188   4.150  10.110  1.00  0.00     0.020 A 
ATOM      8  C   UNL     1      -8.504   5.502   9.982  1.00  0.00     0.094 A 
ATOM      9  C   UNL     1      -9.627   5.867   9.234  1.00  0.00     0.336 A 
ATOM     10  O   UNL     1      -9.930   7.082   9.106  1.00  0.00    -0.246 OA
ATOM     11  O   UNL     1     -10.379   4.937   8.653  1.00  0.00    -0.419 OA
ENDROOT
BRANCH   1  12
ATOM     12  O   UNL     1      -9.303  -0.497   9.031  1.00  0.00    -0.493 OA
ATOM     13  C   UNL     1      -8.277  -1.176   8.314  1.00  0.00     0.278 C 
ENDBRANCH   1  12
BRANCH   2  14
ATOM     14  O   UNL     1     -11.473   0.376   7.596  1.00  0.00    -0.502 OA
ATOM     15  H   UNL     1     -11.098  -0.460   7.164  1.00  0.00     0.293 HD
ENDBRANCH   2  14
BRANCH   3  16
ATOM     16  O   UNL     1     -12.057   3.113   7.377  1.00  0.00    -0.502 OA
ATOM     17  H   UNL     1     -12.827   3.618   7.799  1.00  0.00     0.293 HD
ENDBRANCH   3  16
TORSDOF 3
ENDMDL
