MODEL 1
REMARK VINA RESULT:    -3.181      0.000      0.000
REMARK INTER + INTRA:         -12.539
REMARK INTER:                  -8.017
REMARK INTRA:                  -4.522
REMARK UNBOUND:                -4.522
REMARK SMILES CCCCCCCCCCCCCCCCCCCCCCCCCCCC(=O)[O-]
REMARK SMILES IDX 15 1 16 2 17 3 18 4 19 5 20 6 21 7 22 8 23 9 24 10 25 11
REMARK SMILES IDX 26 12 27 13 28 14 29 15 30 16 14 17 13 18 12 19 11 20 10 21
REMARK SMILES IDX 9 22 8 23 7 24 6 25 5 26 4 27 3 28 2 29 1 30
REMARK H PARENT
REMARK Flexibility Score: inf
ROOT
ATOM      1  C   UNL     1       4.848   0.238  -5.220  1.00  0.00     0.000 C 
ENDROOT
BRANCH   1   2
ATOM      2  C   UNL     1       4.925   1.594  -5.951  1.00  0.00     0.000 C 
BRANCH   2   3
ATOM      3  C   UNL     1       3.880   1.774  -7.072  1.00  0.00     0.000 C 
BRANCH   3   4
ATOM      4  C   UNL     1       4.116   0.844  -8.273  1.00  0.00     0.000 C 
BRANCH   4   5
ATOM      5  C   UNL     1       4.369   1.654  -9.555  1.00  0.00     0.000 C 
BRANCH   5   6
ATOM      6  C   UNL     1       4.017   3.148  -9.389  1.00  0.00     0.000 C 
BRANCH   6   7
ATOM      7  C   UNL     1       5.192   4.099  -9.683  1.00  0.00     0.000 C 
BRANCH   7   8
ATOM      8  C   UNL     1       5.644   4.892  -8.445  1.00  0.00     0.000 C 
BRANCH   8   9
ATOM      9  C   UNL     1       6.858   5.790  -8.731  1.00  0.00     0.000 C 
BRANCH   9  10
ATOM     10  C   UNL     1       6.625   7.248  -8.305  1.00  0.00     0.000 C 
BRANCH  10  11
ATOM     11  C   UNL     1       5.157   7.649  -8.497  1.00  0.00     0.000 C 
BRANCH  11  12
ATOM     12  C   UNL     1       4.781   8.817  -7.576  1.00  0.00     0.006 C 
BRANCH  12  13
ATOM     13  C   UNL     1       5.524   8.729  -6.239  1.00  0.00     0.053 C 
BRANCH  13  14
ATOM     14  C   UNL     1       4.557   8.671  -5.097  1.00  0.00     0.041 C 
ATOM     15  O   UNL     1       3.354   9.007  -5.262  1.00  0.00    -0.550 OA
ATOM     16  O   UNL     1       4.989   8.247  -3.843  1.00  0.00    -0.550 OA
ENDBRANCH  13  14
ENDBRANCH  12  13
ENDBRANCH  11  12
ENDBRANCH  10  11
ENDBRANCH   9  10
ENDBRANCH   8   9
ENDBRANCH   7   8
ENDBRANCH   6   7
ENDBRANCH   5   6
ENDBRANCH   4   5
ENDBRANCH   3   4
ENDBRANCH   2   3
ENDBRANCH   1   2
BRANCH   1  17
ATOM     17  C   UNL     1       6.015  -0.733  -5.491  1.00  0.00     0.000 C 
BRANCH  17  18
ATOM     18  C   UNL     1       5.622  -2.220  -5.619  1.00  0.00     0.000 C 
BRANCH  18  19
ATOM     19  C   UNL     1       6.778  -3.220  -5.441  1.00  0.00     0.000 C 
BRANCH  19  20
ATOM     20  C   UNL     1       6.839  -4.271  -6.565  1.00  0.00     0.000 C 
BRANCH  20  21
ATOM     21  C   UNL     1       5.648  -4.161  -7.533  1.00  0.00     0.000 C 
BRANCH  21  22
ATOM     22  C   UNL     1       6.081  -3.853  -8.979  1.00  0.00    -0.000 C 
BRANCH  22  23
ATOM     23  C   UNL     1       5.820  -2.390  -9.373  1.00  0.00    -0.000 C 
BRANCH  23  24
ATOM     24  C   UNL     1       6.981  -1.456  -8.993  1.00  0.00    -0.000 C 
BRANCH  24  25
ATOM     25  C   UNL     1       8.358  -2.061  -9.315  1.00  0.00    -0.000 C 
BRANCH  25  26
ATOM     26  C   UNL     1       9.485  -1.475  -8.446  1.00  0.00    -0.000 C 
BRANCH  26  27
ATOM     27  C   UNL     1       8.939  -0.762  -7.191  1.00  0.00    -0.000 C 
BRANCH  27  28
ATOM     28  C   UNL     1       9.556   0.627  -6.959  1.00  0.00    -0.000 C 
BRANCH  28  29
ATOM     29  C   UNL     1       8.507   1.748  -6.924  1.00  0.00    -0.003 C 
ATOM     30  C   UNL     1       7.897   1.973  -8.304  1.00  0.00     0.004 C 
ENDBRANCH  28  29
ENDBRANCH  27  28
ENDBRANCH  26  27
ENDBRANCH  25  26
ENDBRANCH  24  25
ENDBRANCH  23  24
ENDBRANCH  22  23
ENDBRANCH  21  22
ENDBRANCH  20  21
ENDBRANCH  19  20
ENDBRANCH  18  19
ENDBRANCH  17  18
ENDBRANCH   1  17
TORSDOF 26
ENDMDL
MODEL 2
REMARK VINA RESULT:    -3.137      6.103     10.287
REMARK INTER + INTRA:         -12.428
REMARK INTER:                  -9.115
REMARK INTRA:                  -3.313
REMARK UNBOUND:                -4.522
REMARK SMILES CCCCCCCCCCCCCCCCCCCCCCCCCCCC(=O)[O-]
REMARK SMILES IDX 15 1 16 2 17 3 18 4 19 5 20 6 21 7 22 8 23 9 24 10 25 11
REMARK SMILES IDX 26 12 27 13 28 14 29 15 30 16 14 17 13 18 12 19 11 20 10 21
REMARK SMILES IDX 9 22 8 23 7 24 6 25 5 26 4 27 3 28 2 29 1 30
REMARK H PARENT
REMARK Flexibility Score: inf
ROOT
ATOM      1  C   UNL     1       5.759  -3.521  -5.608  1.00  0.00     0.000 C 
ENDROOT
BRANCH   1   2
ATOM      2  C   UNL     1       5.590  -4.525  -6.767  1.00  0.00     0.000 C 
BRANCH   2   3
ATOM      3  C   UNL     1       6.067  -4.003  -8.138  1.00  0.00     0.000 C 
BRANCH   3   4
ATOM      4  C   UNL     1       4.960  -3.290  -8.933  1.00  0.00     0.000 C 
BRANCH   4   5
ATOM      5  C   UNL     1       4.417  -4.195 -10.051  1.00  0.00     0.000 C 
BRANCH   5   6
ATOM      6  C   UNL     1       3.318  -5.157  -9.551  1.00  0.00     0.000 C 
BRANCH   6   7
ATOM      7  C   UNL     1       1.887  -4.669  -9.840  1.00  0.00     0.000 C 
BRANCH   7   8
ATOM      8  C   UNL     1       0.808  -5.612  -9.280  1.00  0.00     0.000 C 
BRANCH   8   9
ATOM      9  C   UNL     1       1.389  -6.948  -8.792  1.00  0.00     0.000 C 
BRANCH   9  10
ATOM     10  C   UNL     1       1.081  -7.217  -7.310  1.00  0.00     0.000 C 
BRANCH  10  11
ATOM     11  C   UNL     1       0.233  -8.485  -7.146  1.00  0.00     0.000 C 
BRANCH  11  12
ATOM     12  C   UNL     1      -0.748  -8.341  -5.976  1.00  0.00     0.006 C 
BRANCH  12  13
ATOM     13  C   UNL     1      -2.117  -8.934  -6.326  1.00  0.00     0.053 C 
BRANCH  13  14
ATOM     14  C   UNL     1      -3.182  -8.377  -5.432  1.00  0.00     0.041 C 
ATOM     15  O   UNL     1      -3.386  -8.878  -4.294  1.00  0.00    -0.550 OA
ATOM     16  O   UNL     1      -3.954  -7.301  -5.859  1.00  0.00    -0.550 OA
ENDBRANCH  13  14
ENDBRANCH  12  13
ENDBRANCH  11  12
ENDBRANCH  10  11
ENDBRANCH   9  10
ENDBRANCH   8   9
ENDBRANCH   7   8
ENDBRANCH   6   7
ENDBRANCH   5   6
ENDBRANCH   4   5
ENDBRANCH   3   4
ENDBRANCH   2   3
ENDBRANCH   1   2
BRANCH   1  17
ATOM     17  C   UNL     1       6.911  -2.510  -5.766  1.00  0.00     0.000 C 
BRANCH  17  18
ATOM     18  C   UNL     1       6.512  -1.025  -5.628  1.00  0.00     0.000 C 
BRANCH  18  19
ATOM     19  C   UNL     1       5.239  -0.615  -6.390  1.00  0.00     0.000 C 
BRANCH  19  20
ATOM     20  C   UNL     1       4.471   0.528  -5.702  1.00  0.00     0.000 C 
BRANCH  20  21
ATOM     21  C   UNL     1       3.554   1.286  -6.677  1.00  0.00     0.000 C 
BRANCH  21  22
ATOM     22  C   UNL     1       4.336   2.147  -7.685  1.00  0.00    -0.000 C 
BRANCH  22  23
ATOM     23  C   UNL     1       5.280   3.149  -6.999  1.00  0.00    -0.000 C 
BRANCH  23  24
ATOM     24  C   UNL     1       6.161   3.917  -7.999  1.00  0.00    -0.000 C 
BRANCH  24  25
ATOM     25  C   UNL     1       7.650   3.550  -7.879  1.00  0.00    -0.000 C 
BRANCH  25  26
ATOM     26  C   UNL     1       7.885   2.278  -7.045  1.00  0.00    -0.000 C 
BRANCH  26  27
ATOM     27  C   UNL     1       8.754   1.246  -7.793  1.00  0.00    -0.000 C 
BRANCH  27  28
ATOM     28  C   UNL     1       8.164   0.813  -9.144  1.00  0.00    -0.000 C 
BRANCH  28  29
ATOM     29  C   UNL     1       7.689  -0.647  -9.149  1.00  0.00    -0.003 C 
ATOM     30  C   UNL     1       8.810  -1.590  -8.720  1.00  0.00     0.004 C 
ENDBRANCH  28  29
ENDBRANCH  27  28
ENDBRANCH  26  27
ENDBRANCH  25  26
ENDBRANCH  24  25
ENDBRANCH  23  24
ENDBRANCH  22  23
ENDBRANCH  21  22
ENDBRANCH  20  21
ENDBRANCH  19  20
ENDBRANCH  18  19
ENDBRANCH  17  18
ENDBRANCH   1  17
TORSDOF 26
ENDMDL
MODEL 3
REMARK VINA RESULT:    -3.114      1.653      4.377
REMARK INTER + INTRA:         -12.369
REMARK INTER:                  -8.707
REMARK INTRA:                  -3.663
REMARK UNBOUND:                -4.522
REMARK SMILES CCCCCCCCCCCCCCCCCCCCCCCCCCCC(=O)[O-]
REMARK SMILES IDX 15 1 16 2 17 3 18 4 19 5 20 6 21 7 22 8 23 9 24 10 25 11
REMARK SMILES IDX 26 12 27 13 28 14 29 15 30 16 14 17 13 18 12 19 11 20 10 21
REMARK SMILES IDX 9 22 8 23 7 24 6 25 5 26 4 27 3 28 2 29 1 30
REMARK H PARENT
REMARK Flexibility Score: inf
ROOT
ATOM      1  C   UNL     1       8.184   0.518  -6.633  1.00  0.00     0.000 C 
ENDROOT
BRANCH   1   2
ATOM      2  C   UNL     1       7.883   1.335  -7.906  1.00  0.00     0.000 C 
BRANCH   2   3
ATOM      3  C   UNL     1       7.732   2.853  -7.668  1.00  0.00     0.000 C 
BRANCH   3   4
ATOM      4  C   UNL     1       6.869   3.548  -8.735  1.00  0.00     0.000 C 
BRANCH   4   5
ATOM      5  C   UNL     1       5.991   4.641  -8.105  1.00  0.00     0.000 C 
BRANCH   5   6
ATOM      6  C   UNL     1       6.452   6.064  -8.489  1.00  0.00     0.000 C 
BRANCH   6   7
ATOM      7  C   UNL     1       5.330   7.117  -8.425  1.00  0.00     0.000 C 
BRANCH   7   8
ATOM      8  C   UNL     1       5.700   8.333  -7.557  1.00  0.00     0.000 C 
BRANCH   8   9
ATOM      9  C   UNL     1       4.909   8.378  -6.240  1.00  0.00     0.000 C 
BRANCH   9  10
ATOM     10  C   UNL     1       5.048   9.728  -5.518  1.00  0.00     0.000 C 
BRANCH  10  11
ATOM     11  C   UNL     1       4.183   9.766  -4.252  1.00  0.00     0.000 C 
BRANCH  11  12
ATOM     12  C   UNL     1       5.047   9.973  -3.001  1.00  0.00     0.006 C 
BRANCH  12  13
ATOM     13  C   UNL     1       5.159   8.681  -2.186  1.00  0.00     0.053 C 
BRANCH  13  14
ATOM     14  C   UNL     1       6.595   8.334  -1.937  1.00  0.00     0.041 C 
ATOM     15  O   UNL     1       7.464   8.537  -2.826  1.00  0.00    -0.550 OA
ATOM     16  O   UNL     1       6.974   7.778  -0.719  1.00  0.00    -0.550 OA
ENDBRANCH  13  14
ENDBRANCH  12  13
ENDBRANCH  11  12
ENDBRANCH  10  11
ENDBRANCH   9  10
ENDBRANCH   8   9
ENDBRANCH   7   8
ENDBRANCH   6   7
ENDBRANCH   5   6
ENDBRANCH   4   5
ENDBRANCH   3   4
ENDBRANCH   2   3
ENDBRANCH   1   2
BRANCH   1  17
ATOM     17  C   UNL     1       7.323  -0.745  -6.433  1.00  0.00     0.000 C 
BRANCH  17  18
ATOM     18  C   UNL     1       6.007  -0.532  -5.657  1.00  0.00     0.000 C 
BRANCH  18  19
ATOM     19  C   UNL     1       5.772   0.900  -5.144  1.00  0.00     0.000 C 
BRANCH  19  20
ATOM     20  C   UNL     1       4.719   1.665  -5.966  1.00  0.00     0.000 C 
BRANCH  20  21
ATOM     21  C   UNL     1       3.935   0.743  -6.915  1.00  0.00     0.000 C 
BRANCH  21  22
ATOM     22  C   UNL     1       4.047   1.171  -8.391  1.00  0.00    -0.000 C 
BRANCH  22  23
ATOM     23  C   UNL     1       4.082  -0.028  -9.352  1.00  0.00    -0.000 C 
BRANCH  23  24
ATOM     24  C   UNL     1       5.496  -0.323  -9.884  1.00  0.00    -0.000 C 
BRANCH  24  25
ATOM     25  C   UNL     1       5.928  -1.778  -9.641  1.00  0.00    -0.000 C 
BRANCH  25  26
ATOM     26  C   UNL     1       4.987  -2.527  -8.680  1.00  0.00    -0.000 C 
BRANCH  26  27
ATOM     27  C   UNL     1       5.421  -3.992  -8.465  1.00  0.00    -0.000 C 
BRANCH  27  28
ATOM     28  C   UNL     1       6.413  -4.172  -7.304  1.00  0.00    -0.000 C 
BRANCH  28  29
ATOM     29  C   UNL     1       5.738  -4.103  -5.926  1.00  0.00    -0.003 C 
ATOM     30  C   UNL     1       6.673  -4.607  -4.831  1.00  0.00     0.004 C 
ENDBRANCH  28  29
ENDBRANCH  27  28
ENDBRANCH  26  27
ENDBRANCH  25  26
ENDBRANCH  24  25
ENDBRANCH  23  24
ENDBRANCH  22  23
ENDBRANCH  21  22
ENDBRANCH  20  21
ENDBRANCH  19  20
ENDBRANCH  18  19
ENDBRANCH  17  18
ENDBRANCH   1  17
TORSDOF 26
ENDMDL
MODEL 4
REMARK VINA RESULT:    -3.010      1.625      2.499
REMARK INTER + INTRA:         -12.108
REMARK INTER:                  -8.378
REMARK INTRA:                  -3.731
REMARK UNBOUND:                -4.522
REMARK SMILES CCCCCCCCCCCCCCCCCCCCCCCCCCCC(=O)[O-]
REMARK SMILES IDX 15 1 16 2 17 3 18 4 19 5 20 6 21 7 22 8 23 9 24 10 25 11
REMARK SMILES IDX 26 12 27 13 28 14 29 15 30 16 14 17 13 18 12 19 11 20 10 21
REMARK SMILES IDX 9 22 8 23 7 24 6 25 5 26 4 27 3 28 2 29 1 30
REMARK H PARENT
REMARK Flexibility Score: inf
ROOT
ATOM      1  C   UNL     1       4.885   0.049  -5.300  1.00  0.00     0.000 C 
ENDROOT
BRANCH   1   2
ATOM      2  C   UNL     1       4.018   0.782  -6.343  1.00  0.00     0.000 C 
BRANCH   2   3
ATOM      3  C   UNL     1       4.225   2.311  -6.384  1.00  0.00     0.000 C 
BRANCH   3   4
ATOM      4  C   UNL     1       4.834   2.803  -7.708  1.00  0.00     0.000 C 
BRANCH   4   5
ATOM      5  C   UNL     1       6.363   2.920  -7.599  1.00  0.00     0.000 C 
BRANCH   5   6
ATOM      6  C   UNL     1       6.984   3.672  -8.797  1.00  0.00     0.000 C 
BRANCH   6   7
ATOM      7  C   UNL     1       7.468   5.093  -8.453  1.00  0.00     0.000 C 
BRANCH   7   8
ATOM      8  C   UNL     1       6.318   6.110  -8.357  1.00  0.00     0.000 C 
BRANCH   8   9
ATOM      9  C   UNL     1       6.780   7.550  -8.630  1.00  0.00     0.000 C 
BRANCH   9  10
ATOM     10  C   UNL     1       6.337   8.528  -7.530  1.00  0.00     0.000 C 
BRANCH  10  11
ATOM     11  C   UNL     1       4.898   8.240  -7.085  1.00  0.00     0.000 C 
BRANCH  11  12
ATOM     12  C   UNL     1       4.525   9.077  -5.854  1.00  0.00     0.006 C 
BRANCH  12  13
ATOM     13  C   UNL     1       4.435   8.204  -4.598  1.00  0.00     0.053 C 
BRANCH  13  14
ATOM     14  C   UNL     1       5.398   8.677  -3.553  1.00  0.00     0.041 C 
ATOM     15  O   UNL     1       5.126   8.547  -2.330  1.00  0.00    -0.550 OA
ATOM     16  O   UNL     1       6.600   9.267  -3.932  1.00  0.00    -0.550 OA
ENDBRANCH  13  14
ENDBRANCH  12  13
ENDBRANCH  11  12
ENDBRANCH  10  11
ENDBRANCH   9  10
ENDBRANCH   8   9
ENDBRANCH   7   8
ENDBRANCH   6   7
ENDBRANCH   5   6
ENDBRANCH   4   5
ENDBRANCH   3   4
ENDBRANCH   2   3
ENDBRANCH   1   2
BRANCH   1  17
ATOM     17  C   UNL     1       6.310  -0.319  -5.758  1.00  0.00     0.000 C 
BRANCH  17  18
ATOM     18  C   UNL     1       6.713  -1.793  -5.545  1.00  0.00     0.000 C 
BRANCH  18  19
ATOM     19  C   UNL     1       5.782  -2.829  -6.202  1.00  0.00     0.000 C 
BRANCH  19  20
ATOM     20  C   UNL     1       5.805  -4.193  -5.488  1.00  0.00     0.000 C 
BRANCH  20  21
ATOM     21  C   UNL     1       7.135  -4.938  -5.693  1.00  0.00     0.000 C 
BRANCH  21  22
ATOM     22  C   UNL     1       7.503  -5.104  -7.179  1.00  0.00    -0.000 C 
BRANCH  22  23
ATOM     23  C   UNL     1       9.020  -5.037  -7.423  1.00  0.00    -0.000 C 
BRANCH  23  24
ATOM     24  C   UNL     1       9.382  -4.273  -8.708  1.00  0.00    -0.000 C 
BRANCH  24  25
ATOM     25  C   UNL     1       8.429  -3.099  -8.988  1.00  0.00    -0.000 C 
BRANCH  25  26
ATOM     26  C   UNL     1       8.913  -1.778  -8.364  1.00  0.00    -0.000 C 
BRANCH  26  27
ATOM     27  C   UNL     1       8.186  -0.554  -8.960  1.00  0.00    -0.000 C 
BRANCH  27  28
ATOM     28  C   UNL     1       7.015  -0.927  -9.883  1.00  0.00    -0.000 C 
BRANCH  28  29
ATOM     29  C   UNL     1       5.685  -0.297  -9.446  1.00  0.00    -0.003 C 
ATOM     30  C   UNL     1       4.592  -1.354  -9.319  1.00  0.00     0.004 C 
ENDBRANCH  28  29
ENDBRANCH  27  28
ENDBRANCH  26  27
ENDBRANCH  25  26
ENDBRANCH  24  25
ENDBRANCH  23  24
ENDBRANCH  22  23
ENDBRANCH  21  22
ENDBRANCH  20  21
ENDBRANCH  19  20
ENDBRANCH  18  19
ENDBRANCH  17  18
ENDBRANCH   1  17
TORSDOF 26
ENDMDL
MODEL 5
REMARK VINA RESULT:    -2.963      4.606      6.801
REMARK INTER + INTRA:         -11.990
REMARK INTER:                  -7.452
REMARK INTRA:                  -4.538
REMARK UNBOUND:                -4.522
REMARK SMILES CCCCCCCCCCCCCCCCCCCCCCCCCCCC(=O)[O-]
REMARK SMILES IDX 15 1 16 2 17 3 18 4 19 5 20 6 21 7 22 8 23 9 24 10 25 11
REMARK SMILES IDX 26 12 27 13 28 14 29 15 30 16 14 17 13 18 12 19 11 20 10 21
REMARK SMILES IDX 9 22 8 23 7 24 6 25 5 26 4 27 3 28 2 29 1 30
REMARK H PARENT
REMARK Flexibility Score: inf
ROOT
ATOM      1  C   UNL     1       5.824  -0.876  -5.726  1.00  0.00     0.000 C 
ENDROOT
BRANCH   1   2
ATOM      2  C   UNL     1       4.547  -0.176  -5.217  1.00  0.00     0.000 C 
BRANCH   2   3
ATOM      3  C   UNL     1       3.999   0.915  -6.160  1.00  0.00     0.000 C 
BRANCH   3   4
ATOM      4  C   UNL     1       5.060   1.952  -6.566  1.00  0.00     0.000 C 
BRANCH   4   5
ATOM      5  C   UNL     1       4.593   2.769  -7.782  1.00  0.00     0.000 C 
BRANCH   5   6
ATOM      6  C   UNL     1       5.566   2.660  -8.976  1.00  0.00     0.000 C 
BRANCH   6   7
ATOM      7  C   UNL     1       5.054   1.757 -10.113  1.00  0.00     0.000 C 
BRANCH   7   8
ATOM      8  C   UNL     1       3.658   1.174  -9.832  1.00  0.00     0.000 C 
BRANCH   8   9
ATOM      9  C   UNL     1       3.641  -0.362  -9.882  1.00  0.00     0.000 C 
BRANCH   9  10
ATOM     10  C   UNL     1       4.849  -0.987  -9.167  1.00  0.00     0.000 C 
BRANCH  10  11
ATOM     11  C   UNL     1       5.223  -2.335  -9.796  1.00  0.00     0.000 C 
BRANCH  11  12
ATOM     12  C   UNL     1       3.989  -3.232  -9.950  1.00  0.00     0.006 C 
BRANCH  12  13
ATOM     13  C   UNL     1       4.141  -4.527  -9.145  1.00  0.00     0.053 C 
BRANCH  13  14
ATOM     14  C   UNL     1       3.039  -5.487  -9.471  1.00  0.00     0.041 C 
ATOM     15  O   UNL     1       3.239  -6.730  -9.421  1.00  0.00    -0.550 OA
ATOM     16  O   UNL     1       1.784  -5.007  -9.836  1.00  0.00    -0.550 OA
ENDBRANCH  13  14
ENDBRANCH  12  13
ENDBRANCH  11  12
ENDBRANCH  10  11
ENDBRANCH   9  10
ENDBRANCH   8   9
ENDBRANCH   7   8
ENDBRANCH   6   7
ENDBRANCH   5   6
ENDBRANCH   4   5
ENDBRANCH   3   4
ENDBRANCH   2   3
ENDBRANCH   1   2
BRANCH   1  17
ATOM     17  C   UNL     1       5.747  -2.412  -5.826  1.00  0.00     0.000 C 
BRANCH  17  18
ATOM     18  C   UNL     1       6.883  -3.178  -5.116  1.00  0.00     0.000 C 
BRANCH  18  19
ATOM     19  C   UNL     1       6.820  -4.711  -5.242  1.00  0.00     0.000 C 
BRANCH  19  20
ATOM     20  C   UNL     1       7.005  -5.201  -6.690  1.00  0.00     0.000 C 
BRANCH  20  21
ATOM     21  C   UNL     1       8.352  -4.761  -7.288  1.00  0.00     0.000 C 
BRANCH  21  22
ATOM     22  C   UNL     1       8.190  -3.800  -8.481  1.00  0.00    -0.000 C 
BRANCH  22  23
ATOM     23  C   UNL     1       9.532  -3.227  -8.964  1.00  0.00    -0.000 C 
BRANCH  23  24
ATOM     24  C   UNL     1       9.483  -1.706  -9.190  1.00  0.00    -0.000 C 
BRANCH  24  25
ATOM     25  C   UNL     1       8.410  -1.015  -8.331  1.00  0.00    -0.000 C 
BRANCH  25  26
ATOM     26  C   UNL     1       8.978   0.134  -7.479  1.00  0.00    -0.000 C 
BRANCH  26  27
ATOM     27  C   UNL     1       8.652   1.518  -8.079  1.00  0.00    -0.000 C 
BRANCH  27  28
ATOM     28  C   UNL     1       9.238   2.688  -7.273  1.00  0.00    -0.000 C 
BRANCH  28  29
ATOM     29  C   UNL     1       8.747   4.058  -7.764  1.00  0.00    -0.003 C 
ATOM     30  C   UNL     1       9.289   4.368  -9.157  1.00  0.00     0.004 C 
ENDBRANCH  28  29
ENDBRANCH  27  28
ENDBRANCH  26  27
ENDBRANCH  25  26
ENDBRANCH  24  25
ENDBRANCH  23  24
ENDBRANCH  22  23
ENDBRANCH  21  22
ENDBRANCH  20  21
ENDBRANCH  19  20
ENDBRANCH  18  19
ENDBRANCH  17  18
ENDBRANCH   1  17
TORSDOF 26
ENDMDL
MODEL 6
REMARK VINA RESULT:    -2.941      1.336      3.290
REMARK INTER + INTRA:         -11.934
REMARK INTER:                  -7.400
REMARK INTRA:                  -4.534
REMARK UNBOUND:                -4.522
REMARK SMILES CCCCCCCCCCCCCCCCCCCCCCCCCCCC(=O)[O-]
REMARK SMILES IDX 15 1 16 2 17 3 18 4 19 5 20 6 21 7 22 8 23 9 24 10 25 11
REMARK SMILES IDX 26 12 27 13 28 14 29 15 30 16 14 17 13 18 12 19 11 20 10 21
REMARK SMILES IDX 9 22 8 23 7 24 6 25 5 26 4 27 3 28 2 29 1 30
REMARK H PARENT
REMARK Flexibility Score: inf
ROOT
ATOM      1  C   UNL     1       4.538  -0.139  -5.717  1.00  0.00     0.000 C 
ENDROOT
BRANCH   1   2
ATOM      2  C   UNL     1       3.871   0.804  -6.739  1.00  0.00     0.000 C 
BRANCH   2   3
ATOM      3  C   UNL     1       4.261   2.289  -6.585  1.00  0.00     0.000 C 
BRANCH   3   4
ATOM      4  C   UNL     1       4.882   2.887  -7.858  1.00  0.00     0.000 C 
BRANCH   4   5
ATOM      5  C   UNL     1       6.130   3.720  -7.522  1.00  0.00     0.000 C 
BRANCH   5   6
ATOM      6  C   UNL     1       6.731   4.411  -8.765  1.00  0.00     0.000 C 
BRANCH   6   7
ATOM      7  C   UNL     1       5.772   4.465  -9.969  1.00  0.00     0.000 C 
BRANCH   7   8
ATOM      8  C   UNL     1       5.016   5.801 -10.072  1.00  0.00     0.000 C 
BRANCH   8   9
ATOM      9  C   UNL     1       5.237   6.699  -8.845  1.00  0.00     0.000 C 
BRANCH   9  10
ATOM     10  C   UNL     1       6.009   7.983  -9.188  1.00  0.00     0.000 C 
BRANCH  10  11
ATOM     11  C   UNL     1       5.201   9.230  -8.807  1.00  0.00     0.000 C 
BRANCH  11  12
ATOM     12  C   UNL     1       3.970   8.853  -7.972  1.00  0.00     0.006 C 
BRANCH  12  13
ATOM     13  C   UNL     1       3.877   9.712  -6.706  1.00  0.00     0.053 C 
BRANCH  13  14
ATOM     14  C   UNL     1       4.602   9.061  -5.568  1.00  0.00     0.041 C 
ATOM     15  O   UNL     1       5.820   9.308  -5.364  1.00  0.00    -0.550 OA
ATOM     16  O   UNL     1       3.929   8.176  -4.732  1.00  0.00    -0.550 OA
ENDBRANCH  13  14
ENDBRANCH  12  13
ENDBRANCH  11  12
ENDBRANCH  10  11
ENDBRANCH   9  10
ENDBRANCH   8   9
ENDBRANCH   7   8
ENDBRANCH   6   7
ENDBRANCH   5   6
ENDBRANCH   4   5
ENDBRANCH   3   4
ENDBRANCH   2   3
ENDBRANCH   1   2
BRANCH   1  17
ATOM     17  C   UNL     1       5.952   0.269  -5.257  1.00  0.00     0.000 C 
BRANCH  17  18
ATOM     18  C   UNL     1       7.114  -0.396  -6.024  1.00  0.00     0.000 C 
BRANCH  18  19
ATOM     19  C   UNL     1       7.919   0.545  -6.939  1.00  0.00     0.000 C 
BRANCH  19  20
ATOM     20  C   UNL     1       8.894  -0.207  -7.863  1.00  0.00     0.000 C 
BRANCH  20  21
ATOM     21  C   UNL     1       8.438  -0.189  -9.332  1.00  0.00     0.000 C 
BRANCH  21  22
ATOM     22  C   UNL     1       7.314   0.829  -9.596  1.00  0.00    -0.000 C 
BRANCH  22  23
ATOM     23  C   UNL     1       6.030   0.168 -10.125  1.00  0.00    -0.000 C 
BRANCH  23  24
ATOM     24  C   UNL     1       6.071  -1.368 -10.032  1.00  0.00    -0.000 C 
BRANCH  24  25
ATOM     25  C   UNL     1       4.973  -1.934  -9.116  1.00  0.00    -0.000 C 
BRANCH  25  26
ATOM     26  C   UNL     1       5.530  -2.865  -8.024  1.00  0.00    -0.000 C 
BRANCH  26  27
ATOM     27  C   UNL     1       6.907  -3.449  -8.405  1.00  0.00    -0.000 C 
BRANCH  27  28
ATOM     28  C   UNL     1       7.780  -3.801  -7.190  1.00  0.00    -0.000 C 
BRANCH  28  29
ATOM     29  C   UNL     1       7.161  -4.891  -6.304  1.00  0.00    -0.003 C 
ATOM     30  C   UNL     1       6.771  -4.334  -4.938  1.00  0.00     0.004 C 
ENDBRANCH  28  29
ENDBRANCH  27  28
ENDBRANCH  26  27
ENDBRANCH  25  26
ENDBRANCH  24  25
ENDBRANCH  23  24
ENDBRANCH  22  23
ENDBRANCH  21  22
ENDBRANCH  20  21
ENDBRANCH  19  20
ENDBRANCH  18  19
ENDBRANCH  17  18
ENDBRANCH   1  17
TORSDOF 26
ENDMDL
MODEL 7
REMARK VINA RESULT:    -2.926      2.137      4.454
REMARK INTER + INTRA:         -11.896
REMARK INTER:                  -8.915
REMARK INTRA:                  -2.981
REMARK UNBOUND:                -4.522
REMARK SMILES CCCCCCCCCCCCCCCCCCCCCCCCCCCC(=O)[O-]
REMARK SMILES IDX 15 1 16 2 17 3 18 4 19 5 20 6 21 7 22 8 23 9 24 10 25 11
REMARK SMILES IDX 26 12 27 13 28 14 29 15 30 16 14 17 13 18 12 19 11 20 10 21
REMARK SMILES IDX 9 22 8 23 7 24 6 25 5 26 4 27 3 28 2 29 1 30
REMARK H PARENT
REMARK Flexibility Score: inf
ROOT
ATOM      1  C   UNL     1       6.850   2.625  -7.125  1.00  0.00     0.000 C 
ENDROOT
BRANCH   1   2
ATOM      2  C   UNL     1       5.522   3.281  -7.555  1.00  0.00     0.000 C 
BRANCH   2   3
ATOM      3  C   UNL     1       5.655   4.290  -8.715  1.00  0.00     0.000 C 
BRANCH   3   4
ATOM      4  C   UNL     1       6.563   5.484  -8.376  1.00  0.00     0.000 C 
BRANCH   4   5
ATOM      5  C   UNL     1       6.058   6.768  -9.054  1.00  0.00     0.000 C 
BRANCH   5   6
ATOM      6  C   UNL     1       5.085   7.565  -8.160  1.00  0.00     0.000 C 
BRANCH   6   7
ATOM      7  C   UNL     1       5.585   8.977  -7.802  1.00  0.00     0.000 C 
BRANCH   7   8
ATOM      8  C   UNL     1       5.327   9.348  -6.332  1.00  0.00     0.000 C 
BRANCH   8   9
ATOM      9  C   UNL     1       4.630   8.221  -5.553  1.00  0.00     0.000 C 
BRANCH   9  10
ATOM     10  C   UNL     1       4.746   8.400  -4.030  1.00  0.00     0.000 C 
BRANCH  10  11
ATOM     11  C   UNL     1       5.902   9.343  -3.674  1.00  0.00     0.000 C 
BRANCH  11  12
ATOM     12  C   UNL     1       6.155   9.356  -2.161  1.00  0.00     0.006 C 
BRANCH  12  13
ATOM     13  C   UNL     1       5.039   8.625  -1.407  1.00  0.00     0.053 C 
BRANCH  13  14
ATOM     14  C   UNL     1       5.460   8.319  -0.002  1.00  0.00     0.041 C 
ATOM     15  O   UNL     1       6.339   7.446   0.224  1.00  0.00    -0.550 OA
ATOM     16  O   UNL     1       4.874   8.998   1.062  1.00  0.00    -0.550 OA
ENDBRANCH  13  14
ENDBRANCH  12  13
ENDBRANCH  11  12
ENDBRANCH  10  11
ENDBRANCH   9  10
ENDBRANCH   8   9
ENDBRANCH   7   8
ENDBRANCH   6   7
ENDBRANCH   5   6
ENDBRANCH   4   5
ENDBRANCH   3   4
ENDBRANCH   2   3
ENDBRANCH   1   2
BRANCH   1  17
ATOM     17  C   UNL     1       6.727   1.489  -6.090  1.00  0.00     0.000 C 
BRANCH  17  18
ATOM     18  C   UNL     1       5.292   1.178  -5.616  1.00  0.00     0.000 C 
BRANCH  18  19
ATOM     19  C   UNL     1       4.898  -0.309  -5.648  1.00  0.00     0.000 C 
BRANCH  19  20
ATOM     20  C   UNL     1       5.860  -1.166  -6.490  1.00  0.00     0.000 C 
BRANCH  20  21
ATOM     21  C   UNL     1       5.250  -1.572  -7.843  1.00  0.00     0.000 C 
BRANCH  21  22
ATOM     22  C   UNL     1       5.340  -0.453  -8.897  1.00  0.00    -0.000 C 
BRANCH  22  23
ATOM     23  C   UNL     1       6.770  -0.254  -9.427  1.00  0.00    -0.000 C 
BRANCH  23  24
ATOM     24  C   UNL     1       7.515  -1.584  -9.640  1.00  0.00    -0.000 C 
BRANCH  24  25
ATOM     25  C   UNL     1       8.891  -1.607  -8.954  1.00  0.00    -0.000 C 
BRANCH  25  26
ATOM     26  C   UNL     1       9.184  -2.944  -8.251  1.00  0.00    -0.000 C 
BRANCH  26  27
ATOM     27  C   UNL     1       7.955  -3.876  -8.240  1.00  0.00    -0.000 C 
BRANCH  27  28
ATOM     28  C   UNL     1       7.938  -4.854  -7.055  1.00  0.00    -0.000 C 
BRANCH  28  29
ATOM     29  C   UNL     1       6.593  -4.874  -6.315  1.00  0.00    -0.003 C 
ATOM     30  C   UNL     1       6.750  -4.395  -4.875  1.00  0.00     0.004 C 
ENDBRANCH  28  29
ENDBRANCH  27  28
ENDBRANCH  26  27
ENDBRANCH  25  26
ENDBRANCH  24  25
ENDBRANCH  23  24
ENDBRANCH  22  23
ENDBRANCH  21  22
ENDBRANCH  20  21
ENDBRANCH  19  20
ENDBRANCH  18  19
ENDBRANCH  17  18
ENDBRANCH   1  17
TORSDOF 26
ENDMDL
MODEL 8
REMARK VINA RESULT:    -2.881      6.084     11.187
REMARK INTER + INTRA:         -11.783
REMARK INTER:                  -9.775
REMARK INTRA:                  -2.007
REMARK UNBOUND:                -4.522
REMARK SMILES CCCCCCCCCCCCCCCCCCCCCCCCCCCC(=O)[O-]
REMARK SMILES IDX 15 1 16 2 17 3 18 4 19 5 20 6 21 7 22 8 23 9 24 10 25 11
REMARK SMILES IDX 26 12 27 13 28 14 29 15 30 16 14 17 13 18 12 19 11 20 10 21
REMARK SMILES IDX 9 22 8 23 7 24 6 25 5 26 4 27 3 28 2 29 1 30
REMARK H PARENT
REMARK Flexibility Score: inf
ROOT
ATOM      1  C   UNL     1       4.458   8.218  -4.776  1.00  0.00     0.000 C 
ENDROOT
BRANCH   1   2
ATOM      2  C   UNL     1       3.705   9.335  -5.526  1.00  0.00     0.000 C 
BRANCH   2   3
ATOM      3  C   UNL     1       3.898   9.318  -7.057  1.00  0.00     0.000 C 
BRANCH   3   4
ATOM      4  C   UNL     1       5.123   8.502  -7.503  1.00  0.00     0.000 C 
BRANCH   4   5
ATOM      5  C   UNL     1       4.752   7.527  -8.633  1.00  0.00     0.000 C 
BRANCH   5   6
ATOM      6  C   UNL     1       5.987   6.816  -9.228  1.00  0.00     0.000 C 
BRANCH   6   7
ATOM      7  C   UNL     1       5.808   5.295  -9.391  1.00  0.00     0.000 C 
BRANCH   7   8
ATOM      8  C   UNL     1       6.536   4.487  -8.304  1.00  0.00     0.000 C 
BRANCH   8   9
ATOM      9  C   UNL     1       5.571   3.661  -7.438  1.00  0.00     0.000 C 
BRANCH   9  10
ATOM     10  C   UNL     1       4.538   2.893  -8.279  1.00  0.00     0.000 C 
BRANCH  10  11
ATOM     11  C   UNL     1       4.126   1.588  -7.586  1.00  0.00     0.000 C 
BRANCH  11  12
ATOM     12  C   UNL     1       4.728   1.498  -6.178  1.00  0.00     0.006 C 
BRANCH  12  13
ATOM     13  C   UNL     1       4.494   0.115  -5.564  1.00  0.00     0.053 C 
BRANCH  13  14
ATOM     14  C   UNL     1       5.704  -0.752  -5.731  1.00  0.00     0.041 C 
ATOM     15  O   UNL     1       6.818  -0.242  -6.025  1.00  0.00    -0.550 OA
ATOM     16  O   UNL     1       5.599  -2.130  -5.566  1.00  0.00    -0.550 OA
ENDBRANCH  13  14
ENDBRANCH  12  13
ENDBRANCH  11  12
ENDBRANCH  10  11
ENDBRANCH   9  10
ENDBRANCH   8   9
ENDBRANCH   7   8
ENDBRANCH   6   7
ENDBRANCH   5   6
ENDBRANCH   4   5
ENDBRANCH   3   4
ENDBRANCH   2   3
ENDBRANCH   1   2
BRANCH   1  17
ATOM     17  C   UNL     1       5.531   8.692  -3.777  1.00  0.00     0.000 C 
BRANCH  17  18
ATOM     18  C   UNL     1       5.261  10.059  -3.115  1.00  0.00     0.000 C 
BRANCH  18  19
ATOM     19  C   UNL     1       5.183  10.041  -1.578  1.00  0.00     0.000 C 
BRANCH  19  20
ATOM     20  C   UNL     1       5.302   8.623  -0.989  1.00  0.00     0.000 C 
BRANCH  20  21
ATOM     21  C   UNL     1       4.885   8.568   0.490  1.00  0.00     0.000 C 
BRANCH  21  22
ATOM     22  C   UNL     1       6.079   8.711   1.452  1.00  0.00    -0.000 C 
BRANCH  22  23
ATOM     23  C   UNL     1       7.388   8.171   0.853  1.00  0.00    -0.000 C 
BRANCH  23  24
ATOM     24  C   UNL     1       8.638   8.740   1.546  1.00  0.00    -0.000 C 
BRANCH  24  25
ATOM     25  C   UNL     1       8.405   9.034   3.038  1.00  0.00    -0.000 C 
BRANCH  25  26
ATOM     26  C   UNL     1       9.446   8.359   3.948  1.00  0.00    -0.000 C 
BRANCH  26  27
ATOM     27  C   UNL     1       8.834   7.214   4.782  1.00  0.00    -0.000 C 
BRANCH  27  28
ATOM     28  C   UNL     1       7.312   7.080   4.612  1.00  0.00    -0.000 C 
BRANCH  28  29
ATOM     29  C   UNL     1       6.530   7.542   5.850  1.00  0.00    -0.003 C 
ATOM     30  C   UNL     1       7.441   8.264   6.838  1.00  0.00     0.004 C 
ENDBRANCH  28  29
ENDBRANCH  27  28
ENDBRANCH  26  27
ENDBRANCH  25  26
ENDBRANCH  24  25
ENDBRANCH  23  24
ENDBRANCH  22  23
ENDBRANCH  21  22
ENDBRANCH  20  21
ENDBRANCH  19  20
ENDBRANCH  18  19
ENDBRANCH  17  18
ENDBRANCH   1  17
TORSDOF 26
ENDMDL
MODEL 9
REMARK VINA RESULT:    -2.834      3.864      9.415
REMARK INTER + INTRA:         -11.664
REMARK INTER:                  -8.550
REMARK INTRA:                  -3.114
REMARK UNBOUND:                -4.522
REMARK SMILES CCCCCCCCCCCCCCCCCCCCCCCCCCCC(=O)[O-]
REMARK SMILES IDX 15 1 16 2 17 3 18 4 19 5 20 6 21 7 22 8 23 9 24 10 25 11
REMARK SMILES IDX 26 12 27 13 28 14 29 15 30 16 14 17 13 18 12 19 11 20 10 21
REMARK SMILES IDX 9 22 8 23 7 24 6 25 5 26 4 27 3 28 2 29 1 30
REMARK H PARENT
REMARK Flexibility Score: inf
ROOT
ATOM      1  C   UNL     1       4.512   0.579  -5.578  1.00  0.00     0.000 C 
ENDROOT
BRANCH   1   2
ATOM      2  C   UNL     1       5.425  -0.415  -6.325  1.00  0.00     0.000 C 
BRANCH   2   3
ATOM      3  C   UNL     1       6.934  -0.212  -6.069  1.00  0.00     0.000 C 
BRANCH   3   4
ATOM      4  C   UNL     1       7.645   0.534  -7.209  1.00  0.00     0.000 C 
BRANCH   4   5
ATOM      5  C   UNL     1       9.109   0.831  -6.843  1.00  0.00     0.000 C 
BRANCH   5   6
ATOM      6  C   UNL     1      10.045  -0.360  -7.141  1.00  0.00     0.000 C 
BRANCH   6   7
ATOM      7  C   UNL     1       9.651  -1.160  -8.396  1.00  0.00     0.000 C 
BRANCH   7   8
ATOM      8  C   UNL     1      10.100  -2.630  -8.333  1.00  0.00     0.000 C 
BRANCH   8   9
ATOM      9  C   UNL     1       8.921  -3.611  -8.443  1.00  0.00     0.000 C 
BRANCH   9  10
ATOM     10  C   UNL     1       7.587  -2.976  -8.020  1.00  0.00     0.000 C 
BRANCH  10  11
ATOM     11  C   UNL     1       6.425  -3.958  -8.213  1.00  0.00     0.000 C 
BRANCH  11  12
ATOM     12  C   UNL     1       5.701  -4.221  -6.886  1.00  0.00     0.006 C 
BRANCH  12  13
ATOM     13  C   UNL     1       6.597  -3.883  -5.690  1.00  0.00     0.053 C 
BRANCH  13  14
ATOM     14  C   UNL     1       7.130  -5.132  -5.057  1.00  0.00     0.041 C 
ATOM     15  O   UNL     1       7.177  -5.241  -3.803  1.00  0.00    -0.550 OA
ATOM     16  O   UNL     1       7.581  -6.177  -5.857  1.00  0.00    -0.550 OA
ENDBRANCH  13  14
ENDBRANCH  12  13
ENDBRANCH  11  12
ENDBRANCH  10  11
ENDBRANCH   9  10
ENDBRANCH   8   9
ENDBRANCH   7   8
ENDBRANCH   6   7
ENDBRANCH   5   6
ENDBRANCH   4   5
ENDBRANCH   3   4
ENDBRANCH   2   3
ENDBRANCH   1   2
BRANCH   1  17
ATOM     17  C   UNL     1       4.114   1.840  -6.369  1.00  0.00     0.000 C 
BRANCH  17  18
ATOM     18  C   UNL     1       4.155   1.698  -7.905  1.00  0.00     0.000 C 
BRANCH  18  19
ATOM     19  C   UNL     1       5.035   2.728  -8.636  1.00  0.00     0.000 C 
BRANCH  19  20
ATOM     20  C   UNL     1       5.541   3.848  -7.710  1.00  0.00     0.000 C 
BRANCH  20  21
ATOM     21  C   UNL     1       6.744   4.600  -8.306  1.00  0.00     0.000 C 
BRANCH  21  22
ATOM     22  C   UNL     1       6.447   6.089  -8.567  1.00  0.00    -0.000 C 
BRANCH  22  23
ATOM     23  C   UNL     1       5.089   6.308  -9.253  1.00  0.00    -0.000 C 
BRANCH  23  24
ATOM     24  C   UNL     1       4.688   7.792  -9.318  1.00  0.00    -0.000 C 
BRANCH  24  25
ATOM     25  C   UNL     1       5.676   8.705  -8.573  1.00  0.00    -0.000 C 
BRANCH  25  26
ATOM     26  C   UNL     1       4.976   9.841  -7.807  1.00  0.00    -0.000 C 
BRANCH  26  27
ATOM     27  C   UNL     1       4.112   9.310  -6.643  1.00  0.00    -0.000 C 
BRANCH  27  28
ATOM     28  C   UNL     1       4.803   8.213  -5.818  1.00  0.00    -0.000 C 
BRANCH  28  29
ATOM     29  C   UNL     1       4.398   8.235  -4.337  1.00  0.00    -0.003 C 
ATOM     30  C   UNL     1       5.562   8.677  -3.455  1.00  0.00     0.004 C 
ENDBRANCH  28  29
ENDBRANCH  27  28
ENDBRANCH  26  27
ENDBRANCH  25  26
ENDBRANCH  24  25
ENDBRANCH  23  24
ENDBRANCH  22  23
ENDBRANCH  21  22
ENDBRANCH  20  21
ENDBRANCH  19  20
ENDBRANCH  18  19
ENDBRANCH  17  18
ENDBRANCH   1  17
TORSDOF 26
ENDMDL
