MODEL 1
REMARK VINA RESULT:    -4.247      0.000      0.000
REMARK INTER + INTRA:          -8.722
REMARK INTER:                  -6.481
REMARK INTRA:                  -2.240
REMARK UNBOUND:                -2.240
REMARK SMILES CC(=O)CCC=C(C)CCC=C(C)CCC=C(C)C
REMARK SMILES IDX 10 1 11 2 12 3 13 4 14 5 15 6 16 7 18 8 17 9 19 10 9 11 7 12
REMARK SMILES IDX 6 13 8 14 5 15 4 16 2 17 3 18 1 19
REMARK H PARENT
REMARK Flexibility Score: inf
ROOT
ATOM      1  C   UNL     1     -13.724  27.779  16.807  1.00  0.00     0.032 C 
ENDROOT
BRANCH   1   2
ATOM      2  C   UNL     1     -13.716  29.094  17.551  1.00  0.00    -0.028 C 
ATOM      3  C   UNL     1     -13.681  29.221  18.898  1.00  0.00    -0.077 C 
ATOM      4  C   UNL     1     -13.732  28.025  19.818  1.00  0.00     0.039 C 
BRANCH   3   5
ATOM      5  C   UNL     1     -13.633  30.605  19.510  1.00  0.00     0.034 C 
BRANCH   5   6
ATOM      6  C   UNL     1     -14.887  31.422  19.166  1.00  0.00     0.032 C 
BRANCH   6   7
ATOM      7  C   UNL     1     -16.138  30.811  19.750  1.00  0.00    -0.028 C 
ATOM      8  C   UNL     1     -17.159  30.342  17.510  1.00  0.00     0.039 C 
ATOM      9  C   UNL     1     -17.152  30.295  19.020  1.00  0.00    -0.080 C 
ATOM     10  C   UNL     1     -18.316  29.673  19.749  1.00  0.00     0.039 C 
ENDBRANCH   6   7
ENDBRANCH   5   6
ENDBRANCH   3   5
ENDBRANCH   1   2
BRANCH   1  11
ATOM     11  C   UNL     1     -15.147  27.399  16.380  1.00  0.00     0.034 C 
BRANCH  11  12
ATOM     12  C   UNL     1     -15.658  26.195  17.144  1.00  0.00    -0.077 C 
ATOM     13  C   UNL     1     -15.078  24.990  16.934  1.00  0.00    -0.028 C 
ATOM     14  C   UNL     1     -16.805  26.374  18.109  1.00  0.00     0.039 C 
BRANCH  13  15
ATOM     15  C   UNL     1     -15.465  23.712  17.640  1.00  0.00     0.035 C 
BRANCH  15  16
ATOM     16  C   UNL     1     -14.755  23.581  18.992  1.00  0.00     0.079 C 
BRANCH  16  17
ATOM     17  C   UNL     1     -15.707  23.162  20.083  1.00  0.00     0.130 C 
ATOM     18  O   UNL     1     -15.290  23.013  21.223  1.00  0.00    -0.300 OA
ATOM     19  C   UNL     1     -17.159  22.927  19.799  1.00  0.00     0.087 C 
ENDBRANCH  16  17
ENDBRANCH  15  16
ENDBRANCH  13  15
ENDBRANCH  11  12
ENDBRANCH   1  11
TORSDOF 9
ENDMDL
MODEL 2
REMARK VINA RESULT:    -4.144      3.163      6.672
REMARK INTER + INTRA:          -8.564
REMARK INTER:                  -6.960
REMARK INTRA:                  -1.604
REMARK UNBOUND:                -2.240
REMARK SMILES CC(=O)CCC=C(C)CCC=C(C)CCC=C(C)C
REMARK SMILES IDX 10 1 11 2 12 3 13 4 14 5 15 6 16 7 18 8 17 9 19 10 9 11 7 12
REMARK SMILES IDX 6 13 8 14 5 15 4 16 2 17 3 18 1 19
REMARK H PARENT
REMARK Flexibility Score: inf
ROOT
ATOM      1  C   UNL     1     -15.709  26.326  18.772  1.00  0.00     0.032 C 
ENDROOT
BRANCH   1   2
ATOM      2  C   UNL     1     -15.053  26.253  17.412  1.00  0.00    -0.028 C 
ATOM      3  C   UNL     1     -14.758  25.108  16.756  1.00  0.00    -0.077 C 
ATOM      4  C   UNL     1     -14.985  23.749  17.372  1.00  0.00     0.039 C 
BRANCH   3   5
ATOM      5  C   UNL     1     -14.139  25.184  15.376  1.00  0.00     0.034 C 
BRANCH   5   6
ATOM      6  C   UNL     1     -13.093  26.304  15.284  1.00  0.00     0.032 C 
BRANCH   6   7
ATOM      7  C   UNL     1     -13.319  27.193  14.085  1.00  0.00    -0.028 C 
ATOM      8  C   UNL     1     -13.895  29.201  15.467  1.00  0.00     0.039 C 
ATOM      9  C   UNL     1     -13.649  28.502  14.151  1.00  0.00    -0.080 C 
ATOM     10  C   UNL     1     -13.792  29.272  12.863  1.00  0.00     0.039 C 
ENDBRANCH   6   7
ENDBRANCH   5   6
ENDBRANCH   3   5
ENDBRANCH   1   2
BRANCH   1  11
ATOM     11  C   UNL     1     -14.742  26.895  19.817  1.00  0.00     0.034 C 
BRANCH  11  12
ATOM     12  C   UNL     1     -14.418  28.350  19.547  1.00  0.00    -0.077 C 
ATOM     13  C   UNL     1     -15.396  29.276  19.684  1.00  0.00    -0.028 C 
ATOM     14  C   UNL     1     -13.018  28.721  19.121  1.00  0.00     0.039 C 
BRANCH  13  15
ATOM     15  C   UNL     1     -15.213  30.760  19.471  1.00  0.00     0.035 C 
BRANCH  15  16
ATOM     16  C   UNL     1     -15.766  31.205  18.113  1.00  0.00     0.079 C 
BRANCH  16  17
ATOM     17  C   UNL     1     -16.243  32.634  18.146  1.00  0.00     0.130 C 
ATOM     18  O   UNL     1     -16.474  33.217  17.096  1.00  0.00    -0.300 OA
ATOM     19  C   UNL     1     -16.444  33.356  19.444  1.00  0.00     0.087 C 
ENDBRANCH  16  17
ENDBRANCH  15  16
ENDBRANCH  13  15
ENDBRANCH  11  12
ENDBRANCH   1  11
TORSDOF 9
ENDMDL
MODEL 3
REMARK VINA RESULT:    -4.131      1.403      2.128
REMARK INTER + INTRA:          -8.544
REMARK INTER:                  -7.002
REMARK INTRA:                  -1.542
REMARK UNBOUND:                -2.240
REMARK SMILES CC(=O)CCC=C(C)CCC=C(C)CCC=C(C)C
REMARK SMILES IDX 10 1 11 2 12 3 13 4 14 5 15 6 16 7 18 8 17 9 19 10 9 11 7 12
REMARK SMILES IDX 6 13 8 14 5 15 4 16 2 17 3 18 1 19
REMARK H PARENT
REMARK Flexibility Score: inf
ROOT
ATOM      1  C   UNL     1     -14.852  26.870  16.121  1.00  0.00     0.032 C 
ENDROOT
BRANCH   1   2
ATOM      2  C   UNL     1     -14.005  27.678  17.076  1.00  0.00    -0.028 C 
ATOM      3  C   UNL     1     -14.277  27.858  18.389  1.00  0.00    -0.077 C 
ATOM      4  C   UNL     1     -15.534  27.323  19.029  1.00  0.00     0.039 C 
BRANCH   3   5
ATOM      5  C   UNL     1     -13.314  28.659  19.241  1.00  0.00     0.034 C 
BRANCH   5   6
ATOM      6  C   UNL     1     -13.123  30.082  18.697  1.00  0.00     0.032 C 
BRANCH   6   7
ATOM      7  C   UNL     1     -14.015  31.081  19.395  1.00  0.00    -0.028 C 
ATOM      8  C   UNL     1     -15.782  31.000  17.622  1.00  0.00     0.039 C 
ATOM      9  C   UNL     1     -15.224  31.479  18.941  1.00  0.00    -0.080 C 
ATOM     10  C   UNL     1     -16.021  32.447  19.778  1.00  0.00     0.039 C 
ENDBRANCH   6   7
ENDBRANCH   5   6
ENDBRANCH   3   5
ENDBRANCH   1   2
BRANCH   1  11
ATOM     11  C   UNL     1     -14.146  25.565  15.731  1.00  0.00     0.034 C 
BRANCH  11  12
ATOM     12  C   UNL     1     -14.912  24.349  16.211  1.00  0.00    -0.077 C 
ATOM     13  C   UNL     1     -15.017  24.123  17.541  1.00  0.00    -0.028 C 
ATOM     14  C   UNL     1     -15.527  23.423  15.190  1.00  0.00     0.039 C 
BRANCH  13  15
ATOM     15  C   UNL     1     -15.768  22.969  18.162  1.00  0.00     0.035 C 
BRANCH  15  16
ATOM     16  C   UNL     1     -16.637  23.432  19.336  1.00  0.00     0.079 C 
BRANCH  16  17
ATOM     17  C   UNL     1     -15.938  23.241  20.657  1.00  0.00     0.130 C 
ATOM     18  O   UNL     1     -14.987  23.953  20.945  1.00  0.00    -0.300 OA
ATOM     19  C   UNL     1     -16.388  22.193  21.630  1.00  0.00     0.087 C 
ENDBRANCH  16  17
ENDBRANCH  15  16
ENDBRANCH  13  15
ENDBRANCH  11  12
ENDBRANCH   1  11
TORSDOF 9
ENDMDL
MODEL 4
REMARK VINA RESULT:    -4.088      1.556      2.299
REMARK INTER + INTRA:          -8.478
REMARK INTER:                  -6.852
REMARK INTRA:                  -1.626
REMARK UNBOUND:                -2.240
REMARK SMILES CC(=O)CCC=C(C)CCC=C(C)CCC=C(C)C
REMARK SMILES IDX 10 1 11 2 12 3 13 4 14 5 15 6 16 7 18 8 17 9 19 10 9 11 7 12
REMARK SMILES IDX 6 13 8 14 5 15 4 16 2 17 3 18 1 19
REMARK H PARENT
REMARK Flexibility Score: inf
ROOT
ATOM      1  C   UNL     1     -14.604  28.146  15.650  1.00  0.00     0.032 C 
ENDROOT
BRANCH   1   2
ATOM      2  C   UNL     1     -13.875  29.120  16.546  1.00  0.00    -0.028 C 
ATOM      3  C   UNL     1     -13.668  28.946  17.872  1.00  0.00    -0.077 C 
ATOM      4  C   UNL     1     -14.235  27.767  18.624  1.00  0.00     0.039 C 
BRANCH   3   5
ATOM      5  C   UNL     1     -12.881  29.986  18.640  1.00  0.00     0.034 C 
BRANCH   5   6
ATOM      6  C   UNL     1     -13.738  30.666  19.718  1.00  0.00     0.032 C 
BRANCH   6   7
ATOM      7  C   UNL     1     -14.913  31.406  19.124  1.00  0.00    -0.028 C 
ATOM      8  C   UNL     1     -16.615  30.011  20.319  1.00  0.00     0.039 C 
ATOM      9  C   UNL     1     -16.208  31.144  19.408  1.00  0.00    -0.080 C 
ATOM     10  C   UNL     1     -17.270  32.005  18.772  1.00  0.00     0.039 C 
ENDBRANCH   6   7
ENDBRANCH   5   6
ENDBRANCH   3   5
ENDBRANCH   1   2
BRANCH   1  11
ATOM     11  C   UNL     1     -13.614  27.264  14.879  1.00  0.00     0.034 C 
BRANCH  11  12
ATOM     12  C   UNL     1     -14.035  25.809  14.891  1.00  0.00    -0.077 C 
ATOM     13  C   UNL     1     -14.468  25.261  16.050  1.00  0.00    -0.028 C 
ATOM     14  C   UNL     1     -13.948  25.011  13.612  1.00  0.00     0.039 C 
BRANCH  13  15
ATOM     15  C   UNL     1     -14.940  23.835  16.206  1.00  0.00     0.035 C 
BRANCH  15  16
ATOM     16  C   UNL     1     -16.097  23.733  17.205  1.00  0.00     0.079 C 
BRANCH  16  17
ATOM     17  C   UNL     1     -15.658  24.080  18.604  1.00  0.00     0.130 C 
ATOM     18  O   UNL     1     -16.244  24.958  19.220  1.00  0.00    -0.300 OA
ATOM     19  C   UNL     1     -14.515  23.365  19.260  1.00  0.00     0.087 C 
ENDBRANCH  16  17
ENDBRANCH  15  16
ENDBRANCH  13  15
ENDBRANCH  11  12
ENDBRANCH   1  11
TORSDOF 9
ENDMDL
MODEL 5
REMARK VINA RESULT:    -4.081      2.731      5.750
REMARK INTER + INTRA:          -8.468
REMARK INTER:                  -6.332
REMARK INTRA:                  -2.136
REMARK UNBOUND:                -2.240
REMARK SMILES CC(=O)CCC=C(C)CCC=C(C)CCC=C(C)C
REMARK SMILES IDX 10 1 11 2 12 3 13 4 14 5 15 6 16 7 18 8 17 9 19 10 9 11 7 12
REMARK SMILES IDX 6 13 8 14 5 15 4 16 2 17 3 18 1 19
REMARK H PARENT
REMARK Flexibility Score: inf
ROOT
ATOM      1  C   UNL     1     -13.768  28.927  16.170  1.00  0.00     0.032 C 
ENDROOT
BRANCH   1   2
ATOM      2  C   UNL     1     -13.720  28.235  17.512  1.00  0.00    -0.028 C 
ATOM      3  C   UNL     1     -13.413  28.838  18.684  1.00  0.00    -0.077 C 
ATOM      4  C   UNL     1     -12.994  30.286  18.755  1.00  0.00     0.039 C 
BRANCH   3   5
ATOM      5  C   UNL     1     -13.446  28.029  19.963  1.00  0.00     0.034 C 
BRANCH   5   6
ATOM      6  C   UNL     1     -14.807  27.349  20.171  1.00  0.00     0.032 C 
BRANCH   6   7
ATOM      7  C   UNL     1     -14.723  25.851  20.001  1.00  0.00    -0.028 C 
ATOM      8  C   UNL     1     -16.442  25.789  18.180  1.00  0.00     0.039 C 
ATOM      9  C   UNL     1     -15.428  25.141  19.092  1.00  0.00    -0.080 C 
ATOM     10  C   UNL     1     -15.197  23.654  19.009  1.00  0.00     0.039 C 
ENDBRANCH   6   7
ENDBRANCH   5   6
ENDBRANCH   3   5
ENDBRANCH   1   2
BRANCH   1  11
ATOM     11  C   UNL     1     -15.198  28.951  15.616  1.00  0.00     0.034 C 
BRANCH  11  12
ATOM     12  C   UNL     1     -16.084  29.902  16.395  1.00  0.00    -0.077 C 
ATOM     13  C   UNL     1     -16.758  29.435  17.472  1.00  0.00    -0.028 C 
ATOM     14  C   UNL     1     -16.196  31.337  15.940  1.00  0.00     0.039 C 
BRANCH  13  15
ATOM     15  C   UNL     1     -17.656  30.270  18.354  1.00  0.00     0.035 C 
BRANCH  15  16
ATOM     16  C   UNL     1     -16.906  30.788  19.587  1.00  0.00     0.079 C 
BRANCH  16  17
ATOM     17  C   UNL     1     -16.591  32.257  19.471  1.00  0.00     0.130 C 
ATOM     18  O   UNL     1     -17.444  33.026  19.053  1.00  0.00    -0.300 OA
ATOM     19  C   UNL     1     -15.248  32.796  19.862  1.00  0.00     0.087 C 
ENDBRANCH  16  17
ENDBRANCH  15  16
ENDBRANCH  13  15
ENDBRANCH  11  12
ENDBRANCH   1  11
TORSDOF 9
ENDMDL
MODEL 6
REMARK VINA RESULT:    -4.077      3.014      6.440
REMARK INTER + INTRA:          -8.462
REMARK INTER:                  -6.197
REMARK INTRA:                  -2.265
REMARK UNBOUND:                -2.240
REMARK SMILES CC(=O)CCC=C(C)CCC=C(C)CCC=C(C)C
REMARK SMILES IDX 10 1 11 2 12 3 13 4 14 5 15 6 16 7 18 8 17 9 19 10 9 11 7 12
REMARK SMILES IDX 6 13 8 14 5 15 4 16 2 17 3 18 1 19
REMARK H PARENT
REMARK Flexibility Score: inf
ROOT
ATOM      1  C   UNL     1     -14.459  27.760  20.206  1.00  0.00     0.032 C 
ENDROOT
BRANCH   1   2
ATOM      2  C   UNL     1     -14.620  26.303  19.838  1.00  0.00    -0.028 C 
ATOM      3  C   UNL     1     -15.634  25.799  19.097  1.00  0.00    -0.077 C 
ATOM      4  C   UNL     1     -16.782  26.655  18.621  1.00  0.00     0.039 C 
BRANCH   3   5
ATOM      5  C   UNL     1     -15.645  24.322  18.767  1.00  0.00     0.034 C 
BRANCH   5   6
ATOM      6  C   UNL     1     -14.691  23.989  17.611  1.00  0.00     0.032 C 
BRANCH   6   7
ATOM      7  C   UNL     1     -15.262  24.388  16.272  1.00  0.00    -0.028 C 
ATOM      8  C   UNL     1     -13.108  25.371  15.454  1.00  0.00     0.039 C 
ATOM      9  C   UNL     1     -14.557  24.981  15.283  1.00  0.00    -0.080 C 
ATOM     10  C   UNL     1     -15.256  25.274  13.980  1.00  0.00     0.039 C 
ENDBRANCH   6   7
ENDBRANCH   5   6
ENDBRANCH   3   5
ENDBRANCH   1   2
BRANCH   1  11
ATOM     11  C   UNL     1     -13.462  28.455  19.271  1.00  0.00     0.034 C 
BRANCH  11  12
ATOM     12  C   UNL     1     -14.156  29.086  18.082  1.00  0.00    -0.077 C 
ATOM     13  C   UNL     1     -14.072  28.479  16.875  1.00  0.00    -0.028 C 
ATOM     14  C   UNL     1     -14.911  30.379  18.277  1.00  0.00     0.039 C 
BRANCH  13  15
ATOM     15  C   UNL     1     -14.731  28.979  15.611  1.00  0.00     0.035 C 
BRANCH  15  16
ATOM     16  C   UNL     1     -13.696  29.490  14.603  1.00  0.00     0.079 C 
BRANCH  16  17
ATOM     17  C   UNL     1     -13.800  28.770  13.283  1.00  0.00     0.130 C 
ATOM     18  O   UNL     1     -12.986  27.903  13.004  1.00  0.00    -0.300 OA
ATOM     19  C   UNL     1     -14.888  29.095  12.305  1.00  0.00     0.087 C 
ENDBRANCH  16  17
ENDBRANCH  15  16
ENDBRANCH  13  15
ENDBRANCH  11  12
ENDBRANCH   1  11
TORSDOF 9
ENDMDL
MODEL 7
REMARK VINA RESULT:    -4.071      2.693      5.761
REMARK INTER + INTRA:          -8.454
REMARK INTER:                  -6.567
REMARK INTRA:                  -1.886
REMARK UNBOUND:                -2.240
REMARK SMILES CC(=O)CCC=C(C)CCC=C(C)CCC=C(C)C
REMARK SMILES IDX 10 1 11 2 12 3 13 4 14 5 15 6 16 7 18 8 17 9 19 10 9 11 7 12
REMARK SMILES IDX 6 13 8 14 5 15 4 16 2 17 3 18 1 19
REMARK H PARENT
REMARK Flexibility Score: inf
ROOT
ATOM      1  C   UNL     1     -15.570  23.499  17.487  1.00  0.00     0.032 C 
ENDROOT
BRANCH   1   2
ATOM      2  C   UNL     1     -14.596  24.179  16.553  1.00  0.00    -0.028 C 
ATOM      3  C   UNL     1     -14.904  24.655  15.325  1.00  0.00    -0.077 C 
ATOM      4  C   UNL     1     -16.273  24.474  14.715  1.00  0.00     0.039 C 
BRANCH   3   5
ATOM      5  C   UNL     1     -13.835  25.355  14.513  1.00  0.00     0.034 C 
BRANCH   5   6
ATOM      6  C   UNL     1     -13.030  26.345  15.367  1.00  0.00     0.032 C 
BRANCH   6   7
ATOM      7  C   UNL     1     -13.843  27.561  15.743  1.00  0.00    -0.028 C 
ATOM      8  C   UNL     1     -13.476  28.699  13.542  1.00  0.00     0.039 C 
ATOM      9  C   UNL     1     -14.077  28.610  14.924  1.00  0.00    -0.080 C 
ATOM     10  C   UNL     1     -14.953  29.730  15.427  1.00  0.00     0.039 C 
ENDBRANCH   6   7
ENDBRANCH   5   6
ENDBRANCH   3   5
ENDBRANCH   1   2
BRANCH   1  11
ATOM     11  C   UNL     1     -16.452  24.529  18.204  1.00  0.00     0.034 C 
BRANCH  11  12
ATOM     12  C   UNL     1     -15.632  25.458  19.076  1.00  0.00    -0.077 C 
ATOM     13  C   UNL     1     -15.620  26.781  18.793  1.00  0.00    -0.028 C 
ATOM     14  C   UNL     1     -14.844  24.877  20.225  1.00  0.00     0.039 C 
BRANCH  13  15
ATOM     15  C   UNL     1     -14.870  27.825  19.587  1.00  0.00     0.035 C 
BRANCH  15  16
ATOM     16  C   UNL     1     -15.486  29.216  19.408  1.00  0.00     0.079 C 
BRANCH  16  17
ATOM     17  C   UNL     1     -14.434  30.262  19.142  1.00  0.00     0.130 C 
ATOM     18  O   UNL     1     -14.706  31.444  19.297  1.00  0.00    -0.300 OA
ATOM     19  C   UNL     1     -13.056  29.881  18.693  1.00  0.00     0.087 C 
ENDBRANCH  16  17
ENDBRANCH  15  16
ENDBRANCH  13  15
ENDBRANCH  11  12
ENDBRANCH   1  11
TORSDOF 9
ENDMDL
MODEL 8
REMARK VINA RESULT:    -4.046      2.039      6.349
REMARK INTER + INTRA:          -8.414
REMARK INTER:                  -7.001
REMARK INTRA:                  -1.414
REMARK UNBOUND:                -2.240
REMARK SMILES CC(=O)CCC=C(C)CCC=C(C)CCC=C(C)C
REMARK SMILES IDX 10 1 11 2 12 3 13 4 14 5 15 6 16 7 18 8 17 9 19 10 9 11 7 12
REMARK SMILES IDX 6 13 8 14 5 15 4 16 2 17 3 18 1 19
REMARK H PARENT
REMARK Flexibility Score: inf
ROOT
ATOM      1  C   UNL     1     -15.246  24.667  16.487  1.00  0.00     0.032 C 
ENDROOT
BRANCH   1   2
ATOM      2  C   UNL     1     -14.903  23.803  17.678  1.00  0.00    -0.028 C 
ATOM      3  C   UNL     1     -15.149  24.131  18.968  1.00  0.00    -0.077 C 
ATOM      4  C   UNL     1     -15.730  25.468  19.359  1.00  0.00     0.039 C 
BRANCH   3   5
ATOM      5  C   UNL     1     -14.790  23.148  20.062  1.00  0.00     0.034 C 
BRANCH   5   6
ATOM      6  C   UNL     1     -15.619  21.859  19.962  1.00  0.00     0.032 C 
BRANCH   6   7
ATOM      7  C   UNL     1     -17.073  22.093  20.294  1.00  0.00    -0.028 C 
ATOM      8  C   UNL     1     -16.792  21.506  22.713  1.00  0.00     0.039 C 
ATOM      9  C   UNL     1     -17.608  21.969  21.529  1.00  0.00    -0.080 C 
ATOM     10  C   UNL     1     -19.070  22.286  21.712  1.00  0.00     0.039 C 
ENDBRANCH   6   7
ENDBRANCH   5   6
ENDBRANCH   3   5
ENDBRANCH   1   2
BRANCH   1  11
ATOM     11  C   UNL     1     -13.976  25.119  15.754  1.00  0.00     0.034 C 
BRANCH  11  12
ATOM     12  C   UNL     1     -13.861  26.629  15.714  1.00  0.00    -0.077 C 
ATOM     13  C   UNL     1     -14.224  27.343  16.804  1.00  0.00    -0.028 C 
ATOM     14  C   UNL     1     -13.356  27.291  14.454  1.00  0.00     0.039 C 
BRANCH  13  15
ATOM     15  C   UNL     1     -14.141  28.847  16.916  1.00  0.00     0.035 C 
BRANCH  15  16
ATOM     16  C   UNL     1     -13.312  29.275  18.132  1.00  0.00     0.079 C 
BRANCH  16  17
ATOM     17  C   UNL     1     -13.939  28.818  19.424  1.00  0.00     0.130 C 
ATOM     18  O   UNL     1     -13.322  28.063  20.161  1.00  0.00    -0.300 OA
ATOM     19  C   UNL     1     -15.309  29.275  19.826  1.00  0.00     0.087 C 
ENDBRANCH  16  17
ENDBRANCH  15  16
ENDBRANCH  13  15
ENDBRANCH  11  12
ENDBRANCH   1  11
TORSDOF 9
ENDMDL
MODEL 9
REMARK VINA RESULT:    -3.996      2.254      3.588
REMARK INTER + INTRA:          -8.338
REMARK INTER:                  -5.894
REMARK INTRA:                  -2.444
REMARK UNBOUND:                -2.240
REMARK SMILES CC(=O)CCC=C(C)CCC=C(C)CCC=C(C)C
REMARK SMILES IDX 10 1 11 2 12 3 13 4 14 5 15 6 16 7 18 8 17 9 19 10 9 11 7 12
REMARK SMILES IDX 6 13 8 14 5 15 4 16 2 17 3 18 1 19
REMARK H PARENT
REMARK Flexibility Score: inf
ROOT
ATOM      1  C   UNL     1     -13.809  29.568  19.860  1.00  0.00     0.032 C 
ENDROOT
BRANCH   1   2
ATOM      2  C   UNL     1     -14.490  30.818  19.353  1.00  0.00    -0.028 C 
ATOM      3  C   UNL     1     -15.798  31.115  19.535  1.00  0.00    -0.077 C 
ATOM      4  C   UNL     1     -16.751  30.159  20.211  1.00  0.00     0.039 C 
BRANCH   3   5
ATOM      5  C   UNL     1     -16.338  32.427  19.008  1.00  0.00     0.034 C 
BRANCH   5   6
ATOM      6  C   UNL     1     -17.250  32.219  17.791  1.00  0.00     0.032 C 
BRANCH   6   7
ATOM      7  C   UNL     1     -16.465  31.872  16.548  1.00  0.00    -0.028 C 
ATOM      8  C   UNL     1     -17.225  29.485  16.528  1.00  0.00     0.039 C 
ATOM      9  C   UNL     1     -16.468  30.658  15.953  1.00  0.00    -0.080 C 
ATOM     10  C   UNL     1     -15.671  30.480  14.686  1.00  0.00     0.039 C 
ENDBRANCH   6   7
ENDBRANCH   5   6
ENDBRANCH   3   5
ENDBRANCH   1   2
BRANCH   1  11
ATOM     11  C   UNL     1     -13.050  28.860  18.730  1.00  0.00     0.034 C 
BRANCH  11  12
ATOM     12  C   UNL     1     -13.963  27.963  17.919  1.00  0.00    -0.077 C 
ATOM     13  C   UNL     1     -13.771  27.868  16.583  1.00  0.00    -0.028 C 
ATOM     14  C   UNL     1     -15.066  27.212  18.625  1.00  0.00     0.039 C 
BRANCH  13  15
ATOM     15  C   UNL     1     -14.586  26.998  15.655  1.00  0.00     0.035 C 
BRANCH  15  16
ATOM     16  C   UNL     1     -13.894  25.656  15.393  1.00  0.00     0.079 C 
BRANCH  16  17
ATOM     17  C   UNL     1     -14.653  24.508  16.008  1.00  0.00     0.130 C 
ATOM     18  O   UNL     1     -14.219  23.969  17.015  1.00  0.00    -0.300 OA
ATOM     19  C   UNL     1     -15.935  24.015  15.408  1.00  0.00     0.087 C 
ENDBRANCH  16  17
ENDBRANCH  15  16
ENDBRANCH  13  15
ENDBRANCH  11  12
ENDBRANCH   1  11
TORSDOF 9
ENDMDL
