MODEL 1
REMARK VINA RESULT:    -5.073      0.000      0.000
REMARK INTER + INTRA:          -8.249
REMARK INTER:                  -6.853
REMARK INTRA:                  -1.396
REMARK UNBOUND:                -1.396
REMARK SMILES CC(=O)CCC=C(C)CCC=C(C)C
REMARK SMILES IDX 7 1 6 2 8 3 9 4 10 5 11 6 13 7 12 8 14 9 5 10 4 11 2 12 3 13
REMARK SMILES IDX 1 14
REMARK H PARENT
REMARK Flexibility Score: inf
ROOT
ATOM      1  C   UNL     1      17.006 -11.416  66.832  1.00  0.00    -0.077 C 
ATOM      2  C   UNL     1      16.543 -11.811  65.623  1.00  0.00    -0.028 C 
ATOM      3  C   UNL     1      17.318 -12.475  67.857  1.00  0.00     0.039 C 
ENDROOT
BRANCH   1   4
ATOM      4  C   UNL     1      17.292  -9.967  67.174  1.00  0.00     0.034 C 
BRANCH   4   5
ATOM      5  C   UNL     1      18.801  -9.729  67.290  1.00  0.00     0.032 C 
BRANCH   5   6
ATOM      6  C   UNL     1      19.406  -9.468  65.933  1.00  0.00    -0.028 C 
ATOM      7  C   UNL     1      20.513 -11.711  65.816  1.00  0.00     0.039 C 
ATOM      8  C   UNL     1      20.197 -10.339  65.269  1.00  0.00    -0.080 C 
ATOM      9  C   UNL     1      20.763  -9.923  63.936  1.00  0.00     0.039 C 
ENDBRANCH   5   6
ENDBRANCH   4   5
ENDBRANCH   1   4
BRANCH   2  10
ATOM     10  C   UNL     1      16.161 -10.881  64.496  1.00  0.00     0.035 C 
BRANCH  10  11
ATOM     11  C   UNL     1      17.093 -11.041  63.288  1.00  0.00     0.079 C 
BRANCH  11  12
ATOM     12  C   UNL     1      16.450 -11.859  62.197  1.00  0.00     0.130 C 
ATOM     13  O   UNL     1      17.030 -12.840  61.757  1.00  0.00    -0.300 OA
ATOM     14  C   UNL     1      15.108 -11.491  61.636  1.00  0.00     0.087 C 
ENDBRANCH  11  12
ENDBRANCH  10  11
ENDBRANCH   2  10
TORSDOF 6
ENDMDL
MODEL 2
REMARK VINA RESULT:    -4.994      2.855      5.636
REMARK INTER + INTRA:          -8.141
REMARK INTER:                  -7.139
REMARK INTRA:                  -1.003
REMARK UNBOUND:                -1.396
REMARK SMILES CC(=O)CCC=C(C)CCC=C(C)C
REMARK SMILES IDX 7 1 6 2 8 3 9 4 10 5 11 6 13 7 12 8 14 9 5 10 4 11 2 12 3 13
REMARK SMILES IDX 1 14
REMARK H PARENT
REMARK Flexibility Score: inf
ROOT
ATOM      1  C   UNL     1      19.573 -10.059  64.659  1.00  0.00    -0.077 C 
ATOM      2  C   UNL     1      19.598 -10.849  65.756  1.00  0.00    -0.028 C 
ATOM      3  C   UNL     1      20.802 -10.008  63.788  1.00  0.00     0.039 C 
ENDROOT
BRANCH   1   4
ATOM      4  C   UNL     1      18.344  -9.284  64.227  1.00  0.00     0.034 C 
BRANCH   4   5
ATOM      5  C   UNL     1      17.494 -10.116  63.261  1.00  0.00     0.032 C 
BRANCH   5   6
ATOM      6  C   UNL     1      16.126 -10.373  63.841  1.00  0.00    -0.028 C 
ATOM      7  C   UNL     1      16.557 -12.814  64.196  1.00  0.00     0.039 C 
ATOM      8  C   UNL     1      15.681 -11.585  64.243  1.00  0.00    -0.080 C 
ATOM      9  C   UNL     1      14.272 -11.696  64.766  1.00  0.00     0.039 C 
ENDBRANCH   5   6
ENDBRANCH   4   5
ENDBRANCH   1   4
BRANCH   2  10
ATOM     10  C   UNL     1      18.465 -10.996  66.744  1.00  0.00     0.035 C 
BRANCH  10  11
ATOM     11  C   UNL     1      18.514  -9.910  67.827  1.00  0.00     0.079 C 
BRANCH  11  12
ATOM     12  C   UNL     1      19.259 -10.381  69.051  1.00  0.00     0.130 C 
ATOM     13  O   UNL     1      19.403  -9.623  69.998  1.00  0.00    -0.300 OA
ATOM     14  C   UNL     1      19.831 -11.766  69.129  1.00  0.00     0.087 C 
ENDBRANCH  11  12
ENDBRANCH  10  11
ENDBRANCH   2  10
TORSDOF 6
ENDMDL
MODEL 3
REMARK VINA RESULT:    -4.978      3.004      5.989
REMARK INTER + INTRA:          -8.120
REMARK INTER:                  -7.219
REMARK INTRA:                  -0.901
REMARK UNBOUND:                -1.396
REMARK SMILES CC(=O)CCC=C(C)CCC=C(C)C
REMARK SMILES IDX 7 1 6 2 8 3 9 4 10 5 11 6 13 7 12 8 14 9 5 10 4 11 2 12 3 13
REMARK SMILES IDX 1 14
REMARK H PARENT
REMARK Flexibility Score: inf
ROOT
ATOM      1  C   UNL     1      18.179 -10.189  64.539  1.00  0.00    -0.077 C 
ATOM      2  C   UNL     1      19.248  -9.637  65.158  1.00  0.00    -0.028 C 
ATOM      3  C   UNL     1      17.744  -9.614  63.216  1.00  0.00     0.039 C 
ENDROOT
BRANCH   1   4
ATOM      4  C   UNL     1      17.447 -11.402  65.079  1.00  0.00     0.034 C 
BRANCH   4   5
ATOM      5  C   UNL     1      16.128 -10.986  65.737  1.00  0.00     0.032 C 
BRANCH   5   6
ATOM      6  C   UNL     1      14.999 -11.874  65.278  1.00  0.00    -0.028 C 
ATOM      7  C   UNL     1      14.149 -10.208  63.613  1.00  0.00     0.039 C 
ATOM      8  C   UNL     1      14.087 -11.529  64.342  1.00  0.00    -0.080 C 
ATOM      9  C   UNL     1      12.989 -12.507  64.014  1.00  0.00     0.039 C 
ENDBRANCH   5   6
ENDBRANCH   4   5
ENDBRANCH   1   4
BRANCH   2  10
ATOM     10  C   UNL     1      19.797 -10.077  66.494  1.00  0.00     0.035 C 
BRANCH  10  11
ATOM     11  C   UNL     1      19.075  -9.385  67.659  1.00  0.00     0.079 C 
BRANCH  11  12
ATOM     12  C   UNL     1      19.229 -10.159  68.943  1.00  0.00     0.130 C 
ATOM     13  O   UNL     1      19.388  -9.557  69.994  1.00  0.00    -0.300 OA
ATOM     14  C   UNL     1      19.192 -11.659  68.958  1.00  0.00     0.087 C 
ENDBRANCH  11  12
ENDBRANCH  10  11
ENDBRANCH   2  10
TORSDOF 6
ENDMDL
MODEL 4
REMARK VINA RESULT:    -4.953      3.037      5.668
REMARK INTER + INTRA:          -8.087
REMARK INTER:                  -7.229
REMARK INTRA:                  -0.858
REMARK UNBOUND:                -1.396
REMARK SMILES CC(=O)CCC=C(C)CCC=C(C)C
REMARK SMILES IDX 7 1 6 2 8 3 9 4 10 5 11 6 13 7 12 8 14 9 5 10 4 11 2 12 3 13
REMARK SMILES IDX 1 14
REMARK H PARENT
REMARK Flexibility Score: inf
ROOT
ATOM      1  C   UNL     1      17.446 -11.308  65.291  1.00  0.00    -0.077 C 
ATOM      2  C   UNL     1      17.265 -11.169  66.625  1.00  0.00    -0.028 C 
ATOM      3  C   UNL     1      17.252 -12.674  64.684  1.00  0.00     0.039 C 
ENDROOT
BRANCH   1   4
ATOM      4  C   UNL     1      17.761 -10.144  64.374  1.00  0.00     0.034 C 
BRANCH   4   5
ATOM      5  C   UNL     1      16.490  -9.351  64.054  1.00  0.00     0.032 C 
BRANCH   5   6
ATOM      6  C   UNL     1      15.851  -9.856  62.784  1.00  0.00    -0.028 C 
ATOM      7  C   UNL     1      13.953 -10.962  63.987  1.00  0.00     0.039 C 
ATOM      8  C   UNL     1      14.725 -10.602  62.740  1.00  0.00    -0.080 C 
ATOM      9  C   UNL     1      14.225 -11.069  61.397  1.00  0.00     0.039 C 
ENDBRANCH   5   6
ENDBRANCH   4   5
ENDBRANCH   1   4
BRANCH   2  10
ATOM     10  C   UNL     1      17.443  -9.880  67.392  1.00  0.00     0.035 C 
BRANCH  10  11
ATOM     11  C   UNL     1      18.920  -9.607  67.707  1.00  0.00     0.079 C 
BRANCH  11  12
ATOM     12  C   UNL     1      19.337 -10.247  69.007  1.00  0.00     0.130 C 
ATOM     13  O   UNL     1      19.319  -9.589  70.036  1.00  0.00    -0.300 OA
ATOM     14  C   UNL     1      19.777 -11.681  69.063  1.00  0.00     0.087 C 
ENDBRANCH  11  12
ENDBRANCH  10  11
ENDBRANCH   2  10
TORSDOF 6
ENDMDL
MODEL 5
REMARK VINA RESULT:    -4.885      3.029      5.388
REMARK INTER + INTRA:          -7.995
REMARK INTER:                  -6.724
REMARK INTRA:                  -1.271
REMARK UNBOUND:                -1.396
REMARK SMILES CC(=O)CCC=C(C)CCC=C(C)C
REMARK SMILES IDX 7 1 6 2 8 3 9 4 10 5 11 6 13 7 12 8 14 9 5 10 4 11 2 12 3 13
REMARK SMILES IDX 1 14
REMARK H PARENT
REMARK Flexibility Score: inf
ROOT
ATOM      1  C   UNL     1      21.722 -11.232  66.111  1.00  0.00    -0.077 C 
ATOM      2  C   UNL     1      21.184 -12.204  66.882  1.00  0.00    -0.028 C 
ATOM      3  C   UNL     1      23.138 -11.408  65.626  1.00  0.00     0.039 C 
ENDROOT
BRANCH   1   4
ATOM      4  C   UNL     1      20.945 -10.014  65.654  1.00  0.00     0.034 C 
BRANCH   4   5
ATOM      5  C   UNL     1      20.317 -10.260  64.279  1.00  0.00     0.032 C 
BRANCH   5   6
ATOM      6  C   UNL     1      18.955  -9.617  64.191  1.00  0.00    -0.028 C 
ATOM      7  C   UNL     1      17.736 -11.797  64.376  1.00  0.00     0.039 C 
ATOM      8  C   UNL     1      17.787 -10.297  64.209  1.00  0.00    -0.080 C 
ATOM      9  C   UNL     1      16.502  -9.521  64.072  1.00  0.00     0.039 C 
ENDBRANCH   5   6
ENDBRANCH   4   5
ENDBRANCH   1   4
BRANCH   2  10
ATOM     10  C   UNL     1      19.792 -12.173  67.468  1.00  0.00     0.035 C 
BRANCH  10  11
ATOM     11  C   UNL     1      19.796 -11.641  68.908  1.00  0.00     0.079 C 
BRANCH  11  12
ATOM     12  C   UNL     1      19.153 -10.280  68.996  1.00  0.00     0.130 C 
ATOM     13  O   UNL     1      19.368  -9.574  69.970  1.00  0.00    -0.300 OA
ATOM     14  C   UNL     1      18.251  -9.772  67.910  1.00  0.00     0.087 C 
ENDBRANCH  11  12
ENDBRANCH  10  11
ENDBRANCH   2  10
TORSDOF 6
ENDMDL
MODEL 6
REMARK VINA RESULT:    -4.858      3.405      5.883
REMARK INTER + INTRA:          -7.958
REMARK INTER:                  -7.394
REMARK INTRA:                  -0.564
REMARK UNBOUND:                -1.396
REMARK SMILES CC(=O)CCC=C(C)CCC=C(C)C
REMARK SMILES IDX 7 1 6 2 8 3 9 4 10 5 11 6 13 7 12 8 14 9 5 10 4 11 2 12 3 13
REMARK SMILES IDX 1 14
REMARK H PARENT
REMARK Flexibility Score: inf
ROOT
ATOM      1  C   UNL     1      17.404 -10.945  65.032  1.00  0.00    -0.077 C 
ATOM      2  C   UNL     1      17.296 -11.010  66.378  1.00  0.00    -0.028 C 
ATOM      3  C   UNL     1      17.188 -12.206  64.236  1.00  0.00     0.039 C 
ENDROOT
BRANCH   1   4
ATOM      4  C   UNL     1      17.660  -9.651  64.285  1.00  0.00     0.034 C 
BRANCH   4   5
ATOM      5  C   UNL     1      16.846  -9.608  62.988  1.00  0.00     0.032 C 
BRANCH   5   6
ATOM      6  C   UNL     1      15.627  -8.736  63.151  1.00  0.00    -0.028 C 
ATOM      7  C   UNL     1      15.820  -7.756  60.854  1.00  0.00     0.039 C 
ATOM      8  C   UNL     1      15.167  -7.880  62.210  1.00  0.00    -0.080 C 
ATOM      9  C   UNL     1      13.957  -7.042  62.532  1.00  0.00     0.039 C 
ENDBRANCH   5   6
ENDBRANCH   4   5
ENDBRANCH   1   4
BRANCH   2  10
ATOM     10  C   UNL     1      17.505  -9.849  67.322  1.00  0.00     0.035 C 
BRANCH  10  11
ATOM     11  C   UNL     1      18.990  -9.645  67.648  1.00  0.00     0.079 C 
BRANCH  11  12
ATOM     12  C   UNL     1      19.356 -10.263  68.973  1.00  0.00     0.130 C 
ATOM     13  O   UNL     1      19.353  -9.573  69.982  1.00  0.00    -0.300 OA
ATOM     14  C   UNL     1      19.728 -11.713  69.081  1.00  0.00     0.087 C 
ENDBRANCH  11  12
ENDBRANCH  10  11
ENDBRANCH   2  10
TORSDOF 6
ENDMDL
MODEL 7
REMARK VINA RESULT:    -4.732      1.879      3.824
REMARK INTER + INTRA:          -7.789
REMARK INTER:                  -6.185
REMARK INTRA:                  -1.604
REMARK UNBOUND:                -1.396
REMARK SMILES CC(=O)CCC=C(C)CCC=C(C)C
REMARK SMILES IDX 7 1 6 2 8 3 9 4 10 5 11 6 13 7 12 8 14 9 5 10 4 11 2 12 3 13
REMARK SMILES IDX 1 14
REMARK H PARENT
REMARK Flexibility Score: inf
ROOT
ATOM      1  C   UNL     1      16.830 -11.932  64.197  1.00  0.00    -0.077 C 
ATOM      2  C   UNL     1      17.853 -11.277  63.600  1.00  0.00    -0.028 C 
ATOM      3  C   UNL     1      16.809 -13.437  64.128  1.00  0.00     0.039 C 
ENDROOT
BRANCH   1   4
ATOM      4  C   UNL     1      15.750 -11.227  64.992  1.00  0.00     0.034 C 
BRANCH   4   5
ATOM      5  C   UNL     1      15.934 -11.478  66.492  1.00  0.00     0.032 C 
BRANCH   5   6
ATOM      6  C   UNL     1      16.936 -10.513  67.075  1.00  0.00    -0.028 C 
ATOM      7  C   UNL     1      18.645 -12.294  67.500  1.00  0.00     0.039 C 
ATOM      8  C   UNL     1      18.149 -10.869  67.555  1.00  0.00    -0.080 C 
ATOM      9  C   UNL     1      19.029  -9.798  68.145  1.00  0.00     0.039 C 
ENDBRANCH   5   6
ENDBRANCH   4   5
ENDBRANCH   1   4
BRANCH   2  10
ATOM     10  C   UNL     1      18.011  -9.776  63.556  1.00  0.00     0.035 C 
BRANCH  10  11
ATOM     11  C   UNL     1      19.204  -9.307  64.401  1.00  0.00     0.079 C 
BRANCH  11  12
ATOM     12  C   UNL     1      20.448 -10.101  64.091  1.00  0.00     0.130 C 
ATOM     13  O   UNL     1      20.885 -10.117  62.950  1.00  0.00    -0.300 OA
ATOM     14  C   UNL     1      21.163 -10.878  65.158  1.00  0.00     0.087 C 
ENDBRANCH  11  12
ENDBRANCH  10  11
ENDBRANCH   2  10
TORSDOF 6
ENDMDL
MODEL 8
REMARK VINA RESULT:    -4.635      2.822      4.762
REMARK INTER + INTRA:          -7.657
REMARK INTER:                  -6.346
REMARK INTRA:                  -1.312
REMARK UNBOUND:                -1.396
REMARK SMILES CC(=O)CCC=C(C)CCC=C(C)C
REMARK SMILES IDX 7 1 6 2 8 3 9 4 10 5 11 6 13 7 12 8 14 9 5 10 4 11 2 12 3 13
REMARK SMILES IDX 1 14
REMARK H PARENT
REMARK Flexibility Score: inf
ROOT
ATOM      1  C   UNL     1      16.847 -10.078  65.014  1.00  0.00    -0.077 C 
ATOM      2  C   UNL     1      16.776 -10.393  66.328  1.00  0.00    -0.028 C 
ATOM      3  C   UNL     1      15.682 -10.440  64.130  1.00  0.00     0.039 C 
ENDROOT
BRANCH   1   4
ATOM      4  C   UNL     1      18.008  -9.316  64.408  1.00  0.00     0.034 C 
BRANCH   4   5
ATOM      5  C   UNL     1      19.039 -10.284  63.818  1.00  0.00     0.032 C 
BRANCH   5   6
ATOM      6  C   UNL     1      20.350 -10.183  64.556  1.00  0.00    -0.028 C 
ATOM      7  C   UNL     1      20.134 -12.460  65.577  1.00  0.00     0.039 C 
ATOM      8  C   UNL     1      20.844 -11.143  65.370  1.00  0.00    -0.080 C 
ATOM      9  C   UNL     1      22.151 -10.884  66.074  1.00  0.00     0.039 C 
ENDBRANCH   5   6
ENDBRANCH   4   5
ENDBRANCH   1   4
BRANCH   2  10
ATOM     10  C   UNL     1      17.862 -10.124  67.342  1.00  0.00     0.035 C 
BRANCH  10  11
ATOM     11  C   UNL     1      18.139 -11.355  68.216  1.00  0.00     0.079 C 
BRANCH  11  12
ATOM     12  C   UNL     1      19.365 -11.162  69.072  1.00  0.00     0.130 C 
ATOM     13  O   UNL     1      19.527 -10.105  69.664  1.00  0.00    -0.300 OA
ATOM     14  C   UNL     1      20.395 -12.244  69.213  1.00  0.00     0.087 C 
ENDBRANCH  11  12
ENDBRANCH  10  11
ENDBRANCH   2  10
TORSDOF 6
ENDMDL
MODEL 9
REMARK VINA RESULT:    -4.558      2.208      3.979
REMARK INTER + INTRA:          -7.554
REMARK INTER:                  -6.151
REMARK INTRA:                  -1.402
REMARK UNBOUND:                -1.396
REMARK SMILES CC(=O)CCC=C(C)CCC=C(C)C
REMARK SMILES IDX 7 1 6 2 8 3 9 4 10 5 11 6 13 7 12 8 14 9 5 10 4 11 2 12 3 13
REMARK SMILES IDX 1 14
REMARK H PARENT
REMARK Flexibility Score: inf
ROOT
ATOM      1  C   UNL     1      16.447 -10.054  63.779  1.00  0.00    -0.077 C 
ATOM      2  C   UNL     1      15.675 -10.578  64.759  1.00  0.00    -0.028 C 
ATOM      3  C   UNL     1      15.979  -8.795  63.098  1.00  0.00     0.039 C 
ENDROOT
BRANCH   1   4
ATOM      4  C   UNL     1      17.792 -10.634  63.388  1.00  0.00     0.034 C 
BRANCH   4   5
ATOM      5  C   UNL     1      18.903  -9.598  63.584  1.00  0.00     0.032 C 
BRANCH   5   6
ATOM      6  C   UNL     1      20.101 -10.220  64.255  1.00  0.00    -0.028 C 
ATOM      7  C   UNL     1      19.502  -9.326  66.516  1.00  0.00     0.039 C 
ATOM      8  C   UNL     1      20.397 -10.087  65.567  1.00  0.00    -0.080 C 
ATOM      9  C   UNL     1      21.653 -10.735  66.089  1.00  0.00     0.039 C 
ENDBRANCH   5   6
ENDBRANCH   4   5
ENDBRANCH   1   4
BRANCH   2  10
ATOM     10  C   UNL     1      15.985 -11.843  65.523  1.00  0.00     0.035 C 
BRANCH  10  11
ATOM     11  C   UNL     1      16.598 -11.539  66.897  1.00  0.00     0.079 C 
BRANCH  11  12
ATOM     12  C   UNL     1      17.697 -12.512  67.241  1.00  0.00     0.130 C 
ATOM     13  O   UNL     1      17.974 -12.719  68.413  1.00  0.00    -0.300 OA
ATOM     14  C   UNL     1      18.461 -13.234  66.170  1.00  0.00     0.087 C 
ENDBRANCH  11  12
ENDBRANCH  10  11
ENDBRANCH   2  10
TORSDOF 6
ENDMDL
