MODEL 1
REMARK VINA RESULT:    -3.261      0.000      0.000
REMARK INTER + INTRA:          -3.787
REMARK INTER:                  -3.738
REMARK INTRA:                  -0.049
REMARK UNBOUND:                -0.049
REMARK SMILES CC(C)[C@H]([NH3+])C(=O)[O-]
REMARK SMILES IDX 4 1 5 2 6 6 7 7 8 8 2 9 1 10 3 11
REMARK H PARENT 5 3 5 4 5 5
REMARK Flexibility Score: inf
ROOT
ATOM      1  C   UNL     1     141.888   9.531  -8.869  1.00  0.00     0.230 C 
ENDROOT
BRANCH   1   2
ATOM      2  N   UNL     1     141.108  10.240  -7.843  1.00  0.00    -0.350 N 
ATOM      3  H   UNL     1     140.110   9.933  -7.870  1.00  0.00     0.345 HD
ATOM      4  H   UNL     1     141.476  10.011  -6.890  1.00  0.00     0.345 HD
ATOM      5  H   UNL     1     141.162  11.276  -7.988  1.00  0.00     0.345 HD
ENDBRANCH   1   2
BRANCH   1   6
ATOM      6  C   UNL     1     141.357   8.127  -9.016  1.00  0.00     0.099 C 
ATOM      7  O   UNL     1     140.197   7.932  -9.465  1.00  0.00    -0.544 OA
ATOM      8  O   UNL     1     142.146   7.038  -8.660  1.00  0.00    -0.544 OA
ENDBRANCH   1   6
BRANCH   1   9
ATOM      9  C   UNL     1     143.410   9.512  -8.530  1.00  0.00     0.047 C 
ATOM     10  C   UNL     1     144.266   9.595  -9.805  1.00  0.00     0.014 C 
ATOM     11  C   UNL     1     143.801  10.660  -7.584  1.00  0.00     0.014 C 
ENDBRANCH   1   9
TORSDOF 3
ENDMDL
MODEL 2
REMARK VINA RESULT:    -3.251      2.050      2.592
REMARK INTER + INTRA:          -3.774
REMARK INTER:                  -3.716
REMARK INTRA:                  -0.058
REMARK UNBOUND:                -0.049
REMARK SMILES CC(C)[C@H]([NH3+])C(=O)[O-]
REMARK SMILES IDX 4 1 5 2 6 6 7 7 8 8 2 9 1 10 3 11
REMARK H PARENT 5 3 5 4 5 5
REMARK Flexibility Score: inf
ROOT
ATOM      1  C   UNL     1     143.377  10.644  -8.443  1.00  0.00     0.230 C 
ENDROOT
BRANCH   1   2
ATOM      2  N   UNL     1     143.084  10.359  -7.030  1.00  0.00    -0.350 N 
ATOM      3  H   UNL     1     143.181  11.228  -6.457  1.00  0.00     0.345 HD
ATOM      4  H   UNL     1     142.096  10.030  -6.927  1.00  0.00     0.345 HD
ATOM      5  H   UNL     1     143.728   9.621  -6.660  1.00  0.00     0.345 HD
ENDBRANCH   1   2
BRANCH   1   6
ATOM      6  C   UNL     1     143.433   9.347  -9.211  1.00  0.00     0.099 C 
ATOM      7  O   UNL     1     144.285   9.189 -10.124  1.00  0.00    -0.544 OA
ATOM      8  O   UNL     1     142.547   8.318  -8.914  1.00  0.00    -0.544 OA
ENDBRANCH   1   6
BRANCH   1   9
ATOM      9  C   UNL     1     144.706  11.442  -8.610  1.00  0.00     0.047 C 
ATOM     10  C   UNL     1     144.491  12.713  -9.449  1.00  0.00     0.014 C 
ATOM     11  C   UNL     1     145.315  11.832  -7.253  1.00  0.00     0.014 C 
ENDBRANCH   1   9
TORSDOF 3
ENDMDL
MODEL 3
REMARK VINA RESULT:    -3.153     19.014     19.590
REMARK INTER + INTRA:          -3.663
REMARK INTER:                  -3.614
REMARK INTRA:                  -0.049
REMARK UNBOUND:                -0.049
REMARK SMILES CC(C)[C@H]([NH3+])C(=O)[O-]
REMARK SMILES IDX 4 1 5 2 6 6 7 7 8 8 2 9 1 10 3 11
REMARK H PARENT 5 3 5 4 5 5
REMARK Flexibility Score: inf
ROOT
ATOM      1  C   UNL     1     141.964  -2.563   7.146  1.00  0.00     0.230 C 
ENDROOT
BRANCH   1   2
ATOM      2  N   UNL     1     140.911  -2.887   8.120  1.00  0.00    -0.350 N 
ATOM      3  H   UNL     1     140.536  -2.013   8.553  1.00  0.00     0.345 HD
ATOM      4  H   UNL     1     140.111  -3.361   7.639  1.00  0.00     0.345 HD
ATOM      5  H   UNL     1     141.280  -3.520   8.868  1.00  0.00     0.345 HD
ENDBRANCH   1   2
BRANCH   1   6
ATOM      6  C   UNL     1     143.261  -2.322   7.877  1.00  0.00     0.099 C 
ATOM      7  O   UNL     1     143.251  -1.990   9.091  1.00  0.00    -0.544 OA
ATOM      8  O   UNL     1     144.476  -2.467   7.216  1.00  0.00    -0.544 OA
ENDBRANCH   1   6
BRANCH   1   9
ATOM      9  C   UNL     1     141.586  -1.328   6.272  1.00  0.00     0.047 C 
ATOM     10  C   UNL     1     140.961  -1.762   4.935  1.00  0.00     0.014 C 
ATOM     11  C   UNL     1     140.612  -0.387   7.001  1.00  0.00     0.014 C 
ENDBRANCH   1   9
TORSDOF 3
ENDMDL
MODEL 4
REMARK VINA RESULT:    -3.146      1.507      2.006
REMARK INTER + INTRA:          -3.654
REMARK INTER:                  -3.605
REMARK INTRA:                  -0.049
REMARK UNBOUND:                -0.049
REMARK SMILES CC(C)[C@H]([NH3+])C(=O)[O-]
REMARK SMILES IDX 4 1 5 2 6 6 7 7 8 8 2 9 1 10 3 11
REMARK H PARENT 5 3 5 4 5 5
REMARK Flexibility Score: inf
ROOT
ATOM      1  C   UNL     1     142.921  10.259  -8.361  1.00  0.00     0.230 C 
ENDROOT
BRANCH   1   2
ATOM      2  N   UNL     1     143.509   9.612  -7.178  1.00  0.00    -0.350 N 
ATOM      3  H   UNL     1     142.761   9.178  -6.594  1.00  0.00     0.345 HD
ATOM      4  H   UNL     1     144.155   8.844  -7.474  1.00  0.00     0.345 HD
ATOM      5  H   UNL     1     144.045  10.305  -6.606  1.00  0.00     0.345 HD
ENDBRANCH   1   2
BRANCH   1   6
ATOM      6  C   UNL     1     141.984   9.294  -9.044  1.00  0.00     0.099 C 
ATOM      7  O   UNL     1     141.165   9.708  -9.904  1.00  0.00    -0.544 OA
ATOM      8  O   UNL     1     142.022   7.940  -8.728  1.00  0.00    -0.544 OA
ENDBRANCH   1   6
BRANCH   1   9
ATOM      9  C   UNL     1     144.016  10.759  -9.353  1.00  0.00     0.047 C 
ATOM     10  C   UNL     1     145.066  11.625  -8.635  1.00  0.00     0.014 C 
ATOM     11  C   UNL     1     144.725   9.592 -10.060  1.00  0.00     0.014 C 
ENDBRANCH   1   9
TORSDOF 3
ENDMDL
MODEL 5
REMARK VINA RESULT:    -3.136     17.220     17.838
REMARK INTER + INTRA:          -3.643
REMARK INTER:                  -3.597
REMARK INTRA:                  -0.046
REMARK UNBOUND:                -0.049
REMARK SMILES CC(C)[C@H]([NH3+])C(=O)[O-]
REMARK SMILES IDX 4 1 5 2 6 6 7 7 8 8 2 9 1 10 3 11
REMARK H PARENT 5 3 5 4 5 5
REMARK Flexibility Score: inf
ROOT
ATOM      1  C   UNL     1     151.268  -0.309   3.482  1.00  0.00     0.230 C 
ENDROOT
BRANCH   1   2
ATOM      2  N   UNL     1     149.868   0.022   3.789  1.00  0.00    -0.350 N 
ATOM      3  H   UNL     1     149.227  -0.686   3.366  1.00  0.00     0.345 HD
ATOM      4  H   UNL     1     149.712  -0.001   4.824  1.00  0.00     0.345 HD
ATOM      5  H   UNL     1     149.625   0.975   3.430  1.00  0.00     0.345 HD
ENDBRANCH   1   2
BRANCH   1   6
ATOM      6  C   UNL     1     151.967   0.921   2.958  1.00  0.00     0.099 C 
ATOM      7  O   UNL     1     153.008   1.347   3.523  1.00  0.00    -0.544 OA
ATOM      8  O   UNL     1     151.467   1.589   1.846  1.00  0.00    -0.544 OA
ENDBRANCH   1   6
BRANCH   1   9
ATOM      9  C   UNL     1     151.376  -1.482   2.461  1.00  0.00     0.047 C 
ATOM     10  C   UNL     1     152.425  -2.515   2.907  1.00  0.00     0.014 C 
ATOM     11  C   UNL     1     150.026  -2.191   2.258  1.00  0.00     0.014 C 
ENDBRANCH   1   9
TORSDOF 3
ENDMDL
MODEL 6
REMARK VINA RESULT:    -3.128      1.358      1.677
REMARK INTER + INTRA:          -3.634
REMARK INTER:                  -3.575
REMARK INTRA:                  -0.059
REMARK UNBOUND:                -0.049
REMARK SMILES CC(C)[C@H]([NH3+])C(=O)[O-]
REMARK SMILES IDX 4 1 5 2 6 6 7 7 8 8 2 9 1 10 3 11
REMARK H PARENT 5 3 5 4 5 5
REMARK Flexibility Score: inf
ROOT
ATOM      1  C   UNL     1     142.000   9.789  -8.736  1.00  0.00     0.230 C 
ENDROOT
BRANCH   1   2
ATOM      2  N   UNL     1     142.281  10.452  -7.453  1.00  0.00    -0.350 N 
ATOM      3  H   UNL     1     142.811   9.810  -6.822  1.00  0.00     0.345 HD
ATOM      4  H   UNL     1     142.880  11.295  -7.609  1.00  0.00     0.345 HD
ATOM      5  H   UNL     1     141.392  10.749  -6.987  1.00  0.00     0.345 HD
ENDBRANCH   1   2
BRANCH   1   6
ATOM      6  C   UNL     1     140.631   9.157  -8.681  1.00  0.00     0.099 C 
ATOM      7  O   UNL     1     139.744   9.633  -7.925  1.00  0.00    -0.544 OA
ATOM      8  O   UNL     1     140.340   8.048  -9.467  1.00  0.00    -0.544 OA
ENDBRANCH   1   6
BRANCH   1   9
ATOM      9  C   UNL     1     143.085   8.725  -9.088  1.00  0.00     0.047 C 
ATOM     10  C   UNL     1     144.322   9.380  -9.727  1.00  0.00     0.014 C 
ATOM     11  C   UNL     1     143.522   7.921  -7.852  1.00  0.00     0.014 C 
ENDBRANCH   1   9
TORSDOF 3
ENDMDL
MODEL 7
REMARK VINA RESULT:    -3.124      2.395      3.316
REMARK INTER + INTRA:          -3.629
REMARK INTER:                  -3.581
REMARK INTRA:                  -0.047
REMARK UNBOUND:                -0.049
REMARK SMILES CC(C)[C@H]([NH3+])C(=O)[O-]
REMARK SMILES IDX 4 1 5 2 6 6 7 7 8 8 2 9 1 10 3 11
REMARK H PARENT 5 3 5 4 5 5
REMARK Flexibility Score: inf
ROOT
ATOM      1  C   UNL     1     142.627   9.698  -8.287  1.00  0.00     0.230 C 
ENDROOT
BRANCH   1   2
ATOM      2  N   UNL     1     142.877  10.487  -7.071  1.00  0.00    -0.350 N 
ATOM      3  H   UNL     1     143.053  11.486  -7.318  1.00  0.00     0.345 HD
ATOM      4  H   UNL     1     142.035  10.465  -6.450  1.00  0.00     0.345 HD
ATOM      5  H   UNL     1     143.697  10.105  -6.544  1.00  0.00     0.345 HD
ENDBRANCH   1   2
BRANCH   1   6
ATOM      6  C   UNL     1     143.627  10.087  -9.348  1.00  0.00     0.099 C 
ATOM      7  O   UNL     1     144.098   9.215 -10.124  1.00  0.00    -0.544 OA
ATOM      8  O   UNL     1     144.033  11.411  -9.476  1.00  0.00    -0.544 OA
ENDBRANCH   1   6
BRANCH   1   9
ATOM      9  C   UNL     1     141.170   9.883  -8.809  1.00  0.00     0.047 C 
ATOM     10  C   UNL     1     140.480   8.526  -9.032  1.00  0.00     0.014 C 
ATOM     11  C   UNL     1     140.319  10.728  -7.846  1.00  0.00     0.014 C 
ENDBRANCH   1   9
TORSDOF 3
ENDMDL
MODEL 8
REMARK VINA RESULT:    -3.078      2.276      3.180
REMARK INTER + INTRA:          -3.576
REMARK INTER:                  -3.532
REMARK INTRA:                  -0.044
REMARK UNBOUND:                -0.049
REMARK SMILES CC(C)[C@H]([NH3+])C(=O)[O-]
REMARK SMILES IDX 4 1 5 2 6 6 7 7 8 8 2 9 1 10 3 11
REMARK H PARENT 5 3 5 4 5 5
REMARK Flexibility Score: inf
ROOT
ATOM      1  C   UNL     1     141.336   9.209  -9.060  1.00  0.00     0.230 C 
ENDROOT
BRANCH   1   2
ATOM      2  N   UNL     1     140.817   8.193  -8.132  1.00  0.00    -0.350 N 
ATOM      3  H   UNL     1     141.582   7.543  -7.841  1.00  0.00     0.345 HD
ATOM      4  H   UNL     1     140.456   8.652  -7.263  1.00  0.00     0.345 HD
ATOM      5  H   UNL     1     140.041   7.648  -8.576  1.00  0.00     0.345 HD
ENDBRANCH   1   2
BRANCH   1   6
ATOM      6  C   UNL     1     142.814   9.393  -8.822  1.00  0.00     0.099 C 
ATOM      7  O   UNL     1     143.228   9.833  -7.717  1.00  0.00    -0.544 OA
ATOM      8  O   UNL     1     143.729   9.075  -9.819  1.00  0.00    -0.544 OA
ENDBRANCH   1   6
BRANCH   1   9
ATOM      9  C   UNL     1     140.581  10.566  -8.915  1.00  0.00     0.047 C 
ATOM     10  C   UNL     1     139.644  10.813 -10.110  1.00  0.00     0.014 C 
ATOM     11  C   UNL     1     139.765  10.632  -7.613  1.00  0.00     0.014 C 
ENDBRANCH   1   9
TORSDOF 3
ENDMDL
MODEL 9
REMARK VINA RESULT:    -3.072     17.668     18.194
REMARK INTER + INTRA:          -3.569
REMARK INTER:                  -3.518
REMARK INTRA:                  -0.052
REMARK UNBOUND:                -0.049
REMARK SMILES CC(C)[C@H]([NH3+])C(=O)[O-]
REMARK SMILES IDX 4 1 5 2 6 6 7 7 8 8 2 9 1 10 3 11
REMARK H PARENT 5 3 5 4 5 5
REMARK Flexibility Score: inf
ROOT
ATOM      1  C   UNL     1     151.535  -0.598   2.975  1.00  0.00     0.230 C 
ENDROOT
BRANCH   1   2
ATOM      2  N   UNL     1     152.855  -0.852   3.572  1.00  0.00    -0.350 N 
ATOM      3  H   UNL     1     153.591  -0.866   2.831  1.00  0.00     0.345 HD
ATOM      4  H   UNL     1     153.102  -0.082   4.237  1.00  0.00     0.345 HD
ATOM      5  H   UNL     1     152.859  -1.762   4.089  1.00  0.00     0.345 HD
ENDBRANCH   1   2
BRANCH   1   6
ATOM      6  C   UNL     1     150.727   0.273   3.904  1.00  0.00     0.099 C 
ATOM      7  O   UNL     1     149.494   0.435   3.707  1.00  0.00    -0.544 OA
ATOM      8  O   UNL     1     151.337   0.899   4.985  1.00  0.00    -0.544 OA
ENDBRANCH   1   6
BRANCH   1   9
ATOM      9  C   UNL     1     150.776  -1.923   2.661  1.00  0.00     0.047 C 
ATOM     10  C   UNL     1     150.760  -2.213   1.150  1.00  0.00     0.014 C 
ATOM     11  C   UNL     1     151.393  -3.125   3.397  1.00  0.00     0.014 C 
ENDBRANCH   1   9
TORSDOF 3
ENDMDL
