MODEL 1
REMARK VINA RESULT:    -3.150      0.000      0.000
REMARK INTER + INTRA:          -3.531
REMARK INTER:                  -3.518
REMARK INTRA:                  -0.013
REMARK UNBOUND:                -0.013
REMARK SMILES CCCC(=O)[O-]
REMARK SMILES IDX 3 1 4 2 5 3 6 4 2 5 1 6
REMARK H PARENT
REMARK Flexibility Score: inf
ROOT
ATOM      1  C   UNL     1      46.915  -2.702  15.670  1.00  0.00     0.052 C 
ENDROOT
BRANCH   1   2
ATOM      2  C   UNL     1      46.328  -1.330  15.795  1.00  0.00     0.041 C 
ATOM      3  O   UNL     1      46.380  -0.526  14.828  1.00  0.00    -0.550 OA
ATOM      4  O   UNL     1      45.693  -0.951  16.972  1.00  0.00    -0.550 OA
ENDBRANCH   1   2
BRANCH   1   5
ATOM      5  C   UNL     1      48.237  -2.828  16.437  1.00  0.00     0.003 C 
ATOM      6  C   UNL     1      48.352  -4.157  17.183  1.00  0.00     0.004 C 
ENDBRANCH   1   5
TORSDOF 2
ENDMDL
MODEL 2
REMARK VINA RESULT:    -2.998      1.031      1.335
REMARK INTER + INTRA:          -3.362
REMARK INTER:                  -3.356
REMARK INTRA:                  -0.006
REMARK UNBOUND:                -0.013
REMARK SMILES CCCC(=O)[O-]
REMARK SMILES IDX 3 1 4 2 5 3 6 4 2 5 1 6
REMARK H PARENT
REMARK Flexibility Score: inf
ROOT
ATOM      1  C   UNL     1      46.525  -3.041  15.566  1.00  0.00     0.052 C 
ENDROOT
BRANCH   1   2
ATOM      2  C   UNL     1      45.721  -1.791  15.377  1.00  0.00     0.041 C 
ATOM      3  O   UNL     1      44.463  -1.839  15.379  1.00  0.00    -0.550 OA
ATOM      4  O   UNL     1      46.363  -0.568  15.233  1.00  0.00    -0.550 OA
ENDBRANCH   1   2
BRANCH   1   5
ATOM      5  C   UNL     1      47.704  -2.819  16.521  1.00  0.00     0.003 C 
ATOM      6  C   UNL     1      48.161  -4.116  17.190  1.00  0.00     0.004 C 
ENDBRANCH   1   5
TORSDOF 2
ENDMDL
MODEL 3
REMARK VINA RESULT:    -2.911     10.315     11.263
REMARK INTER + INTRA:          -3.265
REMARK INTER:                  -3.257
REMARK INTRA:                  -0.008
REMARK UNBOUND:                -0.013
REMARK SMILES CCCC(=O)[O-]
REMARK SMILES IDX 3 1 4 2 5 3 6 4 2 5 1 6
REMARK H PARENT
REMARK Flexibility Score: inf
ROOT
ATOM      1  C   UNL     1      46.666   7.798  21.281  1.00  0.00     0.052 C 
ENDROOT
BRANCH   1   2
ATOM      2  C   UNL     1      47.763   7.471  22.248  1.00  0.00     0.041 C 
ATOM      3  O   UNL     1      48.174   6.287  22.365  1.00  0.00    -0.550 OA
ATOM      4  O   UNL     1      48.355   8.482  22.994  1.00  0.00    -0.550 OA
ENDBRANCH   1   2
BRANCH   1   5
ATOM      5  C   UNL     1      46.782   6.976  19.991  1.00  0.00     0.003 C 
ATOM      6  C   UNL     1      46.306   7.753  18.763  1.00  0.00     0.004 C 
ENDBRANCH   1   5
TORSDOF 2
ENDMDL
MODEL 4
REMARK VINA RESULT:    -2.880     11.463     12.222
REMARK INTER + INTRA:          -3.230
REMARK INTER:                  -3.192
REMARK INTRA:                  -0.038
REMARK UNBOUND:                -0.013
REMARK SMILES CCCC(=O)[O-]
REMARK SMILES IDX 3 1 4 2 5 3 6 4 2 5 1 6
REMARK H PARENT
REMARK Flexibility Score: inf
ROOT
ATOM      1  C   UNL     1      46.446   8.575  21.945  1.00  0.00     0.052 C 
ENDROOT
BRANCH   1   2
ATOM      2  C   UNL     1      45.244   8.495  22.835  1.00  0.00     0.041 C 
ATOM      3  O   UNL     1      44.088   8.447  22.339  1.00  0.00    -0.550 OA
ATOM      4  O   UNL     1      45.404   8.440  24.214  1.00  0.00    -0.550 OA
ENDBRANCH   1   2
BRANCH   1   5
ATOM      5  C   UNL     1      47.708   8.057  22.646  1.00  0.00     0.003 C 
ATOM      6  C   UNL     1      48.045   6.620  22.249  1.00  0.00     0.004 C 
ENDBRANCH   1   5
TORSDOF 2
ENDMDL
MODEL 5
REMARK VINA RESULT:    -2.854     10.603     11.346
REMARK INTER + INTRA:          -3.201
REMARK INTER:                  -3.195
REMARK INTRA:                  -0.006
REMARK UNBOUND:                -0.013
REMARK SMILES CCCC(=O)[O-]
REMARK SMILES IDX 3 1 4 2 5 3 6 4 2 5 1 6
REMARK H PARENT
REMARK Flexibility Score: inf
ROOT
ATOM      1  C   UNL     1      47.105   7.007  21.031  1.00  0.00     0.052 C 
ENDROOT
BRANCH   1   2
ATOM      2  C   UNL     1      47.201   7.878  22.246  1.00  0.00     0.041 C 
ATOM      3  O   UNL     1      46.158   8.341  22.779  1.00  0.00    -0.550 OA
ATOM      4  O   UNL     1      48.441   8.150  22.809  1.00  0.00    -0.550 OA
ENDBRANCH   1   2
BRANCH   1   5
ATOM      5  C   UNL     1      46.406   7.725  19.870  1.00  0.00     0.003 C 
ATOM      6  C   UNL     1      46.596   6.998  18.538  1.00  0.00     0.004 C 
ENDBRANCH   1   5
TORSDOF 2
ENDMDL
MODEL 6
REMARK VINA RESULT:    -2.813     11.573     12.332
REMARK INTER + INTRA:          -3.155
REMARK INTER:                  -3.089
REMARK INTRA:                  -0.066
REMARK UNBOUND:                -0.013
REMARK SMILES CCCC(=O)[O-]
REMARK SMILES IDX 3 1 4 2 5 3 6 4 2 5 1 6
REMARK H PARENT
REMARK Flexibility Score: inf
ROOT
ATOM      1  C   UNL     1      48.038   8.319  22.862  1.00  0.00     0.052 C 
ENDROOT
BRANCH   1   2
ATOM      2  C   UNL     1      46.718   8.970  23.141  1.00  0.00     0.041 C 
ATOM      3  O   UNL     1      46.442  10.089  22.634  1.00  0.00    -0.550 OA
ATOM      4  O   UNL     1      45.779   8.324  23.936  1.00  0.00    -0.550 OA
ENDBRANCH   1   2
BRANCH   1   5
ATOM      5  C   UNL     1      47.866   6.949  22.194  1.00  0.00     0.003 C 
ATOM      6  C   UNL     1      47.045   7.030  20.906  1.00  0.00     0.004 C 
ENDBRANCH   1   5
TORSDOF 2
ENDMDL
MODEL 7
REMARK VINA RESULT:    -2.787     10.920     11.868
REMARK INTER + INTRA:          -3.126
REMARK INTER:                  -3.084
REMARK INTRA:                  -0.042
REMARK UNBOUND:                -0.013
REMARK SMILES CCCC(=O)[O-]
REMARK SMILES IDX 3 1 4 2 5 3 6 4 2 5 1 6
REMARK H PARENT
REMARK Flexibility Score: inf
ROOT
ATOM      1  C   UNL     1      46.759   7.445  21.024  1.00  0.00     0.052 C 
ENDROOT
BRANCH   1   2
ATOM      2  C   UNL     1      47.695   7.382  22.192  1.00  0.00     0.041 C 
ATOM      3  O   UNL     1      48.215   6.286  22.530  1.00  0.00    -0.550 OA
ATOM      4  O   UNL     1      48.018   8.541  22.886  1.00  0.00    -0.550 OA
ENDBRANCH   1   2
BRANCH   1   5
ATOM      5  C   UNL     1      45.889   8.707  21.060  1.00  0.00     0.003 C 
ATOM      6  C   UNL     1      44.566   8.480  21.793  1.00  0.00     0.004 C 
ENDBRANCH   1   5
TORSDOF 2
ENDMDL
MODEL 8
REMARK VINA RESULT:    -2.756      9.947     10.540
REMARK INTER + INTRA:          -3.091
REMARK INTER:                  -3.077
REMARK INTRA:                  -0.014
REMARK UNBOUND:                -0.013
REMARK SMILES CCCC(=O)[O-]
REMARK SMILES IDX 3 1 4 2 5 3 6 4 2 5 1 6
REMARK H PARENT
REMARK Flexibility Score: inf
ROOT
ATOM      1  C   UNL     1      46.346   7.927  20.455  1.00  0.00     0.052 C 
ENDROOT
BRANCH   1   2
ATOM      2  C   UNL     1      46.326   7.752  18.967  1.00  0.00     0.041 C 
ATOM      3  O   UNL     1      46.670   6.656  18.452  1.00  0.00    -0.550 OA
ATOM      4  O   UNL     1      45.893   8.790  18.152  1.00  0.00    -0.550 OA
ENDBRANCH   1   2
BRANCH   1   5
ATOM      5  C   UNL     1      47.186   6.843  21.143  1.00  0.00     0.003 C 
ATOM      6  C   UNL     1      47.986   7.392  22.325  1.00  0.00     0.004 C 
ENDBRANCH   1   5
TORSDOF 2
ENDMDL
MODEL 9
REMARK VINA RESULT:    -2.718      7.610      8.391
REMARK INTER + INTRA:          -3.049
REMARK INTER:                  -3.038
REMARK INTRA:                  -0.011
REMARK UNBOUND:                -0.013
REMARK SMILES CCCC(=O)[O-]
REMARK SMILES IDX 3 1 4 2 5 3 6 4 2 5 1 6
REMARK H PARENT
REMARK Flexibility Score: inf
ROOT
ATOM      1  C   UNL     1      47.512   5.530  16.353  1.00  0.00     0.052 C 
ENDROOT
BRANCH   1   2
ATOM      2  C   UNL     1      47.504   5.358  14.865  1.00  0.00     0.041 C 
ATOM      3  O   UNL     1      46.846   6.148  14.138  1.00  0.00    -0.550 OA
ATOM      4  O   UNL     1      48.252   4.344  14.280  1.00  0.00    -0.550 OA
ENDBRANCH   1   2
BRANCH   1   5
ATOM      5  C   UNL     1      46.537   6.625  16.804  1.00  0.00     0.003 C 
ATOM      6  C   UNL     1      46.680   6.955  18.290  1.00  0.00     0.004 C 
ENDBRANCH   1   5
TORSDOF 2
ENDMDL
