MODEL 1
REMARK VINA RESULT:    -3.363      0.000      0.000
REMARK INTER + INTRA:          -5.233
REMARK INTER:                  -4.935
REMARK INTRA:                  -0.297
REMARK UNBOUND:                -0.297
REMARK SMILES O=C([O-])CCCCCCCC(=O)[O-]
REMARK SMILES IDX 7 1 6 2 5 3 4 4 2 5 1 6 3 7 8 8 9 9 10 10 11 11 12 12 13 13
REMARK H PARENT
REMARK Flexibility Score: inf
ROOT
ATOM      1  C   UNL     1      10.992 -18.794  -1.129  1.00  0.00     0.000 C 
ENDROOT
BRANCH   1   2
ATOM      2  C   UNL     1      11.504 -19.019   0.302  1.00  0.00     0.000 C 
BRANCH   2   3
ATOM      3  C   UNL     1      10.473 -19.784   1.140  1.00  0.00     0.006 C 
BRANCH   3   4
ATOM      4  C   UNL     1      10.290 -19.134   2.515  1.00  0.00     0.053 C 
BRANCH   4   5
ATOM      5  C   UNL     1       8.972 -18.432   2.591  1.00  0.00     0.041 C 
ATOM      6  O   UNL     1       8.890 -17.207   2.306  1.00  0.00    -0.550 OA
ATOM      7  O   UNL     1       7.825 -19.139   2.927  1.00  0.00    -0.550 OA
ENDBRANCH   4   5
ENDBRANCH   3   4
ENDBRANCH   2   3
ENDBRANCH   1   2
BRANCH   1   8
ATOM      8  C   UNL     1      11.733 -17.658  -1.852  1.00  0.00     0.000 C 
BRANCH   8   9
ATOM      9  C   UNL     1      10.797 -16.786  -2.702  1.00  0.00     0.006 C 
BRANCH   9  10
ATOM     10  C   UNL     1      11.519 -15.532  -3.202  1.00  0.00     0.053 C 
BRANCH  10  11
ATOM     11  C   UNL     1      11.457 -14.446  -2.174  1.00  0.00     0.041 C 
ATOM     12  O   UNL     1      10.412 -14.278  -1.494  1.00  0.00    -0.550 OA
ATOM     13  O   UNL     1      12.571 -13.652  -1.933  1.00  0.00    -0.550 OA
ENDBRANCH  10  11
ENDBRANCH   9  10
ENDBRANCH   8   9
ENDBRANCH   1   8
TORSDOF 8
ENDMDL
MODEL 2
REMARK VINA RESULT:    -3.168      1.404      2.202
REMARK INTER + INTRA:          -4.947
REMARK INTER:                  -4.482
REMARK INTRA:                  -0.465
REMARK UNBOUND:                -0.297
REMARK SMILES O=C([O-])CCCCCCCC(=O)[O-]
REMARK SMILES IDX 7 1 6 2 5 3 4 4 2 5 1 6 3 7 8 8 9 9 10 10 11 11 12 12 13 13
REMARK H PARENT
REMARK Flexibility Score: inf
ROOT
ATOM      1  C   UNL     1      11.707 -18.342  -2.758  1.00  0.00     0.000 C 
ENDROOT
BRANCH   1   2
ATOM      2  C   UNL     1      12.668 -17.890  -1.647  1.00  0.00     0.000 C 
BRANCH   2   3
ATOM      3  C   UNL     1      12.440 -18.698  -0.364  1.00  0.00     0.006 C 
BRANCH   3   4
ATOM      4  C   UNL     1      10.977 -19.137  -0.243  1.00  0.00     0.053 C 
BRANCH   4   5
ATOM      5  C   UNL     1      10.603 -19.322   1.192  1.00  0.00     0.041 C 
ATOM      6  O   UNL     1      11.127 -18.600   2.082  1.00  0.00    -0.550 OA
ATOM      7  O   UNL     1       9.637 -20.256   1.545  1.00  0.00    -0.550 OA
ENDBRANCH   4   5
ENDBRANCH   3   4
ENDBRANCH   2   3
ENDBRANCH   1   2
BRANCH   1   8
ATOM      8  C   UNL     1      11.151 -17.165  -3.574  1.00  0.00     0.000 C 
BRANCH   8   9
ATOM      9  C   UNL     1      12.201 -16.075  -3.836  1.00  0.00     0.006 C 
BRANCH   9  10
ATOM     10  C   UNL     1      11.577 -14.679  -3.751  1.00  0.00     0.053 C 
BRANCH  10  11
ATOM     11  C   UNL     1      11.626 -14.167  -2.345  1.00  0.00     0.041 C 
ATOM     12  O   UNL     1      12.645 -13.556  -1.930  1.00  0.00    -0.550 OA
ATOM     13  O   UNL     1      10.526 -14.321  -1.510  1.00  0.00    -0.550 OA
ENDBRANCH  10  11
ENDBRANCH   9  10
ENDBRANCH   8   9
ENDBRANCH   1   8
TORSDOF 8
ENDMDL
MODEL 3
REMARK VINA RESULT:    -3.122      1.021      5.845
REMARK INTER + INTRA:          -4.879
REMARK INTER:                  -4.473
REMARK INTRA:                  -0.406
REMARK UNBOUND:                -0.297
REMARK SMILES O=C([O-])CCCCCCCC(=O)[O-]
REMARK SMILES IDX 7 1 6 2 5 3 4 4 2 5 1 6 3 7 8 8 9 9 10 10 11 11 12 12 13 13
REMARK H PARENT
REMARK Flexibility Score: inf
ROOT
ATOM      1  C   UNL     1      10.486 -17.651  -1.963  1.00  0.00     0.000 C 
ENDROOT
BRANCH   1   2
ATOM      2  C   UNL     1      10.767 -17.484  -3.464  1.00  0.00     0.000 C 
BRANCH   2   3
ATOM      3  C   UNL     1      11.633 -16.245  -3.726  1.00  0.00     0.006 C 
BRANCH   3   4
ATOM      4  C   UNL     1      12.325 -15.778  -2.442  1.00  0.00     0.053 C 
BRANCH   4   5
ATOM      5  C   UNL     1      11.996 -14.346  -2.161  1.00  0.00     0.041 C 
ATOM      6  O   UNL     1      10.795 -13.983  -2.045  1.00  0.00    -0.550 OA
ATOM      7  O   UNL     1      13.015 -13.421  -1.977  1.00  0.00    -0.550 OA
ENDBRANCH   4   5
ENDBRANCH   3   4
ENDBRANCH   2   3
ENDBRANCH   1   2
BRANCH   1   8
ATOM      8  C   UNL     1      10.863 -19.046  -1.442  1.00  0.00     0.000 C 
BRANCH   8   9
ATOM      9  C   UNL     1      11.488 -19.006  -0.039  1.00  0.00     0.006 C 
BRANCH   9  10
ATOM     10  C   UNL     1      10.731 -19.924   0.925  1.00  0.00     0.053 C 
BRANCH  10  11
ATOM     11  C   UNL     1      10.144 -19.133   2.051  1.00  0.00     0.041 C 
ATOM     12  O   UNL     1       8.927 -19.257   2.345  1.00  0.00    -0.550 OA
ATOM     13  O   UNL     1      10.954 -18.295   2.809  1.00  0.00    -0.550 OA
ENDBRANCH  10  11
ENDBRANCH   9  10
ENDBRANCH   8   9
ENDBRANCH   1   8
TORSDOF 8
ENDMDL
MODEL 4
REMARK VINA RESULT:    -3.050     17.444     19.683
REMARK INTER + INTRA:          -4.774
REMARK INTER:                  -4.264
REMARK INTRA:                  -0.510
REMARK UNBOUND:                -0.297
REMARK SMILES O=C([O-])CCCCCCCC(=O)[O-]
REMARK SMILES IDX 7 1 6 2 5 3 4 4 2 5 1 6 3 7 8 8 9 9 10 10 11 11 12 12 13 13
REMARK H PARENT
REMARK Flexibility Score: inf
ROOT
ATOM      1  C   UNL     1       7.060  -5.667  14.763  1.00  0.00     0.000 C 
ENDROOT
BRANCH   1   2
ATOM      2  C   UNL     1       7.234  -4.232  15.283  1.00  0.00     0.000 C 
BRANCH   2   3
ATOM      3  C   UNL     1       8.713  -3.916  15.537  1.00  0.00     0.006 C 
BRANCH   3   4
ATOM      4  C   UNL     1       9.585  -4.396  14.373  1.00  0.00     0.053 C 
BRANCH   4   5
ATOM      5  C   UNL     1      10.219  -3.233  13.679  1.00  0.00     0.041 C 
ATOM      6  O   UNL     1      11.375  -3.340  13.190  1.00  0.00    -0.550 OA
ATOM      7  O   UNL     1       9.515  -2.045  13.528  1.00  0.00    -0.550 OA
ENDBRANCH   4   5
ENDBRANCH   3   4
ENDBRANCH   2   3
ENDBRANCH   1   2
BRANCH   1   8
ATOM      8  C   UNL     1       6.509  -6.622  15.832  1.00  0.00     0.000 C 
BRANCH   8   9
ATOM      9  C   UNL     1       6.984  -8.070  15.637  1.00  0.00     0.006 C 
BRANCH   9  10
ATOM     10  C   UNL     1       8.513  -8.142  15.581  1.00  0.00     0.053 C 
BRANCH  10  11
ATOM     11  C   UNL     1       8.957  -9.476  15.068  1.00  0.00     0.041 C 
ATOM     12  O   UNL     1      10.182  -9.754  15.006  1.00  0.00    -0.550 OA
ATOM     13  O   UNL     1       8.014 -10.431  14.706  1.00  0.00    -0.550 OA
ENDBRANCH  10  11
ENDBRANCH   9  10
ENDBRANCH   8   9
ENDBRANCH   1   8
TORSDOF 8
ENDMDL
MODEL 5
REMARK VINA RESULT:    -3.036      7.733      9.982
REMARK INTER + INTRA:          -4.753
REMARK INTER:                  -4.041
REMARK INTRA:                  -0.712
REMARK UNBOUND:                -0.297
REMARK SMILES O=C([O-])CCCCCCCC(=O)[O-]
REMARK SMILES IDX 7 1 6 2 5 3 4 4 2 5 1 6 3 7 8 8 9 9 10 10 11 11 12 12 13 13
REMARK H PARENT
REMARK Flexibility Score: inf
ROOT
ATOM      1  C   UNL     1       0.294 -20.551   4.170  1.00  0.00     0.000 C 
ENDROOT
BRANCH   1   2
ATOM      2  C   UNL     1       0.090 -20.223   5.657  1.00  0.00     0.000 C 
BRANCH   2   3
ATOM      3  C   UNL     1       1.435 -20.135   6.389  1.00  0.00     0.006 C 
BRANCH   3   4
ATOM      4  C   UNL     1       1.610 -18.766   7.054  1.00  0.00     0.053 C 
BRANCH   4   5
ATOM      5  C   UNL     1       2.785 -18.048   6.471  1.00  0.00     0.041 C 
ATOM      6  O   UNL     1       2.754 -16.797   6.327  1.00  0.00    -0.550 OA
ATOM      7  O   UNL     1       3.933 -18.751   6.133  1.00  0.00    -0.550 OA
ENDBRANCH   4   5
ENDBRANCH   3   4
ENDBRANCH   2   3
ENDBRANCH   1   2
BRANCH   1   8
ATOM      8  C   UNL     1       1.664 -20.094   3.645  1.00  0.00     0.000 C 
BRANCH   8   9
ATOM      9  C   UNL     1       1.582 -18.803   2.818  1.00  0.00     0.006 C 
BRANCH   9  10
ATOM     10  C   UNL     1       2.940 -18.098   2.766  1.00  0.00     0.053 C 
BRANCH  10  11
ATOM     11  C   UNL     1       3.941 -18.940   2.039  1.00  0.00     0.041 C 
ATOM     12  O   UNL     1       3.725 -19.297   0.852  1.00  0.00    -0.550 OA
ATOM     13  O   UNL     1       5.136 -19.289   2.657  1.00  0.00    -0.550 OA
ENDBRANCH  10  11
ENDBRANCH   9  10
ENDBRANCH   8   9
ENDBRANCH   1   8
TORSDOF 8
ENDMDL
MODEL 6
REMARK VINA RESULT:    -3.006      5.593      8.265
REMARK INTER + INTRA:          -4.710
REMARK INTER:                  -4.300
REMARK INTRA:                  -0.410
REMARK UNBOUND:                -0.297
REMARK SMILES O=C([O-])CCCCCCCC(=O)[O-]
REMARK SMILES IDX 7 1 6 2 5 3 4 4 2 5 1 6 3 7 8 8 9 9 10 10 11 11 12 12 13 13
REMARK H PARENT
REMARK Flexibility Score: inf
ROOT
ATOM      1  C   UNL     1       9.005 -15.942   6.383  1.00  0.00     0.000 C 
ENDROOT
BRANCH   1   2
ATOM      2  C   UNL     1      10.246 -15.728   5.502  1.00  0.00     0.000 C 
BRANCH   2   3
ATOM      3  C   UNL     1      10.233 -16.676   4.297  1.00  0.00     0.006 C 
BRANCH   3   4
ATOM      4  C   UNL     1       9.126 -17.726   4.435  1.00  0.00     0.053 C 
BRANCH   4   5
ATOM      5  C   UNL     1       8.600 -18.113   3.090  1.00  0.00     0.041 C 
ATOM      6  O   UNL     1       9.138 -17.659   2.045  1.00  0.00    -0.550 OA
ATOM      7  O   UNL     1       7.549 -19.015   2.987  1.00  0.00    -0.550 OA
ENDBRANCH   4   5
ENDBRANCH   3   4
ENDBRANCH   2   3
ENDBRANCH   1   2
BRANCH   1   8
ATOM      8  C   UNL     1       8.900 -14.911   7.518  1.00  0.00     0.000 C 
BRANCH   8   9
ATOM      9  C   UNL     1       9.807 -15.248   8.711  1.00  0.00     0.006 C 
BRANCH   9  10
ATOM     10  C   UNL     1      10.573 -14.010   9.184  1.00  0.00     0.053 C 
BRANCH  10  11
ATOM     11  C   UNL     1      12.045 -14.197   8.990  1.00  0.00     0.041 C 
ATOM     12  O   UNL     1      12.472 -14.954   8.080  1.00  0.00    -0.550 OA
ATOM     13  O   UNL     1      12.945 -13.497   9.783  1.00  0.00    -0.550 OA
ENDBRANCH  10  11
ENDBRANCH   9  10
ENDBRANCH   8   9
ENDBRANCH   1   8
TORSDOF 8
ENDMDL
MODEL 7
REMARK VINA RESULT:    -2.987     17.014     18.601
REMARK INTER + INTRA:          -4.681
REMARK INTER:                  -4.176
REMARK INTRA:                  -0.505
REMARK UNBOUND:                -0.297
REMARK SMILES O=C([O-])CCCCCCCC(=O)[O-]
REMARK SMILES IDX 7 1 6 2 5 3 4 4 2 5 1 6 3 7 8 8 9 9 10 10 11 11 12 12 13 13
REMARK H PARENT
REMARK Flexibility Score: inf
ROOT
ATOM      1  C   UNL     1       8.714  -9.775  14.950  1.00  0.00     0.000 C 
ENDROOT
BRANCH   1   2
ATOM      2  C   UNL     1       9.955  -9.063  15.511  1.00  0.00     0.000 C 
BRANCH   2   3
ATOM      3  C   UNL     1       9.611  -7.640  15.965  1.00  0.00     0.006 C 
BRANCH   3   4
ATOM      4  C   UNL     1       8.134  -7.322  15.709  1.00  0.00     0.053 C 
BRANCH   4   5
ATOM      5  C   UNL     1       7.992  -5.982  15.061  1.00  0.00     0.041 C 
ATOM      6  O   UNL     1       8.999  -5.242  14.909  1.00  0.00    -0.550 OA
ATOM      7  O   UNL     1       6.756  -5.571  14.578  1.00  0.00    -0.550 OA
ENDBRANCH   4   5
ENDBRANCH   3   4
ENDBRANCH   2   3
ENDBRANCH   1   2
BRANCH   1   8
ATOM      8  C   UNL     1       8.751 -11.295  15.175  1.00  0.00     0.000 C 
BRANCH   8   9
ATOM      9  C   UNL     1       7.426 -11.845  15.725  1.00  0.00     0.006 C 
BRANCH   9  10
ATOM     10  C   UNL     1       6.339 -10.767  15.717  1.00  0.00     0.053 C 
BRANCH  10  11
ATOM     11  C   UNL     1       4.982 -11.390  15.614  1.00  0.00     0.041 C 
ATOM     12  O   UNL     1       3.954 -10.714  15.878  1.00  0.00    -0.550 OA
ATOM     13  O   UNL     1       4.851 -12.703  15.178  1.00  0.00    -0.550 OA
ENDBRANCH  10  11
ENDBRANCH   9  10
ENDBRANCH   8   9
ENDBRANCH   1   8
TORSDOF 8
ENDMDL
MODEL 8
REMARK VINA RESULT:    -2.983     18.637     20.645
REMARK INTER + INTRA:          -4.675
REMARK INTER:                  -4.305
REMARK INTRA:                  -0.370
REMARK UNBOUND:                -0.297
REMARK SMILES O=C([O-])CCCCCCCC(=O)[O-]
REMARK SMILES IDX 7 1 6 2 5 3 4 4 2 5 1 6 3 7 8 8 9 9 10 10 11 11 12 12 13 13
REMARK H PARENT
REMARK Flexibility Score: inf
ROOT
ATOM      1  C   UNL     1      -5.267 -12.560  13.851  1.00  0.00     0.000 C 
ENDROOT
BRANCH   1   2
ATOM      2  C   UNL     1      -5.815 -13.632  12.897  1.00  0.00     0.000 C 
BRANCH   2   3
ATOM      3  C   UNL     1      -4.682 -14.500  12.338  1.00  0.00     0.006 C 
BRANCH   3   4
ATOM      4  C   UNL     1      -5.238 -15.695  11.557  1.00  0.00     0.053 C 
BRANCH   4   5
ATOM      5  C   UNL     1      -4.777 -15.652  10.136  1.00  0.00     0.041 C 
ATOM      6  O   UNL     1      -4.188 -16.645   9.631  1.00  0.00    -0.550 OA
ATOM      7  O   UNL     1      -5.040 -14.536   9.352  1.00  0.00    -0.550 OA
ENDBRANCH   4   5
ENDBRANCH   3   4
ENDBRANCH   2   3
ENDBRANCH   1   2
BRANCH   1   8
ATOM      8  C   UNL     1      -3.758 -12.706  14.102  1.00  0.00     0.000 C 
BRANCH   8   9
ATOM      9  C   UNL     1      -3.229 -11.706  15.142  1.00  0.00     0.006 C 
BRANCH   9  10
ATOM     10  C   UNL     1      -3.772 -10.299  14.874  1.00  0.00     0.053 C 
BRANCH  10  11
ATOM     11  C   UNL     1      -2.658  -9.367  14.513  1.00  0.00     0.041 C 
ATOM     12  O   UNL     1      -2.121  -9.432  13.377  1.00  0.00    -0.550 OA
ATOM     13  O   UNL     1      -2.246  -8.394  15.415  1.00  0.00    -0.550 OA
ENDBRANCH  10  11
ENDBRANCH   9  10
ENDBRANCH   8   9
ENDBRANCH   1   8
TORSDOF 8
ENDMDL
MODEL 9
REMARK VINA RESULT:    -2.954      6.906      9.063
REMARK INTER + INTRA:          -4.632
REMARK INTER:                  -3.915
REMARK INTRA:                  -0.717
REMARK UNBOUND:                -0.297
REMARK SMILES O=C([O-])CCCCCCCC(=O)[O-]
REMARK SMILES IDX 7 1 6 2 5 3 4 4 2 5 1 6 3 7 8 8 9 9 10 10 11 11 12 12 13 13
REMARK H PARENT
REMARK Flexibility Score: inf
ROOT
ATOM      1  C   UNL     1       2.222 -19.285   5.152  1.00  0.00     0.000 C 
ENDROOT
BRANCH   1   2
ATOM      2  C   UNL     1       2.876 -18.048   4.516  1.00  0.00     0.000 C 
BRANCH   2   3
ATOM      3  C   UNL     1       2.541 -17.958   3.022  1.00  0.00     0.006 C 
BRANCH   3   4
ATOM      4  C   UNL     1       3.706 -18.464   2.166  1.00  0.00     0.053 C 
BRANCH   4   5
ATOM      5  C   UNL     1       3.282 -19.641   1.348  1.00  0.00     0.041 C 
ATOM      6  O   UNL     1       2.405 -20.433   1.784  1.00  0.00    -0.550 OA
ATOM      7  O   UNL     1       3.817 -19.837   0.081  1.00  0.00    -0.550 OA
ENDBRANCH   4   5
ENDBRANCH   3   4
ENDBRANCH   2   3
ENDBRANCH   1   2
BRANCH   1   8
ATOM      8  C   UNL     1       3.252 -20.295   5.680  1.00  0.00     0.000 C 
BRANCH   8   9
ATOM      9  C   UNL     1       4.693 -19.766   5.604  1.00  0.00     0.006 C 
BRANCH   9  10
ATOM     10  C   UNL     1       5.514 -20.557   4.582  1.00  0.00     0.053 C 
BRANCH  10  11
ATOM     11  C   UNL     1       6.750 -19.802   4.204  1.00  0.00     0.041 C 
ATOM     12  O   UNL     1       6.923 -19.427   3.016  1.00  0.00    -0.550 OA
ATOM     13  O   UNL     1       7.686 -19.470   5.175  1.00  0.00    -0.550 OA
ENDBRANCH  10  11
ENDBRANCH   9  10
ENDBRANCH   8   9
ENDBRANCH   1   8
TORSDOF 8
ENDMDL
