MODEL 1
REMARK VINA RESULT:    -6.224      0.000      0.000
REMARK INTER + INTRA:          -7.380
REMARK INTER:                  -7.134
REMARK INTRA:                  -0.246
REMARK UNBOUND:                -0.246
REMARK SMILES O=c1c(-c2ccc(O)cc2)coc2c(O)c(O)ccc12
REMARK SMILES IDX 3 1 11 2 12 3 13 4 20 5 2 6 1 7 19 8 18 9 16 10 14 11 4 12
REMARK SMILES IDX 5 13 6 14 7 15 10 16 9 17 8 18 15 20 17 22
REMARK H PARENT 8 19 15 21 17 23
REMARK Flexibility Score: inf
ROOT
ATOM      1  C   UNL     1      84.201  57.931 256.599  1.00  0.00     0.065 A 
ATOM      2  C   UNL     1      84.384  57.799 257.984  1.00  0.00     0.208 A 
ATOM      3  O   UNL     1      84.108  56.657 258.605  1.00  0.00    -0.459 OA
ATOM      4  C   UNL     1      83.648  55.584 257.969  1.00  0.00     0.183 A 
ATOM      5  C   UNL     1      83.437  55.624 256.571  1.00  0.00     0.069 A 
ATOM      6  C   UNL     1      83.725  56.816 255.883  1.00  0.00     0.200 A 
ATOM      7  O   UNL     1      83.578  56.880 254.631  1.00  0.00    -0.288 OA
ATOM      8  C   UNL     1      82.955  54.481 255.912  1.00  0.00     0.020 A 
ATOM      9  C   UNL     1      82.684  53.316 256.632  1.00  0.00     0.051 A 
ATOM     10  C   UNL     1      82.891  53.275 258.017  1.00  0.00     0.161 A 
ATOM     11  C   UNL     1      83.373  54.407 258.688  1.00  0.00     0.201 A 
ENDROOT
BRANCH   1  12
ATOM     12  C   UNL     1      84.510  59.220 255.932  1.00  0.00    -0.011 A 
ATOM     13  C   UNL     1      85.723  59.398 255.242  1.00  0.00     0.013 A 
ATOM     14  C   UNL     1      86.006  60.612 254.609  1.00  0.00     0.047 A 
ATOM     15  C   UNL     1      85.082  61.660 254.652  1.00  0.00     0.115 A 
ATOM     16  C   UNL     1      83.582  60.277 255.965  1.00  0.00     0.013 A 
ATOM     17  C   UNL     1      83.868  61.490 255.331  1.00  0.00     0.047 A 
BRANCH  15  18
ATOM     18  O   UNL     1      85.377  62.864 254.017  1.00  0.00    -0.508 OA
ATOM     19  H   UNL     1      85.931  63.581 254.471  1.00  0.00     0.293 HD
ENDBRANCH  15  18
ENDBRANCH   1  12
BRANCH  11  20
ATOM     20  O   UNL     1      83.573  54.345 260.067  1.00  0.00    -0.502 OA
ATOM     21  H   UNL     1      84.022  53.554 260.513  1.00  0.00     0.293 HD
ENDBRANCH  11  20
BRANCH  10  22
ATOM     22  O   UNL     1      82.619  52.112 258.734  1.00  0.00    -0.504 OA
ATOM     23  H   UNL     1      82.778  51.193 258.336  1.00  0.00     0.293 HD
ENDBRANCH  10  22
TORSDOF 4
ENDMDL
MODEL 2
REMARK VINA RESULT:    -6.061      6.728     10.334
REMARK INTER + INTRA:          -7.193
REMARK INTER:                  -6.993
REMARK INTRA:                  -0.199
REMARK UNBOUND:                -0.246
REMARK SMILES O=c1c(-c2ccc(O)cc2)coc2c(O)c(O)ccc12
REMARK SMILES IDX 3 1 11 2 12 3 13 4 20 5 2 6 1 7 19 8 18 9 16 10 14 11 4 12
REMARK SMILES IDX 5 13 6 14 7 15 10 16 9 17 8 18 15 20 17 22
REMARK H PARENT 8 19 15 21 17 23
REMARK Flexibility Score: inf
ROOT
ATOM      1  C   UNL     1      80.336  64.252 257.099  1.00  0.00     0.065 A 
ATOM      2  C   UNL     1      80.636  65.513 256.560  1.00  0.00     0.208 A 
ATOM      3  O   UNL     1      80.345  66.627 257.224  1.00  0.00    -0.459 OA
ATOM      4  C   UNL     1      79.762  66.623 258.419  1.00  0.00     0.183 A 
ATOM      5  C   UNL     1      79.428  65.397 259.041  1.00  0.00     0.069 A 
ATOM      6  C   UNL     1      79.728  64.200 258.368  1.00  0.00     0.200 A 
ATOM      7  O   UNL     1      79.472  63.086 258.905  1.00  0.00    -0.288 OA
ATOM      8  C   UNL     1      78.816  65.408 260.306  1.00  0.00     0.020 A 
ATOM      9  C   UNL     1      78.538  66.619 260.941  1.00  0.00     0.051 A 
ATOM     10  C   UNL     1      78.866  67.834 260.326  1.00  0.00     0.161 A 
ATOM     11  C   UNL     1      79.478  67.839 259.066  1.00  0.00     0.201 A 
ENDROOT
BRANCH   1  12
ATOM     12  C   UNL     1      80.665  63.024 256.333  1.00  0.00    -0.011 A 
ATOM     13  C   UNL     1      81.998  62.592 256.209  1.00  0.00     0.013 A 
ATOM     14  C   UNL     1      82.301  61.430 255.493  1.00  0.00     0.047 A 
ATOM     15  C   UNL     1      81.281  60.683 254.898  1.00  0.00     0.115 A 
ATOM     16  C   UNL     1      79.642  62.264 255.738  1.00  0.00     0.013 A 
ATOM     17  C   UNL     1      79.950  61.102 255.022  1.00  0.00     0.047 A 
BRANCH  15  18
ATOM     18  O   UNL     1      81.598  59.528 254.187  1.00  0.00    -0.508 OA
ATOM     19  H   UNL     1      80.895  58.832 253.967  1.00  0.00     0.293 HD
ENDBRANCH  15  18
ENDBRANCH   1  12
BRANCH  11  20
ATOM     20  O   UNL     1      79.799  69.060 258.470  1.00  0.00    -0.502 OA
ATOM     21  H   UNL     1      80.257  69.805 258.980  1.00  0.00     0.293 HD
ENDBRANCH  11  20
BRANCH  10  22
ATOM     22  O   UNL     1      78.587  69.042 260.962  1.00  0.00    -0.504 OA
ATOM     23  H   UNL     1      77.910  69.103 261.714  1.00  0.00     0.293 HD
ENDBRANCH  10  22
TORSDOF 4
ENDMDL
MODEL 3
REMARK VINA RESULT:    -5.971      3.103      4.125
REMARK INTER + INTRA:          -7.089
REMARK INTER:                  -7.514
REMARK INTRA:                   0.424
REMARK UNBOUND:                -0.246
REMARK SMILES O=c1c(-c2ccc(O)cc2)coc2c(O)c(O)ccc12
REMARK SMILES IDX 3 1 11 2 12 3 13 4 20 5 2 6 1 7 19 8 18 9 16 10 14 11 4 12
REMARK SMILES IDX 5 13 6 14 7 15 10 16 9 17 8 18 15 20 17 22
REMARK H PARENT 8 19 15 21 17 23
REMARK Flexibility Score: inf
ROOT
ATOM      1  C   UNL     1      82.768  55.829 258.118  1.00  0.00     0.065 A 
ATOM      2  C   UNL     1      82.965  55.845 259.507  1.00  0.00     0.208 A 
ATOM      3  O   UNL     1      82.011  55.441 260.338  1.00  0.00    -0.459 OA
ATOM      4  C   UNL     1      80.828  55.002 259.919  1.00  0.00     0.183 A 
ATOM      5  C   UNL     1      80.542  54.947 258.534  1.00  0.00     0.069 A 
ATOM      6  C   UNL     1      81.533  55.363 257.628  1.00  0.00     0.200 A 
ATOM      7  O   UNL     1      81.326  55.299 256.385  1.00  0.00    -0.288 OA
ATOM      8  C   UNL     1      79.289  54.478 258.105  1.00  0.00     0.020 A 
ATOM      9  C   UNL     1      78.333  54.072 259.039  1.00  0.00     0.051 A 
ATOM     10  C   UNL     1      78.614  54.128 260.410  1.00  0.00     0.161 A 
ATOM     11  C   UNL     1      79.860  54.592 260.853  1.00  0.00     0.201 A 
ENDROOT
BRANCH   1  12
ATOM     12  C   UNL     1      83.848  56.294 257.212  1.00  0.00    -0.011 A 
ATOM     13  C   UNL     1      83.901  55.857 255.876  1.00  0.00     0.013 A 
ATOM     14  C   UNL     1      84.917  56.305 255.026  1.00  0.00     0.047 A 
ATOM     15  C   UNL     1      85.888  57.194 255.495  1.00  0.00     0.115 A 
ATOM     16  C   UNL     1      84.824  57.194 257.676  1.00  0.00     0.013 A 
ATOM     17  C   UNL     1      85.839  57.639 256.823  1.00  0.00     0.047 A 
BRANCH  15  18
ATOM     18  O   UNL     1      86.894  57.630 254.637  1.00  0.00    -0.508 OA
ATOM     19  H   UNL     1      87.710  58.123 254.983  1.00  0.00     0.293 HD
ENDBRANCH  15  18
ENDBRANCH   1  12
BRANCH  11  20
ATOM     20  O   UNL     1      80.120  54.638 262.223  1.00  0.00    -0.502 OA
ATOM     21  H   UNL     1      79.399  54.848 262.903  1.00  0.00     0.293 HD
ENDBRANCH  11  20
BRANCH  10  22
ATOM     22  O   UNL     1      77.659  53.723 261.340  1.00  0.00    -0.504 OA
ATOM     23  H   UNL     1      76.750  54.168 261.396  1.00  0.00     0.293 HD
ENDBRANCH  10  22
TORSDOF 4
ENDMDL
MODEL 4
REMARK VINA RESULT:    -5.834      1.006      2.098
REMARK INTER + INTRA:          -6.932
REMARK INTER:                  -6.683
REMARK INTRA:                  -0.249
REMARK UNBOUND:                -0.246
REMARK SMILES O=c1c(-c2ccc(O)cc2)coc2c(O)c(O)ccc12
REMARK SMILES IDX 3 1 11 2 12 3 13 4 20 5 2 6 1 7 19 8 18 9 16 10 14 11 4 12
REMARK SMILES IDX 5 13 6 14 7 15 10 16 9 17 8 18 15 20 17 22
REMARK H PARENT 8 19 15 21 17 23
REMARK Flexibility Score: inf
ROOT
ATOM      1  C   UNL     1      84.085  57.928 256.009  1.00  0.00     0.065 A 
ATOM      2  C   UNL     1      83.810  56.897 255.098  1.00  0.00     0.208 A 
ATOM      3  O   UNL     1      83.523  55.670 255.520  1.00  0.00    -0.459 OA
ATOM      4  C   UNL     1      83.477  55.343 256.807  1.00  0.00     0.183 A 
ATOM      5  C   UNL     1      83.735  56.320 257.797  1.00  0.00     0.069 A 
ATOM      6  C   UNL     1      84.037  57.629 257.384  1.00  0.00     0.200 A 
ATOM      7  O   UNL     1      84.243  58.535 258.239  1.00  0.00    -0.288 OA
ATOM      8  C   UNL     1      83.679  55.960 259.155  1.00  0.00     0.020 A 
ATOM      9  C   UNL     1      83.374  54.649 259.522  1.00  0.00     0.051 A 
ATOM     10  C   UNL     1      83.119  53.680 258.543  1.00  0.00     0.161 A 
ATOM     11  C   UNL     1      83.169  54.023 257.185  1.00  0.00     0.201 A 
ENDROOT
BRANCH   1  12
ATOM     12  C   UNL     1      84.410  59.288 255.511  1.00  0.00    -0.011 A 
ATOM     13  C   UNL     1      85.704  59.593 255.051  1.00  0.00     0.013 A 
ATOM     14  C   UNL     1      86.002  60.874 254.576  1.00  0.00     0.047 A 
ATOM     15  C   UNL     1      85.014  61.863 254.548  1.00  0.00     0.115 A 
ATOM     16  C   UNL     1      83.419  60.286 255.474  1.00  0.00     0.013 A 
ATOM     17  C   UNL     1      83.721  61.565 254.998  1.00  0.00     0.047 A 
BRANCH  15  18
ATOM     18  O   UNL     1      85.326  63.134 254.073  1.00  0.00    -0.508 OA
ATOM     19  H   UNL     1      85.076  63.425 253.134  1.00  0.00     0.293 HD
ENDBRANCH  15  18
ENDBRANCH   1  12
BRANCH  11  20
ATOM     20  O   UNL     1      82.912  53.044 256.226  1.00  0.00    -0.502 OA
ATOM     21  H   UNL     1      82.293  53.207 255.441  1.00  0.00     0.293 HD
ENDBRANCH  11  20
BRANCH  10  22
ATOM     22  O   UNL     1      82.814  52.371 258.911  1.00  0.00    -0.504 OA
ATOM     23  H   UNL     1      83.271  51.577 258.478  1.00  0.00     0.293 HD
ENDBRANCH  10  22
TORSDOF 4
ENDMDL
MODEL 5
REMARK VINA RESULT:    -5.787      6.334      9.228
REMARK INTER + INTRA:          -6.878
REMARK INTER:                  -6.608
REMARK INTRA:                  -0.270
REMARK UNBOUND:                -0.246
REMARK SMILES O=c1c(-c2ccc(O)cc2)coc2c(O)c(O)ccc12
REMARK SMILES IDX 3 1 11 2 12 3 13 4 20 5 2 6 1 7 19 8 18 9 16 10 14 11 4 12
REMARK SMILES IDX 5 13 6 14 7 15 10 16 9 17 8 18 15 20 17 22
REMARK H PARENT 8 19 15 21 17 23
REMARK Flexibility Score: inf
ROOT
ATOM      1  C   UNL     1      76.903  53.956 258.976  1.00  0.00     0.065 A 
ATOM      2  C   UNL     1      77.030  53.818 260.367  1.00  0.00     0.208 A 
ATOM      3  O   UNL     1      78.186  54.062 260.975  1.00  0.00    -0.459 OA
ATOM      4  C   UNL     1      79.278  54.446 260.322  1.00  0.00     0.183 A 
ATOM      5  C   UNL     1      79.242  54.615 258.918  1.00  0.00     0.069 A 
ATOM      6  C   UNL     1      78.032  54.371 258.244  1.00  0.00     0.200 A 
ATOM      7  O   UNL     1      77.953  54.541 256.996  1.00  0.00    -0.288 OA
ATOM      8  C   UNL     1      80.403  55.025 258.241  1.00  0.00     0.020 A 
ATOM      9  C   UNL     1      81.583  55.260 258.949  1.00  0.00     0.051 A 
ATOM     10  C   UNL     1      81.621  55.091 260.339  1.00  0.00     0.161 A 
ATOM     11  C   UNL     1      80.471  54.685 261.028  1.00  0.00     0.201 A 
ENDROOT
BRANCH   1  12
ATOM     12  C   UNL     1      75.603  53.670 258.320  1.00  0.00    -0.011 A 
ATOM     13  C   UNL     1      75.359  52.418 257.726  1.00  0.00     0.013 A 
ATOM     14  C   UNL     1      74.129  52.153 257.117  1.00  0.00     0.047 A 
ATOM     15  C   UNL     1      73.127  53.127 257.097  1.00  0.00     0.115 A 
ATOM     16  C   UNL     1      74.588  54.644 258.303  1.00  0.00     0.013 A 
ATOM     17  C   UNL     1      73.359  54.374 257.692  1.00  0.00     0.047 A 
BRANCH  15  18
ATOM     18  O   UNL     1      71.907  52.848 256.486  1.00  0.00    -0.508 OA
ATOM     19  H   UNL     1      71.754  51.985 255.977  1.00  0.00     0.293 HD
ENDBRANCH  15  18
ENDBRANCH   1  12
BRANCH  11  20
ATOM     20  O   UNL     1      80.529  54.524 262.413  1.00  0.00    -0.502 OA
ATOM     21  H   UNL     1      80.598  55.311 263.045  1.00  0.00     0.293 HD
ENDBRANCH  11  20
BRANCH  10  22
ATOM     22  O   UNL     1      82.800  55.326 261.044  1.00  0.00    -0.504 OA
ATOM     23  H   UNL     1      83.289  56.212 260.980  1.00  0.00     0.293 HD
ENDBRANCH  10  22
TORSDOF 4
ENDMDL
MODEL 6
REMARK VINA RESULT:    -5.758      5.826      9.987
REMARK INTER + INTRA:          -6.846
REMARK INTER:                  -6.611
REMARK INTRA:                  -0.234
REMARK UNBOUND:                -0.246
REMARK SMILES O=c1c(-c2ccc(O)cc2)coc2c(O)c(O)ccc12
REMARK SMILES IDX 3 1 11 2 12 3 13 4 20 5 2 6 1 7 19 8 18 9 16 10 14 11 4 12
REMARK SMILES IDX 5 13 6 14 7 15 10 16 9 17 8 18 15 20 17 22
REMARK H PARENT 8 19 15 21 17 23
REMARK Flexibility Score: inf
ROOT
ATOM      1  C   UNL     1      80.814  63.687 256.555  1.00  0.00     0.065 A 
ATOM      2  C   UNL     1      80.036  63.680 257.723  1.00  0.00     0.208 A 
ATOM      3  O   UNL     1      79.706  64.814 258.332  1.00  0.00    -0.459 OA
ATOM      4  C   UNL     1      80.084  66.008 257.886  1.00  0.00     0.183 A 
ATOM      5  C   UNL     1      80.868  66.111 256.713  1.00  0.00     0.069 A 
ATOM      6  C   UNL     1      81.229  64.930 256.041  1.00  0.00     0.200 A 
ATOM      7  O   UNL     1      81.901  64.984 254.974  1.00  0.00    -0.288 OA
ATOM      8  C   UNL     1      81.257  67.380 256.251  1.00  0.00     0.020 A 
ATOM      9  C   UNL     1      80.875  68.529 256.946  1.00  0.00     0.051 A 
ATOM     10  C   UNL     1      80.101  68.428 258.109  1.00  0.00     0.161 A 
ATOM     11  C   UNL     1      79.703  67.170 258.581  1.00  0.00     0.201 A 
ENDROOT
BRANCH   1  12
ATOM     12  C   UNL     1      81.174  62.405 255.899  1.00  0.00    -0.011 A 
ATOM     13  C   UNL     1      82.466  61.866 256.038  1.00  0.00     0.013 A 
ATOM     14  C   UNL     1      82.796  60.654 255.423  1.00  0.00     0.047 A 
ATOM     15  C   UNL     1      81.843  59.964 254.669  1.00  0.00     0.115 A 
ATOM     16  C   UNL     1      80.217  61.701 255.145  1.00  0.00     0.013 A 
ATOM     17  C   UNL     1      80.552  60.490 254.532  1.00  0.00     0.047 A 
BRANCH  15  18
ATOM     18  O   UNL     1      82.187  58.758 254.063  1.00  0.00    -0.508 OA
ATOM     19  H   UNL     1      82.631  58.730 253.152  1.00  0.00     0.293 HD
ENDBRANCH  15  18
ENDBRANCH   1  12
BRANCH  11  20
ATOM     20  O   UNL     1      78.931  67.091 259.740  1.00  0.00    -0.502 OA
ATOM     21  H   UNL     1      78.112  67.668 259.883  1.00  0.00     0.293 HD
ENDBRANCH  11  20
BRANCH  10  22
ATOM     22  O   UNL     1      79.721  69.576 258.802  1.00  0.00    -0.504 OA
ATOM     23  H   UNL     1      79.301  70.368 258.329  1.00  0.00     0.293 HD
ENDBRANCH  10  22
TORSDOF 4
ENDMDL
MODEL 7
REMARK VINA RESULT:    -5.646      3.833      5.961
REMARK INTER + INTRA:          -6.717
REMARK INTER:                  -6.589
REMARK INTRA:                  -0.128
REMARK UNBOUND:                -0.246
REMARK SMILES O=c1c(-c2ccc(O)cc2)coc2c(O)c(O)ccc12
REMARK SMILES IDX 3 1 11 2 12 3 13 4 20 5 2 6 1 7 19 8 18 9 16 10 14 11 4 12
REMARK SMILES IDX 5 13 6 14 7 15 10 16 9 17 8 18 15 20 17 22
REMARK H PARENT 8 19 15 21 17 23
REMARK Flexibility Score: inf
ROOT
ATOM      1  C   UNL     1      80.865  54.324 258.605  1.00  0.00     0.065 A 
ATOM      2  C   UNL     1      79.595  54.880 258.827  1.00  0.00     0.208 A 
ATOM      3  O   UNL     1      78.523  54.107 258.957  1.00  0.00    -0.459 OA
ATOM      4  C   UNL     1      78.578  52.780 258.887  1.00  0.00     0.183 A 
ATOM      5  C   UNL     1      79.817  52.132 258.670  1.00  0.00     0.069 A 
ATOM      6  C   UNL     1      80.972  52.922 258.534  1.00  0.00     0.200 A 
ATOM      7  O   UNL     1      82.099  52.378 258.371  1.00  0.00    -0.288 OA
ATOM      8  C   UNL     1      79.860  50.729 258.603  1.00  0.00     0.020 A 
ATOM      9  C   UNL     1      78.690  49.982 258.746  1.00  0.00     0.051 A 
ATOM     10  C   UNL     1      77.462  50.623 258.959  1.00  0.00     0.161 A 
ATOM     11  C   UNL     1      77.403  52.021 259.030  1.00  0.00     0.201 A 
ENDROOT
BRANCH   1  12
ATOM     12  C   UNL     1      82.045  55.212 258.456  1.00  0.00    -0.011 A 
ATOM     13  C   UNL     1      82.745  55.275 257.238  1.00  0.00     0.013 A 
ATOM     14  C   UNL     1      83.852  56.119 257.102  1.00  0.00     0.047 A 
ATOM     15  C   UNL     1      84.270  56.912 258.174  1.00  0.00     0.115 A 
ATOM     16  C   UNL     1      82.466  56.017 259.529  1.00  0.00     0.013 A 
ATOM     17  C   UNL     1      83.574  56.860 259.389  1.00  0.00     0.047 A 
BRANCH  15  18
ATOM     18  O   UNL     1      85.374  57.747 258.024  1.00  0.00    -0.508 OA
ATOM     19  H   UNL     1      85.935  57.738 257.180  1.00  0.00     0.293 HD
ENDBRANCH  15  18
ENDBRANCH   1  12
BRANCH  11  20
ATOM     20  O   UNL     1      76.171  52.639 259.244  1.00  0.00    -0.502 OA
ATOM     21  H   UNL     1      76.079  53.644 259.329  1.00  0.00     0.293 HD
ENDBRANCH  11  20
BRANCH  10  22
ATOM     22  O   UNL     1      76.295  49.875 259.101  1.00  0.00    -0.504 OA
ATOM     23  H   UNL     1      75.401  50.316 259.288  1.00  0.00     0.293 HD
ENDBRANCH  10  22
TORSDOF 4
ENDMDL
MODEL 8
REMARK VINA RESULT:    -5.431      6.084      9.278
REMARK INTER + INTRA:          -6.470
REMARK INTER:                  -6.275
REMARK INTRA:                  -0.195
REMARK UNBOUND:                -0.246
REMARK SMILES O=c1c(-c2ccc(O)cc2)coc2c(O)c(O)ccc12
REMARK SMILES IDX 3 1 11 2 12 3 13 4 20 5 2 6 1 7 19 8 18 9 16 10 14 11 4 12
REMARK SMILES IDX 5 13 6 14 7 15 10 16 9 17 8 18 15 20 17 22
REMARK H PARENT 8 19 15 21 17 23
REMARK Flexibility Score: inf
ROOT
ATOM      1  C   UNL     1      77.383  54.223 258.478  1.00  0.00     0.065 A 
ATOM      2  C   UNL     1      78.015  54.542 257.266  1.00  0.00     0.208 A 
ATOM      3  O   UNL     1      79.298  54.885 257.233  1.00  0.00    -0.459 OA
ATOM      4  C   UNL     1      80.056  54.948 258.323  1.00  0.00     0.183 A 
ATOM      5  C   UNL     1      79.504  54.640 259.589  1.00  0.00     0.069 A 
ATOM      6  C   UNL     1      78.150  54.267 259.658  1.00  0.00     0.200 A 
ATOM      7  O   UNL     1      77.632  53.955 260.765  1.00  0.00    -0.288 OA
ATOM      8  C   UNL     1      80.318  54.707 260.732  1.00  0.00     0.020 A 
ATOM      9  C   UNL     1      81.659  55.079 260.619  1.00  0.00     0.051 A 
ATOM     10  C   UNL     1      82.206  55.387 259.367  1.00  0.00     0.161 A 
ATOM     11  C   UNL     1      81.408  55.322 258.218  1.00  0.00     0.201 A 
ENDROOT
BRANCH   1  12
ATOM     12  C   UNL     1      75.947  53.850 258.487  1.00  0.00    -0.011 A 
ATOM     13  C   UNL     1      74.952  54.823 258.282  1.00  0.00     0.013 A 
ATOM     14  C   UNL     1      73.600  54.464 258.285  1.00  0.00     0.047 A 
ATOM     15  C   UNL     1      73.225  53.133 258.486  1.00  0.00     0.115 A 
ATOM     16  C   UNL     1      75.563  52.511 258.683  1.00  0.00     0.013 A 
ATOM     17  C   UNL     1      74.210  52.156 258.685  1.00  0.00     0.047 A 
BRANCH  15  18
ATOM     18  O   UNL     1      71.875  52.790 258.487  1.00  0.00    -0.508 OA
ATOM     19  H   UNL     1      71.339  52.751 259.345  1.00  0.00     0.293 HD
ENDBRANCH  15  18
ENDBRANCH   1  12
BRANCH  11  20
ATOM     20  O   UNL     1      81.972  55.631 256.980  1.00  0.00    -0.502 OA
ATOM     21  H   UNL     1      82.268  56.570 256.741  1.00  0.00     0.293 HD
ENDBRANCH  11  20
BRANCH  10  22
ATOM     22  O   UNL     1      83.545  55.758 259.257  1.00  0.00    -0.504 OA
ATOM     23  H   UNL     1      83.836  56.725 259.341  1.00  0.00     0.293 HD
ENDBRANCH  10  22
TORSDOF 4
ENDMDL
MODEL 9
REMARK VINA RESULT:    -5.427      4.048      6.024
REMARK INTER + INTRA:          -6.466
REMARK INTER:                  -6.208
REMARK INTRA:                  -0.258
REMARK UNBOUND:                -0.246
REMARK SMILES O=c1c(-c2ccc(O)cc2)coc2c(O)c(O)ccc12
REMARK SMILES IDX 3 1 11 2 12 3 13 4 20 5 2 6 1 7 19 8 18 9 16 10 14 11 4 12
REMARK SMILES IDX 5 13 6 14 7 15 10 16 9 17 8 18 15 20 17 22
REMARK H PARENT 8 19 15 21 17 23
REMARK Flexibility Score: inf
ROOT
ATOM      1  C   UNL     1      80.913  54.189 258.414  1.00  0.00     0.065 A 
ATOM      2  C   UNL     1      81.089  52.944 259.037  1.00  0.00     0.208 A 
ATOM      3  O   UNL     1      80.072  52.101 259.178  1.00  0.00    -0.459 OA
ATOM      4  C   UNL     1      78.844  52.373 258.747  1.00  0.00     0.183 A 
ATOM      5  C   UNL     1      78.575  53.603 258.102  1.00  0.00     0.069 A 
ATOM      6  C   UNL     1      79.631  54.516 257.933  1.00  0.00     0.200 A 
ATOM      7  O   UNL     1      79.436  55.611 257.336  1.00  0.00    -0.288 OA
ATOM      8  C   UNL     1      77.273  53.876 257.648  1.00  0.00     0.020 A 
ATOM      9  C   UNL     1      76.254  52.941 257.835  1.00  0.00     0.051 A 
ATOM     10  C   UNL     1      76.518  51.723 258.474  1.00  0.00     0.161 A 
ATOM     11  C   UNL     1      77.811  51.435 258.931  1.00  0.00     0.201 A 
ENDROOT
BRANCH   1  12
ATOM     12  C   UNL     1      82.064  55.116 258.277  1.00  0.00    -0.011 A 
ATOM     13  C   UNL     1      82.452  55.942 259.348  1.00  0.00     0.013 A 
ATOM     14  C   UNL     1      83.542  56.807 259.214  1.00  0.00     0.047 A 
ATOM     15  C   UNL     1      84.261  56.856 258.017  1.00  0.00     0.115 A 
ATOM     16  C   UNL     1      82.796  55.164 257.077  1.00  0.00     0.013 A 
ATOM     17  C   UNL     1      83.886  56.031 256.947  1.00  0.00     0.047 A 
BRANCH  15  18
ATOM     18  O   UNL     1      85.344  57.723 257.899  1.00  0.00    -0.508 OA
ATOM     19  H   UNL     1      86.062  57.581 257.197  1.00  0.00     0.293 HD
ENDBRANCH  15  18
ENDBRANCH   1  12
BRANCH  11  20
ATOM     20  O   UNL     1      78.054  50.216 259.564  1.00  0.00    -0.502 OA
ATOM     21  H   UNL     1      78.173  50.143 260.567  1.00  0.00     0.293 HD
ENDBRANCH  11  20
BRANCH  10  22
ATOM     22  O   UNL     1      75.499  50.790 258.659  1.00  0.00    -0.504 OA
ATOM     23  H   UNL     1      74.641  51.030 259.143  1.00  0.00     0.293 HD
ENDBRANCH  10  22
TORSDOF 4
ENDMDL
