MODEL 1
REMARK VINA RESULT:    -5.552      0.000      0.000
REMARK INTER + INTRA:          -8.852
REMARK INTER:                  -8.473
REMARK INTRA:                  -0.378
REMARK UNBOUND:                -0.378
REMARK SMILES CC1=CCC[C@@H](C)C(=O)C[C@@H](C(C)C)C(=O)C1
REMARK SMILES IDX 8 1 9 2 6 3 7 4 5 5 4 6 3 7 2 8 1 9 10 11 11 12 15 13 16 14
REMARK SMILES IDX 17 15 12 17 13 18 14 19
REMARK H PARENT
REMARK Flexibility Score: 70.00
ROOT
ATOM      1  C   UNL     1       0.966   9.972  22.971  1.00  0.00     0.136 C 
ATOM      2  O   UNL     1       1.678   9.570  23.880  1.00  0.00    -0.299 OA
ENDROOT
BRANCH   1   3
ATOM      3  C   UNL     1       1.131   9.365  21.590  1.00  0.00     0.053 C 
ATOM      4  C   UNL     1       0.594   7.929  21.560  1.00  0.00     0.016 C 
BRANCH   3   5
ATOM      5  C   UNL     1       2.595   9.418  21.116  1.00  0.00     0.015 C 
BRANCH   5   6
ATOM      6  C   UNL     1       2.854  10.609  20.176  1.00  0.00     0.028 C 
BRANCH   6   7
ATOM      7  C   UNL     1       3.268  11.826  20.961  1.00  0.00    -0.028 C 
ATOM      8  C   UNL     1       2.480  12.906  21.173  1.00  0.00    -0.070 CG0
ATOM      9  C   UNL     1       3.020  14.016  22.040  1.00  0.00     0.039 C 
ATOM     10  G   UNL     1       1.093  13.052  20.563  1.00  0.00     0.000 G0
ENDBRANCH   6   7
ENDBRANCH   5   6
ENDBRANCH   3   5
ENDBRANCH   1   3
BRANCH   1  11
ATOM     11  C   UNL     1      -0.025  11.078  23.261  1.00  0.00     0.087 C 
BRANCH  11  12
ATOM     12  C   UNL     1      -0.652  11.662  21.965  1.00  0.00     0.066 C 
BRANCH  12  13
ATOM     13  C   UNL     1      -0.012  12.992  21.588  1.00  0.00     0.140 C 
ATOM     14  O   UNL     1      -0.434  14.030  22.078  1.00  0.00    -0.299 OA
BRANCH  13  15
ATOM     15  C   UNL     1       1.095  13.060  20.564  1.00  0.00     0.106 CG0
ATOM     16  G   UNL     1       2.471  12.907  21.195  1.00  0.00     0.000 G0
ENDBRANCH  13  15
ENDBRANCH  12  13
BRANCH  12  17
ATOM     17  C   UNL     1      -2.206  11.759  22.065  1.00  0.00    -0.006 C 
ATOM     18  C   UNL     1      -2.891  12.226  20.769  1.00  0.00     0.008 C 
ATOM     19  C   UNL     1      -2.822  10.435  22.543  1.00  0.00     0.008 C 
ENDBRANCH  12  17
ENDBRANCH  11  12
ENDBRANCH   1  11
TORSDOF 1
ENDMDL
MODEL 2
REMARK VINA RESULT:    -5.416      2.118      4.451
REMARK INTER + INTRA:          -8.644
REMARK INTER:                  -8.398
REMARK INTRA:                  -0.246
REMARK UNBOUND:                -0.378
REMARK SMILES CC1=CCC[C@@H](C)C(=O)C[C@@H](C(C)C)C(=O)C1
REMARK SMILES IDX 8 1 9 2 6 3 7 4 5 5 4 6 3 7 2 8 1 9 10 11 11 12 15 13 16 14
REMARK SMILES IDX 17 15 12 17 13 18 14 19
REMARK H PARENT
REMARK Flexibility Score: 70.00
ROOT
ATOM      1  C   UNL     1      -2.480  11.457  21.793  1.00  0.00     0.136 C 
ATOM      2  O   UNL     1      -2.738  10.509  22.520  1.00  0.00    -0.299 OA
ENDROOT
BRANCH   1   3
ATOM      3  C   UNL     1      -3.562  12.485  21.520  1.00  0.00     0.053 C 
ATOM      4  C   UNL     1      -3.619  12.832  20.028  1.00  0.00     0.016 C 
BRANCH   3   5
ATOM      5  C   UNL     1      -3.372  13.752  22.376  1.00  0.00     0.015 C 
BRANCH   5   6
ATOM      6  C   UNL     1      -2.811  14.925  21.553  1.00  0.00     0.028 C 
BRANCH   6   7
ATOM      7  C   UNL     1      -1.689  15.605  22.293  1.00  0.00    -0.028 C 
ATOM      8  C   UNL     1      -0.375  15.341  22.103  1.00  0.00    -0.070 CG0
ATOM      9  C   UNL     1       0.630  16.158  22.876  1.00  0.00     0.039 C 
ATOM     10  G   UNL     1       0.124  14.252  21.165  1.00  0.00     0.000 G0
ENDBRANCH   6   7
ENDBRANCH   5   6
ENDBRANCH   3   5
ENDBRANCH   1   3
BRANCH   1  11
ATOM     11  C   UNL     1      -1.101  11.543  21.176  1.00  0.00     0.087 C 
BRANCH  11  12
ATOM     12  C   UNL     1      -0.001  11.844  22.231  1.00  0.00     0.066 C 
BRANCH  12  13
ATOM     13  C   UNL     1       0.788  13.096  21.872  1.00  0.00     0.140 C 
ATOM     14  O   UNL     1       1.957  13.197  22.214  1.00  0.00    -0.299 OA
BRANCH  13  15
ATOM     15  C   UNL     1       0.129  14.250  21.155  1.00  0.00     0.106 CG0
ATOM     16  G   UNL     1      -0.362  15.320  22.119  1.00  0.00     0.000 G0
ENDBRANCH  13  15
ENDBRANCH  12  13
BRANCH  12  17
ATOM     17  C   UNL     1       0.924  10.610  22.473  1.00  0.00    -0.006 C 
ATOM     18  C   UNL     1       0.798   9.996  23.878  1.00  0.00     0.008 C 
ATOM     19  C   UNL     1       0.710   9.529  21.402  1.00  0.00     0.008 C 
ENDBRANCH  12  17
ENDBRANCH  11  12
ENDBRANCH   1  11
TORSDOF 1
ENDMDL
MODEL 3
REMARK VINA RESULT:    -5.402      2.026      3.822
REMARK INTER + INTRA:          -8.622
REMARK INTER:                  -8.340
REMARK INTRA:                  -0.281
REMARK UNBOUND:                -0.378
REMARK SMILES CC1=CCC[C@@H](C)C(=O)C[C@@H](C(C)C)C(=O)C1
REMARK SMILES IDX 8 1 9 2 6 3 7 4 5 5 4 6 3 7 2 8 1 9 10 11 11 12 15 13 16 14
REMARK SMILES IDX 17 15 12 17 13 18 14 19
REMARK H PARENT
REMARK Flexibility Score: 70.00
ROOT
ATOM      1  C   UNL     1       2.355  13.587  21.816  1.00  0.00     0.136 C 
ATOM      2  O   UNL     1       2.681  14.538  22.511  1.00  0.00    -0.299 OA
ENDROOT
BRANCH   1   3
ATOM      3  C   UNL     1       3.384  12.513  21.517  1.00  0.00     0.053 C 
ATOM      4  C   UNL     1       3.301  12.073  20.051  1.00  0.00     0.016 C 
BRANCH   3   5
ATOM      5  C   UNL     1       3.242  11.309  22.466  1.00  0.00     0.015 C 
BRANCH   5   6
ATOM      6  C   UNL     1       2.733  10.054  21.734  1.00  0.00     0.028 C 
BRANCH   6   7
ATOM      7  C   UNL     1       1.591   9.425  22.489  1.00  0.00    -0.028 C 
ATOM      8  C   UNL     1       0.283   9.693  22.267  1.00  0.00    -0.070 CG0
ATOM      9  C   UNL     1      -0.742   8.926  23.064  1.00  0.00     0.039 C 
ATOM     10  G   UNL     1      -0.189  10.741  21.269  1.00  0.00     0.000 G0
ENDBRANCH   6   7
ENDBRANCH   5   6
ENDBRANCH   3   5
ENDBRANCH   1   3
BRANCH   1  11
ATOM     11  C   UNL     1       0.948  13.544  21.261  1.00  0.00     0.087 C 
BRANCH  11  12
ATOM     12  C   UNL     1      -0.099  13.159  22.343  1.00  0.00     0.066 C 
BRANCH  12  13
ATOM     13  C   UNL     1      -0.885  11.918  21.940  1.00  0.00     0.140 C 
ATOM     14  O   UNL     1      -2.075  11.838  22.211  1.00  0.00    -0.299 OA
BRANCH  13  15
ATOM     15  C   UNL     1      -0.204  10.750  21.269  1.00  0.00     0.106 CG0
ATOM     16  G   UNL     1       0.259   9.703  22.271  1.00  0.00     0.000 G0
ENDBRANCH  13  15
ENDBRANCH  12  13
BRANCH  12  17
ATOM     17  C   UNL     1      -1.030  14.360  22.701  1.00  0.00    -0.006 C 
ATOM     18  C   UNL     1      -0.641  15.090  23.999  1.00  0.00     0.008 C 
ATOM     19  C   UNL     1      -1.129  15.360  21.540  1.00  0.00     0.008 C 
ENDBRANCH  12  17
ENDBRANCH  11  12
ENDBRANCH   1  11
TORSDOF 1
ENDMDL
MODEL 4
REMARK VINA RESULT:    -5.397      2.136      5.510
REMARK INTER + INTRA:          -8.614
REMARK INTER:                  -8.156
REMARK INTRA:                  -0.459
REMARK UNBOUND:                -0.378
REMARK SMILES CC1=CCC[C@@H](C)C(=O)C[C@@H](C(C)C)C(=O)C1
REMARK SMILES IDX 8 1 9 2 6 3 7 4 5 5 4 6 3 7 2 8 1 9 10 11 11 12 15 13 16 14
REMARK SMILES IDX 17 15 12 17 13 18 14 19
REMARK H PARENT
REMARK Flexibility Score: 70.00
ROOT
ATOM      1  C   UNL     1      -0.747  14.959  22.961  1.00  0.00     0.136 C 
ATOM      2  O   UNL     1      -1.500  15.321  23.853  1.00  0.00    -0.299 OA
ENDROOT
BRANCH   1   3
ATOM      3  C   UNL     1      -0.873  15.602  21.593  1.00  0.00     0.053 C 
ATOM      4  C   UNL     1      -0.436  17.070  21.639  1.00  0.00     0.016 C 
BRANCH   3   5
ATOM      5  C   UNL     1      -2.300  15.466  21.029  1.00  0.00     0.015 C 
BRANCH   5   6
ATOM      6  C   UNL     1      -2.459  14.209  20.156  1.00  0.00     0.028 C 
BRANCH   6   7
ATOM      7  C   UNL     1      -2.959  13.050  20.978  1.00  0.00    -0.028 C 
ATOM      8  C   UNL     1      -2.247  11.928  21.235  1.00  0.00    -0.070 CG0
ATOM      9  C   UNL     1      -2.867  10.887  22.134  1.00  0.00     0.039 C 
ATOM     10  G   UNL     1      -0.869  11.669  20.645  1.00  0.00     0.000 G0
ENDBRANCH   6   7
ENDBRANCH   5   6
ENDBRANCH   3   5
ENDBRANCH   1   3
BRANCH   1  11
ATOM     11  C   UNL     1       0.255  13.865  23.258  1.00  0.00     0.087 C 
BRANCH  11  12
ATOM     12  C   UNL     1       0.831  13.228  21.963  1.00  0.00     0.066 C 
BRANCH  12  13
ATOM     13  C   UNL     1       0.227  11.854  21.702  1.00  0.00     0.140 C 
ATOM     14  O   UNL     1       0.658  10.877  22.297  1.00  0.00    -0.299 OA
BRANCH  13  15
ATOM     15  C   UNL     1      -0.857  11.666  20.668  1.00  0.00     0.106 CG0
ATOM     16  G   UNL     1      -2.244  11.931  21.235  1.00  0.00     0.000 G0
ENDBRANCH  13  15
ENDBRANCH  12  13
BRANCH  12  17
ATOM     17  C   UNL     1       2.391  13.195  21.978  1.00  0.00    -0.006 C 
ATOM     18  C   UNL     1       3.026  12.873  20.613  1.00  0.00     0.008 C 
ATOM     19  C   UNL     1       2.976  14.500  22.538  1.00  0.00     0.008 C 
ENDBRANCH  12  17
ENDBRANCH  11  12
ENDBRANCH   1  11
TORSDOF 1
ENDMDL
MODEL 5
REMARK VINA RESULT:    -5.293      2.353      3.251
REMARK INTER + INTRA:          -8.457
REMARK INTER:                  -7.967
REMARK INTRA:                  -0.490
REMARK UNBOUND:                -0.378
REMARK SMILES CC1=CCC[C@@H](C)C(=O)C[C@@H](C(C)C)C(=O)C1
REMARK SMILES IDX 8 1 9 2 6 3 7 4 5 5 4 6 3 7 2 8 1 9 10 11 11 12 15 13 16 14
REMARK SMILES IDX 17 15 12 17 13 18 14 19
REMARK H PARENT
REMARK Flexibility Score: 70.00
ROOT
ATOM      1  C   UNL     1      -0.165  11.666  21.003  1.00  0.00     0.136 C 
ATOM      2  O   UNL     1       0.114  10.476  21.016  1.00  0.00    -0.299 OA
ENDROOT
BRANCH   1   3
ATOM      3  C   UNL     1       0.748  12.621  20.257  1.00  0.00     0.053 C 
ATOM      4  C   UNL     1       0.788  12.281  18.763  1.00  0.00     0.016 C 
BRANCH   3   5
ATOM      5  C   UNL     1       2.165  12.641  20.859  1.00  0.00     0.015 C 
BRANCH   5   6
ATOM      6  C   UNL     1       2.166  13.128  22.319  1.00  0.00     0.028 C 
BRANCH   6   7
ATOM      7  C   UNL     1       1.922  14.613  22.384  1.00  0.00    -0.028 C 
ATOM      8  C   UNL     1       0.855  15.190  22.984  1.00  0.00    -0.070 CG0
ATOM      9  C   UNL     1       0.792  16.696  23.021  1.00  0.00     0.039 C 
ATOM     10  G   UNL     1      -0.283  14.387  23.599  1.00  0.00     0.000 G0
ENDBRANCH   6   7
ENDBRANCH   5   6
ENDBRANCH   3   5
ENDBRANCH   1   3
BRANCH   1  11
ATOM     11  C   UNL     1      -1.391  12.132  21.757  1.00  0.00     0.087 C 
BRANCH  11  12
ATOM     12  C   UNL     1      -1.689  13.639  21.522  1.00  0.00     0.066 C 
BRANCH  12  13
ATOM     13  C   UNL     1      -1.561  14.439  22.811  1.00  0.00     0.140 C 
ATOM     14  O   UNL     1      -2.478  15.165  23.170  1.00  0.00    -0.299 OA
BRANCH  13  15
ATOM     15  C   UNL     1      -0.291  14.405  23.625  1.00  0.00     0.106 CG0
ATOM     16  G   UNL     1       0.833  15.193  22.969  1.00  0.00     0.000 G0
ENDBRANCH  13  15
ENDBRANCH  12  13
BRANCH  12  17
ATOM     17  C   UNL     1      -3.067  13.855  20.824  1.00  0.00    -0.006 C 
ATOM     18  C   UNL     1      -3.006  14.755  19.577  1.00  0.00     0.008 C 
ATOM     19  C   UNL     1      -3.739  12.518  20.478  1.00  0.00     0.008 C 
ENDBRANCH  12  17
ENDBRANCH  11  12
ENDBRANCH   1  11
TORSDOF 1
ENDMDL
MODEL 6
REMARK VINA RESULT:    -5.288      1.840      5.067
REMARK INTER + INTRA:          -8.448
REMARK INTER:                  -7.999
REMARK INTRA:                  -0.449
REMARK UNBOUND:                -0.378
REMARK SMILES CC1=CCC[C@@H](C)C(=O)C[C@@H](C(C)C)C(=O)C1
REMARK SMILES IDX 8 1 9 2 6 3 7 4 5 5 4 6 3 7 2 8 1 9 10 11 11 12 15 13 16 14
REMARK SMILES IDX 17 15 12 17 13 18 14 19
REMARK H PARENT
REMARK Flexibility Score: 70.00
ROOT
ATOM      1  C   UNL     1       0.232  13.375  20.961  1.00  0.00     0.136 C 
ATOM      2  O   UNL     1      -0.097  14.551  21.006  1.00  0.00    -0.299 OA
ENDROOT
BRANCH   1   3
ATOM      3  C   UNL     1      -0.608  12.412  20.143  1.00  0.00     0.053 C 
ATOM      4  C   UNL     1      -0.668  12.854  18.676  1.00  0.00     0.016 C 
BRANCH   3   5
ATOM      5  C   UNL     1      -2.022  12.250  20.730  1.00  0.00     0.015 C 
BRANCH   5   6
ATOM      6  C   UNL     1      -1.987  11.876  22.223  1.00  0.00     0.028 C 
BRANCH   6   7
ATOM      7  C   UNL     1      -1.755  10.398  22.396  1.00  0.00    -0.028 C 
ATOM      8  C   UNL     1      -0.717   9.859  23.078  1.00  0.00    -0.070 CG0
ATOM      9  C   UNL     1      -0.665   8.358  23.216  1.00  0.00     0.039 C 
ATOM     10  G   UNL     1       0.396  10.697  23.688  1.00  0.00     0.000 G0
ENDBRANCH   6   7
ENDBRANCH   5   6
ENDBRANCH   3   5
ENDBRANCH   1   3
BRANCH   1  11
ATOM     11  C   UNL     1       1.444  12.930  21.750  1.00  0.00     0.087 C 
BRANCH  11  12
ATOM     12  C   UNL     1       1.760  11.423  21.544  1.00  0.00     0.066 C 
BRANCH  12  13
ATOM     13  C   UNL     1       1.672  10.652  22.854  1.00  0.00     0.140 C 
ATOM     14  O   UNL     1       2.607   9.949  23.210  1.00  0.00    -0.299 OA
BRANCH  13  15
ATOM     15  C   UNL     1       0.417  10.685  23.692  1.00  0.00     0.106 CG0
ATOM     16  G   UNL     1      -0.707   9.865  23.077  1.00  0.00     0.000 G0
ENDBRANCH  13  15
ENDBRANCH  12  13
BRANCH  12  17
ATOM     17  C   UNL     1       3.128  11.211  20.822  1.00  0.00    -0.006 C 
ATOM     18  C   UNL     1       3.046  10.322  19.569  1.00  0.00     0.008 C 
ATOM     19  C   UNL     1       3.796  12.551  20.477  1.00  0.00     0.008 C 
ENDBRANCH  12  17
ENDBRANCH  11  12
ENDBRANCH   1  11
TORSDOF 1
ENDMDL
MODEL 7
REMARK VINA RESULT:    -5.201      2.650      5.287
REMARK INTER + INTRA:          -8.316
REMARK INTER:                  -7.995
REMARK INTRA:                  -0.321
REMARK UNBOUND:                -0.378
REMARK SMILES CC1=CCC[C@@H](C)C(=O)C[C@@H](C(C)C)C(=O)C1
REMARK SMILES IDX 8 1 9 2 6 3 7 4 5 5 4 6 3 7 2 8 1 9 10 11 11 12 15 13 16 14
REMARK SMILES IDX 17 15 12 17 13 18 14 19
REMARK H PARENT
REMARK Flexibility Score: 70.00
ROOT
ATOM      1  C   UNL     1       0.434  14.355  22.654  1.00  0.00     0.136 C 
ATOM      2  O   UNL     1       1.466  14.300  22.001  1.00  0.00    -0.299 OA
ENDROOT
BRANCH   1   3
ATOM      3  C   UNL     1      -0.161  15.715  22.968  1.00  0.00     0.053 C 
ATOM      4  C   UNL     1      -1.224  15.603  24.067  1.00  0.00     0.016 C 
BRANCH   3   5
ATOM      5  C   UNL     1      -0.735  16.390  21.709  1.00  0.00     0.015 C 
BRANCH   5   6
ATOM      6  C   UNL     1      -2.243  16.126  21.549  1.00  0.00     0.028 C 
BRANCH   6   7
ATOM      7  C   UNL     1      -2.500  15.191  20.397  1.00  0.00    -0.028 C 
ATOM      8  C   UNL     1      -2.936  13.916  20.526  1.00  0.00    -0.070 CG0
ATOM      9  C   UNL     1      -3.210  13.131  19.268  1.00  0.00     0.039 C 
ATOM     10  G   UNL     1      -3.140  13.244  21.876  1.00  0.00     0.000 G0
ENDBRANCH   6   7
ENDBRANCH   5   6
ENDBRANCH   3   5
ENDBRANCH   1   3
BRANCH   1  11
ATOM     11  C   UNL     1      -0.184  13.064  23.143  1.00  0.00     0.087 C 
BRANCH  11  12
ATOM     12  C   UNL     1      -0.711  12.184  21.977  1.00  0.00     0.066 C 
BRANCH  12  13
ATOM     13  C   UNL     1      -2.225  12.022  22.041  1.00  0.00     0.140 C 
ATOM     14  O   UNL     1      -2.711  10.908  22.177  1.00  0.00    -0.299 OA
BRANCH  13  15
ATOM     15  C   UNL     1      -3.141  13.209  21.872  1.00  0.00     0.106 CG0
ATOM     16  G   UNL     1      -2.934  13.909  20.537  1.00  0.00     0.000 G0
ENDBRANCH  13  15
ENDBRANCH  12  13
BRANCH  12  17
ATOM     17  C   UNL     1       0.029  10.812  21.904  1.00  0.00    -0.006 C 
ATOM     18  C   UNL     1       1.034  10.701  20.744  1.00  0.00     0.008 C 
ATOM     19  C   UNL     1       0.718  10.474  23.235  1.00  0.00     0.008 C 
ENDBRANCH  12  17
ENDBRANCH  11  12
ENDBRANCH   1  11
TORSDOF 1
ENDMDL
MODEL 8
REMARK VINA RESULT:    -5.129      1.757      2.586
REMARK INTER + INTRA:          -8.205
REMARK INTER:                  -7.946
REMARK INTRA:                  -0.259
REMARK UNBOUND:                -0.378
REMARK SMILES CC1=CCC[C@@H](C)C(=O)C[C@@H](C(C)C)C(=O)C1
REMARK SMILES IDX 8 1 9 2 6 3 7 4 5 5 4 6 3 7 2 8 1 9 10 11 11 12 15 13 16 14
REMARK SMILES IDX 17 15 12 17 13 18 14 19
REMARK H PARENT
REMARK Flexibility Score: 70.00
ROOT
ATOM      1  C   UNL     1      -0.640  10.735  22.636  1.00  0.00     0.136 C 
ATOM      2  O   UNL     1      -1.748  10.623  22.134  1.00  0.00    -0.299 OA
ENDROOT
BRANCH   1   3
ATOM      3  C   UNL     1       0.166   9.480  22.916  1.00  0.00     0.053 C 
ATOM      4  C   UNL     1       1.223   9.741  23.995  1.00  0.00     0.016 C 
BRANCH   3   5
ATOM      5  C   UNL     1       0.810   8.920  21.634  1.00  0.00     0.015 C 
BRANCH   5   6
ATOM      6  C   UNL     1       2.342   9.072  21.643  1.00  0.00     0.028 C 
BRANCH   6   7
ATOM      7  C   UNL     1       2.791   9.994  20.539  1.00  0.00    -0.028 C 
ATOM      8  C   UNL     1       3.127  11.293  20.713  1.00  0.00    -0.070 CG0
ATOM      9  C   UNL     1       3.622  12.063  19.514  1.00  0.00     0.039 C 
ATOM     10  G   UNL     1       3.009  12.006  22.052  1.00  0.00     0.000 G0
ENDBRANCH   6   7
ENDBRANCH   5   6
ENDBRANCH   3   5
ENDBRANCH   1   3
BRANCH   1  11
ATOM     11  C   UNL     1      -0.137  12.119  22.983  1.00  0.00     0.087 C 
BRANCH  11  12
ATOM     12  C   UNL     1       0.517  12.830  21.765  1.00  0.00     0.066 C 
BRANCH  12  13
ATOM     13  C   UNL     1       1.988  13.132  22.021  1.00  0.00     0.140 C 
ATOM     14  O   UNL     1       2.357  14.291  22.145  1.00  0.00    -0.299 OA
BRANCH  13  15
ATOM     15  C   UNL     1       3.013  12.026  22.057  1.00  0.00     0.106 CG0
ATOM     16  G   UNL     1       3.123  11.301  20.723  1.00  0.00     0.000 G0
ENDBRANCH  13  15
ENDBRANCH  12  13
BRANCH  12  17
ATOM     17  C   UNL     1      -0.284  14.099  21.337  1.00  0.00    -0.006 C 
ATOM     18  C   UNL     1      -1.102  13.921  20.046  1.00  0.00     0.008 C 
ATOM     19  C   UNL     1      -1.189  14.602  22.472  1.00  0.00     0.008 C 
ENDBRANCH  12  17
ENDBRANCH  11  12
ENDBRANCH   1  11
TORSDOF 1
ENDMDL
MODEL 9
REMARK VINA RESULT:    -4.882      2.270      5.372
REMARK INTER + INTRA:          -7.829
REMARK INTER:                  -7.915
REMARK INTRA:                   0.087
REMARK UNBOUND:                -0.378
REMARK SMILES CC1=CCC[C@@H](C)C(=O)C[C@@H](C(C)C)C(=O)C1
REMARK SMILES IDX 8 1 9 2 6 3 7 4 5 5 4 6 3 7 2 8 1 9 10 11 11 12 15 13 16 14
REMARK SMILES IDX 17 15 12 17 13 18 14 19
REMARK H PARENT
REMARK Flexibility Score: 70.00
ROOT
ATOM      1  C   UNL     1       1.430  14.558  22.589  1.00  0.00     0.136 C 
ATOM      2  O   UNL     1       2.578  14.962  22.476  1.00  0.00    -0.299 OA
ENDROOT
BRANCH   1   3
ATOM      3  C   UNL     1       0.304  15.571  22.684  1.00  0.00     0.053 C 
ATOM      4  C   UNL     1       0.752  16.810  23.468  1.00  0.00     0.016 C 
BRANCH   3   5
ATOM      5  C   UNL     1      -0.966  14.955  23.300  1.00  0.00     0.015 C 
BRANCH   5   6
ATOM      6  C   UNL     1      -2.053  14.696  22.242  1.00  0.00     0.028 C 
BRANCH   6   7
ATOM      7  C   UNL     1      -2.673  13.338  22.439  1.00  0.00    -0.028 C 
ATOM      8  C   UNL     1      -2.323  12.226  21.751  1.00  0.00    -0.070 CG0
ATOM      9  C   UNL     1      -2.994  10.926  22.116  1.00  0.00     0.039 C 
ATOM     10  G   UNL     1      -1.303  12.240  20.622  1.00  0.00     0.000 G0
ENDBRANCH   6   7
ENDBRANCH   5   6
ENDBRANCH   3   5
ENDBRANCH   1   3
BRANCH   1  11
ATOM     11  C   UNL     1       1.190  13.066  22.658  1.00  0.00     0.087 C 
BRANCH  11  12
ATOM     12  C   UNL     1       1.250  12.394  21.259  1.00  0.00     0.066 C 
BRANCH  12  13
ATOM     13  C   UNL     1      -0.004  11.575  20.980  1.00  0.00     0.140 C 
ATOM     14  O   UNL     1       0.051  10.354  20.999  1.00  0.00    -0.299 OA
BRANCH  13  15
ATOM     15  C   UNL     1      -1.304  12.247  20.612  1.00  0.00     0.106 CG0
ATOM     16  G   UNL     1      -2.311  12.213  21.752  1.00  0.00     0.000 G0
ENDBRANCH  13  15
ENDBRANCH  12  13
BRANCH  12  17
ATOM     17  C   UNL     1       2.556  11.560  21.071  1.00  0.00    -0.006 C 
ATOM     18  C   UNL     1       3.216  11.729  19.692  1.00  0.00     0.008 C 
ATOM     19  C   UNL     1       3.574  11.852  22.184  1.00  0.00     0.008 C 
ENDBRANCH  12  17
ENDBRANCH  11  12
ENDBRANCH   1  11
TORSDOF 1
ENDMDL
