MODEL 1
REMARK VINA RESULT:    -5.040      0.000      0.000
REMARK INTER + INTRA:          -5.788
REMARK INTER:                  -5.629
REMARK INTRA:                  -0.159
REMARK UNBOUND:                -0.159
REMARK SMILES O=C([O-])c1ccccc1C(=O)[O-]
REMARK SMILES IDX 4 1 9 2 5 3 8 4 6 5 7 6 2 7 1 8 3 9 10 10 11 11 12 12
REMARK H PARENT
REMARK Flexibility Score: inf
ROOT
ATOM      1  C   UNL     1      41.011  10.160  13.498  1.00  0.00     0.006 A 
ATOM      2  C   UNL     1      41.203  11.559  13.329  1.00  0.00     0.006 A 
ATOM      3  C   UNL     1      39.702   9.661  13.643  1.00  0.00     0.010 A 
ATOM      4  C   UNL     1      40.086  12.414  13.377  1.00  0.00     0.010 A 
ATOM      5  C   UNL     1      38.608  10.525  13.665  1.00  0.00     0.001 A 
ATOM      6  C   UNL     1      38.799  11.899  13.544  1.00  0.00     0.001 A 
ENDROOT
BRANCH   1   7
ATOM      7  C   UNL     1      42.139   9.206  13.603  1.00  0.00     0.072 C 
ATOM      8  O   UNL     1      42.679   8.983  14.720  1.00  0.00    -0.545 OA
ATOM      9  O   UNL     1      42.658   8.595  12.468  1.00  0.00    -0.545 OA
ENDBRANCH   1   7
BRANCH   2  10
ATOM     10  C   UNL     1      42.526  12.153  13.031  1.00  0.00     0.072 C 
ATOM     11  O   UNL     1      43.376  12.302  13.950  1.00  0.00    -0.545 OA
ATOM     12  O   UNL     1      42.826  12.612  11.753  1.00  0.00    -0.545 OA
ENDBRANCH   2  10
TORSDOF 2
ENDMDL
MODEL 2
REMARK VINA RESULT:    -5.030      0.056      2.877
REMARK INTER + INTRA:          -5.777
REMARK INTER:                  -5.609
REMARK INTRA:                  -0.168
REMARK UNBOUND:                -0.159
REMARK SMILES O=C([O-])c1ccccc1C(=O)[O-]
REMARK SMILES IDX 4 1 9 2 5 3 8 4 6 5 7 6 2 7 1 8 3 9 10 10 11 11 12 12
REMARK H PARENT
REMARK Flexibility Score: inf
ROOT
ATOM      1  C   UNL     1      41.170  11.546  13.326  1.00  0.00     0.006 A 
ATOM      2  C   UNL     1      40.988  10.148  13.513  1.00  0.00     0.006 A 
ATOM      3  C   UNL     1      40.044  12.391  13.340  1.00  0.00     0.010 A 
ATOM      4  C   UNL     1      39.682   9.639  13.643  1.00  0.00     0.010 A 
ATOM      5  C   UNL     1      38.761  11.867  13.493  1.00  0.00     0.001 A 
ATOM      6  C   UNL     1      38.579  10.493  13.633  1.00  0.00     0.001 A 
ENDROOT
BRANCH   1   7
ATOM      7  C   UNL     1      42.493  12.148  13.041  1.00  0.00     0.072 C 
ATOM      8  O   UNL     1      43.315  12.344  13.976  1.00  0.00    -0.545 OA
ATOM      9  O   UNL     1      42.821  12.562  11.755  1.00  0.00    -0.545 OA
ENDBRANCH   1   7
BRANCH   2  10
ATOM     10  C   UNL     1      42.123   9.207  13.652  1.00  0.00     0.072 C 
ATOM     11  O   UNL     1      42.637   8.996  14.784  1.00  0.00    -0.545 OA
ATOM     12  O   UNL     1      42.678   8.594  12.534  1.00  0.00    -0.545 OA
ENDBRANCH   2  10
TORSDOF 2
ENDMDL
MODEL 3
REMARK VINA RESULT:    -4.820      1.950      3.257
REMARK INTER + INTRA:          -5.542
REMARK INTER:                  -5.666
REMARK INTRA:                   0.124
REMARK UNBOUND:                -0.159
REMARK SMILES O=C([O-])c1ccccc1C(=O)[O-]
REMARK SMILES IDX 4 1 9 2 5 3 8 4 6 5 7 6 2 7 1 8 3 9 10 10 11 11 12 12
REMARK H PARENT
REMARK Flexibility Score: inf
ROOT
ATOM      1  C   UNL     1      42.466  10.553  12.952  1.00  0.00     0.006 A 
ATOM      2  C   UNL     1      41.154  10.786  13.449  1.00  0.00     0.006 A 
ATOM      3  C   UNL     1      43.248  11.650  12.543  1.00  0.00     0.010 A 
ATOM      4  C   UNL     1      40.649  12.099  13.459  1.00  0.00     0.010 A 
ATOM      5  C   UNL     1      42.734  12.946  12.582  1.00  0.00     0.001 A 
ATOM      6  C   UNL     1      41.434  13.169  13.028  1.00  0.00     0.001 A 
ENDROOT
BRANCH   1   7
ATOM      7  C   UNL     1      43.022   9.192  12.774  1.00  0.00     0.072 C 
ATOM      8  O   UNL     1      44.200   8.935  13.143  1.00  0.00    -0.545 OA
ATOM      9  O   UNL     1      42.281   8.199  12.144  1.00  0.00    -0.545 OA
ENDBRANCH   1   7
BRANCH   2  10
ATOM     10  C   UNL     1      40.317   9.710  14.029  1.00  0.00     0.072 C 
ATOM     11  O   UNL     1      39.145   9.520  13.606  1.00  0.00    -0.545 OA
ATOM     12  O   UNL     1      40.786   8.940  15.088  1.00  0.00    -0.545 OA
ENDBRANCH   2  10
TORSDOF 2
ENDMDL
MODEL 4
REMARK VINA RESULT:    -4.779      1.900      3.161
REMARK INTER + INTRA:          -5.497
REMARK INTER:                  -5.582
REMARK INTRA:                   0.086
REMARK UNBOUND:                -0.159
REMARK SMILES O=C([O-])c1ccccc1C(=O)[O-]
REMARK SMILES IDX 4 1 9 2 5 3 8 4 6 5 7 6 2 7 1 8 3 9 10 10 11 11 12 12
REMARK H PARENT
REMARK Flexibility Score: inf
ROOT
ATOM      1  C   UNL     1      41.085  10.822  13.427  1.00  0.00     0.006 A 
ATOM      2  C   UNL     1      42.390  10.621  12.898  1.00  0.00     0.006 A 
ATOM      3  C   UNL     1      40.544  12.122  13.440  1.00  0.00     0.010 A 
ATOM      4  C   UNL     1      43.131  11.735  12.462  1.00  0.00     0.010 A 
ATOM      5  C   UNL     1      41.289  13.209  12.981  1.00  0.00     0.001 A 
ATOM      6  C   UNL     1      42.583  13.018  12.505  1.00  0.00     0.001 A 
ENDROOT
BRANCH   1   7
ATOM      7  C   UNL     1      40.293   9.729  14.037  1.00  0.00     0.072 C 
ATOM      8  O   UNL     1      39.117   9.503  13.644  1.00  0.00    -0.545 OA
ATOM      9  O   UNL     1      40.810   8.981  15.088  1.00  0.00    -0.545 OA
ENDBRANCH   1   7
BRANCH   2  10
ATOM     10  C   UNL     1      42.980   9.275  12.718  1.00  0.00     0.072 C 
ATOM     11  O   UNL     1      44.151   9.036  13.118  1.00  0.00    -0.545 OA
ATOM     12  O   UNL     1      42.279   8.277  12.050  1.00  0.00    -0.545 OA
ENDBRANCH   2  10
TORSDOF 2
ENDMDL
MODEL 5
REMARK VINA RESULT:    -4.637      2.201      3.816
REMARK INTER + INTRA:          -5.337
REMARK INTER:                  -5.511
REMARK INTRA:                   0.174
REMARK UNBOUND:                -0.159
REMARK SMILES O=C([O-])c1ccccc1C(=O)[O-]
REMARK SMILES IDX 4 1 9 2 5 3 8 4 6 5 7 6 2 7 1 8 3 9 10 10 11 11 12 12
REMARK H PARENT
REMARK Flexibility Score: inf
ROOT
ATOM      1  C   UNL     1      42.362  11.236  13.110  1.00  0.00     0.006 A 
ATOM      2  C   UNL     1      41.289  10.779  13.924  1.00  0.00     0.006 A 
ATOM      3  C   UNL     1      43.267  10.298  12.579  1.00  0.00     0.010 A 
ATOM      4  C   UNL     1      41.198   9.408  14.228  1.00  0.00     0.010 A 
ATOM      5  C   UNL     1      43.144   8.940  12.876  1.00  0.00     0.001 A 
ATOM      6  C   UNL     1      42.119   8.498  13.709  1.00  0.00     0.001 A 
ENDROOT
BRANCH   1   7
ATOM      7  C   UNL     1      42.615  12.673  12.856  1.00  0.00     0.072 C 
ATOM      8  O   UNL     1      41.676  13.426  12.483  1.00  0.00    -0.545 OA
ATOM      9  O   UNL     1      43.898  13.197  12.963  1.00  0.00    -0.545 OA
ENDBRANCH   1   7
BRANCH   2  10
ATOM     10  C   UNL     1      40.215  11.676  14.407  1.00  0.00     0.072 C 
ATOM     11  O   UNL     1      40.268  12.160  15.570  1.00  0.00    -0.545 OA
ATOM     12  O   UNL     1      39.105  11.946  13.614  1.00  0.00    -0.545 OA
ENDBRANCH   2  10
TORSDOF 2
ENDMDL
MODEL 6
REMARK VINA RESULT:    -4.611      2.200      3.243
REMARK INTER + INTRA:          -5.308
REMARK INTER:                  -5.513
REMARK INTRA:                   0.204
REMARK UNBOUND:                -0.159
REMARK SMILES O=C([O-])c1ccccc1C(=O)[O-]
REMARK SMILES IDX 4 1 9 2 5 3 8 4 6 5 7 6 2 7 1 8 3 9 10 10 11 11 12 12
REMARK H PARENT
REMARK Flexibility Score: inf
ROOT
ATOM      1  C   UNL     1      41.284  10.759  13.939  1.00  0.00     0.006 A 
ATOM      2  C   UNL     1      42.344  11.218  13.108  1.00  0.00     0.006 A 
ATOM      3  C   UNL     1      41.209   9.390  14.259  1.00  0.00     0.010 A 
ATOM      4  C   UNL     1      43.251  10.283  12.576  1.00  0.00     0.010 A 
ATOM      5  C   UNL     1      42.134   8.484  13.739  1.00  0.00     0.001 A 
ATOM      6  C   UNL     1      43.145   8.927  12.890  1.00  0.00     0.001 A 
ENDROOT
BRANCH   1   7
ATOM      7  C   UNL     1      40.206  11.651  14.424  1.00  0.00     0.072 C 
ATOM      8  O   UNL     1      40.251  12.123  15.592  1.00  0.00    -0.545 OA
ATOM      9  O   UNL     1      39.103  11.929  13.626  1.00  0.00    -0.545 OA
ENDBRANCH   1   7
BRANCH   2  10
ATOM     10  C   UNL     1      42.579  12.655  12.835  1.00  0.00     0.072 C 
ATOM     11  O   UNL     1      41.624  13.397  12.480  1.00  0.00    -0.545 OA
ATOM     12  O   UNL     1      43.860  13.189  12.903  1.00  0.00    -0.545 OA
ENDBRANCH   2  10
TORSDOF 2
ENDMDL
MODEL 7
REMARK VINA RESULT:    -3.310     11.788     13.204
REMARK INTER + INTRA:          -3.856
REMARK INTER:                  -4.526
REMARK INTRA:                   0.671
REMARK UNBOUND:                -0.159
REMARK SMILES O=C([O-])c1ccccc1C(=O)[O-]
REMARK SMILES IDX 4 1 9 2 5 3 8 4 6 5 7 6 2 7 1 8 3 9 10 10 11 11 12 12
REMARK H PARENT
REMARK Flexibility Score: inf
ROOT
ATOM      1  C   UNL     1      31.128  17.371  18.260  1.00  0.00     0.006 A 
ATOM      2  C   UNL     1      32.463  17.721  18.605  1.00  0.00     0.006 A 
ATOM      3  C   UNL     1      30.814  17.114  16.912  1.00  0.00     0.010 A 
ATOM      4  C   UNL     1      33.419  17.863  17.582  1.00  0.00     0.010 A 
ATOM      5  C   UNL     1      31.784  17.240  15.917  1.00  0.00     0.001 A 
ATOM      6  C   UNL     1      33.081  17.625  16.250  1.00  0.00     0.001 A 
ENDROOT
BRANCH   1   7
ATOM      7  C   UNL     1      30.030  17.338  19.253  1.00  0.00     0.072 C 
ATOM      8  O   UNL     1      29.492  18.410  19.639  1.00  0.00    -0.545 OA
ATOM      9  O   UNL     1      29.621  16.136  19.818  1.00  0.00    -0.545 OA
ENDBRANCH   1   7
BRANCH   2  10
ATOM     10  C   UNL     1      32.912  17.871  20.008  1.00  0.00     0.072 C 
ATOM     11  O   UNL     1      32.123  17.611  20.957  1.00  0.00    -0.545 OA
ATOM     12  O   UNL     1      34.181  18.358  20.300  1.00  0.00    -0.545 OA
ENDBRANCH   2  10
TORSDOF 2
ENDMDL
MODEL 8
REMARK VINA RESULT:    -3.260     12.073     13.345
REMARK INTER + INTRA:          -3.800
REMARK INTER:                  -4.315
REMARK INTRA:                   0.515
REMARK UNBOUND:                -0.159
REMARK SMILES O=C([O-])c1ccccc1C(=O)[O-]
REMARK SMILES IDX 4 1 9 2 5 3 8 4 6 5 7 6 2 7 1 8 3 9 10 10 11 11 12 12
REMARK H PARENT
REMARK Flexibility Score: inf
ROOT
ATOM      1  C   UNL     1      31.814  17.603  19.503  1.00  0.00     0.006 A 
ATOM      2  C   UNL     1      30.907  17.572  18.407  1.00  0.00     0.006 A 
ATOM      3  C   UNL     1      31.317  17.418  20.807  1.00  0.00     0.010 A 
ATOM      4  C   UNL     1      29.531  17.423  18.661  1.00  0.00     0.010 A 
ATOM      5  C   UNL     1      29.951  17.249  21.033  1.00  0.00     0.001 A 
ATOM      6  C   UNL     1      29.058  17.264  19.964  1.00  0.00     0.001 A 
ENDROOT
BRANCH   1   7
ATOM      7  C   UNL     1      33.256  17.896  19.338  1.00  0.00     0.072 C 
ATOM      8  O   UNL     1      33.849  17.581  18.272  1.00  0.00    -0.545 OA
ATOM      9  O   UNL     1      33.987  18.461  20.377  1.00  0.00    -0.545 OA
ENDBRANCH   1   7
BRANCH   2  10
ATOM     10  C   UNL     1      31.358  17.617  16.997  1.00  0.00     0.072 C 
ATOM     11  O   UNL     1      31.668  18.717  16.465  1.00  0.00    -0.545 OA
ATOM     12  O   UNL     1      31.384  16.463  16.223  1.00  0.00    -0.545 OA
ENDBRANCH   2  10
TORSDOF 2
ENDMDL
MODEL 9
REMARK VINA RESULT:    -3.239     11.740     13.248
REMARK INTER + INTRA:          -3.776
REMARK INTER:                  -4.442
REMARK INTRA:                   0.666
REMARK UNBOUND:                -0.159
REMARK SMILES O=C([O-])c1ccccc1C(=O)[O-]
REMARK SMILES IDX 4 1 9 2 5 3 8 4 6 5 7 6 2 7 1 8 3 9 10 10 11 11 12 12
REMARK H PARENT
REMARK Flexibility Score: inf
ROOT
ATOM      1  C   UNL     1      32.524  17.722  18.607  1.00  0.00     0.006 A 
ATOM      2  C   UNL     1      31.191  17.355  18.269  1.00  0.00     0.006 A 
ATOM      3  C   UNL     1      33.474  17.872  17.579  1.00  0.00     0.010 A 
ATOM      4  C   UNL     1      30.875  17.089  16.924  1.00  0.00     0.010 A 
ATOM      5  C   UNL     1      33.131  17.625  16.249  1.00  0.00     0.001 A 
ATOM      6  C   UNL     1      31.838  17.223  15.924  1.00  0.00     0.001 A 
ENDROOT
BRANCH   1   7
ATOM      7  C   UNL     1      32.977  17.882  20.008  1.00  0.00     0.072 C 
ATOM      8  O   UNL     1      32.194  17.625  20.961  1.00  0.00    -0.545 OA
ATOM      9  O   UNL     1      34.246  18.375  20.290  1.00  0.00    -0.545 OA
ENDBRANCH   1   7
BRANCH   2  10
ATOM     10  C   UNL     1      30.098  17.311  19.268  1.00  0.00     0.072 C 
ATOM     11  O   UNL     1      29.526  18.375  19.628  1.00  0.00    -0.545 OA
ATOM     12  O   UNL     1      29.732  16.112  19.867  1.00  0.00    -0.545 OA
ENDBRANCH   2  10
TORSDOF 2
ENDMDL
