MODEL 1
REMARK VINA RESULT:    -4.806      0.000      0.000
REMARK INTER + INTRA:          -4.806
REMARK INTER:                  -4.806
REMARK INTRA:                   0.000
REMARK UNBOUND:                 0.000
REMARK SMILES C=C1CCC[C@]2(C)CC(=O)C(=C(C)C)C[C@@H]12
REMARK SMILES IDX 13 1 12 2 11 3 15 4 16 5 2 6 1 7 3 8 4 9 5 10 6 11 8 12 9 13
REMARK SMILES IDX 10 14 7 15 14 16
REMARK H PARENT
REMARK Flexibility Score: inf
ROOT
ATOM      1  C   UNL     1      29.002  36.834  18.975  1.00  0.00     0.039 C 
ATOM      2  C   UNL     1      28.501  38.203  18.574  1.00  0.00    -0.070 C 
ATOM      3  C   UNL     1      28.150  39.141  19.502  1.00  0.00    -0.006 C 
ATOM      4  C   UNL     1      27.704  40.536  19.083  1.00  0.00     0.047 C 
ATOM      5  C   UNL     1      28.060  41.620  20.130  1.00  0.00     0.025 C 
ATOM      6  C   UNL     1      27.601  43.037  19.782  1.00  0.00    -0.073 C 
ATOM      7  C   UNL     1      26.925  43.356  18.663  1.00  0.00     0.008 C 
ATOM      8  C   UNL     1      27.989  44.122  20.758  1.00  0.00     0.031 C 
ATOM      9  C   UNL     1      27.544  43.749  22.175  1.00  0.00     0.005 C 
ATOM     10  C   UNL     1      28.030  42.343  22.571  1.00  0.00     0.008 C 
ATOM     11  C   UNL     1      27.583  41.238  21.567  1.00  0.00    -0.018 C 
ATOM     12  C   UNL     1      28.267  39.911  21.978  1.00  0.00     0.088 C 
ATOM     13  C   UNL     1      28.061  38.828  20.958  1.00  0.00     0.159 C 
ATOM     14  O   UNL     1      27.800  37.663  21.361  1.00  0.00    -0.295 OA
ATOM     15  C   UNL     1      26.041  41.064  21.637  1.00  0.00     0.012 C 
ATOM     16  C   UNL     1      28.440  38.503  17.092  1.00  0.00     0.039 C 
ENDROOT
TORSDOF 0
ENDMDL
MODEL 2
REMARK VINA RESULT:    -4.420      2.337      3.930
REMARK INTER + INTRA:          -4.420
REMARK INTER:                  -4.420
REMARK INTRA:                   0.000
REMARK UNBOUND:                 0.000
REMARK SMILES C=C1CCC[C@]2(C)CC(=O)C(=C(C)C)C[C@@H]12
REMARK SMILES IDX 13 1 12 2 11 3 15 4 16 5 2 6 1 7 3 8 4 9 5 10 6 11 8 12 9 13
REMARK SMILES IDX 10 14 7 15 14 16
REMARK H PARENT
REMARK Flexibility Score: inf
ROOT
ATOM      1  C   UNL     1      28.763  33.299  22.131  1.00  0.00     0.039 C 
ATOM      2  C   UNL     1      28.652  34.194  20.918  1.00  0.00    -0.070 C 
ATOM      3  C   UNL     1      28.178  35.473  21.008  1.00  0.00    -0.006 C 
ATOM      4  C   UNL     1      28.130  36.383  19.787  1.00  0.00     0.047 C 
ATOM      5  C   UNL     1      28.300  37.879  20.147  1.00  0.00     0.025 C 
ATOM      6  C   UNL     1      28.220  38.846  18.965  1.00  0.00    -0.073 C 
ATOM      7  C   UNL     1      28.006  38.464  17.692  1.00  0.00     0.008 C 
ATOM      8  C   UNL     1      28.443  40.306  19.280  1.00  0.00     0.031 C 
ATOM      9  C   UNL     1      27.507  40.758  20.405  1.00  0.00     0.005 C 
ATOM     10  C   UNL     1      27.600  39.828  21.628  1.00  0.00     0.008 C 
ATOM     11  C   UNL     1      27.327  38.333  21.280  1.00  0.00    -0.018 C 
ATOM     12  C   UNL     1      27.612  37.486  22.545  1.00  0.00     0.088 C 
ATOM     13  C   UNL     1      27.572  36.012  22.260  1.00  0.00     0.159 C 
ATOM     14  O   UNL     1      27.005  35.253  23.091  1.00  0.00    -0.295 OA
ATOM     15  C   UNL     1      25.839  38.158  20.868  1.00  0.00     0.012 C 
ATOM     16  C   UNL     1      29.125  33.623  19.600  1.00  0.00     0.039 C 
ENDROOT
TORSDOF 0
ENDMDL
MODEL 3
REMARK VINA RESULT:    -4.366     12.908     15.658
REMARK INTER + INTRA:          -4.366
REMARK INTER:                  -4.366
REMARK INTRA:                   0.000
REMARK UNBOUND:                 0.000
REMARK SMILES C=C1CCC[C@]2(C)CC(=O)C(=C(C)C)C[C@@H]12
REMARK SMILES IDX 13 1 12 2 11 3 15 4 16 5 2 6 1 7 3 8 4 9 5 10 6 11 8 12 9 13
REMARK SMILES IDX 10 14 7 15 14 16
REMARK H PARENT
REMARK Flexibility Score: inf
ROOT
ATOM      1  C   UNL     1      29.073  31.013  25.730  1.00  0.00     0.039 C 
ATOM      2  C   UNL     1      28.891  29.537  25.456  1.00  0.00    -0.070 C 
ATOM      3  C   UNL     1      28.503  28.666  26.434  1.00  0.00    -0.006 C 
ATOM      4  C   UNL     1      28.265  27.193  26.128  1.00  0.00     0.047 C 
ATOM      5  C   UNL     1      27.188  26.557  27.041  1.00  0.00     0.025 C 
ATOM      6  C   UNL     1      26.935  25.067  26.806  1.00  0.00    -0.073 C 
ATOM      7  C   UNL     1      27.588  24.326  25.892  1.00  0.00     0.008 C 
ATOM      8  C   UNL     1      25.846  24.436  27.642  1.00  0.00     0.031 C 
ATOM      9  C   UNL     1      26.089  24.710  29.129  1.00  0.00     0.005 C 
ATOM     10  C   UNL     1      26.303  26.210  29.402  1.00  0.00     0.008 C 
ATOM     11  C   UNL     1      27.457  26.825  28.555  1.00  0.00    -0.018 C 
ATOM     12  C   UNL     1      27.464  28.356  28.792  1.00  0.00     0.088 C 
ATOM     13  C   UNL     1      28.410  29.068  27.868  1.00  0.00     0.159 C 
ATOM     14  O   UNL     1      29.125  29.994  28.335  1.00  0.00    -0.295 OA
ATOM     15  C   UNL     1      28.816  26.228  29.015  1.00  0.00     0.012 C 
ATOM     16  C   UNL     1      29.121  29.071  24.036  1.00  0.00     0.039 C 
ENDROOT
TORSDOF 0
ENDMDL
MODEL 4
REMARK VINA RESULT:    -4.194      2.434      6.132
REMARK INTER + INTRA:          -4.194
REMARK INTER:                  -4.194
REMARK INTRA:                   0.000
REMARK UNBOUND:                 0.000
REMARK SMILES C=C1CCC[C@]2(C)CC(=O)C(=C(C)C)C[C@@H]12
REMARK SMILES IDX 13 1 12 2 11 3 15 4 16 5 2 6 1 7 3 8 4 9 5 10 6 11 8 12 9 13
REMARK SMILES IDX 10 14 7 15 14 16
REMARK H PARENT
REMARK Flexibility Score: inf
ROOT
ATOM      1  C   UNL     1      28.932  41.628  20.299  1.00  0.00     0.039 C 
ATOM      2  C   UNL     1      28.538  40.575  21.309  1.00  0.00    -0.070 C 
ATOM      3  C   UNL     1      28.350  39.269  20.952  1.00  0.00    -0.006 C 
ATOM      4  C   UNL     1      28.013  38.209  21.992  1.00  0.00     0.047 C 
ATOM      5  C   UNL     1      28.550  36.806  21.614  1.00  0.00     0.025 C 
ATOM      6  C   UNL     1      28.207  35.690  22.602  1.00  0.00    -0.073 C 
ATOM      7  C   UNL     1      27.484  35.872  23.723  1.00  0.00     0.008 C 
ATOM      8  C   UNL     1      28.770  34.324  22.288  1.00  0.00     0.031 C 
ATOM      9  C   UNL     1      28.396  33.909  20.862  1.00  0.00     0.005 C 
ATOM     10  C   UNL     1      28.771  34.996  19.838  1.00  0.00     0.008 C 
ATOM     11  C   UNL     1      28.145  36.385  20.166  1.00  0.00    -0.018 C 
ATOM     12  C   UNL     1      28.725  37.420  19.170  1.00  0.00     0.088 C 
ATOM     13  C   UNL     1      28.339  38.827  19.527  1.00  0.00     0.159 C 
ATOM     14  O   UNL     1      27.996  39.610  18.602  1.00  0.00    -0.295 OA
ATOM     15  C   UNL     1      26.603  36.314  19.994  1.00  0.00     0.012 C 
ATOM     16  C   UNL     1      28.397  41.023  22.747  1.00  0.00     0.039 C 
ENDROOT
TORSDOF 0
ENDMDL
MODEL 5
REMARK VINA RESULT:    -4.186      1.762      5.528
REMARK INTER + INTRA:          -4.186
REMARK INTER:                  -4.186
REMARK INTRA:                   0.000
REMARK UNBOUND:                 0.000
REMARK SMILES C=C1CCC[C@]2(C)CC(=O)C(=C(C)C)C[C@@H]12
REMARK SMILES IDX 13 1 12 2 11 3 15 4 16 5 2 6 1 7 3 8 4 9 5 10 6 11 8 12 9 13
REMARK SMILES IDX 10 14 7 15 14 16
REMARK H PARENT
REMARK Flexibility Score: inf
ROOT
ATOM      1  C   UNL     1      27.703  43.598  20.848  1.00  0.00     0.039 C 
ATOM      2  C   UNL     1      27.540  42.257  21.525  1.00  0.00    -0.070 C 
ATOM      3  C   UNL     1      27.646  41.083  20.834  1.00  0.00    -0.006 C 
ATOM      4  C   UNL     1      27.539  39.739  21.542  1.00  0.00     0.047 C 
ATOM      5  C   UNL     1      28.374  38.631  20.854  1.00  0.00     0.025 C 
ATOM      6  C   UNL     1      28.273  37.247  21.499  1.00  0.00    -0.073 C 
ATOM      7  C   UNL     1      27.517  36.971  22.578  1.00  0.00     0.008 C 
ATOM      8  C   UNL     1      29.125  36.161  20.883  1.00  0.00     0.031 C 
ATOM      9  C   UNL     1      28.865  36.070  19.377  1.00  0.00     0.005 C 
ATOM     10  C   UNL     1      29.004  37.442  18.693  1.00  0.00     0.008 C 
ATOM     11  C   UNL     1      28.086  38.533  19.323  1.00  0.00    -0.018 C 
ATOM     12  C   UNL     1      28.434  39.892  18.667  1.00  0.00     0.088 C 
ATOM     13  C   UNL     1      27.746  41.041  19.346  1.00  0.00     0.159 C 
ATOM     14  O   UNL     1      27.249  41.952  18.631  1.00  0.00    -0.295 OA
ATOM     15  C   UNL     1      26.598  38.190  19.035  1.00  0.00     0.012 C 
ATOM     16  C   UNL     1      27.290  42.269  23.017  1.00  0.00     0.039 C 
ENDROOT
TORSDOF 0
ENDMDL
MODEL 6
REMARK VINA RESULT:    -4.024      1.877      5.370
REMARK INTER + INTRA:          -4.024
REMARK INTER:                  -4.024
REMARK INTRA:                   0.000
REMARK UNBOUND:                 0.000
REMARK SMILES C=C1CCC[C@]2(C)CC(=O)C(=C(C)C)C[C@@H]12
REMARK SMILES IDX 13 1 12 2 11 3 15 4 16 5 2 6 1 7 3 8 4 9 5 10 6 11 8 12 9 13
REMARK SMILES IDX 10 14 7 15 14 16
REMARK H PARENT
REMARK Flexibility Score: inf
ROOT
ATOM      1  C   UNL     1      28.330  43.910  23.313  1.00  0.00     0.039 C 
ATOM      2  C   UNL     1      28.498  42.408  23.271  1.00  0.00    -0.070 C 
ATOM      3  C   UNL     1      28.132  41.673  22.179  1.00  0.00    -0.006 C 
ATOM      4  C   UNL     1      28.364  40.169  22.129  1.00  0.00     0.047 C 
ATOM      5  C   UNL     1      28.608  39.647  20.691  1.00  0.00     0.025 C 
ATOM      6  C   UNL     1      28.807  38.135  20.573  1.00  0.00    -0.073 C 
ATOM      7  C   UNL     1      28.768  37.286  21.616  1.00  0.00     0.008 C 
ATOM      8  C   UNL     1      29.106  37.608  19.189  1.00  0.00     0.031 C 
ATOM      9  C   UNL     1      28.045  38.088  18.194  1.00  0.00     0.005 C 
ATOM     10  C   UNL     1      27.855  39.613  18.259  1.00  0.00     0.008 C 
ATOM     11  C   UNL     1      27.509  40.125  19.690  1.00  0.00    -0.018 C 
ATOM     12  C   UNL     1      27.507  41.673  19.660  1.00  0.00     0.088 C 
ATOM     13  C   UNL     1      27.382  42.267  21.034  1.00  0.00     0.159 C 
ATOM     14  O   UNL     1      26.622  43.259  21.194  1.00  0.00    -0.295 OA
ATOM     15  C   UNL     1      26.097  39.618  20.097  1.00  0.00     0.012 C 
ATOM     16  C   UNL     1      29.125  41.755  24.483  1.00  0.00     0.039 C 
ENDROOT
TORSDOF 0
ENDMDL
MODEL 7
REMARK VINA RESULT:    -3.926      1.503      3.120
REMARK INTER + INTRA:          -3.926
REMARK INTER:                  -3.926
REMARK INTRA:                   0.000
REMARK UNBOUND:                 0.000
REMARK SMILES C=C1CCC[C@]2(C)CC(=O)C(=C(C)C)C[C@@H]12
REMARK SMILES IDX 13 1 12 2 11 3 15 4 16 5 2 6 1 7 3 8 4 9 5 10 6 11 8 12 9 13
REMARK SMILES IDX 10 14 7 15 14 16
REMARK H PARENT
REMARK Flexibility Score: inf
ROOT
ATOM      1  C   UNL     1      26.845  36.407  20.151  1.00  0.00     0.039 C 
ATOM      2  C   UNL     1      27.363  37.358  21.206  1.00  0.00    -0.070 C 
ATOM      3  C   UNL     1      27.507  38.695  20.962  1.00  0.00    -0.006 C 
ATOM      4  C   UNL     1      27.972  39.649  22.054  1.00  0.00     0.047 C 
ATOM      5  C   UNL     1      27.394  41.077  21.889  1.00  0.00     0.025 C 
ATOM      6  C   UNL     1      27.859  42.091  22.935  1.00  0.00    -0.073 C 
ATOM      7  C   UNL     1      28.716  41.806  23.934  1.00  0.00     0.008 C 
ATOM      8  C   UNL     1      27.263  43.476  22.833  1.00  0.00     0.031 C 
ATOM      9  C   UNL     1      27.457  44.036  21.421  1.00  0.00     0.005 C 
ATOM     10  C   UNL     1      26.956  43.054  20.347  1.00  0.00     0.008 C 
ATOM     11  C   UNL     1      27.616  41.646  20.452  1.00  0.00    -0.018 C 
ATOM     12  C   UNL     1      26.915  40.710  19.437  1.00  0.00     0.088 C 
ATOM     13  C   UNL     1      27.341  39.279  19.599  1.00  0.00     0.159 C 
ATOM     14  O   UNL     1      27.565  38.596  18.564  1.00  0.00    -0.295 OA
ATOM     15  C   UNL     1      29.125  41.751  20.099  1.00  0.00     0.012 C 
ATOM     16  C   UNL     1      27.681  36.769  22.562  1.00  0.00     0.039 C 
ENDROOT
TORSDOF 0
ENDMDL
MODEL 8
REMARK VINA RESULT:    -3.776     13.168     15.637
REMARK INTER + INTRA:          -3.776
REMARK INTER:                  -3.776
REMARK INTRA:                   0.000
REMARK UNBOUND:                 0.000
REMARK SMILES C=C1CCC[C@]2(C)CC(=O)C(=C(C)C)C[C@@H]12
REMARK SMILES IDX 13 1 12 2 11 3 15 4 16 5 2 6 1 7 3 8 4 9 5 10 6 11 8 12 9 13
REMARK SMILES IDX 10 14 7 15 14 16
REMARK H PARENT
REMARK Flexibility Score: inf
ROOT
ATOM      1  C   UNL     1      29.121  28.578  23.829  1.00  0.00     0.039 C 
ATOM      2  C   UNL     1      27.978  28.716  24.809  1.00  0.00    -0.070 C 
ATOM      3  C   UNL     1      27.815  27.849  25.852  1.00  0.00    -0.006 C 
ATOM      4  C   UNL     1      26.694  28.038  26.866  1.00  0.00     0.047 C 
ATOM      5  C   UNL     1      27.064  27.514  28.275  1.00  0.00     0.025 C 
ATOM      6  C   UNL     1      25.961  27.640  29.327  1.00  0.00    -0.073 C 
ATOM      7  C   UNL     1      24.740  28.152  29.081  1.00  0.00     0.008 C 
ATOM      8  C   UNL     1      26.317  27.192  30.725  1.00  0.00     0.031 C 
ATOM      9  C   UNL     1      26.874  25.765  30.701  1.00  0.00     0.005 C 
ATOM     10  C   UNL     1      28.018  25.620  29.683  1.00  0.00     0.008 C 
ATOM     11  C   UNL     1      27.611  26.052  28.242  1.00  0.00    -0.018 C 
ATOM     12  C   UNL     1      28.879  26.019  27.354  1.00  0.00     0.088 C 
ATOM     13  C   UNL     1      28.635  26.611  25.995  1.00  0.00     0.159 C 
ATOM     14  O   UNL     1      29.124  26.031  24.989  1.00  0.00    -0.295 OA
ATOM     15  C   UNL     1      26.561  25.056  27.676  1.00  0.00     0.012 C 
ATOM     16  C   UNL     1      27.038  29.883  24.604  1.00  0.00     0.039 C 
ENDROOT
TORSDOF 0
ENDMDL
MODEL 9
REMARK VINA RESULT:    -3.665     14.686     16.890
REMARK INTER + INTRA:          -3.665
REMARK INTER:                  -3.665
REMARK INTRA:                   0.000
REMARK UNBOUND:                 0.000
REMARK SMILES C=C1CCC[C@]2(C)CC(=O)C(=C(C)C)C[C@@H]12
REMARK SMILES IDX 13 1 12 2 11 3 15 4 16 5 2 6 1 7 3 8 4 9 5 10 6 11 8 12 9 13
REMARK SMILES IDX 10 14 7 15 14 16
REMARK H PARENT
REMARK Flexibility Score: inf
ROOT
ATOM      1  C   UNL     1      21.386  26.702  28.746  1.00  0.00     0.039 C 
ATOM      2  C   UNL     1      22.602  25.895  28.351  1.00  0.00    -0.070 C 
ATOM      3  C   UNL     1      23.856  26.437  28.346  1.00  0.00    -0.006 C 
ATOM      4  C   UNL     1      25.077  25.593  28.004  1.00  0.00     0.047 C 
ATOM      5  C   UNL     1      26.359  26.073  28.728  1.00  0.00     0.025 C 
ATOM      6  C   UNL     1      27.628  25.289  28.392  1.00  0.00    -0.073 C 
ATOM      7  C   UNL     1      27.671  24.258  27.526  1.00  0.00     0.008 C 
ATOM      8  C   UNL     1      28.881  25.697  29.131  1.00  0.00     0.031 C 
ATOM      9  C   UNL     1      29.125  27.202  28.975  1.00  0.00     0.005 C 
ATOM     10  C   UNL     1      27.877  28.020  29.350  1.00  0.00     0.008 C 
ATOM     11  C   UNL     1      26.609  27.604  28.546  1.00  0.00    -0.018 C 
ATOM     12  C   UNL     1      25.397  28.374  29.125  1.00  0.00     0.088 C 
ATOM     13  C   UNL     1      24.094  27.895  28.552  1.00  0.00     0.159 C 
ATOM     14  O   UNL     1      23.223  28.750  28.239  1.00  0.00    -0.295 OA
ATOM     15  C   UNL     1      26.793  27.984  27.050  1.00  0.00     0.012 C 
ATOM     16  C   UNL     1      22.373  24.443  27.994  1.00  0.00     0.039 C 
ENDROOT
TORSDOF 0
ENDMDL
