MODEL 1
REMARK VINA RESULT:    -6.096      0.000      0.000
REMARK INTER + INTRA:          -7.010
REMARK INTER:                  -6.809
REMARK INTRA:                  -0.201
REMARK UNBOUND:                -0.201
REMARK SMILES CC(C)c1ccc(C(=O)[O-])cc1
REMARK SMILES IDX 7 1 6 2 11 3 5 4 12 5 4 6 8 7 9 8 10 9 2 10 1 11 3 12
REMARK H PARENT
REMARK Flexibility Score: inf
ROOT
ATOM      1  C   UNL     1     219.033  -8.660  22.945  1.00  0.00    -0.003 A 
ATOM      2  C   UNL     1     219.589  -9.346  24.039  1.00  0.00     0.010 A 
ATOM      3  C   UNL     1     217.994  -7.743  23.174  1.00  0.00     0.010 A 
ATOM      4  C   UNL     1     219.114  -9.120  25.334  1.00  0.00     0.004 A 
ATOM      5  C   UNL     1     217.519  -7.517  24.469  1.00  0.00     0.004 A 
ATOM      6  C   UNL     1     218.075  -8.204  25.564  1.00  0.00    -0.045 A 
ENDROOT
BRANCH   1   7
ATOM      7  C   UNL     1     219.533  -8.897  21.573  1.00  0.00     0.071 C 
ATOM      8  O   UNL     1     219.070  -9.838  20.875  1.00  0.00    -0.545 OA
ATOM      9  O   UNL     1     220.522  -8.083  21.033  1.00  0.00    -0.545 OA
ENDBRANCH   1   7
BRANCH   6  10
ATOM     10  C   UNL     1     217.569  -7.967  26.975  1.00  0.00     0.013 C 
ATOM     11  C   UNL     1     218.625  -7.253  27.828  1.00  0.00     0.012 C 
ATOM     12  C   UNL     1     217.125  -9.280  27.631  1.00  0.00     0.012 C 
ENDBRANCH   6  10
TORSDOF 2
ENDMDL
MODEL 2
REMARK VINA RESULT:    -6.082      1.313      1.497
REMARK INTER + INTRA:          -6.995
REMARK INTER:                  -6.784
REMARK INTRA:                  -0.211
REMARK UNBOUND:                -0.201
REMARK SMILES CC(C)c1ccc(C(=O)[O-])cc1
REMARK SMILES IDX 7 1 6 2 11 3 5 4 12 5 4 6 8 7 9 8 10 9 2 10 1 11 3 12
REMARK H PARENT
REMARK Flexibility Score: inf
ROOT
ATOM      1  C   UNL     1     220.222  -8.183  23.291  1.00  0.00    -0.003 A 
ATOM      2  C   UNL     1     219.396  -9.227  23.746  1.00  0.00     0.010 A 
ATOM      3  C   UNL     1     220.258  -6.981  24.016  1.00  0.00     0.010 A 
ATOM      4  C   UNL     1     218.623  -9.070  24.899  1.00  0.00     0.004 A 
ATOM      5  C   UNL     1     219.485  -6.824  25.170  1.00  0.00     0.004 A 
ATOM      6  C   UNL     1     218.659  -7.868  25.625  1.00  0.00    -0.045 A 
ENDROOT
BRANCH   1   7
ATOM      7  C   UNL     1     221.041  -8.346  22.070  1.00  0.00     0.071 C 
ATOM      8  O   UNL     1     220.511  -8.279  20.929  1.00  0.00    -0.545 OA
ATOM      9  O   UNL     1     222.408  -8.574  22.165  1.00  0.00    -0.545 OA
ENDBRANCH   1   7
BRANCH   6  10
ATOM     10  C   UNL     1     217.815  -7.711  26.877  1.00  0.00     0.013 C 
ATOM     11  C   UNL     1     218.661  -7.211  28.054  1.00  0.00     0.012 C 
ATOM     12  C   UNL     1     217.098  -9.019  27.228  1.00  0.00     0.012 C 
ENDBRANCH   6  10
TORSDOF 2
ENDMDL
MODEL 3
REMARK VINA RESULT:    -6.053      4.314      5.916
REMARK INTER + INTRA:          -6.962
REMARK INTER:                  -6.750
REMARK INTRA:                  -0.212
REMARK UNBOUND:                -0.201
REMARK SMILES CC(C)c1ccc(C(=O)[O-])cc1
REMARK SMILES IDX 7 1 6 2 11 3 5 4 12 5 4 6 8 7 9 8 10 9 2 10 1 11 3 12
REMARK H PARENT
REMARK Flexibility Score: inf
ROOT
ATOM      1  C   UNL     1     218.599  -8.812  28.882  1.00  0.00    -0.003 A 
ATOM      2  C   UNL     1     219.601  -7.898  28.509  1.00  0.00     0.010 A 
ATOM      3  C   UNL     1     217.535  -9.052  27.999  1.00  0.00     0.010 A 
ATOM      4  C   UNL     1     219.536  -7.238  27.278  1.00  0.00     0.004 A 
ATOM      5  C   UNL     1     217.470  -8.393  26.769  1.00  0.00     0.004 A 
ATOM      6  C   UNL     1     218.471  -7.478  26.394  1.00  0.00    -0.045 A 
ENDROOT
BRANCH   1   7
ATOM      7  C   UNL     1     218.664  -9.512  30.184  1.00  0.00     0.071 C 
ATOM      8  O   UNL     1     217.931  -9.151  31.144  1.00  0.00    -0.545 OA
ATOM      9  O   UNL     1     219.535 -10.580  30.366  1.00  0.00    -0.545 OA
ENDBRANCH   1   7
BRANCH   6  10
ATOM     10  C   UNL     1     218.414  -6.755  25.061  1.00  0.00     0.013 C 
ATOM     11  C   UNL     1     217.413  -7.425  24.112  1.00  0.00     0.012 C 
ATOM     12  C   UNL     1     219.804  -6.664  24.421  1.00  0.00     0.012 C 
ENDBRANCH   6  10
TORSDOF 2
ENDMDL
MODEL 4
REMARK VINA RESULT:    -5.955      3.043      5.034
REMARK INTER + INTRA:          -6.852
REMARK INTER:                  -6.649
REMARK INTRA:                  -0.203
REMARK UNBOUND:                -0.201
REMARK SMILES CC(C)c1ccc(C(=O)[O-])cc1
REMARK SMILES IDX 7 1 6 2 11 3 5 4 12 5 4 6 8 7 9 8 10 9 2 10 1 11 3 12
REMARK H PARENT
REMARK Flexibility Score: inf
ROOT
ATOM      1  C   UNL     1     218.314  -8.299  25.809  1.00  0.00    -0.003 A 
ATOM      2  C   UNL     1     219.445  -9.048  25.438  1.00  0.00     0.010 A 
ATOM      3  C   UNL     1     217.635  -7.561  24.826  1.00  0.00     0.010 A 
ATOM      4  C   UNL     1     219.887  -9.056  24.112  1.00  0.00     0.004 A 
ATOM      5  C   UNL     1     218.077  -7.570  23.500  1.00  0.00     0.004 A 
ATOM      6  C   UNL     1     219.209  -8.318  23.129  1.00  0.00    -0.045 A 
ENDROOT
BRANCH   1   7
ATOM      7  C   UNL     1     217.844  -8.288  27.212  1.00  0.00     0.071 C 
ATOM      8  O   UNL     1     217.024  -9.153  27.621  1.00  0.00    -0.545 OA
ATOM      9  O   UNL     1     218.302  -7.322  28.100  1.00  0.00    -0.545 OA
ENDBRANCH   1   7
BRANCH   6  10
ATOM     10  C   UNL     1     219.699  -8.337  21.692  1.00  0.00     0.013 C 
ATOM     11  C   UNL     1     218.993  -9.430  20.882  1.00  0.00     0.012 C 
ATOM     12  C   UNL     1     221.222  -8.500  21.630  1.00  0.00     0.012 C 
ENDBRANCH   6  10
TORSDOF 2
ENDMDL
MODEL 5
REMARK VINA RESULT:    -5.925      1.384      1.683
REMARK INTER + INTRA:          -6.820
REMARK INTER:                  -6.607
REMARK INTRA:                  -0.213
REMARK UNBOUND:                -0.201
REMARK SMILES CC(C)c1ccc(C(=O)[O-])cc1
REMARK SMILES IDX 7 1 6 2 11 3 5 4 12 5 4 6 8 7 9 8 10 9 2 10 1 11 3 12
REMARK H PARENT
REMARK Flexibility Score: inf
ROOT
ATOM      1  C   UNL     1     219.119  -8.611  24.378  1.00  0.00    -0.003 A 
ATOM      2  C   UNL     1     219.999  -9.076  25.372  1.00  0.00     0.010 A 
ATOM      3  C   UNL     1     217.887  -8.059  24.764  1.00  0.00     0.010 A 
ATOM      4  C   UNL     1     219.651  -8.991  26.723  1.00  0.00     0.004 A 
ATOM      5  C   UNL     1     217.539  -7.975  26.115  1.00  0.00     0.004 A 
ATOM      6  C   UNL     1     218.419  -8.440  27.110  1.00  0.00    -0.045 A 
ENDROOT
BRANCH   1   7
ATOM      7  C   UNL     1     219.484  -8.699  22.947  1.00  0.00     0.071 C 
ATOM      8  O   UNL     1     218.657  -8.376  22.053  1.00  0.00    -0.545 OA
ATOM      9  O   UNL     1     220.747  -9.141  22.569  1.00  0.00    -0.545 OA
ENDBRANCH   1   7
BRANCH   6  10
ATOM     10  C   UNL     1     218.054  -8.353  28.581  1.00  0.00     0.013 C 
ATOM     11  C   UNL     1     218.441  -6.989  29.167  1.00  0.00     0.012 C 
ATOM     12  C   UNL     1     218.692  -9.497  29.378  1.00  0.00     0.012 C 
ENDBRANCH   6  10
TORSDOF 2
ENDMDL
MODEL 6
REMARK VINA RESULT:    -5.922      1.402      2.192
REMARK INTER + INTRA:          -6.816
REMARK INTER:                  -6.605
REMARK INTRA:                  -0.211
REMARK UNBOUND:                -0.201
REMARK SMILES CC(C)c1ccc(C(=O)[O-])cc1
REMARK SMILES IDX 7 1 6 2 11 3 5 4 12 5 4 6 8 7 9 8 10 9 2 10 1 11 3 12
REMARK H PARENT
REMARK Flexibility Score: inf
ROOT
ATOM      1  C   UNL     1     219.091  -8.619  24.420  1.00  0.00    -0.003 A 
ATOM      2  C   UNL     1     217.869  -8.053  24.826  1.00  0.00     0.010 A 
ATOM      3  C   UNL     1     219.973  -9.104  25.399  1.00  0.00     0.010 A 
ATOM      4  C   UNL     1     217.539  -7.973  26.182  1.00  0.00     0.004 A 
ATOM      5  C   UNL     1     219.643  -9.025  26.755  1.00  0.00     0.004 A 
ATOM      6  C   UNL     1     218.421  -8.458  27.161  1.00  0.00    -0.045 A 
ENDROOT
BRANCH   1   7
ATOM      7  C   UNL     1     219.443  -8.705  22.986  1.00  0.00     0.071 C 
ATOM      8  O   UNL     1     218.602  -8.399  22.099  1.00  0.00    -0.545 OA
ATOM      9  O   UNL     1     220.710  -9.124  22.597  1.00  0.00    -0.545 OA
ENDBRANCH   1   7
BRANCH   6  10
ATOM     10  C   UNL     1     218.050  -8.366  28.630  1.00  0.00     0.013 C 
ATOM     11  C   UNL     1     218.445  -7.005  29.215  1.00  0.00     0.012 C 
ATOM     12  C   UNL     1     218.675  -9.514  29.431  1.00  0.00     0.012 C 
ENDBRANCH   6  10
TORSDOF 2
ENDMDL
MODEL 7
REMARK VINA RESULT:    -5.869      2.263      3.451
REMARK INTER + INTRA:          -6.757
REMARK INTER:                  -6.544
REMARK INTRA:                  -0.213
REMARK UNBOUND:                -0.201
REMARK SMILES CC(C)c1ccc(C(=O)[O-])cc1
REMARK SMILES IDX 7 1 6 2 11 3 5 4 12 5 4 6 8 7 9 8 10 9 2 10 1 11 3 12
REMARK H PARENT
REMARK Flexibility Score: inf
ROOT
ATOM      1  C   UNL     1     218.080  -8.151  25.859  1.00  0.00    -0.003 A 
ATOM      2  C   UNL     1     217.413  -9.080  26.678  1.00  0.00     0.010 A 
ATOM      3  C   UNL     1     218.972  -7.242  26.449  1.00  0.00     0.010 A 
ATOM      4  C   UNL     1     217.633  -9.096  28.058  1.00  0.00     0.004 A 
ATOM      5  C   UNL     1     219.192  -7.258  27.830  1.00  0.00     0.004 A 
ATOM      6  C   UNL     1     218.525  -8.186  28.649  1.00  0.00    -0.045 A 
ENDROOT
BRANCH   1   7
ATOM      7  C   UNL     1     217.849  -8.131  24.398  1.00  0.00     0.071 C 
ATOM      8  O   UNL     1     217.188  -7.200  23.866  1.00  0.00    -0.545 OA
ATOM      9  O   UNL     1     218.360  -9.140  23.590  1.00  0.00    -0.545 OA
ENDBRANCH   1   7
BRANCH   6  10
ATOM     10  C   UNL     1     218.756  -8.215  30.149  1.00  0.00     0.013 C 
ATOM     11  C   UNL     1     220.116  -7.608  30.511  1.00  0.00     0.012 C 
ATOM     12  C   UNL     1     218.622  -9.639  30.702  1.00  0.00     0.012 C 
ENDBRANCH   6  10
TORSDOF 2
ENDMDL
MODEL 8
REMARK VINA RESULT:    -5.755      4.334      5.841
REMARK INTER + INTRA:          -6.629
REMARK INTER:                  -6.424
REMARK INTRA:                  -0.205
REMARK UNBOUND:                -0.201
REMARK SMILES CC(C)c1ccc(C(=O)[O-])cc1
REMARK SMILES IDX 7 1 6 2 11 3 5 4 12 5 4 6 8 7 9 8 10 9 2 10 1 11 3 12
REMARK H PARENT
REMARK Flexibility Score: inf
ROOT
ATOM      1  C   UNL     1     218.988  -8.758  28.774  1.00  0.00    -0.003 A 
ATOM      2  C   UNL     1     220.101  -8.827  27.917  1.00  0.00     0.010 A 
ATOM      3  C   UNL     1     217.701  -8.716  28.215  1.00  0.00     0.010 A 
ATOM      4  C   UNL     1     219.928  -8.852  26.531  1.00  0.00     0.004 A 
ATOM      5  C   UNL     1     217.528  -8.740  26.828  1.00  0.00     0.004 A 
ATOM      6  C   UNL     1     218.641  -8.809  25.970  1.00  0.00    -0.045 A 
ENDROOT
BRANCH   1   7
ATOM      7  C   UNL     1     219.167  -8.731  30.243  1.00  0.00     0.071 C 
ATOM      8  O   UNL     1     220.128  -8.101  30.760  1.00  0.00    -0.545 OA
ATOM      9  O   UNL     1     218.275  -9.400  31.073  1.00  0.00    -0.545 OA
ENDBRANCH   1   7
BRANCH   6  10
ATOM     10  C   UNL     1     218.468  -8.838  24.463  1.00  0.00     0.013 C 
ATOM     11  C   UNL     1     217.583  -7.680  23.986  1.00  0.00     0.012 C 
ATOM     12  C   UNL     1     217.911 -10.188  23.996  1.00  0.00     0.012 C 
ENDBRANCH   6  10
TORSDOF 2
ENDMDL
MODEL 9
REMARK VINA RESULT:    -5.749      2.536      3.625
REMARK INTER + INTRA:          -6.623
REMARK INTER:                  -6.416
REMARK INTRA:                  -0.207
REMARK UNBOUND:                -0.201
REMARK SMILES CC(C)c1ccc(C(=O)[O-])cc1
REMARK SMILES IDX 7 1 6 2 11 3 5 4 12 5 4 6 8 7 9 8 10 9 2 10 1 11 3 12
REMARK H PARENT
REMARK Flexibility Score: inf
ROOT
ATOM      1  C   UNL     1     218.358  -8.657  25.961  1.00  0.00    -0.003 A 
ATOM      2  C   UNL     1     219.725  -8.772  26.273  1.00  0.00     0.010 A 
ATOM      3  C   UNL     1     217.416  -8.712  27.002  1.00  0.00     0.010 A 
ATOM      4  C   UNL     1     220.138  -8.939  27.598  1.00  0.00     0.004 A 
ATOM      5  C   UNL     1     217.830  -8.880  28.326  1.00  0.00     0.004 A 
ATOM      6  C   UNL     1     219.197  -8.995  28.639  1.00  0.00    -0.045 A 
ENDROOT
BRANCH   1   7
ATOM      7  C   UNL     1     217.916  -8.479  24.561  1.00  0.00     0.071 C 
ATOM      8  O   UNL     1     217.875  -9.461  23.772  1.00  0.00    -0.545 OA
ATOM      9  O   UNL     1     217.539  -7.225  24.095  1.00  0.00    -0.545 OA
ENDBRANCH   1   7
BRANCH   6  10
ATOM     10  C   UNL     1     219.661  -9.176  30.072  1.00  0.00     0.013 C 
ATOM     11  C   UNL     1     218.475  -9.445  31.006  1.00  0.00     0.012 C 
ATOM     12  C   UNL     1     220.475  -7.968  30.548  1.00  0.00     0.012 C 
ENDBRANCH   6  10
TORSDOF 2
ENDMDL
