MODEL 1
REMARK VINA RESULT:    -3.133      0.000      0.000
REMARK INTER + INTRA:          -8.100
REMARK INTER:                  -5.881
REMARK INTRA:                  -2.219
REMARK UNBOUND:                -2.219
REMARK SMILES O=C([O-])CCCCCCCCCCCCCCC(=O)[O-]
REMARK SMILES IDX 10 1 9 2 8 3 7 4 6 5 5 6 4 7 2 8 1 9 3 10 11 11 12 12 13 13
REMARK SMILES IDX 14 14 15 15 16 16 17 17 18 18 19 19 20 20
REMARK H PARENT
REMARK Flexibility Score: inf
ROOT
ATOM      1  C   UNL     1     -97.859 -41.499  94.630  1.00  0.00     0.000 C 
ENDROOT
BRANCH   1   2
ATOM      2  C   UNL     1     -99.100 -40.607  94.448  1.00  0.00     0.000 C 
BRANCH   2   3
ATOM      3  C   UNL     1    -100.169 -41.251  93.552  1.00  0.00     0.000 C 
BRANCH   3   4
ATOM      4  C   UNL     1    -100.449 -40.441  92.272  1.00  0.00     0.000 C 
BRANCH   4   5
ATOM      5  C   UNL     1     -99.690 -39.107  92.158  1.00  0.00     0.000 C 
BRANCH   5   6
ATOM      6  C   UNL     1    -100.579 -37.948  91.683  1.00  0.00     0.006 C 
BRANCH   6   7
ATOM      7  C   UNL     1    -100.530 -36.779  92.671  1.00  0.00     0.053 C 
BRANCH   7   8
ATOM      8  C   UNL     1    -101.024 -37.208  94.017  1.00  0.00     0.041 C 
ATOM      9  O   UNL     1    -100.367 -36.924  95.052  1.00  0.00    -0.550 OA
ATOM     10  O   UNL     1    -102.235 -37.878  94.132  1.00  0.00    -0.550 OA
ENDBRANCH   7   8
ENDBRANCH   6   7
ENDBRANCH   5   6
ENDBRANCH   4   5
ENDBRANCH   3   4
ENDBRANCH   2   3
ENDBRANCH   1   2
BRANCH   1  11
ATOM     11  C   UNL     1     -96.540 -40.821  94.201  1.00  0.00     0.000 C 
BRANCH  11  12
ATOM     12  C   UNL     1     -96.095 -41.261  92.794  1.00  0.00     0.000 C 
BRANCH  12  13
ATOM     13  C   UNL     1     -96.866 -42.488  92.285  1.00  0.00     0.000 C 
BRANCH  13  14
ATOM     14  C   UNL     1     -97.511 -42.254  90.911  1.00  0.00     0.000 C 
BRANCH  14  15
ATOM     15  C   UNL     1     -97.075 -40.903  90.323  1.00  0.00     0.000 C 
BRANCH  15  16
ATOM     16  C   UNL     1     -97.966 -40.445  89.153  1.00  0.00     0.006 C 
BRANCH  16  17
ATOM     17  C   UNL     1     -97.254 -40.405  87.791  1.00  0.00     0.053 C 
BRANCH  17  18
ATOM     18  C   UNL     1     -96.924 -41.776  87.288  1.00  0.00     0.041 C 
ATOM     19  O   UNL     1     -95.729 -42.175  87.274  1.00  0.00    -0.550 OA
ATOM     20  O   UNL     1     -97.938 -42.627  86.869  1.00  0.00    -0.550 OA
ENDBRANCH  17  18
ENDBRANCH  16  17
ENDBRANCH  15  16
ENDBRANCH  14  15
ENDBRANCH  13  14
ENDBRANCH  12  13
ENDBRANCH  11  12
ENDBRANCH   1  11
TORSDOF 15
ENDMDL
MODEL 2
REMARK VINA RESULT:    -3.057     14.219     16.696
REMARK INTER + INTRA:          -7.956
REMARK INTER:                  -5.467
REMARK INTRA:                  -2.489
REMARK UNBOUND:                -2.219
REMARK SMILES O=C([O-])CCCCCCCCCCCCCCC(=O)[O-]
REMARK SMILES IDX 10 1 9 2 8 3 7 4 6 5 5 6 4 7 2 8 1 9 3 10 11 11 12 12 13 13
REMARK SMILES IDX 14 14 15 15 16 16 17 17 18 18 19 19 20 20
REMARK H PARENT
REMARK Flexibility Score: inf
ROOT
ATOM      1  C   UNL     1     -96.930 -29.460  79.527  1.00  0.00     0.000 C 
ENDROOT
BRANCH   1   2
ATOM      2  C   UNL     1     -96.416 -28.499  78.441  1.00  0.00     0.000 C 
BRANCH   2   3
ATOM      3  C   UNL     1     -95.857 -27.190  79.021  1.00  0.00     0.000 C 
BRANCH   3   4
ATOM      4  C   UNL     1     -96.607 -26.721  80.281  1.00  0.00     0.000 C 
BRANCH   4   5
ATOM      5  C   UNL     1     -95.728 -26.498  81.525  1.00  0.00     0.000 C 
BRANCH   5   6
ATOM      6  C   UNL     1     -96.464 -26.790  82.842  1.00  0.00     0.006 C 
BRANCH   6   7
ATOM      7  C   UNL     1     -96.313 -28.260  83.241  1.00  0.00     0.053 C 
BRANCH   7   8
ATOM      8  C   UNL     1     -96.391 -28.411  84.727  1.00  0.00     0.041 C 
ATOM      9  O   UNL     1     -96.129 -29.519  85.265  1.00  0.00    -0.550 OA
ATOM     10  O   UNL     1     -96.705 -27.317  85.522  1.00  0.00    -0.550 OA
ENDBRANCH   7   8
ENDBRANCH   6   7
ENDBRANCH   5   6
ENDBRANCH   4   5
ENDBRANCH   3   4
ENDBRANCH   2   3
ENDBRANCH   1   2
BRANCH   1  11
ATOM     11  C   UNL     1     -98.219 -30.211  79.129  1.00  0.00     0.000 C 
BRANCH  11  12
ATOM     12  C   UNL     1     -98.806 -29.691  77.804  1.00  0.00     0.000 C 
BRANCH  12  13
ATOM     13  C   UNL     1    -100.084 -28.862  78.007  1.00  0.00     0.000 C 
BRANCH  13  14
ATOM     14  C   UNL     1    -100.499 -28.765  79.483  1.00  0.00     0.000 C 
BRANCH  14  15
ATOM     15  C   UNL     1    -100.336 -27.330  80.006  1.00  0.00     0.000 C 
BRANCH  15  16
ATOM     16  C   UNL     1     -99.963 -27.277  81.499  1.00  0.00     0.006 C 
BRANCH  16  17
ATOM     17  C   UNL     1     -99.811 -28.654  82.164  1.00  0.00     0.053 C 
BRANCH  17  18
ATOM     18  C   UNL     1     -99.972 -28.582  83.651  1.00  0.00     0.041 C 
ATOM     19  O   UNL     1     -99.867 -27.478  84.247  1.00  0.00    -0.550 OA
ATOM     20  O   UNL     1    -100.274 -29.729  84.375  1.00  0.00    -0.550 OA
ENDBRANCH  17  18
ENDBRANCH  16  17
ENDBRANCH  15  16
ENDBRANCH  14  15
ENDBRANCH  13  14
ENDBRANCH  12  13
ENDBRANCH  11  12
ENDBRANCH   1  11
TORSDOF 15
ENDMDL
MODEL 3
REMARK VINA RESULT:    -3.038     13.783     16.084
REMARK INTER + INTRA:          -7.921
REMARK INTER:                  -5.872
REMARK INTRA:                  -2.049
REMARK UNBOUND:                -2.219
REMARK SMILES O=C([O-])CCCCCCCCCCCCCCC(=O)[O-]
REMARK SMILES IDX 10 1 9 2 8 3 7 4 6 5 5 6 4 7 2 8 1 9 3 10 11 11 12 12 13 13
REMARK SMILES IDX 14 14 15 15 16 16 17 17 18 18 19 19 20 20
REMARK H PARENT
REMARK Flexibility Score: inf
ROOT
ATOM      1  C   UNL     1     -97.806 -29.821  78.813  1.00  0.00     0.000 C 
ENDROOT
BRANCH   1   2
ATOM      2  C   UNL     1     -99.063 -29.113  79.347  1.00  0.00     0.000 C 
BRANCH   2   3
ATOM      3  C   UNL     1     -98.969 -28.783  80.845  1.00  0.00     0.000 C 
BRANCH   3   4
ATOM      4  C   UNL     1     -99.714 -27.491  81.225  1.00  0.00     0.000 C 
BRANCH   4   5
ATOM      5  C   UNL     1    -100.480 -27.541  82.559  1.00  0.00     0.000 C 
BRANCH   5   6
ATOM      6  C   UNL     1    -100.123 -28.767  83.413  1.00  0.00     0.006 C 
BRANCH   6   7
ATOM      7  C   UNL     1    -101.353 -29.297  84.155  1.00  0.00     0.053 C 
BRANCH   7   8
ATOM      8  C   UNL     1    -102.071 -30.312  83.323  1.00  0.00     0.041 C 
ATOM      9  O   UNL     1    -103.254 -30.639  83.605  1.00  0.00    -0.550 OA
ATOM     10  O   UNL     1    -101.453 -30.859  82.207  1.00  0.00    -0.550 OA
ENDBRANCH   7   8
ENDBRANCH   6   7
ENDBRANCH   5   6
ENDBRANCH   4   5
ENDBRANCH   3   4
ENDBRANCH   2   3
ENDBRANCH   1   2
BRANCH   1  11
ATOM     11  C   UNL     1     -96.487 -29.118  79.201  1.00  0.00     0.000 C 
BRANCH  11  12
ATOM     12  C   UNL     1     -96.335 -27.751  78.510  1.00  0.00     0.000 C 
BRANCH  12  13
ATOM     13  C   UNL     1     -95.530 -26.748  79.351  1.00  0.00     0.000 C 
BRANCH  13  14
ATOM     14  C   UNL     1     -96.315 -26.227  80.564  1.00  0.00     0.000 C 
BRANCH  14  15
ATOM     15  C   UNL     1     -95.570 -26.531  81.873  1.00  0.00     0.000 C 
BRANCH  15  16
ATOM     16  C   UNL     1     -96.520 -26.839  83.044  1.00  0.00     0.006 C 
BRANCH  16  17
ATOM     17  C   UNL     1     -96.523 -28.310  83.489  1.00  0.00     0.053 C 
BRANCH  17  18
ATOM     18  C   UNL     1     -96.205 -28.459  84.944  1.00  0.00     0.041 C 
ATOM     19  O   UNL     1     -96.161 -27.445  85.690  1.00  0.00    -0.550 OA
ATOM     20  O   UNL     1     -95.993 -29.721  85.485  1.00  0.00    -0.550 OA
ENDBRANCH  17  18
ENDBRANCH  16  17
ENDBRANCH  15  16
ENDBRANCH  14  15
ENDBRANCH  13  14
ENDBRANCH  12  13
ENDBRANCH  11  12
ENDBRANCH   1  11
TORSDOF 15
ENDMDL
MODEL 4
REMARK VINA RESULT:    -3.028     14.225     16.596
REMARK INTER + INTRA:          -7.902
REMARK INTER:                  -5.683
REMARK INTRA:                  -2.219
REMARK UNBOUND:                -2.219
REMARK SMILES O=C([O-])CCCCCCCCCCCCCCC(=O)[O-]
REMARK SMILES IDX 10 1 9 2 8 3 7 4 6 5 5 6 4 7 2 8 1 9 3 10 11 11 12 12 13 13
REMARK SMILES IDX 14 14 15 15 16 16 17 17 18 18 19 19 20 20
REMARK H PARENT
REMARK Flexibility Score: inf
ROOT
ATOM      1  C   UNL     1     -96.244 -26.244  78.677  1.00  0.00     0.000 C 
ENDROOT
BRANCH   1   2
ATOM      2  C   UNL     1     -95.124 -26.123  79.724  1.00  0.00     0.000 C 
BRANCH   2   3
ATOM      3  C   UNL     1     -95.594 -25.447  81.023  1.00  0.00     0.000 C 
BRANCH   3   4
ATOM      4  C   UNL     1     -97.120 -25.512  81.217  1.00  0.00     0.000 C 
BRANCH   4   5
ATOM      5  C   UNL     1     -97.591 -26.252  82.482  1.00  0.00     0.000 C 
BRANCH   5   6
ATOM      6  C   UNL     1     -96.430 -26.783  83.337  1.00  0.00     0.006 C 
BRANCH   6   7
ATOM      7  C   UNL     1     -96.572 -28.288  83.580  1.00  0.00     0.053 C 
BRANCH   7   8
ATOM      8  C   UNL     1     -96.123 -28.640  84.963  1.00  0.00     0.041 C 
ATOM      9  O   UNL     1     -95.729 -29.808  85.222  1.00  0.00    -0.550 OA
ATOM     10  O   UNL     1     -96.091 -27.668  85.953  1.00  0.00    -0.550 OA
ENDBRANCH   7   8
ENDBRANCH   6   7
ENDBRANCH   5   6
ENDBRANCH   4   5
ENDBRANCH   3   4
ENDBRANCH   2   3
ENDBRANCH   1   2
BRANCH   1  11
ATOM     11  C   UNL     1     -96.500 -27.692  78.208  1.00  0.00     0.000 C 
BRANCH  11  12
ATOM     12  C   UNL     1     -96.441 -28.697  79.374  1.00  0.00     0.000 C 
BRANCH  12  13
ATOM     13  C   UNL     1     -97.770 -29.439  79.584  1.00  0.00     0.000 C 
BRANCH  13  14
ATOM     14  C   UNL     1     -98.987 -28.610  79.148  1.00  0.00     0.000 C 
BRANCH  14  15
ATOM     15  C   UNL     1     -99.812 -28.163  80.364  1.00  0.00     0.000 C 
BRANCH  15  16
ATOM     16  C   UNL     1     -99.958 -29.269  81.426  1.00  0.00     0.006 C 
BRANCH  16  17
ATOM     17  C   UNL     1    -100.494 -28.781  82.781  1.00  0.00     0.053 C 
BRANCH  17  18
ATOM     18  C   UNL     1    -101.194 -29.868  83.535  1.00  0.00     0.041 C 
ATOM     19  O   UNL     1    -102.163 -30.480  83.011  1.00  0.00    -0.550 OA
ATOM     20  O   UNL     1    -100.755 -30.232  84.802  1.00  0.00    -0.550 OA
ENDBRANCH  17  18
ENDBRANCH  16  17
ENDBRANCH  15  16
ENDBRANCH  14  15
ENDBRANCH  13  14
ENDBRANCH  12  13
ENDBRANCH  11  12
ENDBRANCH   1  11
TORSDOF 15
ENDMDL
MODEL 5
REMARK VINA RESULT:    -2.926     14.761     17.016
REMARK INTER + INTRA:          -7.711
REMARK INTER:                  -5.618
REMARK INTRA:                  -2.093
REMARK UNBOUND:                -2.219
REMARK SMILES O=C([O-])CCCCCCCCCCCCCCC(=O)[O-]
REMARK SMILES IDX 10 1 9 2 8 3 7 4 6 5 5 6 4 7 2 8 1 9 3 10 11 11 12 12 13 13
REMARK SMILES IDX 14 14 15 15 16 16 17 17 18 18 19 19 20 20
REMARK H PARENT
REMARK Flexibility Score: inf
ROOT
ATOM      1  C   UNL     1     -94.460 -25.162  78.996  1.00  0.00     0.000 C 
ENDROOT
BRANCH   1   2
ATOM      2  C   UNL     1     -94.383 -25.750  80.416  1.00  0.00     0.000 C 
BRANCH   2   3
ATOM      3  C   UNL     1     -95.540 -25.286  81.315  1.00  0.00     0.000 C 
BRANCH   3   4
ATOM      4  C   UNL     1     -96.345 -26.455  81.912  1.00  0.00     0.000 C 
BRANCH   4   5
ATOM      5  C   UNL     1     -97.550 -26.050  82.780  1.00  0.00     0.000 C 
BRANCH   5   6
ATOM      6  C   UNL     1     -97.773 -26.987  83.976  1.00  0.00     0.006 C 
BRANCH   6   7
ATOM      7  C   UNL     1     -96.940 -28.264  83.836  1.00  0.00     0.053 C 
BRANCH   7   8
ATOM      8  C   UNL     1     -96.233 -28.573  85.118  1.00  0.00     0.041 C 
ATOM      9  O   UNL     1     -95.829 -27.639  85.859  1.00  0.00    -0.550 OA
ATOM     10  O   UNL     1     -96.066 -29.892  85.519  1.00  0.00    -0.550 OA
ENDBRANCH   7   8
ENDBRANCH   6   7
ENDBRANCH   5   6
ENDBRANCH   4   5
ENDBRANCH   3   4
ENDBRANCH   2   3
ENDBRANCH   1   2
BRANCH   1  11
ATOM     11  C   UNL     1     -95.765 -25.511  78.251  1.00  0.00     0.000 C 
BRANCH  11  12
ATOM     12  C   UNL     1     -95.745 -26.944  77.688  1.00  0.00     0.000 C 
BRANCH  12  13
ATOM     13  C   UNL     1     -96.910 -27.802  78.207  1.00  0.00     0.000 C 
BRANCH  13  14
ATOM     14  C   UNL     1     -96.446 -28.924  79.148  1.00  0.00     0.000 C 
BRANCH  14  15
ATOM     15  C   UNL     1     -97.641 -29.555  79.879  1.00  0.00     0.000 C 
BRANCH  15  16
ATOM     16  C   UNL     1     -98.834 -28.591  80.018  1.00  0.00     0.006 C 
BRANCH  16  17
ATOM     17  C   UNL     1     -99.693 -28.822  81.272  1.00  0.00     0.053 C 
BRANCH  17  18
ATOM     18  C   UNL     1    -100.869 -29.705  80.994  1.00  0.00     0.041 C 
ATOM     19  O   UNL     1    -101.540 -29.554  79.938  1.00  0.00    -0.550 OA
ATOM     20  O   UNL     1    -101.204 -30.720  81.882  1.00  0.00    -0.550 OA
ENDBRANCH  17  18
ENDBRANCH  16  17
ENDBRANCH  15  16
ENDBRANCH  14  15
ENDBRANCH  13  14
ENDBRANCH  12  13
ENDBRANCH  11  12
ENDBRANCH   1  11
TORSDOF 15
ENDMDL
MODEL 6
REMARK VINA RESULT:    -2.898      2.107      3.316
REMARK INTER + INTRA:          -7.658
REMARK INTER:                  -6.548
REMARK INTRA:                  -1.110
REMARK UNBOUND:                -2.219
REMARK SMILES O=C([O-])CCCCCCCCCCCCCCC(=O)[O-]
REMARK SMILES IDX 10 1 9 2 8 3 7 4 6 5 5 6 4 7 2 8 1 9 3 10 11 11 12 12 13 13
REMARK SMILES IDX 14 14 15 15 16 16 17 17 18 18 19 19 20 20
REMARK H PARENT
REMARK Flexibility Score: inf
ROOT
ATOM      1  C   UNL     1    -100.091 -39.001  92.714  1.00  0.00     0.000 C 
ENDROOT
BRANCH   1   2
ATOM      2  C   UNL     1    -101.042 -38.464  93.798  1.00  0.00     0.000 C 
BRANCH   2   3
ATOM      3  C   UNL     1    -100.558 -37.140  94.410  1.00  0.00     0.000 C 
BRANCH   3   4
ATOM      4  C   UNL     1    -100.585 -35.969  93.411  1.00  0.00     0.000 C 
BRANCH   4   5
ATOM      5  C   UNL     1    -101.587 -34.847  93.739  1.00  0.00     0.000 C 
BRANCH   5   6
ATOM      6  C   UNL     1    -102.627 -34.626  92.630  1.00  0.00     0.006 C 
BRANCH   6   7
ATOM      7  C   UNL     1    -103.510 -35.864  92.452  1.00  0.00     0.053 C 
BRANCH   7   8
ATOM      8  C   UNL     1    -103.427 -36.369  91.046  1.00  0.00     0.041 C 
ATOM      9  O   UNL     1    -104.113 -35.829  90.138  1.00  0.00    -0.550 OA
ATOM     10  O   UNL     1    -102.556 -37.402  90.728  1.00  0.00    -0.550 OA
ENDBRANCH   7   8
ENDBRANCH   6   7
ENDBRANCH   5   6
ENDBRANCH   4   5
ENDBRANCH   3   4
ENDBRANCH   2   3
ENDBRANCH   1   2
BRANCH   1  11
ATOM     11  C   UNL     1     -99.049 -40.008  93.248  1.00  0.00     0.000 C 
BRANCH  11  12
ATOM     12  C   UNL     1     -98.922 -41.245  92.340  1.00  0.00     0.000 C 
BRANCH  12  13
ATOM     13  C   UNL     1     -97.872 -41.062  91.233  1.00  0.00     0.000 C 
BRANCH  13  14
ATOM     14  C   UNL     1     -98.452 -40.415  89.967  1.00  0.00     0.000 C 
BRANCH  14  15
ATOM     15  C   UNL     1     -97.380 -39.600  89.227  1.00  0.00     0.000 C 
BRANCH  15  16
ATOM     16  C   UNL     1     -97.193 -40.047  87.765  1.00  0.00     0.006 C 
BRANCH  16  17
ATOM     17  C   UNL     1     -97.472 -41.538  87.518  1.00  0.00     0.053 C 
BRANCH  17  18
ATOM     18  C   UNL     1     -96.247 -42.379  87.703  1.00  0.00     0.041 C 
ATOM     19  O   UNL     1     -95.203 -42.130  87.044  1.00  0.00    -0.550 OA
ATOM     20  O   UNL     1     -96.247 -43.416  88.627  1.00  0.00    -0.550 OA
ENDBRANCH  17  18
ENDBRANCH  16  17
ENDBRANCH  15  16
ENDBRANCH  14  15
ENDBRANCH  13  14
ENDBRANCH  12  13
ENDBRANCH  11  12
ENDBRANCH   1  11
TORSDOF 15
ENDMDL
MODEL 7
REMARK VINA RESULT:    -2.886     14.166     16.728
REMARK INTER + INTRA:          -7.637
REMARK INTER:                  -5.353
REMARK INTRA:                  -2.284
REMARK UNBOUND:                -2.219
REMARK SMILES O=C([O-])CCCCCCCCCCCCCCC(=O)[O-]
REMARK SMILES IDX 10 1 9 2 8 3 7 4 6 5 5 6 4 7 2 8 1 9 3 10 11 11 12 12 13 13
REMARK SMILES IDX 14 14 15 15 16 16 17 17 18 18 19 19 20 20
REMARK H PARENT
REMARK Flexibility Score: inf
ROOT
ATOM      1  C   UNL     1     -96.504 -29.092  78.818  1.00  0.00     0.000 C 
ENDROOT
BRANCH   1   2
ATOM      2  C   UNL     1     -95.956 -27.657  78.916  1.00  0.00     0.000 C 
BRANCH   2   3
ATOM      3  C   UNL     1     -97.029 -26.638  79.331  1.00  0.00     0.000 C 
BRANCH   3   4
ATOM      4  C   UNL     1     -96.607 -25.774  80.533  1.00  0.00     0.000 C 
BRANCH   4   5
ATOM      5  C   UNL     1     -97.252 -26.157  81.877  1.00  0.00     0.000 C 
BRANCH   5   6
ATOM      6  C   UNL     1     -96.235 -26.667  82.909  1.00  0.00     0.006 C 
BRANCH   6   7
ATOM      7  C   UNL     1     -96.467 -28.148  83.223  1.00  0.00     0.053 C 
BRANCH   7   8
ATOM      8  C   UNL     1     -96.279 -28.410  84.684  1.00  0.00     0.041 C 
ATOM      9  O   UNL     1     -96.364 -27.465  85.512  1.00  0.00    -0.550 OA
ATOM     10  O   UNL     1     -96.061 -29.704  85.137  1.00  0.00    -0.550 OA
ENDBRANCH   7   8
ENDBRANCH   6   7
ENDBRANCH   5   6
ENDBRANCH   4   5
ENDBRANCH   3   4
ENDBRANCH   2   3
ENDBRANCH   1   2
BRANCH   1  11
ATOM     11  C   UNL     1     -97.537 -29.437  79.912  1.00  0.00     0.000 C 
BRANCH  11  12
ATOM     12  C   UNL     1     -98.830 -30.029  79.321  1.00  0.00     0.000 C 
BRANCH  12  13
ATOM     13  C   UNL     1    -100.095 -29.486  80.004  1.00  0.00     0.000 C 
BRANCH  13  14
ATOM     14  C   UNL     1     -99.782 -28.629  81.239  1.00  0.00     0.000 C 
BRANCH  14  15
ATOM     15  C   UNL     1    -100.571 -29.119  82.462  1.00  0.00     0.000 C 
BRANCH  15  16
ATOM     16  C   UNL     1     -99.999 -28.594  83.792  1.00  0.00     0.006 C 
BRANCH  16  17
ATOM     17  C   UNL     1    -100.781 -27.418  84.398  1.00  0.00     0.053 C 
BRANCH  17  18
ATOM     18  C   UNL     1    -100.144 -26.099  84.088  1.00  0.00     0.041 C 
ATOM     19  O   UNL     1    -100.581 -25.391  83.142  1.00  0.00    -0.550 OA
ATOM     20  O   UNL     1     -99.090 -25.634  84.864  1.00  0.00    -0.550 OA
ENDBRANCH  17  18
ENDBRANCH  16  17
ENDBRANCH  15  16
ENDBRANCH  14  15
ENDBRANCH  13  14
ENDBRANCH  12  13
ENDBRANCH  11  12
ENDBRANCH   1  11
TORSDOF 15
ENDMDL
MODEL 8
REMARK VINA RESULT:    -2.855      2.372      3.313
REMARK INTER + INTRA:          -7.578
REMARK INTER:                  -6.334
REMARK INTRA:                  -1.244
REMARK UNBOUND:                -2.219
REMARK SMILES O=C([O-])CCCCCCCCCCCCCCC(=O)[O-]
REMARK SMILES IDX 10 1 9 2 8 3 7 4 6 5 5 6 4 7 2 8 1 9 3 10 11 11 12 12 13 13
REMARK SMILES IDX 14 14 15 15 16 16 17 17 18 18 19 19 20 20
REMARK H PARENT
REMARK Flexibility Score: inf
ROOT
ATOM      1  C   UNL     1     -99.513 -39.645  93.767  1.00  0.00     0.000 C 
ENDROOT
BRANCH   1   2
ATOM      2  C   UNL     1     -99.892 -39.572  92.278  1.00  0.00     0.000 C 
BRANCH   2   3
ATOM      3  C   UNL     1    -100.220 -38.143  91.817  1.00  0.00     0.000 C 
BRANCH   3   4
ATOM      4  C   UNL     1    -101.142 -37.391  92.795  1.00  0.00     0.000 C 
BRANCH   4   5
ATOM      5  C   UNL     1    -100.853 -35.888  92.947  1.00  0.00     0.000 C 
BRANCH   5   6
ATOM      6  C   UNL     1    -101.561 -35.258  94.156  1.00  0.00     0.006 C 
BRANCH   6   7
ATOM      7  C   UNL     1    -101.717 -33.745  93.973  1.00  0.00     0.053 C 
BRANCH   7   8
ATOM      8  C   UNL     1    -102.946 -33.437  93.177  1.00  0.00     0.041 C 
ATOM      9  O   UNL     1    -103.910 -34.247  93.162  1.00  0.00    -0.550 OA
ATOM     10  O   UNL     1    -103.047 -32.234  92.491  1.00  0.00    -0.550 OA
ENDBRANCH   7   8
ENDBRANCH   6   7
ENDBRANCH   5   6
ENDBRANCH   4   5
ENDBRANCH   3   4
ENDBRANCH   2   3
ENDBRANCH   1   2
BRANCH   1  11
ATOM     11  C   UNL     1     -99.542 -41.077  94.344  1.00  0.00     0.000 C 
BRANCH  11  12
ATOM     12  C   UNL     1     -98.316 -41.901  93.910  1.00  0.00     0.000 C 
BRANCH  12  13
ATOM     13  C   UNL     1     -96.989 -41.170  94.165  1.00  0.00     0.000 C 
BRANCH  13  14
ATOM     14  C   UNL     1     -96.120 -41.062  92.903  1.00  0.00     0.000 C 
BRANCH  14  15
ATOM     15  C   UNL     1     -96.741 -41.850  91.740  1.00  0.00     0.000 C 
BRANCH  15  16
ATOM     16  C   UNL     1     -96.422 -41.236  90.364  1.00  0.00     0.006 C 
BRANCH  16  17
ATOM     17  C   UNL     1     -97.616 -40.547  89.685  1.00  0.00     0.053 C 
BRANCH  17  18
ATOM     18  C   UNL     1     -97.253 -39.982  88.347  1.00  0.00     0.041 C 
ATOM     19  O   UNL     1     -97.289 -40.711  87.320  1.00  0.00    -0.550 OA
ATOM     20  O   UNL     1     -96.910 -38.641  88.226  1.00  0.00    -0.550 OA
ENDBRANCH  17  18
ENDBRANCH  16  17
ENDBRANCH  15  16
ENDBRANCH  14  15
ENDBRANCH  13  14
ENDBRANCH  12  13
ENDBRANCH  11  12
ENDBRANCH   1  11
TORSDOF 15
ENDMDL
MODEL 9
REMARK VINA RESULT:    -2.837     14.509     16.864
REMARK INTER + INTRA:          -7.544
REMARK INTER:                  -5.212
REMARK INTRA:                  -2.331
REMARK UNBOUND:                -2.219
REMARK SMILES O=C([O-])CCCCCCCCCCCCCCC(=O)[O-]
REMARK SMILES IDX 10 1 9 2 8 3 7 4 6 5 5 6 4 7 2 8 1 9 3 10 11 11 12 12 13 13
REMARK SMILES IDX 14 14 15 15 16 16 17 17 18 18 19 19 20 20
REMARK H PARENT
REMARK Flexibility Score: inf
ROOT
ATOM      1  C   UNL     1     -96.204 -27.074  78.072  1.00  0.00     0.000 C 
ENDROOT
BRANCH   1   2
ATOM      2  C   UNL     1     -96.638 -28.512  78.406  1.00  0.00     0.000 C 
BRANCH   2   3
ATOM      3  C   UNL     1     -96.927 -28.713  79.903  1.00  0.00     0.000 C 
BRANCH   3   4
ATOM      4  C   UNL     1     -98.369 -29.175  80.180  1.00  0.00     0.000 C 
BRANCH   4   5
ATOM      5  C   UNL     1     -99.439 -28.072  80.106  1.00  0.00     0.000 C 
BRANCH   5   6
ATOM      6  C   UNL     1    -100.214 -27.894  81.421  1.00  0.00     0.006 C 
BRANCH   6   7
ATOM      7  C   UNL     1     -99.941 -29.057  82.380  1.00  0.00     0.053 C 
BRANCH   7   8
ATOM      8  C   UNL     1    -101.125 -29.969  82.447  1.00  0.00     0.041 C 
ATOM      9  O   UNL     1    -102.128 -29.654  83.141  1.00  0.00    -0.550 OA
ATOM     10  O   UNL     1    -101.142 -31.142  81.705  1.00  0.00    -0.550 OA
ENDBRANCH   7   8
ENDBRANCH   6   7
ENDBRANCH   5   6
ENDBRANCH   4   5
ENDBRANCH   3   4
ENDBRANCH   2   3
ENDBRANCH   1   2
BRANCH   1  11
ATOM     11  C   UNL     1     -95.212 -26.474  79.091  1.00  0.00     0.000 C 
BRANCH  11  12
ATOM     12  C   UNL     1     -95.699 -25.124  79.647  1.00  0.00     0.000 C 
BRANCH  12  13
ATOM     13  C   UNL     1     -97.185 -25.145  80.036  1.00  0.00     0.000 C 
BRANCH  13  14
ATOM     14  C   UNL     1     -97.400 -25.106  81.557  1.00  0.00     0.000 C 
BRANCH  14  15
ATOM     15  C   UNL     1     -96.451 -26.081  82.270  1.00  0.00     0.000 C 
BRANCH  15  16
ATOM     16  C   UNL     1     -97.141 -26.870  83.397  1.00  0.00     0.006 C 
BRANCH  16  17
ATOM     17  C   UNL     1     -96.605 -28.297  83.593  1.00  0.00     0.053 C 
BRANCH  17  18
ATOM     18  C   UNL     1     -96.130 -28.533  84.993  1.00  0.00     0.041 C 
ATOM     19  O   UNL     1     -96.088 -27.581  85.817  1.00  0.00    -0.550 OA
ATOM     20  O   UNL     1     -95.767 -29.811  85.400  1.00  0.00    -0.550 OA
ENDBRANCH  17  18
ENDBRANCH  16  17
ENDBRANCH  15  16
ENDBRANCH  14  15
ENDBRANCH  13  14
ENDBRANCH  12  13
ENDBRANCH  11  12
ENDBRANCH   1  11
TORSDOF 15
ENDMDL
