MODEL 1
REMARK VINA RESULT:    -3.739      0.000      0.000
REMARK INTER + INTRA:          -6.807
REMARK INTER:                  -5.707
REMARK INTRA:                  -1.100
REMARK UNBOUND:                -1.100
REMARK SMILES CCCCCCCCCCC(=O)[O-]
REMARK SMILES IDX 7 1 8 2 9 3 10 4 11 5 12 6 13 7 6 8 5 9 4 10 3 11 2 12 1 13
REMARK H PARENT
REMARK Flexibility Score: inf
ROOT
ATOM      1  C   UNL     1     129.363 145.076 108.266  1.00  0.00     0.000 C 
ENDROOT
BRANCH   1   2
ATOM      2  C   UNL     1     130.597 145.894 107.855  1.00  0.00     0.000 C 
BRANCH   2   3
ATOM      3  C   UNL     1     130.771 145.897 106.329  1.00  0.00     0.006 C 
BRANCH   3   4
ATOM      4  C   UNL     1     131.944 146.778 105.881  1.00  0.00     0.053 C 
BRANCH   4   5
ATOM      5  C   UNL     1     133.259 146.076 106.043  1.00  0.00     0.041 C 
ATOM      6  O   UNL     1     133.549 145.094 105.311  1.00  0.00    -0.550 OA
ATOM      7  O   UNL     1     134.178 146.530 106.980  1.00  0.00    -0.550 OA
ENDBRANCH   4   5
ENDBRANCH   3   4
ENDBRANCH   2   3
ENDBRANCH   1   2
BRANCH   1   8
ATOM      8  C   UNL     1     128.076 145.919 108.333  1.00  0.00     0.000 C 
BRANCH   8   9
ATOM      9  C   UNL     1     126.923 145.431 107.435  1.00  0.00    -0.000 C 
BRANCH   9  10
ATOM     10  C   UNL     1     126.925 146.090 106.045  1.00  0.00    -0.000 C 
BRANCH  10  11
ATOM     11  C   UNL     1     127.372 145.129 104.927  1.00  0.00    -0.000 C 
BRANCH  11  12
ATOM     12  C   UNL     1     127.435 143.644 105.329  1.00  0.00    -0.003 C 
ATOM     13  C   UNL     1     128.834 143.046 105.196  1.00  0.00     0.004 C 
ENDBRANCH  11  12
ENDBRANCH  10  11
ENDBRANCH   9  10
ENDBRANCH   8   9
ENDBRANCH   1   8
TORSDOF 9
ENDMDL
MODEL 2
REMARK VINA RESULT:    -3.673      1.430      2.607
REMARK INTER + INTRA:          -6.706
REMARK INTER:                  -5.638
REMARK INTRA:                  -1.068
REMARK UNBOUND:                -1.100
REMARK SMILES CCCCCCCCCCC(=O)[O-]
REMARK SMILES IDX 7 1 8 2 9 3 10 4 11 5 12 6 13 7 6 8 5 9 4 10 3 11 2 12 1 13
REMARK H PARENT
REMARK Flexibility Score: inf
ROOT
ATOM      1  C   UNL     1     127.580 145.121 108.049  1.00  0.00     0.000 C 
ENDROOT
BRANCH   1   2
ATOM      2  C   UNL     1     128.301 146.208 108.861  1.00  0.00     0.000 C 
BRANCH   2   3
ATOM      3  C   UNL     1     129.751 145.800 109.160  1.00  0.00     0.006 C 
BRANCH   3   4
ATOM      4  C   UNL     1     130.423 145.123 107.959  1.00  0.00     0.053 C 
BRANCH   4   5
ATOM      5  C   UNL     1     131.233 146.095 107.154  1.00  0.00     0.041 C 
ATOM      6  O   UNL     1     132.131 146.782 107.706  1.00  0.00    -0.550 OA
ATOM      7  O   UNL     1     131.017 146.214 105.788  1.00  0.00    -0.550 OA
ENDBRANCH   4   5
ENDBRANCH   3   4
ENDBRANCH   2   3
ENDBRANCH   1   2
BRANCH   1   8
ATOM      8  C   UNL     1     126.902 145.667 106.780  1.00  0.00     0.000 C 
BRANCH   8   9
ATOM      9  C   UNL     1     127.654 145.394 105.463  1.00  0.00    -0.000 C 
BRANCH   9  10
ATOM     10  C   UNL     1     127.507 143.942 104.979  1.00  0.00    -0.000 C 
BRANCH  10  11
ATOM     11  C   UNL     1     128.719 143.064 105.342  1.00  0.00    -0.000 C 
BRANCH  11  12
ATOM     12  C   UNL     1     128.419 141.904 106.309  1.00  0.00    -0.003 C 
ATOM     13  C   UNL     1     126.928 141.594 106.428  1.00  0.00     0.004 C 
ENDBRANCH  11  12
ENDBRANCH  10  11
ENDBRANCH   9  10
ENDBRANCH   8   9
ENDBRANCH   1   8
TORSDOF 9
ENDMDL
MODEL 3
REMARK VINA RESULT:    -3.671      1.317      2.761
REMARK INTER + INTRA:          -6.703
REMARK INTER:                  -5.783
REMARK INTRA:                  -0.920
REMARK UNBOUND:                -1.100
REMARK SMILES CCCCCCCCCCC(=O)[O-]
REMARK SMILES IDX 7 1 8 2 9 3 10 4 11 5 12 6 13 7 6 8 5 9 4 10 3 11 2 12 1 13
REMARK H PARENT
REMARK Flexibility Score: inf
ROOT
ATOM      1  C   UNL     1     130.368 143.607 105.605  1.00  0.00     0.000 C 
ENDROOT
BRANCH   1   2
ATOM      2  C   UNL     1     130.794 144.371 106.868  1.00  0.00     0.000 C 
BRANCH   2   3
ATOM      3  C   UNL     1     130.894 145.878 106.591  1.00  0.00     0.006 C 
BRANCH   3   4
ATOM      4  C   UNL     1     132.344 146.337 106.388  1.00  0.00     0.053 C 
BRANCH   4   5
ATOM      5  C   UNL     1     133.020 146.634 107.692  1.00  0.00     0.041 C 
ATOM      6  O   UNL     1     134.270 146.778 107.741  1.00  0.00    -0.550 OA
ATOM      7  O   UNL     1     132.264 146.787 108.847  1.00  0.00    -0.550 OA
ENDBRANCH   4   5
ENDBRANCH   3   4
ENDBRANCH   2   3
ENDBRANCH   1   2
BRANCH   1   8
ATOM      8  C   UNL     1     129.329 142.507 105.887  1.00  0.00     0.000 C 
BRANCH   8   9
ATOM      9  C   UNL     1     127.858 142.933 105.720  1.00  0.00    -0.000 C 
BRANCH   9  10
ATOM     10  C   UNL     1     127.702 144.265 104.968  1.00  0.00    -0.000 C 
BRANCH  10  11
ATOM     11  C   UNL     1     127.150 145.394 105.859  1.00  0.00    -0.000 C 
BRANCH  11  12
ATOM     12  C   UNL     1     127.115 145.079 107.365  1.00  0.00    -0.003 C 
ATOM     13  C   UNL     1     126.913 146.320 108.233  1.00  0.00     0.004 C 
ENDBRANCH  11  12
ENDBRANCH  10  11
ENDBRANCH   9  10
ENDBRANCH   8   9
ENDBRANCH   1   8
TORSDOF 9
ENDMDL
MODEL 4
REMARK VINA RESULT:    -3.568      1.312      1.973
REMARK INTER + INTRA:          -6.545
REMARK INTER:                  -5.429
REMARK INTRA:                  -1.116
REMARK UNBOUND:                -1.100
REMARK SMILES CCCCCCCCCCC(=O)[O-]
REMARK SMILES IDX 7 1 8 2 9 3 10 4 11 5 12 6 13 7 6 8 5 9 4 10 3 11 2 12 1 13
REMARK H PARENT
REMARK Flexibility Score: inf
ROOT
ATOM      1  C   UNL     1     128.140 146.015 108.328  1.00  0.00     0.000 C 
ENDROOT
BRANCH   1   2
ATOM      2  C   UNL     1     129.488 145.282 108.400  1.00  0.00     0.000 C 
BRANCH   2   3
ATOM      3  C   UNL     1     130.479 145.850 107.373  1.00  0.00     0.006 C 
BRANCH   3   4
ATOM      4  C   UNL     1     131.910 145.352 107.610  1.00  0.00     0.053 C 
BRANCH   4   5
ATOM      5  C   UNL     1     132.782 146.424 108.192  1.00  0.00     0.041 C 
ATOM      6  O   UNL     1     133.814 146.804 107.580  1.00  0.00    -0.550 OA
ATOM      7  O   UNL     1     132.434 147.025 109.394  1.00  0.00    -0.550 OA
ENDBRANCH   4   5
ENDBRANCH   3   4
ENDBRANCH   2   3
ENDBRANCH   1   2
BRANCH   1   8
ATOM      8  C   UNL     1     127.092 145.268 107.483  1.00  0.00     0.000 C 
BRANCH   8   9
ATOM      9  C   UNL     1     127.072 145.635 105.986  1.00  0.00    -0.000 C 
BRANCH   9  10
ATOM     10  C   UNL     1     127.667 144.535 105.091  1.00  0.00    -0.000 C 
BRANCH  10  11
ATOM     11  C   UNL     1     127.446 143.119 105.656  1.00  0.00    -0.000 C 
BRANCH  11  12
ATOM     12  C   UNL     1     128.731 142.363 106.043  1.00  0.00    -0.003 C 
ATOM     13  C   UNL     1     129.967 142.863 105.298  1.00  0.00     0.004 C 
ENDBRANCH  11  12
ENDBRANCH  10  11
ENDBRANCH   9  10
ENDBRANCH   8   9
ENDBRANCH   1   8
TORSDOF 9
ENDMDL
MODEL 5
REMARK VINA RESULT:    -3.514      1.207      2.624
REMARK INTER + INTRA:          -6.463
REMARK INTER:                  -5.530
REMARK INTRA:                  -0.933
REMARK UNBOUND:                -1.100
REMARK SMILES CCCCCCCCCCC(=O)[O-]
REMARK SMILES IDX 7 1 8 2 9 3 10 4 11 5 12 6 13 7 6 8 5 9 4 10 3 11 2 12 1 13
REMARK H PARENT
REMARK Flexibility Score: inf
ROOT
ATOM      1  C   UNL     1     130.543 144.640 106.118  1.00  0.00     0.000 C 
ENDROOT
BRANCH   1   2
ATOM      2  C   UNL     1     130.765 146.158 106.029  1.00  0.00     0.000 C 
BRANCH   2   3
ATOM      3  C   UNL     1     132.131 146.549 106.612  1.00  0.00     0.006 C 
BRANCH   3   4
ATOM      4  C   UNL     1     133.296 146.030 105.759  1.00  0.00     0.053 C 
BRANCH   4   5
ATOM      5  C   UNL     1     134.582 146.013 106.527  1.00  0.00     0.041 C 
ATOM      6  O   UNL     1     135.571 145.363 106.097  1.00  0.00    -0.550 OA
ATOM      7  O   UNL     1     134.699 146.745 107.702  1.00  0.00    -0.550 OA
ENDBRANCH   4   5
ENDBRANCH   3   4
ENDBRANCH   2   3
ENDBRANCH   1   2
BRANCH   1   8
ATOM      8  C   UNL     1     129.087 144.226 105.838  1.00  0.00     0.000 C 
BRANCH   8   9
ATOM      9  C   UNL     1     128.169 145.353 105.329  1.00  0.00    -0.000 C 
BRANCH   9  10
ATOM     10  C   UNL     1     126.940 145.577 106.226  1.00  0.00    -0.000 C 
BRANCH  10  11
ATOM     11  C   UNL     1     127.176 145.143 107.685  1.00  0.00    -0.000 C 
BRANCH  11  12
ATOM     12  C   UNL     1     127.638 146.265 108.633  1.00  0.00    -0.003 C 
ATOM     13  C   UNL     1     128.953 145.948 109.341  1.00  0.00     0.004 C 
ENDBRANCH  11  12
ENDBRANCH  10  11
ENDBRANCH   9  10
ENDBRANCH   8   9
ENDBRANCH   1   8
TORSDOF 9
ENDMDL
MODEL 6
REMARK VINA RESULT:    -3.513      1.445      2.671
REMARK INTER + INTRA:          -6.462
REMARK INTER:                  -5.598
REMARK INTRA:                  -0.864
REMARK UNBOUND:                -1.100
REMARK SMILES CCCCCCCCCCC(=O)[O-]
REMARK SMILES IDX 7 1 8 2 9 3 10 4 11 5 12 6 13 7 6 8 5 9 4 10 3 11 2 12 1 13
REMARK H PARENT
REMARK Flexibility Score: inf
ROOT
ATOM      1  C   UNL     1     131.303 143.976 105.773  1.00  0.00     0.000 C 
ENDROOT
BRANCH   1   2
ATOM      2  C   UNL     1     130.800 145.385 106.124  1.00  0.00     0.000 C 
BRANCH   2   3
ATOM      3  C   UNL     1     131.967 146.380 106.208  1.00  0.00     0.006 C 
BRANCH   3   4
ATOM      4  C   UNL     1     133.292 145.761 105.745  1.00  0.00     0.053 C 
BRANCH   4   5
ATOM      5  C   UNL     1     134.423 146.122 106.659  1.00  0.00     0.041 C 
ATOM      6  O   UNL     1     134.196 146.712 107.748  1.00  0.00    -0.550 OA
ATOM      7  O   UNL     1     135.725 145.776 106.323  1.00  0.00    -0.550 OA
ENDBRANCH   4   5
ENDBRANCH   3   4
ENDBRANCH   2   3
ENDBRANCH   1   2
BRANCH   1   8
ATOM      8  C   UNL     1     130.162 142.969 105.539  1.00  0.00     0.000 C 
BRANCH   8   9
ATOM      9  C   UNL     1     129.133 142.865 106.681  1.00  0.00    -0.000 C 
BRANCH   9  10
ATOM     10  C   UNL     1     127.697 143.172 106.223  1.00  0.00    -0.000 C 
BRANCH  10  11
ATOM     11  C   UNL     1     127.641 143.859 104.845  1.00  0.00    -0.000 C 
BRANCH  11  12
ATOM     12  C   UNL     1     127.278 145.354 104.876  1.00  0.00    -0.003 C 
ATOM     13  C   UNL     1     126.919 145.856 106.273  1.00  0.00     0.004 C 
ENDBRANCH  11  12
ENDBRANCH  10  11
ENDBRANCH   9  10
ENDBRANCH   8   9
ENDBRANCH   1   8
TORSDOF 9
ENDMDL
MODEL 7
REMARK VINA RESULT:    -3.501      3.536      5.029
REMARK INTER + INTRA:          -6.444
REMARK INTER:                  -5.217
REMARK INTRA:                  -1.227
REMARK UNBOUND:                -1.100
REMARK SMILES CCCCCCCCCCC(=O)[O-]
REMARK SMILES IDX 7 1 8 2 9 3 10 4 11 5 12 6 13 7 6 8 5 9 4 10 3 11 2 12 1 13
REMARK H PARENT
REMARK Flexibility Score: inf
ROOT
ATOM      1  C   UNL     1     127.176 144.598 107.263  1.00  0.00     0.000 C 
ENDROOT
BRANCH   1   2
ATOM      2  C   UNL     1     127.118 145.852 108.148  1.00  0.00     0.000 C 
BRANCH   2   3
ATOM      3  C   UNL     1     128.272 145.864 109.161  1.00  0.00     0.006 C 
BRANCH   3   4
ATOM      4  C   UNL     1     128.673 144.449 109.600  1.00  0.00     0.053 C 
BRANCH   4   5
ATOM      5  C   UNL     1     127.879 143.989 110.785  1.00  0.00     0.041 C 
ATOM      6  O   UNL     1     127.081 143.021 110.678  1.00  0.00    -0.550 OA
ATOM      7  O   UNL     1     128.048 144.609 112.017  1.00  0.00    -0.550 OA
ENDBRANCH   4   5
ENDBRANCH   3   4
ENDBRANCH   2   3
ENDBRANCH   1   2
BRANCH   1   8
ATOM      8  C   UNL     1     127.145 144.921 105.757  1.00  0.00     0.000 C 
BRANCH   8   9
ATOM      9  C   UNL     1     127.832 143.884 104.849  1.00  0.00    -0.000 C 
BRANCH   9  10
ATOM     10  C   UNL     1     128.790 142.955 105.615  1.00  0.00    -0.000 C 
BRANCH  10  11
ATOM     11  C   UNL     1     130.270 143.344 105.439  1.00  0.00    -0.000 C 
BRANCH  11  12
ATOM     12  C   UNL     1     130.831 144.283 106.522  1.00  0.00    -0.003 C 
ATOM     13  C   UNL     1     130.774 145.757 106.125  1.00  0.00     0.004 C 
ENDBRANCH  11  12
ENDBRANCH  10  11
ENDBRANCH   9  10
ENDBRANCH   8   9
ENDBRANCH   1   8
TORSDOF 9
ENDMDL
MODEL 8
REMARK VINA RESULT:    -3.485      1.394      2.977
REMARK INTER + INTRA:          -6.420
REMARK INTER:                  -4.991
REMARK INTRA:                  -1.429
REMARK UNBOUND:                -1.100
REMARK SMILES CCCCCCCCCCC(=O)[O-]
REMARK SMILES IDX 7 1 8 2 9 3 10 4 11 5 12 6 13 7 6 8 5 9 4 10 3 11 2 12 1 13
REMARK H PARENT
REMARK Flexibility Score: inf
ROOT
ATOM      1  C   UNL     1     128.343 145.428 105.835  1.00  0.00     0.000 C 
ENDROOT
BRANCH   1   2
ATOM      2  C   UNL     1     129.230 144.174 105.872  1.00  0.00     0.000 C 
BRANCH   2   3
ATOM      3  C   UNL     1     130.710 144.553 106.029  1.00  0.00     0.006 C 
BRANCH   3   4
ATOM      4  C   UNL     1     130.911 146.069 106.156  1.00  0.00     0.053 C 
BRANCH   4   5
ATOM      5  C   UNL     1     132.249 146.406 106.740  1.00  0.00     0.041 C 
ATOM      6  O   UNL     1     133.283 146.364 106.024  1.00  0.00    -0.550 OA
ATOM      7  O   UNL     1     132.348 146.799 108.069  1.00  0.00    -0.550 OA
ENDBRANCH   4   5
ENDBRANCH   3   4
ENDBRANCH   2   3
ENDBRANCH   1   2
BRANCH   1   8
ATOM      8  C   UNL     1     127.044 145.272 106.648  1.00  0.00     0.000 C 
BRANCH   8   9
ATOM      9  C   UNL     1     127.229 145.212 108.176  1.00  0.00    -0.000 C 
BRANCH   9  10
ATOM     10  C   UNL     1     128.099 146.358 108.720  1.00  0.00    -0.000 C 
BRANCH  10  11
ATOM     11  C   UNL     1     129.230 145.866 109.642  1.00  0.00    -0.000 C 
BRANCH  11  12
ATOM     12  C   UNL     1     129.409 144.338 109.696  1.00  0.00    -0.003 C 
ATOM     13  C   UNL     1     130.868 143.901 109.585  1.00  0.00     0.004 C 
ENDBRANCH  11  12
ENDBRANCH  10  11
ENDBRANCH   9  10
ENDBRANCH   8   9
ENDBRANCH   1   8
TORSDOF 9
ENDMDL
