MODEL 1
REMARK VINA RESULT:     0.000      0.000      0.000
REMARK INTER + INTRA:          -7.763
REMARK INTER:                   0.000
REMARK INTRA:                  -7.763
REMARK UNBOUND:                -7.763
REMARK SMILES CCCCCCCCCCCCCCCCCCCCCCCCCCCCCC(=O)[O-]
REMARK SMILES IDX 16 1 17 2 18 3 19 4 20 5 21 6 22 7 23 8 24 9 25 10 26 11
REMARK SMILES IDX 27 12 28 13 29 14 30 15 31 16 32 17 15 18 14 19 13 20 12 21
REMARK SMILES IDX 11 22 10 23 9 24 8 25 7 26 6 27 5 28 4 29 3 30 2 31 1 32
REMARK H PARENT
REMARK Flexibility Score: inf
ROOT
ATOM      1  C   UNL     1     161.979 197.819 195.106  1.00  0.00     0.000 C 
ENDROOT
BRANCH   1   2
ATOM      2  C   UNL     1     163.234 197.476 195.930  1.00  0.00     0.000 C 
BRANCH   2   3
ATOM      3  C   UNL     1     164.548 198.011 195.325  1.00  0.00     0.000 C 
BRANCH   3   4
ATOM      4  C   UNL     1     165.672 196.958 195.331  1.00  0.00     0.000 C 
BRANCH   4   5
ATOM      5  C   UNL     1     166.353 196.804 193.963  1.00  0.00     0.000 C 
BRANCH   5   6
ATOM      6  C   UNL     1     165.966 197.921 192.977  1.00  0.00     0.000 C 
BRANCH   6   7
ATOM      7  C   UNL     1     165.324 197.369 191.693  1.00  0.00     0.000 C 
BRANCH   7   8
ATOM      8  C   UNL     1     165.022 195.866 191.791  1.00  0.00     0.000 C 
BRANCH   8   9
ATOM      9  C   UNL     1     164.166 195.401 190.604  1.00  0.00     0.000 C 
BRANCH   9  10
ATOM     10  C   UNL     1     164.129 193.869 190.453  1.00  0.00     0.000 C 
BRANCH  10  11
ATOM     11  C   UNL     1     162.807 193.294 189.912  1.00  0.00     0.000 C 
BRANCH  11  12
ATOM     12  C   UNL     1     162.311 192.079 190.714  1.00  0.00     0.000 C 
BRANCH  12  13
ATOM     13  C   UNL     1     163.390 191.504 191.651  1.00  0.00     0.006 C 
BRANCH  13  14
ATOM     14  C   UNL     1     162.837 190.786 192.893  1.00  0.00     0.053 C 
BRANCH  14  15
ATOM     15  C   UNL     1     163.864 189.907 193.541  1.00  0.00     0.041 C 
ATOM     16  O   UNL     1     164.659 189.233 192.833  1.00  0.00    -0.550 OA
ATOM     17  O   UNL     1     163.974 189.869 194.924  1.00  0.00    -0.550 OA
ENDBRANCH  14  15
ENDBRANCH  13  14
ENDBRANCH  12  13
ENDBRANCH  11  12
ENDBRANCH  10  11
ENDBRANCH   9  10
ENDBRANCH   8   9
ENDBRANCH   7   8
ENDBRANCH   6   7
ENDBRANCH   5   6
ENDBRANCH   4   5
ENDBRANCH   3   4
ENDBRANCH   2   3
ENDBRANCH   1   2
BRANCH   1  18
ATOM     18  C   UNL     1     162.298 198.193 193.651  1.00  0.00     0.000 C 
BRANCH  18  19
ATOM     19  C   UNL     1     161.616 197.273 192.624  1.00  0.00     0.000 C 
BRANCH  19  20
ATOM     20  C   UNL     1     160.758 196.154 193.249  1.00  0.00     0.000 C 
BRANCH  20  21
ATOM     21  C   UNL     1     161.350 194.754 193.021  1.00  0.00     0.000 C 
BRANCH  21  22
ATOM     22  C   UNL     1     161.952 194.193 194.317  1.00  0.00     0.000 C 
BRANCH  22  23
ATOM     23  C   UNL     1     163.488 194.160 194.277  1.00  0.00     0.000 C 
BRANCH  23  24
ATOM     24  C   UNL     1     164.085 193.391 195.470  1.00  0.00    -0.000 C 
BRANCH  24  25
ATOM     25  C   UNL     1     165.560 192.999 195.240  1.00  0.00    -0.000 C 
BRANCH  25  26
ATOM     26  C   UNL     1     166.018 193.118 193.775  1.00  0.00    -0.000 C 
BRANCH  26  27
ATOM     27  C   UNL     1     166.949 191.976 193.344  1.00  0.00    -0.000 C 
BRANCH  27  28
ATOM     28  C   UNL     1     166.995 191.845 191.817  1.00  0.00    -0.000 C 
BRANCH  28  29
ATOM     29  C   UNL     1     168.224 192.565 191.242  1.00  0.00    -0.000 C 
BRANCH  29  30
ATOM     30  C   UNL     1     167.834 193.784 190.381  1.00  0.00    -0.000 C 
BRANCH  30  31
ATOM     31  C   UNL     1     168.431 195.110 190.885  1.00  0.00    -0.003 C 
ATOM     32  C   UNL     1     169.067 194.988 192.269  1.00  0.00     0.004 C 
ENDBRANCH  30  31
ENDBRANCH  29  30
ENDBRANCH  28  29
ENDBRANCH  27  28
ENDBRANCH  26  27
ENDBRANCH  25  26
ENDBRANCH  24  25
ENDBRANCH  23  24
ENDBRANCH  22  23
ENDBRANCH  21  22
ENDBRANCH  20  21
ENDBRANCH  19  20
ENDBRANCH  18  19
ENDBRANCH   1  18
TORSDOF 28
ENDMDL
MODEL 2
REMARK VINA RESULT:     0.036     13.039     15.660
REMARK INTER + INTRA:          -7.669
REMARK INTER:                   0.000
REMARK INTRA:                  -7.669
REMARK UNBOUND:                -7.763
REMARK SMILES CCCCCCCCCCCCCCCCCCCCCCCCCCCCCC(=O)[O-]
REMARK SMILES IDX 16 1 17 2 18 3 19 4 20 5 21 6 22 7 23 8 24 9 25 10 26 11
REMARK SMILES IDX 27 12 28 13 29 14 30 15 31 16 32 17 15 18 14 19 13 20 12 21
REMARK SMILES IDX 11 22 10 23 9 24 8 25 7 26 6 27 5 28 4 29 3 30 2 31 1 32
REMARK H PARENT
REMARK Flexibility Score: inf
ROOT
ATOM      1  C   UNL     1     172.924 186.894 187.009  1.00  0.00     0.000 C 
ENDROOT
BRANCH   1   2
ATOM      2  C   UNL     1     173.864 185.684 187.170  1.00  0.00     0.000 C 
BRANCH   2   3
ATOM      3  C   UNL     1     173.887 185.092 188.594  1.00  0.00     0.000 C 
BRANCH   3   4
ATOM      4  C   UNL     1     172.630 185.458 189.406  1.00  0.00     0.000 C 
BRANCH   4   5
ATOM      5  C   UNL     1     171.627 184.299 189.509  1.00  0.00     0.000 C 
BRANCH   5   6
ATOM      6  C   UNL     1     170.399 184.493 188.602  1.00  0.00     0.000 C 
BRANCH   6   7
ATOM      7  C   UNL     1     169.290 183.469 188.896  1.00  0.00     0.000 C 
BRANCH   7   8
ATOM      8  C   UNL     1     169.837 182.180 189.527  1.00  0.00     0.000 C 
BRANCH   8   9
ATOM      9  C   UNL     1     169.592 180.974 188.610  1.00  0.00     0.000 C 
BRANCH   9  10
ATOM     10  C   UNL     1     170.843 180.558 187.814  1.00  0.00     0.000 C 
BRANCH  10  11
ATOM     11  C   UNL     1     172.184 180.766 188.542  1.00  0.00     0.000 C 
BRANCH  11  12
ATOM     12  C   UNL     1     173.234 181.473 187.669  1.00  0.00     0.000 C 
BRANCH  12  13
ATOM     13  C   UNL     1     172.609 182.252 186.497  1.00  0.00     0.006 C 
BRANCH  13  14
ATOM     14  C   UNL     1     173.143 181.854 185.111  1.00  0.00     0.053 C 
BRANCH  14  15
ATOM     15  C   UNL     1     174.603 182.155 184.961  1.00  0.00     0.041 C 
ATOM     16  O   UNL     1     174.993 183.344 184.819  1.00  0.00    -0.550 OA
ATOM     17  O   UNL     1     175.536 181.128 185.025  1.00  0.00    -0.550 OA
ENDBRANCH  14  15
ENDBRANCH  13  14
ENDBRANCH  12  13
ENDBRANCH  11  12
ENDBRANCH  10  11
ENDBRANCH   9  10
ENDBRANCH   8   9
ENDBRANCH   7   8
ENDBRANCH   6   7
ENDBRANCH   5   6
ENDBRANCH   4   5
ENDBRANCH   3   4
ENDBRANCH   2   3
ENDBRANCH   1   2
BRANCH   1  18
ATOM     18  C   UNL     1     171.845 186.679 185.938  1.00  0.00     0.000 C 
BRANCH  18  19
ATOM     19  C   UNL     1     172.242 185.643 184.873  1.00  0.00     0.000 C 
BRANCH  19  20
ATOM     20  C   UNL     1     171.062 184.818 184.322  1.00  0.00     0.000 C 
BRANCH  20  21
ATOM     21  C   UNL     1     169.703 185.502 184.545  1.00  0.00     0.000 C 
BRANCH  21  22
ATOM     22  C   UNL     1     168.722 184.561 185.257  1.00  0.00     0.000 C 
BRANCH  22  23
ATOM     23  C   UNL     1     169.234 183.112 185.299  1.00  0.00     0.000 C 
BRANCH  23  24
ATOM     24  C   UNL     1     168.095 182.097 185.502  1.00  0.00    -0.000 C 
BRANCH  24  25
ATOM     25  C   UNL     1     168.355 180.765 184.769  1.00  0.00    -0.000 C 
BRANCH  25  26
ATOM     26  C   UNL     1     169.789 180.619 184.226  1.00  0.00    -0.000 C 
BRANCH  26  27
ATOM     27  C   UNL     1     169.854 180.644 182.692  1.00  0.00    -0.000 C 
BRANCH  27  28
ATOM     28  C   UNL     1     170.845 181.704 182.197  1.00  0.00    -0.000 C 
BRANCH  28  29
ATOM     29  C   UNL     1     170.117 182.819 181.431  1.00  0.00    -0.000 C 
BRANCH  29  30
ATOM     30  C   UNL     1     168.600 182.558 181.324  1.00  0.00    -0.000 C 
BRANCH  30  31
ATOM     31  C   UNL     1     167.738 183.727 181.832  1.00  0.00    -0.003 C 
ATOM     32  C   UNL     1     166.424 183.267 182.462  1.00  0.00     0.004 C 
ENDBRANCH  30  31
ENDBRANCH  29  30
ENDBRANCH  28  29
ENDBRANCH  27  28
ENDBRANCH  26  27
ENDBRANCH  25  26
ENDBRANCH  24  25
ENDBRANCH  23  24
ENDBRANCH  22  23
ENDBRANCH  21  22
ENDBRANCH  20  21
ENDBRANCH  19  20
ENDBRANCH  18  19
ENDBRANCH   1  18
TORSDOF 28
ENDMDL
MODEL 3
REMARK VINA RESULT:     0.040      8.602     12.469
REMARK INTER + INTRA:          -7.658
REMARK INTER:                   0.000
REMARK INTRA:                  -7.658
REMARK UNBOUND:                -7.763
REMARK SMILES CCCCCCCCCCCCCCCCCCCCCCCCCCCCCC(=O)[O-]
REMARK SMILES IDX 16 1 17 2 18 3 19 4 20 5 21 6 22 7 23 8 24 9 25 10 26 11
REMARK SMILES IDX 27 12 28 13 29 14 30 15 31 16 32 17 15 18 14 19 13 20 12 21
REMARK SMILES IDX 11 22 10 23 9 24 8 25 7 26 6 27 5 28 4 29 3 30 2 31 1 32
REMARK H PARENT
REMARK Flexibility Score: inf
ROOT
ATOM      1  C   UNL     1     172.414 191.798 184.282  1.00  0.00     0.000 C 
ENDROOT
BRANCH   1   2
ATOM      2  C   UNL     1     171.633 190.955 185.307  1.00  0.00     0.000 C 
BRANCH   2   3
ATOM      3  C   UNL     1     172.482 190.478 186.504  1.00  0.00     0.000 C 
BRANCH   3   4
ATOM      4  C   UNL     1     172.000 191.070 187.842  1.00  0.00     0.000 C 
BRANCH   4   5
ATOM      5  C   UNL     1     170.577 191.642 187.764  1.00  0.00     0.000 C 
BRANCH   5   6
ATOM      6  C   UNL     1     170.506 193.119 188.189  1.00  0.00     0.000 C 
BRANCH   6   7
ATOM      7  C   UNL     1     171.796 193.886 187.851  1.00  0.00     0.000 C 
BRANCH   7   8
ATOM      8  C   UNL     1     171.684 194.665 186.532  1.00  0.00     0.000 C 
BRANCH   8   9
ATOM      9  C   UNL     1     170.217 194.974 186.201  1.00  0.00     0.000 C 
BRANCH   9  10
ATOM     10  C   UNL     1     169.783 194.434 184.825  1.00  0.00     0.000 C 
BRANCH  10  11
ATOM     11  C   UNL     1     168.820 193.233 184.864  1.00  0.00     0.000 C 
BRANCH  11  12
ATOM     12  C   UNL     1     168.337 192.809 183.467  1.00  0.00     0.000 C 
BRANCH  12  13
ATOM     13  C   UNL     1     167.860 191.346 183.420  1.00  0.00     0.006 C 
BRANCH  13  14
ATOM     14  C   UNL     1     168.032 190.577 184.741  1.00  0.00     0.053 C 
BRANCH  14  15
ATOM     15  C   UNL     1     167.613 189.144 184.619  1.00  0.00     0.041 C 
ATOM     16  O   UNL     1     167.579 188.405 185.639  1.00  0.00    -0.550 OA
ATOM     17  O   UNL     1     167.215 188.637 183.389  1.00  0.00    -0.550 OA
ENDBRANCH  14  15
ENDBRANCH  13  14
ENDBRANCH  12  13
ENDBRANCH  11  12
ENDBRANCH  10  11
ENDBRANCH   9  10
ENDBRANCH   8   9
ENDBRANCH   7   8
ENDBRANCH   6   7
ENDBRANCH   5   6
ENDBRANCH   4   5
ENDBRANCH   3   4
ENDBRANCH   2   3
ENDBRANCH   1   2
BRANCH   1  18
ATOM     18  C   UNL     1     173.761 192.303 184.819  1.00  0.00     0.000 C 
BRANCH  18  19
ATOM     19  C   UNL     1     174.963 191.840 183.979  1.00  0.00     0.000 C 
BRANCH  19  20
ATOM     20  C   UNL     1     174.605 191.426 182.537  1.00  0.00     0.000 C 
BRANCH  20  21
ATOM     21  C   UNL     1     174.889 189.940 182.258  1.00  0.00     0.000 C 
BRANCH  21  22
ATOM     22  C   UNL     1     175.014 189.148 183.567  1.00  0.00     0.000 C 
BRANCH  22  23
ATOM     23  C   UNL     1     173.817 188.209 183.794  1.00  0.00     0.000 C 
BRANCH  23  24
ATOM     24  C   UNL     1     172.870 188.170 182.582  1.00  0.00    -0.000 C 
BRANCH  24  25
ATOM     25  C   UNL     1     171.383 188.178 182.995  1.00  0.00    -0.000 C 
BRANCH  25  26
ATOM     26  C   UNL     1     170.515 189.161 182.188  1.00  0.00    -0.000 C 
BRANCH  26  27
ATOM     27  C   UNL     1     171.331 190.012 181.204  1.00  0.00    -0.000 C 
BRANCH  27  28
ATOM     28  C   UNL     1     170.651 191.360 180.941  1.00  0.00    -0.000 C 
BRANCH  28  29
ATOM     29  C   UNL     1     171.692 192.448 180.637  1.00  0.00    -0.000 C 
BRANCH  29  30
ATOM     30  C   UNL     1     171.455 193.729 181.464  1.00  0.00    -0.000 C 
BRANCH  30  31
ATOM     31  C   UNL     1     172.707 194.612 181.603  1.00  0.00    -0.003 C 
ATOM     32  C   UNL     1     172.790 195.318 182.955  1.00  0.00     0.004 C 
ENDBRANCH  30  31
ENDBRANCH  29  30
ENDBRANCH  28  29
ENDBRANCH  27  28
ENDBRANCH  26  27
ENDBRANCH  25  26
ENDBRANCH  24  25
ENDBRANCH  23  24
ENDBRANCH  22  23
ENDBRANCH  21  22
ENDBRANCH  20  21
ENDBRANCH  19  20
ENDBRANCH  18  19
ENDBRANCH   1  18
TORSDOF 28
ENDMDL
MODEL 4
REMARK VINA RESULT:     0.054      9.061     13.486
REMARK INTER + INTRA:          -7.620
REMARK INTER:                   0.000
REMARK INTRA:                  -7.620
REMARK UNBOUND:                -7.763
REMARK SMILES CCCCCCCCCCCCCCCCCCCCCCCCCCCCCC(=O)[O-]
REMARK SMILES IDX 16 1 17 2 18 3 19 4 20 5 21 6 22 7 23 8 24 9 25 10 26 11
REMARK SMILES IDX 27 12 28 13 29 14 30 15 31 16 32 17 15 18 14 19 13 20 12 21
REMARK SMILES IDX 11 22 10 23 9 24 8 25 7 26 6 27 5 28 4 29 3 30 2 31 1 32
REMARK H PARENT
REMARK Flexibility Score: inf
ROOT
ATOM      1  C   UNL     1     174.056 184.673 188.964  1.00  0.00     0.000 C 
ENDROOT
BRANCH   1   2
ATOM      2  C   UNL     1     173.500 183.750 190.064  1.00  0.00     0.000 C 
BRANCH   2   3
ATOM      3  C   UNL     1     173.257 182.298 189.601  1.00  0.00     0.000 C 
BRANCH   3   4
ATOM      4  C   UNL     1     173.092 182.185 188.074  1.00  0.00     0.000 C 
BRANCH   4   5
ATOM      5  C   UNL     1     171.881 181.334 187.666  1.00  0.00     0.000 C 
BRANCH   5   6
ATOM      6  C   UNL     1     170.927 181.055 188.841  1.00  0.00     0.000 C 
BRANCH   6   7
ATOM      7  C   UNL     1     169.449 181.121 188.421  1.00  0.00     0.000 C 
BRANCH   7   8
ATOM      8  C   UNL     1     168.719 182.322 189.041  1.00  0.00     0.000 C 
BRANCH   8   9
ATOM      9  C   UNL     1     169.626 183.059 190.038  1.00  0.00     0.000 C 
BRANCH   9  10
ATOM     10  C   UNL     1     169.919 184.513 189.623  1.00  0.00     0.000 C 
BRANCH  10  11
ATOM     11  C   UNL     1     169.576 184.862 188.163  1.00  0.00     0.000 C 
BRANCH  11  12
ATOM     12  C   UNL     1     170.819 184.955 187.262  1.00  0.00     0.000 C 
BRANCH  12  13
ATOM     13  C   UNL     1     170.590 184.346 185.866  1.00  0.00     0.006 C 
BRANCH  13  14
ATOM     14  C   UNL     1     169.164 183.824 185.625  1.00  0.00     0.053 C 
BRANCH  14  15
ATOM     15  C   UNL     1     169.160 182.472 184.980  1.00  0.00     0.041 C 
ATOM     16  O   UNL     1     170.239 181.952 184.592  1.00  0.00    -0.550 OA
ATOM     17  O   UNL     1     167.971 181.766 184.852  1.00  0.00    -0.550 OA
ENDBRANCH  14  15
ENDBRANCH  13  14
ENDBRANCH  12  13
ENDBRANCH  11  12
ENDBRANCH  10  11
ENDBRANCH   9  10
ENDBRANCH   8   9
ENDBRANCH   7   8
ENDBRANCH   6   7
ENDBRANCH   5   6
ENDBRANCH   4   5
ENDBRANCH   3   4
ENDBRANCH   2   3
ENDBRANCH   1   2
BRANCH   1  18
ATOM     18  C   UNL     1     173.773 186.159 189.226  1.00  0.00     0.000 C 
BRANCH  18  19
ATOM     19  C   UNL     1     173.041 186.414 190.555  1.00  0.00     0.000 C 
BRANCH  19  20
ATOM     20  C   UNL     1     172.029 187.577 190.506  1.00  0.00     0.000 C 
BRANCH  20  21
ATOM     21  C   UNL     1     171.534 187.874 189.081  1.00  0.00     0.000 C 
BRANCH  21  22
ATOM     22  C   UNL     1     171.728 189.356 188.729  1.00  0.00     0.000 C 
BRANCH  22  23
ATOM     23  C   UNL     1     172.008 189.564 187.231  1.00  0.00     0.000 C 
BRANCH  23  24
ATOM     24  C   UNL     1     172.351 188.246 186.514  1.00  0.00    -0.000 C 
BRANCH  24  25
ATOM     25  C   UNL     1     171.508 188.032 185.239  1.00  0.00    -0.000 C 
BRANCH  25  26
ATOM     26  C   UNL     1     170.090 188.626 185.320  1.00  0.00    -0.000 C 
BRANCH  26  27
ATOM     27  C   UNL     1     168.995 187.614 184.953  1.00  0.00    -0.000 C 
BRANCH  27  28
ATOM     28  C   UNL     1     168.010 187.419 186.111  1.00  0.00    -0.000 C 
BRANCH  28  29
ATOM     29  C   UNL     1     168.381 188.315 187.302  1.00  0.00    -0.000 C 
BRANCH  29  30
ATOM     30  C   UNL     1     167.212 188.479 188.295  1.00  0.00    -0.000 C 
BRANCH  30  31
ATOM     31  C   UNL     1     167.196 187.414 189.406  1.00  0.00    -0.003 C 
ATOM     32  C   UNL     1     168.157 187.734 190.551  1.00  0.00     0.004 C 
ENDBRANCH  30  31
ENDBRANCH  29  30
ENDBRANCH  28  29
ENDBRANCH  27  28
ENDBRANCH  26  27
ENDBRANCH  25  26
ENDBRANCH  24  25
ENDBRANCH  23  24
ENDBRANCH  22  23
ENDBRANCH  21  22
ENDBRANCH  20  21
ENDBRANCH  19  20
ENDBRANCH  18  19
ENDBRANCH   1  18
TORSDOF 28
ENDMDL
MODEL 5
REMARK VINA RESULT:     0.071      3.801      7.428
REMARK INTER + INTRA:          -7.575
REMARK INTER:                   0.000
REMARK INTRA:                  -7.575
REMARK UNBOUND:                -7.763
REMARK SMILES CCCCCCCCCCCCCCCCCCCCCCCCCCCCCC(=O)[O-]
REMARK SMILES IDX 16 1 17 2 18 3 19 4 20 5 21 6 22 7 23 8 24 9 25 10 26 11
REMARK SMILES IDX 27 12 28 13 29 14 30 15 31 16 32 17 15 18 14 19 13 20 12 21
REMARK SMILES IDX 11 22 10 23 9 24 8 25 7 26 6 27 5 28 4 29 3 30 2 31 1 32
REMARK H PARENT
REMARK Flexibility Score: inf
ROOT
ATOM      1  C   UNL     1     164.522 189.677 188.118  1.00  0.00     0.000 C 
ENDROOT
BRANCH   1   2
ATOM      2  C   UNL     1     165.157 190.466 189.278  1.00  0.00     0.000 C 
BRANCH   2   3
ATOM      3  C   UNL     1     164.146 190.941 190.342  1.00  0.00     0.000 C 
BRANCH   3   4
ATOM      4  C   UNL     1     164.011 192.475 190.384  1.00  0.00     0.000 C 
BRANCH   4   5
ATOM      5  C   UNL     1     165.173 193.195 189.683  1.00  0.00     0.000 C 
BRANCH   5   6
ATOM      6  C   UNL     1     165.734 194.365 190.512  1.00  0.00     0.000 C 
BRANCH   6   7
ATOM      7  C   UNL     1     165.282 194.307 191.981  1.00  0.00     0.000 C 
BRANCH   7   8
ATOM      8  C   UNL     1     166.399 193.824 192.917  1.00  0.00     0.000 C 
BRANCH   8   9
ATOM      9  C   UNL     1     166.114 192.402 193.422  1.00  0.00     0.000 C 
BRANCH   9  10
ATOM     10  C   UNL     1     166.992 191.335 192.743  1.00  0.00     0.000 C 
BRANCH  10  11
ATOM     11  C   UNL     1     168.183 191.881 191.934  1.00  0.00     0.000 C 
BRANCH  11  12
ATOM     12  C   UNL     1     168.436 191.094 190.637  1.00  0.00     0.000 C 
BRANCH  12  13
ATOM     13  C   UNL     1     168.688 192.010 189.424  1.00  0.00     0.006 C 
BRANCH  13  14
ATOM     14  C   UNL     1     169.223 193.406 189.781  1.00  0.00     0.053 C 
BRANCH  14  15
ATOM     15  C   UNL     1     168.995 194.397 188.680  1.00  0.00     0.041 C 
ATOM     16  O   UNL     1     168.853 194.002 187.492  1.00  0.00    -0.550 OA
ATOM     17  O   UNL     1     168.890 195.750 188.972  1.00  0.00    -0.550 OA
ENDBRANCH  14  15
ENDBRANCH  13  14
ENDBRANCH  12  13
ENDBRANCH  11  12
ENDBRANCH  10  11
ENDBRANCH   9  10
ENDBRANCH   8   9
ENDBRANCH   7   8
ENDBRANCH   6   7
ENDBRANCH   5   6
ENDBRANCH   4   5
ENDBRANCH   3   4
ENDBRANCH   2   3
ENDBRANCH   1   2
BRANCH   1  18
ATOM     18  C   UNL     1     165.180 189.969 186.761  1.00  0.00     0.000 C 
BRANCH  18  19
ATOM     19  C   UNL     1     166.284 191.037 186.838  1.00  0.00     0.000 C 
BRANCH  19  20
ATOM     20  C   UNL     1     165.931 192.363 186.134  1.00  0.00     0.000 C 
BRANCH  20  21
ATOM     21  C   UNL     1     164.522 192.353 185.520  1.00  0.00     0.000 C 
BRANCH  21  22
ATOM     22  C   UNL     1     163.593 193.330 186.255  1.00  0.00     0.000 C 
BRANCH  22  23
ATOM     23  C   UNL     1     162.453 192.605 186.990  1.00  0.00     0.000 C 
BRANCH  23  24
ATOM     24  C   UNL     1     161.638 193.557 187.883  1.00  0.00    -0.000 C 
BRANCH  24  25
ATOM     25  C   UNL     1     162.226 194.984 187.913  1.00  0.00    -0.000 C 
BRANCH  25  26
ATOM     26  C   UNL     1     162.307 195.597 189.324  1.00  0.00    -0.000 C 
BRANCH  26  27
ATOM     27  C   UNL     1     163.223 196.828 189.390  1.00  0.00    -0.000 C 
BRANCH  27  28
ATOM     28  C   UNL     1     163.780 197.179 188.005  1.00  0.00    -0.000 C 
BRANCH  28  29
ATOM     29  C   UNL     1     165.315 197.121 188.003  1.00  0.00    -0.000 C 
BRANCH  29  30
ATOM     30  C   UNL     1     165.852 195.923 187.193  1.00  0.00    -0.000 C 
BRANCH  30  31
ATOM     31  C   UNL     1     166.650 196.334 185.943  1.00  0.00    -0.003 C 
ATOM     32  C   UNL     1     167.550 197.545 186.182  1.00  0.00     0.004 C 
ENDBRANCH  30  31
ENDBRANCH  29  30
ENDBRANCH  28  29
ENDBRANCH  27  28
ENDBRANCH  26  27
ENDBRANCH  25  26
ENDBRANCH  24  25
ENDBRANCH  23  24
ENDBRANCH  22  23
ENDBRANCH  21  22
ENDBRANCH  20  21
ENDBRANCH  19  20
ENDBRANCH  18  19
ENDBRANCH   1  18
TORSDOF 28
ENDMDL
MODEL 6
REMARK VINA RESULT:     0.075     12.223     15.716
REMARK INTER + INTRA:          -7.565
REMARK INTER:                   0.000
REMARK INTRA:                  -7.565
REMARK UNBOUND:                -7.763
REMARK SMILES CCCCCCCCCCCCCCCCCCCCCCCCCCCCCC(=O)[O-]
REMARK SMILES IDX 16 1 17 2 18 3 19 4 20 5 21 6 22 7 23 8 24 9 25 10 26 11
REMARK SMILES IDX 27 12 28 13 29 14 30 15 31 16 32 17 15 18 14 19 13 20 12 21
REMARK SMILES IDX 11 22 10 23 9 24 8 25 7 26 6 27 5 28 4 29 3 30 2 31 1 32
REMARK H PARENT
REMARK Flexibility Score: inf
ROOT
ATOM      1  C   UNL     1     164.985 184.356 182.150  1.00  0.00     0.000 C 
ENDROOT
BRANCH   1   2
ATOM      2  C   UNL     1     165.820 185.271 183.064  1.00  0.00     0.000 C 
BRANCH   2   3
ATOM      3  C   UNL     1     167.321 185.313 182.708  1.00  0.00     0.000 C 
BRANCH   3   4
ATOM      4  C   UNL     1     168.162 186.032 183.779  1.00  0.00     0.000 C 
BRANCH   4   5
ATOM      5  C   UNL     1     169.367 186.780 183.190  1.00  0.00     0.000 C 
BRANCH   5   6
ATOM      6  C   UNL     1     169.193 187.102 181.695  1.00  0.00     0.000 C 
BRANCH   6   7
ATOM      7  C   UNL     1     170.152 188.208 181.221  1.00  0.00     0.000 C 
BRANCH   7   8
ATOM      8  C   UNL     1     169.958 188.552 179.737  1.00  0.00     0.000 C 
BRANCH   8   9
ATOM      9  C   UNL     1     170.463 187.413 178.840  1.00  0.00     0.000 C 
BRANCH   9  10
ATOM     10  C   UNL     1     171.858 186.901 179.244  1.00  0.00     0.000 C 
BRANCH  10  11
ATOM     11  C   UNL     1     171.959 185.382 179.476  1.00  0.00     0.000 C 
BRANCH  11  12
ATOM     12  C   UNL     1     172.177 185.016 180.954  1.00  0.00     0.000 C 
BRANCH  12  13
ATOM     13  C   UNL     1     171.197 183.937 181.451  1.00  0.00     0.006 C 
BRANCH  13  14
ATOM     14  C   UNL     1     171.289 183.637 182.956  1.00  0.00     0.053 C 
BRANCH  14  15
ATOM     15  C   UNL     1     170.081 182.910 183.462  1.00  0.00     0.041 C 
ATOM     16  O   UNL     1     169.393 182.203 182.679  1.00  0.00    -0.550 OA
ATOM     17  O   UNL     1     169.743 182.975 184.807  1.00  0.00    -0.550 OA
ENDBRANCH  14  15
ENDBRANCH  13  14
ENDBRANCH  12  13
ENDBRANCH  11  12
ENDBRANCH  10  11
ENDBRANCH   9  10
ENDBRANCH   8   9
ENDBRANCH   7   8
ENDBRANCH   6   7
ENDBRANCH   5   6
ENDBRANCH   4   5
ENDBRANCH   3   4
ENDBRANCH   2   3
ENDBRANCH   1   2
BRANCH   1  18
ATOM     18  C   UNL     1     165.762 183.127 181.655  1.00  0.00     0.000 C 
BRANCH  18  19
ATOM     19  C   UNL     1     165.326 182.654 180.258  1.00  0.00     0.000 C 
BRANCH  19  20
ATOM     20  C   UNL     1     166.375 182.895 179.153  1.00  0.00     0.000 C 
BRANCH  20  21
ATOM     21  C   UNL     1     167.775 183.188 179.717  1.00  0.00     0.000 C 
BRANCH  21  22
ATOM     22  C   UNL     1     168.268 184.573 179.276  1.00  0.00     0.000 C 
BRANCH  22  23
ATOM     23  C   UNL     1     167.478 185.114 178.073  1.00  0.00     0.000 C 
BRANCH  23  24
ATOM     24  C   UNL     1     166.952 186.540 178.316  1.00  0.00    -0.000 C 
BRANCH  24  25
ATOM     25  C   UNL     1     165.707 186.562 179.227  1.00  0.00    -0.000 C 
BRANCH  25  26
ATOM     26  C   UNL     1     165.751 187.644 180.321  1.00  0.00    -0.000 C 
BRANCH  26  27
ATOM     27  C   UNL     1     166.346 188.971 179.827  1.00  0.00    -0.000 C 
BRANCH  27  28
ATOM     28  C   UNL     1     166.681 189.899 181.000  1.00  0.00    -0.000 C 
BRANCH  28  29
ATOM     29  C   UNL     1     166.316 189.242 182.339  1.00  0.00    -0.000 C 
BRANCH  29  30
ATOM     30  C   UNL     1     167.168 189.783 183.505  1.00  0.00    -0.000 C 
BRANCH  30  31
ATOM     31  C   UNL     1     166.801 189.175 184.870  1.00  0.00    -0.003 C 
ATOM     32  C   UNL     1     165.408 188.546 184.886  1.00  0.00     0.004 C 
ENDBRANCH  30  31
ENDBRANCH  29  30
ENDBRANCH  28  29
ENDBRANCH  27  28
ENDBRANCH  26  27
ENDBRANCH  25  26
ENDBRANCH  24  25
ENDBRANCH  23  24
ENDBRANCH  22  23
ENDBRANCH  21  22
ENDBRANCH  20  21
ENDBRANCH  19  20
ENDBRANCH  18  19
ENDBRANCH   1  18
TORSDOF 28
ENDMDL
MODEL 7
REMARK VINA RESULT:     0.080      5.031      9.021
REMARK INTER + INTRA:          -7.552
REMARK INTER:                   0.000
REMARK INTRA:                  -7.552
REMARK UNBOUND:                -7.763
REMARK SMILES CCCCCCCCCCCCCCCCCCCCCCCCCCCCCC(=O)[O-]
REMARK SMILES IDX 16 1 17 2 18 3 19 4 20 5 21 6 22 7 23 8 24 9 25 10 26 11
REMARK SMILES IDX 27 12 28 13 29 14 30 15 31 16 32 17 15 18 14 19 13 20 12 21
REMARK SMILES IDX 11 22 10 23 9 24 8 25 7 26 6 27 5 28 4 29 3 30 2 31 1 32
REMARK H PARENT
REMARK Flexibility Score: inf
ROOT
ATOM      1  C   UNL     1     168.134 191.181 187.336  1.00  0.00     0.000 C 
ENDROOT
BRANCH   1   2
ATOM      2  C   UNL     1     169.006 190.750 186.142  1.00  0.00     0.000 C 
BRANCH   2   3
ATOM      3  C   UNL     1     169.047 189.225 185.913  1.00  0.00     0.000 C 
BRANCH   3   4
ATOM      4  C   UNL     1     167.659 188.638 185.597  1.00  0.00     0.000 C 
BRANCH   4   5
ATOM      5  C   UNL     1     167.562 187.136 185.905  1.00  0.00     0.000 C 
BRANCH   5   6
ATOM      6  C   UNL     1     166.108 186.640 185.994  1.00  0.00     0.000 C 
BRANCH   6   7
ATOM      7  C   UNL     1     165.091 187.778 185.804  1.00  0.00     0.000 C 
BRANCH   7   8
ATOM      8  C   UNL     1     164.036 187.811 186.920  1.00  0.00     0.000 C 
BRANCH   8   9
ATOM      9  C   UNL     1     164.699 187.732 188.302  1.00  0.00     0.000 C 
BRANCH   9  10
ATOM     10  C   UNL     1     165.560 188.966 188.629  1.00  0.00     0.000 C 
BRANCH  10  11
ATOM     11  C   UNL     1     165.900 189.155 190.119  1.00  0.00     0.000 C 
BRANCH  11  12
ATOM     12  C   UNL     1     167.412 189.103 190.398  1.00  0.00     0.000 C 
BRANCH  12  13
ATOM     13  C   UNL     1     168.172 188.213 189.397  1.00  0.00     0.006 C 
BRANCH  13  14
ATOM     14  C   UNL     1     168.604 186.848 189.959  1.00  0.00     0.053 C 
BRANCH  14  15
ATOM     15  C   UNL     1     167.514 185.826 189.857  1.00  0.00     0.041 C 
ATOM     16  O   UNL     1     167.431 185.087 188.840  1.00  0.00    -0.550 OA
ATOM     17  O   UNL     1     166.619 185.655 190.904  1.00  0.00    -0.550 OA
ENDBRANCH  14  15
ENDBRANCH  13  14
ENDBRANCH  12  13
ENDBRANCH  11  12
ENDBRANCH  10  11
ENDBRANCH   9  10
ENDBRANCH   8   9
ENDBRANCH   7   8
ENDBRANCH   6   7
ENDBRANCH   5   6
ENDBRANCH   4   5
ENDBRANCH   3   4
ENDBRANCH   2   3
ENDBRANCH   1   2
BRANCH   1  18
ATOM     18  C   UNL     1     168.756 192.324 188.152  1.00  0.00     0.000 C 
BRANCH  18  19
ATOM     19  C   UNL     1     167.797 192.914 189.200  1.00  0.00     0.000 C 
BRANCH  19  20
ATOM     20  C   UNL     1     166.306 192.635 188.920  1.00  0.00     0.000 C 
BRANCH  20  21
ATOM     21  C   UNL     1     165.424 193.881 189.105  1.00  0.00     0.000 C 
BRANCH  21  22
ATOM     22  C   UNL     1     165.986 195.075 188.321  1.00  0.00     0.000 C 
BRANCH  22  23
ATOM     23  C   UNL     1     165.706 194.964 186.814  1.00  0.00     0.000 C 
BRANCH  23  24
ATOM     24  C   UNL     1     166.999 194.972 185.979  1.00  0.00    -0.000 C 
BRANCH  24  25
ATOM     25  C   UNL     1     167.087 193.768 185.018  1.00  0.00    -0.000 C 
BRANCH  25  26
ATOM     26  C   UNL     1     165.719 193.228 184.563  1.00  0.00    -0.000 C 
BRANCH  26  27
ATOM     27  C   UNL     1     165.583 191.709 184.744  1.00  0.00    -0.000 C 
BRANCH  27  28
ATOM     28  C   UNL     1     164.656 191.371 185.916  1.00  0.00    -0.000 C 
BRANCH  28  29
ATOM     29  C   UNL     1     163.350 192.175 185.831  1.00  0.00    -0.000 C 
BRANCH  29  30
ATOM     30  C   UNL     1     162.692 192.367 187.213  1.00  0.00    -0.000 C 
BRANCH  30  31
ATOM     31  C   UNL     1     162.602 191.070 188.036  1.00  0.00    -0.003 C 
ATOM     32  C   UNL     1     162.806 191.300 189.533  1.00  0.00     0.004 C 
ENDBRANCH  30  31
ENDBRANCH  29  30
ENDBRANCH  28  29
ENDBRANCH  27  28
ENDBRANCH  26  27
ENDBRANCH  25  26
ENDBRANCH  24  25
ENDBRANCH  23  24
ENDBRANCH  22  23
ENDBRANCH  21  22
ENDBRANCH  20  21
ENDBRANCH  19  20
ENDBRANCH  18  19
ENDBRANCH   1  18
TORSDOF 28
ENDMDL
MODEL 8
REMARK VINA RESULT:     0.086     10.513     13.742
REMARK INTER + INTRA:          -7.537
REMARK INTER:                   0.000
REMARK INTRA:                  -7.537
REMARK UNBOUND:                -7.763
REMARK SMILES CCCCCCCCCCCCCCCCCCCCCCCCCCCCCC(=O)[O-]
REMARK SMILES IDX 16 1 17 2 18 3 19 4 20 5 21 6 22 7 23 8 24 9 25 10 26 11
REMARK SMILES IDX 27 12 28 13 29 14 30 15 31 16 32 17 15 18 14 19 13 20 12 21
REMARK SMILES IDX 11 22 10 23 9 24 8 25 7 26 6 27 5 28 4 29 3 30 2 31 1 32
REMARK H PARENT
REMARK Flexibility Score: inf
ROOT
ATOM      1  C   UNL     1     172.252 189.520 179.134  1.00  0.00     0.000 C 
ENDROOT
BRANCH   1   2
ATOM      2  C   UNL     1     173.384 189.086 180.083  1.00  0.00     0.000 C 
BRANCH   2   3
ATOM      3  C   UNL     1     174.279 190.247 180.564  1.00  0.00     0.000 C 
BRANCH   3   4
ATOM      4  C   UNL     1     173.918 191.587 179.896  1.00  0.00     0.000 C 
BRANCH   4   5
ATOM      5  C   UNL     1     173.491 192.662 180.907  1.00  0.00     0.000 C 
BRANCH   5   6
ATOM      6  C   UNL     1     171.984 192.623 181.216  1.00  0.00     0.000 C 
BRANCH   6   7
ATOM      7  C   UNL     1     171.130 193.015 179.999  1.00  0.00     0.000 C 
BRANCH   7   8
ATOM      8  C   UNL     1     169.636 193.117 180.342  1.00  0.00     0.000 C 
BRANCH   8   9
ATOM      9  C   UNL     1     169.365 192.607 181.765  1.00  0.00     0.000 C 
BRANCH   9  10
ATOM     10  C   UNL     1     168.132 193.263 182.415  1.00  0.00     0.000 C 
BRANCH  10  11
ATOM     11  C   UNL     1     167.848 192.835 183.866  1.00  0.00     0.000 C 
BRANCH  11  12
ATOM     12  C   UNL     1     168.075 191.332 184.102  1.00  0.00     0.000 C 
BRANCH  12  13
ATOM     13  C   UNL     1     166.833 190.483 183.773  1.00  0.00     0.006 C 
BRANCH  13  14
ATOM     14  C   UNL     1     166.966 189.625 182.504  1.00  0.00     0.053 C 
BRANCH  14  15
ATOM     15  C   UNL     1     166.376 190.298 181.303  1.00  0.00     0.041 C 
ATOM     16  O   UNL     1     165.231 190.819 181.367  1.00  0.00    -0.550 OA
ATOM     17  O   UNL     1     167.110 190.393 180.128  1.00  0.00    -0.550 OA
ENDBRANCH  14  15
ENDBRANCH  13  14
ENDBRANCH  12  13
ENDBRANCH  11  12
ENDBRANCH  10  11
ENDBRANCH   9  10
ENDBRANCH   8   9
ENDBRANCH   7   8
ENDBRANCH   6   7
ENDBRANCH   5   6
ENDBRANCH   4   5
ENDBRANCH   3   4
ENDBRANCH   2   3
ENDBRANCH   1   2
BRANCH   1  18
ATOM     18  C   UNL     1     170.894 188.902 179.495  1.00  0.00     0.000 C 
BRANCH  18  19
ATOM     19  C   UNL     1     170.390 189.314 180.889  1.00  0.00     0.000 C 
BRANCH  19  20
ATOM     20  C   UNL     1     170.265 188.145 181.887  1.00  0.00     0.000 C 
BRANCH  20  21
ATOM     21  C   UNL     1     170.488 188.582 183.344  1.00  0.00     0.000 C 
BRANCH  21  22
ATOM     22  C   UNL     1     171.453 189.774 183.420  1.00  0.00     0.000 C 
BRANCH  22  23
ATOM     23  C   UNL     1     172.884 189.341 183.778  1.00  0.00     0.000 C 
BRANCH  23  24
ATOM     24  C   UNL     1     173.515 190.247 184.851  1.00  0.00    -0.000 C 
BRANCH  24  25
ATOM     25  C   UNL     1     174.342 191.397 184.238  1.00  0.00    -0.000 C 
BRANCH  25  26
ATOM     26  C   UNL     1     173.831 192.801 184.608  1.00  0.00    -0.000 C 
BRANCH  26  27
ATOM     27  C   UNL     1     172.555 192.768 185.462  1.00  0.00    -0.000 C 
BRANCH  27  28
ATOM     28  C   UNL     1     171.391 193.463 184.747  1.00  0.00    -0.000 C 
BRANCH  28  29
ATOM     29  C   UNL     1     171.735 194.928 184.436  1.00  0.00    -0.000 C 
BRANCH  29  30
ATOM     30  C   UNL     1     170.704 195.581 183.492  1.00  0.00    -0.000 C 
BRANCH  30  31
ATOM     31  C   UNL     1     171.322 196.135 182.197  1.00  0.00    -0.003 C 
ATOM     32  C   UNL     1     172.850 196.113 182.208  1.00  0.00     0.004 C 
ENDBRANCH  30  31
ENDBRANCH  29  30
ENDBRANCH  28  29
ENDBRANCH  27  28
ENDBRANCH  26  27
ENDBRANCH  25  26
ENDBRANCH  24  25
ENDBRANCH  23  24
ENDBRANCH  22  23
ENDBRANCH  21  22
ENDBRANCH  20  21
ENDBRANCH  19  20
ENDBRANCH  18  19
ENDBRANCH   1  18
TORSDOF 28
ENDMDL
MODEL 9
REMARK VINA RESULT:     0.097      5.224      9.105
REMARK INTER + INTRA:          -7.508
REMARK INTER:                   0.000
REMARK INTRA:                  -7.508
REMARK UNBOUND:                -7.763
REMARK SMILES CCCCCCCCCCCCCCCCCCCCCCCCCCCCCC(=O)[O-]
REMARK SMILES IDX 16 1 17 2 18 3 19 4 20 5 21 6 22 7 23 8 24 9 25 10 26 11
REMARK SMILES IDX 27 12 28 13 29 14 30 15 31 16 32 17 15 18 14 19 13 20 12 21
REMARK SMILES IDX 11 22 10 23 9 24 8 25 7 26 6 27 5 28 4 29 3 30 2 31 1 32
REMARK H PARENT
REMARK Flexibility Score: inf
ROOT
ATOM      1  C   UNL     1     170.516 194.567 188.042  1.00  0.00     0.000 C 
ENDROOT
BRANCH   1   2
ATOM      2  C   UNL     1     171.937 195.098 187.779  1.00  0.00     0.000 C 
BRANCH   2   3
ATOM      3  C   UNL     1     173.059 194.164 188.277  1.00  0.00     0.000 C 
BRANCH   3   4
ATOM      4  C   UNL     1     172.640 193.346 189.514  1.00  0.00     0.000 C 
BRANCH   4   5
ATOM      5  C   UNL     1     172.939 191.847 189.367  1.00  0.00     0.000 C 
BRANCH   5   6
ATOM      6  C   UNL     1     171.752 190.961 189.787  1.00  0.00     0.000 C 
BRANCH   6   7
ATOM      7  C   UNL     1     170.586 191.782 190.362  1.00  0.00     0.000 C 
BRANCH   7   8
ATOM      8  C   UNL     1     169.707 190.959 191.316  1.00  0.00     0.000 C 
BRANCH   8   9
ATOM      9  C   UNL     1     169.016 189.809 190.569  1.00  0.00     0.000 C 
BRANCH   9  10
ATOM     10  C   UNL     1     167.513 190.055 190.343  1.00  0.00     0.000 C 
BRANCH  10  11
ATOM     11  C   UNL     1     166.893 191.171 191.203  1.00  0.00     0.000 C 
BRANCH  11  12
ATOM     12  C   UNL     1     166.320 192.325 190.363  1.00  0.00     0.000 C 
BRANCH  12  13
ATOM     13  C   UNL     1     166.561 193.705 191.003  1.00  0.00     0.006 C 
BRANCH  13  14
ATOM     14  C   UNL     1     167.869 194.388 190.570  1.00  0.00     0.053 C 
BRANCH  14  15
ATOM     15  C   UNL     1     168.791 194.625 191.726  1.00  0.00     0.041 C 
ATOM     16  O   UNL     1     168.498 194.189 192.871  1.00  0.00    -0.550 OA
ATOM     17  O   UNL     1     169.997 195.286 191.531  1.00  0.00    -0.550 OA
ENDBRANCH  14  15
ENDBRANCH  13  14
ENDBRANCH  12  13
ENDBRANCH  11  12
ENDBRANCH  10  11
ENDBRANCH   9  10
ENDBRANCH   8   9
ENDBRANCH   7   8
ENDBRANCH   6   7
ENDBRANCH   5   6
ENDBRANCH   4   5
ENDBRANCH   3   4
ENDBRANCH   2   3
ENDBRANCH   1   2
BRANCH   1  18
ATOM     18  C   UNL     1     169.489 195.062 187.013  1.00  0.00     0.000 C 
BRANCH  18  19
ATOM     19  C   UNL     1     168.376 194.040 186.726  1.00  0.00     0.000 C 
BRANCH  19  20
ATOM     20  C   UNL     1     168.605 192.657 187.371  1.00  0.00     0.000 C 
BRANCH  20  21
ATOM     21  C   UNL     1     167.535 191.629 186.967  1.00  0.00     0.000 C 
BRANCH  21  22
ATOM     22  C   UNL     1     168.169 190.265 186.662  1.00  0.00     0.000 C 
BRANCH  22  23
ATOM     23  C   UNL     1     169.671 190.237 186.989  1.00  0.00     0.000 C 
BRANCH  23  24
ATOM     24  C   UNL     1     170.472 189.400 185.976  1.00  0.00    -0.000 C 
BRANCH  24  25
ATOM     25  C   UNL     1     171.568 190.223 185.267  1.00  0.00    -0.000 C 
BRANCH  25  26
ATOM     26  C   UNL     1     171.807 191.612 185.888  1.00  0.00    -0.000 C 
BRANCH  26  27
ATOM     27  C   UNL     1     171.546 192.761 184.903  1.00  0.00    -0.000 C 
BRANCH  27  28
ATOM     28  C   UNL     1     170.826 192.261 183.646  1.00  0.00    -0.000 C 
BRANCH  28  29
ATOM     29  C   UNL     1     169.524 193.042 183.413  1.00  0.00    -0.000 C 
BRANCH  29  30
ATOM     30  C   UNL     1     168.288 192.120 183.391  1.00  0.00    -0.000 C 
BRANCH  30  31
ATOM     31  C   UNL     1     168.611 190.667 183.002  1.00  0.00    -0.003 C 
ATOM     32  C   UNL     1     168.342 190.371 181.527  1.00  0.00     0.004 C 
ENDBRANCH  30  31
ENDBRANCH  29  30
ENDBRANCH  28  29
ENDBRANCH  27  28
ENDBRANCH  26  27
ENDBRANCH  25  26
ENDBRANCH  24  25
ENDBRANCH  23  24
ENDBRANCH  22  23
ENDBRANCH  21  22
ENDBRANCH  20  21
ENDBRANCH  19  20
ENDBRANCH  18  19
ENDBRANCH   1  18
TORSDOF 28
ENDMDL
