MODEL 1
REMARK VINA RESULT:    -4.074      0.000      0.000
REMARK INTER + INTRA:          -6.512
REMARK INTER:                  -6.217
REMARK INTRA:                  -0.294
REMARK UNBOUND:                -0.294
REMARK SMILES CC1=CCC[C@H](C)C(=O)C[C@H](C(C)C)C(=O)C1
REMARK SMILES IDX 8 1 9 2 6 3 7 4 5 5 4 6 3 7 2 8 1 9 10 11 11 12 15 13 16 14
REMARK SMILES IDX 17 15 12 17 13 18 14 19
REMARK H PARENT
REMARK Flexibility Score: 70.00
ROOT
ATOM      1  C   UNL     1      49.723   2.549  17.441  1.00  0.00     0.136 C 
ATOM      2  O   UNL     1      49.951   3.166  16.409  1.00  0.00    -0.299 OA
ENDROOT
BRANCH   1   3
ATOM      3  C   UNL     1      48.537   1.579  17.493  1.00  0.00     0.053 C 
ATOM      4  C   UNL     1      48.604   0.700  18.755  1.00  0.00     0.016 C 
BRANCH   3   5
ATOM      5  C   UNL     1      47.157   2.297  17.440  1.00  0.00     0.015 C 
BRANCH   5   6
ATOM      6  C   UNL     1      46.593   2.792  18.788  1.00  0.00     0.028 C 
BRANCH   6   7
ATOM      7  C   UNL     1      46.718   4.290  18.956  1.00  0.00    -0.028 C 
ATOM      8  C   UNL     1      47.694   4.914  19.657  1.00  0.00    -0.070 CG0
ATOM      9  C   UNL     1      47.707   6.421  19.668  1.00  0.00     0.039 C 
ATOM     10  G   UNL     1      48.768   4.165  20.431  1.00  0.00     0.000 G0
ENDBRANCH   6   7
ENDBRANCH   5   6
ENDBRANCH   3   5
ENDBRANCH   1   3
BRANCH   1  11
ATOM     11  C   UNL     1      50.683   2.745  18.596  1.00  0.00     0.087 C 
BRANCH  11  12
ATOM     12  C   UNL     1      51.011   4.235  18.914  1.00  0.00     0.066 C 
BRANCH  12  13
ATOM     13  C   UNL     1      50.210   4.657  20.138  1.00  0.00     0.140 C 
ATOM     14  O   UNL     1      50.735   5.411  20.946  1.00  0.00    -0.299 OA
BRANCH  13  15
ATOM     15  C   UNL     1      48.799   4.184  20.432  1.00  0.00     0.106 CG0
ATOM     16  G   UNL     1      47.696   4.894  19.662  1.00  0.00     0.000 G0
ENDBRANCH  13  15
ENDBRANCH  12  13
BRANCH  12  17
ATOM     17  C   UNL     1      52.537   4.480  19.124  1.00  0.00    -0.006 C 
ATOM     18  C   UNL     1      53.371   3.267  18.676  1.00  0.00     0.008 C 
ATOM     19  C   UNL     1      53.014   5.725  18.352  1.00  0.00     0.008 C 
ENDBRANCH  12  17
ENDBRANCH  11  12
ENDBRANCH   1  11
TORSDOF 1
ENDMDL
MODEL 2
REMARK VINA RESULT:    -3.989      2.193      5.047
REMARK INTER + INTRA:          -6.382
REMARK INTER:                  -6.456
REMARK INTRA:                   0.074
REMARK UNBOUND:                -0.294
REMARK SMILES CC1=CCC[C@H](C)C(=O)C[C@H](C(C)C)C(=O)C1
REMARK SMILES IDX 8 1 9 2 6 3 7 4 5 5 4 6 3 7 2 8 1 9 10 11 11 12 15 13 16 14
REMARK SMILES IDX 17 15 12 17 13 18 14 19
REMARK H PARENT
REMARK Flexibility Score: 70.00
ROOT
ATOM      1  C   UNL     1      48.652   5.602  19.832  1.00  0.00     0.136 C 
ATOM      2  O   UNL     1      47.551   5.830  19.350  1.00  0.00    -0.299 OA
ENDROOT
BRANCH   1   3
ATOM      3  C   UNL     1      49.594   6.770  20.145  1.00  0.00     0.053 C 
ATOM      4  C   UNL     1      50.641   6.363  21.197  1.00  0.00     0.016 C 
BRANCH   3   5
ATOM      5  C   UNL     1      50.321   7.325  18.885  1.00  0.00     0.015 C 
BRANCH   5   6
ATOM      6  C   UNL     1      51.799   6.915  18.714  1.00  0.00     0.028 C 
BRANCH   6   7
ATOM      7  C   UNL     1      52.019   6.019  17.517  1.00  0.00    -0.028 C 
ATOM      8  C   UNL     1      51.990   4.665  17.544  1.00  0.00    -0.070 CG0
ATOM      9  C   UNL     1      52.165   3.925  16.243  1.00  0.00     0.039 C 
ATOM     10  G   UNL     1      51.795   3.865  18.824  1.00  0.00     0.000 G0
ENDBRANCH   6   7
ENDBRANCH   5   6
ENDBRANCH   3   5
ENDBRANCH   1   3
BRANCH   1  11
ATOM     11  C   UNL     1      48.990   4.160  20.146  1.00  0.00     0.087 C 
BRANCH  11  12
ATOM     12  C   UNL     1      49.186   3.256  18.892  1.00  0.00     0.066 C 
BRANCH  12  13
ATOM     13  C   UNL     1      50.655   2.861  18.805  1.00  0.00     0.140 C 
ATOM     14  O   UNL     1      50.934   1.672  18.733  1.00  0.00    -0.299 OA
BRANCH  13  15
ATOM     15  C   UNL     1      51.802   3.854  18.821  1.00  0.00     0.106 CG0
ATOM     16  G   UNL     1      51.987   4.662  17.546  1.00  0.00     0.000 G0
ENDBRANCH  13  15
ENDBRANCH  12  13
BRANCH  12  17
ATOM     17  C   UNL     1      48.262   2.000  18.907  1.00  0.00    -0.006 C 
ATOM     18  C   UNL     1      46.802   2.377  19.211  1.00  0.00     0.008 C 
ATOM     19  C   UNL     1      48.313   1.252  17.562  1.00  0.00     0.008 C 
ENDBRANCH  12  17
ENDBRANCH  11  12
ENDBRANCH   1  11
TORSDOF 1
ENDMDL
MODEL 3
REMARK VINA RESULT:    -3.894      2.295      3.825
REMARK INTER + INTRA:          -6.237
REMARK INTER:                  -6.097
REMARK INTRA:                  -0.140
REMARK UNBOUND:                -0.294
REMARK SMILES CC1=CCC[C@H](C)C(=O)C[C@H](C(C)C)C(=O)C1
REMARK SMILES IDX 8 1 9 2 6 3 7 4 5 5 4 6 3 7 2 8 1 9 10 11 11 12 15 13 16 14
REMARK SMILES IDX 17 15 12 17 13 18 14 19
REMARK H PARENT
REMARK Flexibility Score: 70.00
ROOT
ATOM      1  C   UNL     1      49.125   2.128  18.429  1.00  0.00     0.136 C 
ATOM      2  O   UNL     1      48.968   0.931  18.626  1.00  0.00    -0.299 OA
ENDROOT
BRANCH   1   3
ATOM      3  C   UNL     1      48.075   3.120  18.940  1.00  0.00     0.053 C 
ATOM      4  C   UNL     1      46.808   2.383  19.410  1.00  0.00     0.016 C 
BRANCH   3   5
ATOM      5  C   UNL     1      48.599   4.025  20.093  1.00  0.00     0.015 C 
BRANCH   5   6
ATOM      6  C   UNL     1      48.975   5.471  19.707  1.00  0.00     0.028 C 
BRANCH   6   7
ATOM      7  C   UNL     1      50.400   5.819  20.074  1.00  0.00    -0.028 C 
ATOM      8  C   UNL     1      51.373   6.139  19.188  1.00  0.00    -0.070 CG0
ATOM      9  C   UNL     1      52.726   6.524  19.730  1.00  0.00     0.039 C 
ATOM     10  G   UNL     1      51.162   6.123  17.682  1.00  0.00     0.000 G0
ENDBRANCH   6   7
ENDBRANCH   5   6
ENDBRANCH   3   5
ENDBRANCH   1   3
BRANCH   1  11
ATOM     11  C   UNL     1      50.399   2.557  17.732  1.00  0.00     0.087 C 
BRANCH  11  12
ATOM     12  C   UNL     1      50.226   3.762  16.759  1.00  0.00     0.066 C 
BRANCH  12  13
ATOM     13  C   UNL     1      51.361   4.748  17.001  1.00  0.00     0.140 C 
ATOM     14  O   UNL     1      52.493   4.427  16.665  1.00  0.00    -0.299 OA
BRANCH  13  15
ATOM     15  C   UNL     1      51.179   6.105  17.655  1.00  0.00     0.106 CG0
ATOM     16  G   UNL     1      51.369   6.135  19.164  1.00  0.00     0.000 G0
ENDBRANCH  13  15
ENDBRANCH  12  13
BRANCH  12  17
ATOM     17  C   UNL     1      50.169   3.321  15.264  1.00  0.00    -0.006 C 
ATOM     18  C   UNL     1      48.822   2.660  14.921  1.00  0.00     0.008 C 
ATOM     19  C   UNL     1      50.390   4.518  14.319  1.00  0.00     0.008 C 
ENDBRANCH  12  17
ENDBRANCH  11  12
ENDBRANCH   1  11
TORSDOF 1
ENDMDL
MODEL 4
REMARK VINA RESULT:    -3.797      1.928      2.146
REMARK INTER + INTRA:          -6.089
REMARK INTER:                  -5.756
REMARK INTRA:                  -0.333
REMARK UNBOUND:                -0.294
REMARK SMILES CC1=CCC[C@H](C)C(=O)C[C@H](C(C)C)C(=O)C1
REMARK SMILES IDX 8 1 9 2 6 3 7 4 5 5 4 6 3 7 2 8 1 9 10 11 11 12 15 13 16 14
REMARK SMILES IDX 17 15 12 17 13 18 14 19
REMARK H PARENT
REMARK Flexibility Score: 70.00
ROOT
ATOM      1  C   UNL     1      48.777   2.650  16.488  1.00  0.00     0.136 C 
ATOM      2  O   UNL     1      48.489   2.979  15.345  1.00  0.00    -0.299 OA
ENDROOT
BRANCH   1   3
ATOM      3  C   UNL     1      47.731   1.943  17.356  1.00  0.00     0.053 C 
ATOM      4  C   UNL     1      48.382   0.841  18.210  1.00  0.00     0.016 C 
BRANCH   3   5
ATOM      5  C   UNL     1      46.947   2.916  18.284  1.00  0.00     0.015 C 
BRANCH   5   6
ATOM      6  C   UNL     1      47.610   3.251  19.637  1.00  0.00     0.028 C 
BRANCH   6   7
ATOM      7  C   UNL     1      47.855   4.733  19.813  1.00  0.00    -0.028 C 
ATOM      8  C   UNL     1      49.066   5.334  19.736  1.00  0.00    -0.070 CG0
ATOM      9  C   UNL     1      49.123   6.834  19.872  1.00  0.00     0.039 C 
ATOM     10  G   UNL     1      50.361   4.565  19.525  1.00  0.00     0.000 G0
ENDBRANCH   6   7
ENDBRANCH   5   6
ENDBRANCH   3   5
ENDBRANCH   1   3
BRANCH   1  11
ATOM     11  C   UNL     1      50.194   2.917  16.952  1.00  0.00     0.087 C 
BRANCH  11  12
ATOM     12  C   UNL     1      50.630   4.410  16.864  1.00  0.00     0.066 C 
BRANCH  12  13
ATOM     13  C   UNL     1      51.109   4.857  18.240  1.00  0.00     0.140 C 
ATOM     14  O   UNL     1      52.160   5.477  18.317  1.00  0.00    -0.299 OA
BRANCH  13  15
ATOM     15  C   UNL     1      50.369   4.562  19.531  1.00  0.00     0.106 CG0
ATOM     16  G   UNL     1      49.073   5.334  19.734  1.00  0.00     0.000 G0
ENDBRANCH  13  15
ENDBRANCH  12  13
BRANCH  12  17
ATOM     17  C   UNL     1      51.723   4.652  15.778  1.00  0.00    -0.006 C 
ATOM     18  C   UNL     1      52.555   3.384  15.521  1.00  0.00     0.008 C 
ATOM     19  C   UNL     1      51.097   5.116  14.449  1.00  0.00     0.008 C 
ENDBRANCH  12  17
ENDBRANCH  11  12
ENDBRANCH   1  11
TORSDOF 1
ENDMDL
MODEL 5
REMARK VINA RESULT:    -3.766      2.822      4.007
REMARK INTER + INTRA:          -6.041
REMARK INTER:                  -5.737
REMARK INTRA:                  -0.304
REMARK UNBOUND:                -0.294
REMARK SMILES CC1=CCC[C@H](C)C(=O)C[C@H](C(C)C)C(=O)C1
REMARK SMILES IDX 8 1 9 2 6 3 7 4 5 5 4 6 3 7 2 8 1 9 10 11 11 12 15 13 16 14
REMARK SMILES IDX 17 15 12 17 13 18 14 19
REMARK H PARENT
REMARK Flexibility Score: 70.00
ROOT
ATOM      1  C   UNL     1      48.990   3.357  18.463  1.00  0.00     0.136 C 
ATOM      2  O   UNL     1      47.862   3.817  18.583  1.00  0.00    -0.299 OA
ENDROOT
BRANCH   1   3
ATOM      3  C   UNL     1      49.166   1.882  18.084  1.00  0.00     0.053 C 
ATOM      4  C   UNL     1      48.323   0.977  19.000  1.00  0.00     0.016 C 
BRANCH   3   5
ATOM      5  C   UNL     1      48.810   1.585  16.599  1.00  0.00     0.015 C 
BRANCH   5   6
ATOM      6  C   UNL     1      48.627   2.813  15.682  1.00  0.00     0.028 C 
BRANCH   6   7
ATOM      7  C   UNL     1      49.703   2.915  14.625  1.00  0.00    -0.028 C 
ATOM      8  C   UNL     1      50.737   3.790  14.652  1.00  0.00    -0.070 CG0
ATOM      9  C   UNL     1      51.760   3.712  13.548  1.00  0.00     0.039 C 
ATOM     10  G   UNL     1      50.905   4.842  15.738  1.00  0.00     0.000 G0
ENDBRANCH   6   7
ENDBRANCH   5   6
ENDBRANCH   3   5
ENDBRANCH   1   3
BRANCH   1  11
ATOM     11  C   UNL     1      50.153   4.311  18.641  1.00  0.00     0.087 C 
BRANCH  11  12
ATOM     12  C   UNL     1      51.517   3.766  18.122  1.00  0.00     0.066 C 
BRANCH  12  13
ATOM     13  C   UNL     1      51.893   4.526  16.857  1.00  0.00     0.140 C 
ATOM     14  O   UNL     1      53.048   4.909  16.729  1.00  0.00    -0.299 OA
BRANCH  13  15
ATOM     15  C   UNL     1      50.914   4.858  15.746  1.00  0.00     0.106 CG0
ATOM     16  G   UNL     1      50.766   3.798  14.665  1.00  0.00     0.000 G0
ENDBRANCH  13  15
ENDBRANCH  12  13
BRANCH  12  17
ATOM     17  C   UNL     1      52.646   3.858  19.194  1.00  0.00    -0.006 C 
ATOM     18  C   UNL     1      52.082   4.221  20.579  1.00  0.00     0.008 C 
ATOM     19  C   UNL     1      53.422   2.532  19.304  1.00  0.00     0.008 C 
ENDBRANCH  12  17
ENDBRANCH  11  12
ENDBRANCH   1  11
TORSDOF 1
ENDMDL
MODEL 6
REMARK VINA RESULT:    -3.719      2.123      3.681
REMARK INTER + INTRA:          -5.970
REMARK INTER:                  -5.941
REMARK INTRA:                  -0.029
REMARK UNBOUND:                -0.294
REMARK SMILES CC1=CCC[C@H](C)C(=O)C[C@H](C(C)C)C(=O)C1
REMARK SMILES IDX 8 1 9 2 6 3 7 4 5 5 4 6 3 7 2 8 1 9 10 11 11 12 15 13 16 14
REMARK SMILES IDX 17 15 12 17 13 18 14 19
REMARK H PARENT
REMARK Flexibility Score: 70.00
ROOT
ATOM      1  C   UNL     1      48.105   4.185  19.724  1.00  0.00     0.136 C 
ATOM      2  O   UNL     1      47.478   4.976  19.033  1.00  0.00    -0.299 OA
ENDROOT
BRANCH   1   3
ATOM      3  C   UNL     1      48.038   2.687  19.405  1.00  0.00     0.053 C 
ATOM      4  C   UNL     1      46.806   2.366  18.539  1.00  0.00     0.016 C 
BRANCH   3   5
ATOM      5  C   UNL     1      49.317   2.156  18.695  1.00  0.00     0.015 C 
BRANCH   5   6
ATOM      6  C   UNL     1      49.714   2.864  17.383  1.00  0.00     0.028 C 
BRANCH   6   7
ATOM      7  C   UNL     1      51.183   3.217  17.334  1.00  0.00    -0.028 C 
ATOM      8  C   UNL     1      51.697   4.441  17.601  1.00  0.00    -0.070 CG0
ATOM      9  C   UNL     1      53.195   4.604  17.570  1.00  0.00     0.039 C 
ATOM     10  G   UNL     1      50.833   5.650  17.925  1.00  0.00     0.000 G0
ENDBRANCH   6   7
ENDBRANCH   5   6
ENDBRANCH   3   5
ENDBRANCH   1   3
BRANCH   1  11
ATOM     11  C   UNL     1      48.968   4.758  20.829  1.00  0.00     0.087 C 
BRANCH  11  12
ATOM     12  C   UNL     1      50.478   4.884  20.466  1.00  0.00     0.066 C 
BRANCH  12  13
ATOM     13  C   UNL     1      50.633   5.969  19.407  1.00  0.00     0.140 C 
ATOM     14  O   UNL     1      50.575   7.138  19.759  1.00  0.00    -0.299 OA
BRANCH  13  15
ATOM     15  C   UNL     1      50.837   5.687  17.930  1.00  0.00     0.106 CG0
ATOM     16  G   UNL     1      51.682   4.464  17.606  1.00  0.00     0.000 G0
ENDBRANCH  13  15
ENDBRANCH  12  13
BRANCH  12  17
ATOM     17  C   UNL     1      51.371   5.177  21.710  1.00  0.00    -0.006 C 
ATOM     18  C   UNL     1      50.592   4.983  23.023  1.00  0.00     0.008 C 
ATOM     19  C   UNL     1      52.616   4.269  21.731  1.00  0.00     0.008 C 
ENDBRANCH  12  17
ENDBRANCH  11  12
ENDBRANCH   1  11
TORSDOF 1
ENDMDL
MODEL 7
REMARK VINA RESULT:    -3.696      2.442      5.226
REMARK INTER + INTRA:          -5.934
REMARK INTER:                  -5.636
REMARK INTRA:                  -0.299
REMARK UNBOUND:                -0.294
REMARK SMILES CC1=CCC[C@H](C)C(=O)C[C@H](C(C)C)C(=O)C1
REMARK SMILES IDX 8 1 9 2 6 3 7 4 5 5 4 6 3 7 2 8 1 9 10 11 11 12 15 13 16 14
REMARK SMILES IDX 17 15 12 17 13 18 14 19
REMARK H PARENT
REMARK Flexibility Score: 70.00
ROOT
ATOM      1  C   UNL     1      49.630   4.417  19.785  1.00  0.00     0.136 C 
ATOM      2  O   UNL     1      48.522   4.478  20.301  1.00  0.00    -0.299 OA
ENDROOT
BRANCH   1   3
ATOM      3  C   UNL     1      50.703   5.437  20.179  1.00  0.00     0.053 C 
ATOM      4  C   UNL     1      51.992   4.728  20.633  1.00  0.00     0.016 C 
BRANCH   3   5
ATOM      5  C   UNL     1      51.043   6.439  19.038  1.00  0.00     0.015 C 
BRANCH   5   6
ATOM      6  C   UNL     1      52.177   6.022  18.078  1.00  0.00     0.028 C 
BRANCH   6   7
ATOM      7  C   UNL     1      51.810   6.220  16.625  1.00  0.00    -0.028 C 
ATOM      8  C   UNL     1      51.321   5.256  15.809  1.00  0.00    -0.070 CG0
ATOM      9  C   UNL     1      50.945   5.641  14.401  1.00  0.00     0.039 C 
ATOM     10  G   UNL     1      51.141   3.811  16.249  1.00  0.00     0.000 G0
ENDBRANCH   6   7
ENDBRANCH   5   6
ENDBRANCH   3   5
ENDBRANCH   1   3
BRANCH   1  11
ATOM     11  C   UNL     1      49.885   3.278  18.819  1.00  0.00     0.087 C 
BRANCH  11  12
ATOM     12  C   UNL     1      48.902   3.226  17.612  1.00  0.00     0.066 C 
BRANCH  12  13
ATOM     13  C   UNL     1      49.713   3.278  16.323  1.00  0.00     0.140 C 
ATOM     14  O   UNL     1      49.196   2.868  15.293  1.00  0.00    -0.299 OA
BRANCH  13  15
ATOM     15  C   UNL     1      51.139   3.789  16.240  1.00  0.00     0.106 CG0
ATOM     16  G   UNL     1      51.290   5.239  15.804  1.00  0.00     0.000 G0
ENDBRANCH  13  15
ENDBRANCH  12  13
BRANCH  12  17
ATOM     17  C   UNL     1      47.976   1.971  17.647  1.00  0.00    -0.006 C 
ATOM     18  C   UNL     1      48.301   1.062  18.845  1.00  0.00     0.008 C 
ATOM     19  C   UNL     1      46.491   2.375  17.717  1.00  0.00     0.008 C 
ENDBRANCH  12  17
ENDBRANCH  11  12
ENDBRANCH   1  11
TORSDOF 1
ENDMDL
MODEL 8
REMARK VINA RESULT:    -3.651      1.818      2.722
REMARK INTER + INTRA:          -5.866
REMARK INTER:                  -5.875
REMARK INTRA:                   0.009
REMARK UNBOUND:                -0.294
REMARK SMILES CC1=CCC[C@H](C)C(=O)C[C@H](C(C)C)C(=O)C1
REMARK SMILES IDX 8 1 9 2 6 3 7 4 5 5 4 6 3 7 2 8 1 9 10 11 11 12 15 13 16 14
REMARK SMILES IDX 17 15 12 17 13 18 14 19
REMARK H PARENT
REMARK Flexibility Score: 70.00
ROOT
ATOM      1  C   UNL     1      50.926   3.571  16.600  1.00  0.00     0.136 C 
ATOM      2  O   UNL     1      52.057   3.689  16.147  1.00  0.00    -0.299 OA
ENDROOT
BRANCH   1   3
ATOM      3  C   UNL     1      49.727   3.585  15.647  1.00  0.00     0.053 C 
ATOM      4  C   UNL     1      50.100   4.244  14.306  1.00  0.00     0.016 C 
BRANCH   3   5
ATOM      5  C   UNL     1      49.142   2.168  15.378  1.00  0.00     0.015 C 
BRANCH   5   6
ATOM      6  C   UNL     1      48.626   1.398  16.611  1.00  0.00     0.028 C 
BRANCH   6   7
ATOM      7  C   UNL     1      47.307   1.932  17.121  1.00  0.00    -0.028 C 
ATOM      8  C   UNL     1      47.131   2.567  18.305  1.00  0.00    -0.070 CG0
ATOM      9  C   UNL     1      45.757   3.096  18.629  1.00  0.00     0.039 C 
ATOM     10  G   UNL     1      48.251   2.763  19.315  1.00  0.00     0.000 G0
ENDBRANCH   6   7
ENDBRANCH   5   6
ENDBRANCH   3   5
ENDBRANCH   1   3
BRANCH   1  11
ATOM     11  C   UNL     1      50.794   3.355  18.094  1.00  0.00     0.087 C 
BRANCH  11  12
ATOM     12  C   UNL     1      50.202   4.569  18.870  1.00  0.00     0.066 C 
BRANCH  12  13
ATOM     13  C   UNL     1      48.832   4.178  19.409  1.00  0.00     0.140 C 
ATOM     14  O   UNL     1      48.159   5.036  19.964  1.00  0.00    -0.299 OA
BRANCH  13  15
ATOM     15  C   UNL     1      48.254   2.779  19.318  1.00  0.00     0.106 CG0
ATOM     16  G   UNL     1      47.132   2.598  18.306  1.00  0.00     0.000 G0
ENDBRANCH  13  15
ENDBRANCH  12  13
BRANCH  12  17
ATOM     17  C   UNL     1      51.140   5.065  20.013  1.00  0.00    -0.006 C 
ATOM     18  C   UNL     1      52.203   4.011  20.368  1.00  0.00     0.008 C 
ATOM     19  C   UNL     1      51.849   6.376  19.626  1.00  0.00     0.008 C 
ENDBRANCH  12  17
ENDBRANCH  11  12
ENDBRANCH   1  11
TORSDOF 1
ENDMDL
MODEL 9
REMARK VINA RESULT:    -3.442      2.277      2.767
REMARK INTER + INTRA:          -5.548
REMARK INTER:                  -5.450
REMARK INTRA:                  -0.098
REMARK UNBOUND:                -0.294
REMARK SMILES CC1=CCC[C@H](C)C(=O)C[C@H](C(C)C)C(=O)C1
REMARK SMILES IDX 8 1 9 2 6 3 7 4 5 5 4 6 3 7 2 8 1 9 10 11 11 12 15 13 16 14
REMARK SMILES IDX 17 15 12 17 13 18 14 19
REMARK H PARENT
REMARK Flexibility Score: 70.00
ROOT
ATOM      1  C   UNL     1      50.326   2.377  18.355  1.00  0.00     0.136 C 
ATOM      2  O   UNL     1      50.724   1.416  18.999  1.00  0.00    -0.299 OA
ENDROOT
BRANCH   1   3
ATOM      3  C   UNL     1      48.848   2.457  17.958  1.00  0.00     0.053 C 
ATOM      4  C   UNL     1      48.184   1.070  18.033  1.00  0.00     0.016 C 
BRANCH   3   5
ATOM      5  C   UNL     1      48.035   3.462  18.825  1.00  0.00     0.015 C 
BRANCH   5   6
ATOM      6  C   UNL     1      48.794   4.124  19.995  1.00  0.00     0.028 C 
BRANCH   6   7
ATOM      7  C   UNL     1      48.592   5.621  20.046  1.00  0.00    -0.028 C 
ATOM      8  C   UNL     1      49.453   6.538  19.544  1.00  0.00    -0.070 CG0
ATOM      9  C   UNL     1      49.065   7.992  19.622  1.00  0.00     0.039 C 
ATOM     10  G   UNL     1      50.788   6.166  18.915  1.00  0.00     0.000 G0
ENDBRANCH   6   7
ENDBRANCH   5   6
ENDBRANCH   3   5
ENDBRANCH   1   3
BRANCH   1  11
ATOM     11  C   UNL     1      51.327   3.469  18.042  1.00  0.00     0.087 C 
BRANCH  11  12
ATOM     12  C   UNL     1      50.905   4.415  16.879  1.00  0.00     0.066 C 
BRANCH  12  13
ATOM     13  C   UNL     1      50.760   5.827  17.431  1.00  0.00     0.140 C 
ATOM     14  O   UNL     1      50.615   6.749  16.640  1.00  0.00    -0.299 OA
BRANCH  13  15
ATOM     15  C   UNL     1      50.804   6.168  18.908  1.00  0.00     0.106 CG0
ATOM     16  G   UNL     1      49.467   6.531  19.537  1.00  0.00     0.000 G0
ENDBRANCH  13  15
ENDBRANCH  12  13
BRANCH  12  17
ATOM     17  C   UNL     1      51.903   4.375  15.681  1.00  0.00    -0.006 C 
ATOM     18  C   UNL     1      53.092   3.442  15.968  1.00  0.00     0.008 C 
ATOM     19  C   UNL     1      51.207   3.911  14.388  1.00  0.00     0.008 C 
ENDBRANCH  12  17
ENDBRANCH  11  12
ENDBRANCH   1  11
TORSDOF 1
ENDMDL
