MODEL 1
REMARK VINA RESULT:    -5.825      0.000      0.000
REMARK INTER + INTRA:         -10.075
REMARK INTER:                  -8.549
REMARK INTRA:                  -1.526
REMARK UNBOUND:                -1.526
REMARK SMILES O=c1c(O[C@H]2O[C@H](CO)[C@H](O)[C@@H](O)[C@@H]2O)c(-c2ccc(O)c(O)c2)oc2cc(O)cc(O)c12
REMARK SMILES IDX 4 1 3 2 16 3 25 4 2 5 26 6 1 7 33 8 27 9 31 10 28 11 30 12
REMARK SMILES IDX 17 13 18 14 19 15 20 16 24 17 22 18 21 19 23 21 32 23 29 25
REMARK SMILES IDX 5 27 14 28 6 29 12 30 7 31 10 32 15 33 13 35 8 37 9 38 11 40
REMARK H PARENT 21 20 23 22 32 24 29 26 15 34 13 36 9 39 11 41
REMARK Flexibility Score: inf
ROOT
ATOM      1  O   UNL     1      19.018  30.745  31.135  1.00  0.00    -0.454 OA
ENDROOT
BRANCH   1   2
ATOM      2  C   UNL     1      18.900  31.665  30.087  1.00  0.00     0.214 A 
ATOM      3  C   UNL     1      18.816  31.248  28.744  1.00  0.00     0.180 A 
ATOM      4  O   UNL     1      18.647  32.152  27.786  1.00  0.00    -0.452 OA
ATOM      5  C   UNL     1      18.865  33.032  30.377  1.00  0.00     0.239 A 
ATOM      6  C   UNL     1      18.571  33.457  28.017  1.00  0.00     0.146 A 
ATOM      7  O   UNL     1      19.036  33.392  31.571  1.00  0.00    -0.285 OA
ATOM      8  C   UNL     1      18.656  33.971  29.338  1.00  0.00     0.111 A 
ATOM      9  C   UNL     1      18.422  34.319  26.927  1.00  0.00     0.094 A 
ATOM     10  C   UNL     1      18.544  35.382  29.527  1.00  0.00     0.134 A 
ATOM     11  C   UNL     1      18.367  35.696  27.119  1.00  0.00     0.123 A 
ATOM     12  C   UNL     1      18.433  36.221  28.412  1.00  0.00     0.093 A 
BRANCH   3  13
ATOM     13  C   UNL     1      18.929  29.827  28.350  1.00  0.00     0.025 A 
ATOM     14  C   UNL     1      20.140  29.146  28.548  1.00  0.00     0.016 A 
ATOM     15  C   UNL     1      20.264  27.803  28.181  1.00  0.00     0.051 A 
ATOM     16  C   UNL     1      19.175  27.119  27.625  1.00  0.00     0.157 A 
ATOM     17  C   UNL     1      17.830  29.129  27.817  1.00  0.00     0.062 A 
ATOM     18  C   UNL     1      17.952  27.786  27.445  1.00  0.00     0.158 A 
BRANCH  16  19
ATOM     19  O   UNL     1      19.303  25.781  27.253  1.00  0.00    -0.504 OA
ATOM     20  H   UNL     1      18.811  25.404  26.452  1.00  0.00     0.293 HD
ENDBRANCH  16  19
BRANCH  18  21
ATOM     21  O   UNL     1      16.846  27.132  26.902  1.00  0.00    -0.504 OA
ATOM     22  H   UNL     1      16.699  27.064  25.903  1.00  0.00     0.293 HD
ENDBRANCH  18  21
ENDBRANCH   3  13
BRANCH  10  23
ATOM     23  O   UNL     1      18.513  36.005  30.778  1.00  0.00    -0.507 OA
ATOM     24  H   UNL     1      18.843  36.939  30.968  1.00  0.00     0.293 HD
ENDBRANCH  10  23
BRANCH  11  25
ATOM     25  O   UNL     1      18.239  36.538  26.016  1.00  0.00    -0.508 OA
ATOM     26  H   UNL     1      17.591  36.334  25.265  1.00  0.00     0.293 HD
ENDBRANCH  11  25
ENDBRANCH   1   2
BRANCH   1  27
ATOM     27  C   UNL     1      17.885  30.108  31.738  1.00  0.00     0.339 C 
ATOM     28  C   UNL     1      17.442  30.869  33.003  1.00  0.00     0.214 C 
ATOM     29  O   UNL     1      18.160  28.743  32.014  1.00  0.00    -0.332 OA
ATOM     30  C   UNL     1      18.461  30.687  34.150  1.00  0.00     0.180 C 
ATOM     31  C   UNL     1      19.242  28.603  32.919  1.00  0.00     0.179 C 
ATOM     32  C   UNL     1      18.885  29.209  34.302  1.00  0.00     0.177 C 
BRANCH  28  33
ATOM     33  O   UNL     1      16.173  30.412  33.396  1.00  0.00    -0.384 OA
ATOM     34  H   UNL     1      16.203  30.291  34.381  1.00  0.00     0.211 HD
ENDBRANCH  28  33
BRANCH  30  35
ATOM     35  O   UNL     1      19.590  31.482  33.889  1.00  0.00    -0.387 OA
ATOM     36  H   UNL     1      19.794  31.387  32.922  1.00  0.00     0.211 HD
ENDBRANCH  30  35
BRANCH  31  37
ATOM     37  C   UNL     1      19.601  27.116  33.024  1.00  0.00     0.191 C 
BRANCH  37  38
ATOM     38  O   UNL     1      19.923  26.786  34.347  1.00  0.00    -0.394 OA
ATOM     39  H   UNL     1      20.313  25.875  34.317  1.00  0.00     0.210 HD
ENDBRANCH  37  38
ENDBRANCH  31  37
BRANCH  32  40
ATOM     40  O   UNL     1      17.892  28.469  34.971  1.00  0.00    -0.387 OA
ATOM     41  H   UNL     1      17.480  29.050  35.661  1.00  0.00     0.211 HD
ENDBRANCH  32  40
ENDBRANCH   1  27
TORSDOF 12
ENDMDL
MODEL 2
REMARK VINA RESULT:    -5.593      1.060      2.052
REMARK INTER + INTRA:          -9.735
REMARK INTER:                  -8.309
REMARK INTRA:                  -1.427
REMARK UNBOUND:                -1.526
REMARK SMILES O=c1c(O[C@H]2O[C@H](CO)[C@H](O)[C@@H](O)[C@@H]2O)c(-c2ccc(O)c(O)c2)oc2cc(O)cc(O)c12
REMARK SMILES IDX 4 1 3 2 16 3 25 4 2 5 26 6 1 7 33 8 27 9 31 10 28 11 30 12
REMARK SMILES IDX 17 13 18 14 19 15 20 16 24 17 22 18 21 19 23 21 32 23 29 25
REMARK SMILES IDX 5 27 14 28 6 29 12 30 7 31 10 32 15 33 13 35 8 37 9 38 11 40
REMARK H PARENT 21 20 23 22 32 24 29 26 15 34 13 36 9 39 11 41
REMARK Flexibility Score: inf
ROOT
ATOM      1  O   UNL     1      18.330  31.198  30.719  1.00  0.00    -0.454 OA
ENDROOT
BRANCH   1   2
ATOM      2  C   UNL     1      18.544  32.061  29.639  1.00  0.00     0.214 A 
ATOM      3  C   UNL     1      18.817  31.573  28.346  1.00  0.00     0.180 A 
ATOM      4  O   UNL     1      18.956  32.427  27.339  1.00  0.00    -0.452 OA
ATOM      5  C   UNL     1      18.486  33.443  29.845  1.00  0.00     0.239 A 
ATOM      6  C   UNL     1      18.872  33.744  27.479  1.00  0.00     0.146 A 
ATOM      7  O   UNL     1      18.336  33.864  31.021  1.00  0.00    -0.285 OA
ATOM      8  C   UNL     1      18.610  34.328  28.747  1.00  0.00     0.111 A 
ATOM      9  C   UNL     1      19.065  34.548  26.353  1.00  0.00     0.094 A 
ATOM     10  C   UNL     1      18.508  35.749  28.832  1.00  0.00     0.134 A 
ATOM     11  C   UNL     1      19.016  35.935  26.458  1.00  0.00     0.123 A 
ATOM     12  C   UNL     1      18.744  36.528  27.693  1.00  0.00     0.093 A 
BRANCH   3  13
ATOM     13  C   UNL     1      18.976  30.130  28.065  1.00  0.00     0.025 A 
ATOM     14  C   UNL     1      20.234  29.527  28.218  1.00  0.00     0.016 A 
ATOM     15  C   UNL     1      20.402  28.165  27.956  1.00  0.00     0.051 A 
ATOM     16  C   UNL     1      19.311  27.384  27.551  1.00  0.00     0.157 A 
ATOM     17  C   UNL     1      17.878  29.337  27.684  1.00  0.00     0.062 A 
ATOM     18  C   UNL     1      18.043  27.973  27.418  1.00  0.00     0.158 A 
BRANCH  16  19
ATOM     19  O   UNL     1      19.483  26.026  27.283  1.00  0.00    -0.504 OA
ATOM     20  H   UNL     1      19.392  25.654  26.345  1.00  0.00     0.293 HD
ENDBRANCH  16  19
BRANCH  18  21
ATOM     21  O   UNL     1      16.936  27.222  27.026  1.00  0.00    -0.504 OA
ATOM     22  H   UNL     1      15.991  27.485  27.278  1.00  0.00     0.293 HD
ENDBRANCH  18  21
ENDBRANCH   3  13
BRANCH  10  23
ATOM     23  O   UNL     1      18.159  36.442  29.996  1.00  0.00    -0.507 OA
ATOM     24  H   UNL     1      18.806  36.930  30.596  1.00  0.00     0.293 HD
ENDBRANCH  10  23
BRANCH  11  25
ATOM     25  O   UNL     1      19.231  36.718  25.326  1.00  0.00    -0.508 OA
ATOM     26  H   UNL     1      18.873  37.663  25.259  1.00  0.00     0.293 HD
ENDBRANCH  11  25
ENDBRANCH   1   2
BRANCH   1  27
ATOM     27  C   UNL     1      19.271  31.048  31.790  1.00  0.00     0.339 C 
ATOM     28  C   UNL     1      19.971  29.677  31.710  1.00  0.00     0.214 C 
ATOM     29  O   UNL     1      18.643  31.246  33.046  1.00  0.00    -0.332 OA
ATOM     30  C   UNL     1      19.002  28.532  32.078  1.00  0.00     0.180 C 
ATOM     31  C   UNL     1      17.612  30.298  33.268  1.00  0.00     0.179 C 
ATOM     32  C   UNL     1      18.193  28.862  33.353  1.00  0.00     0.177 C 
BRANCH  28  33
ATOM     33  O   UNL     1      21.082  29.676  32.570  1.00  0.00    -0.384 OA
ATOM     34  H   UNL     1      20.902  30.354  33.273  1.00  0.00     0.211 HD
ENDBRANCH  28  33
BRANCH  30  35
ATOM     35  O   UNL     1      18.127  28.311  31.002  1.00  0.00    -0.387 OA
ATOM     36  H   UNL     1      18.587  28.632  30.182  1.00  0.00     0.211 HD
ENDBRANCH  30  35
BRANCH  31  37
ATOM     37  C   UNL     1      16.860  30.685  34.547  1.00  0.00     0.191 C 
BRANCH  37  38
ATOM     38  O   UNL     1      16.237  29.560  35.104  1.00  0.00    -0.394 OA
ATOM     39  H   UNL     1      16.711  28.772  34.734  1.00  0.00     0.210 HD
ENDBRANCH  37  38
ENDBRANCH  31  37
BRANCH  32  40
ATOM     40  O   UNL     1      18.975  28.668  34.507  1.00  0.00    -0.387 OA
ATOM     41  H   UNL     1      18.834  29.439  35.114  1.00  0.00     0.211 HD
ENDBRANCH  32  40
ENDBRANCH   1  27
TORSDOF 12
ENDMDL
MODEL 3
REMARK VINA RESULT:    -5.566      2.058      6.361
REMARK INTER + INTRA:          -9.695
REMARK INTER:                  -8.007
REMARK INTRA:                  -1.689
REMARK UNBOUND:                -1.526
REMARK SMILES O=c1c(O[C@H]2O[C@H](CO)[C@H](O)[C@@H](O)[C@@H]2O)c(-c2ccc(O)c(O)c2)oc2cc(O)cc(O)c12
REMARK SMILES IDX 4 1 3 2 16 3 25 4 2 5 26 6 1 7 33 8 27 9 31 10 28 11 30 12
REMARK SMILES IDX 17 13 18 14 19 15 20 16 24 17 22 18 21 19 23 21 32 23 29 25
REMARK SMILES IDX 5 27 14 28 6 29 12 30 7 31 10 32 15 33 13 35 8 37 9 38 11 40
REMARK H PARENT 21 20 23 22 32 24 29 26 15 34 13 36 9 39 11 41
REMARK Flexibility Score: inf
ROOT
ATOM      1  O   UNL     1      19.203  29.572  30.226  1.00  0.00    -0.454 OA
ENDROOT
BRANCH   1   2
ATOM      2  C   UNL     1      18.671  30.426  31.199  1.00  0.00     0.214 A 
ATOM      3  C   UNL     1      18.637  31.821  31.018  1.00  0.00     0.180 A 
ATOM      4  O   UNL     1      18.072  32.590  31.942  1.00  0.00    -0.452 OA
ATOM      5  C   UNL     1      18.160  29.881  32.381  1.00  0.00     0.239 A 
ATOM      6  C   UNL     1      17.540  32.115  33.062  1.00  0.00     0.146 A 
ATOM      7  O   UNL     1      18.283  28.643  32.569  1.00  0.00    -0.285 OA
ATOM      8  C   UNL     1      17.537  30.722  33.335  1.00  0.00     0.111 A 
ATOM      9  C   UNL     1      16.997  33.020  33.978  1.00  0.00     0.094 A 
ATOM     10  C   UNL     1      16.930  30.268  34.546  1.00  0.00     0.134 A 
ATOM     11  C   UNL     1      16.456  32.571  35.179  1.00  0.00     0.123 A 
ATOM     12  C   UNL     1      16.429  31.203  35.459  1.00  0.00     0.093 A 
BRANCH   3  13
ATOM     13  C   UNL     1      19.232  32.479  29.834  1.00  0.00     0.025 A 
ATOM     14  C   UNL     1      20.624  32.460  29.655  1.00  0.00     0.016 A 
ATOM     15  C   UNL     1      21.202  33.077  28.542  1.00  0.00     0.051 A 
ATOM     16  C   UNL     1      20.396  33.707  27.585  1.00  0.00     0.157 A 
ATOM     17  C   UNL     1      18.424  33.089  28.857  1.00  0.00     0.062 A 
ATOM     18  C   UNL     1      19.000  33.710  27.743  1.00  0.00     0.158 A 
BRANCH  16  19
ATOM     19  O   UNL     1      20.976  34.327  26.479  1.00  0.00    -0.504 OA
ATOM     20  H   UNL     1      21.839  33.987  26.072  1.00  0.00     0.293 HD
ENDBRANCH  16  19
BRANCH  18  21
ATOM     21  O   UNL     1      18.169  34.321  26.805  1.00  0.00    -0.504 OA
ATOM     22  H   UNL     1      17.177  34.445  26.965  1.00  0.00     0.293 HD
ENDBRANCH  18  21
ENDBRANCH   3  13
BRANCH  10  23
ATOM     23  O   UNL     1      16.774  28.921  34.888  1.00  0.00    -0.507 OA
ATOM     24  H   UNL     1      16.640  28.169  34.229  1.00  0.00     0.293 HD
ENDBRANCH  10  23
BRANCH  11  25
ATOM     25  O   UNL     1      15.939  33.493  36.086  1.00  0.00    -0.508 OA
ATOM     26  H   UNL     1      16.183  33.464  37.069  1.00  0.00     0.293 HD
ENDBRANCH  11  25
ENDBRANCH   1   2
BRANCH   1  27
ATOM     27  C   UNL     1      18.403  28.973  29.199  1.00  0.00     0.339 C 
ATOM     28  C   UNL     1      18.615  27.446  29.166  1.00  0.00     0.214 C 
ATOM     29  O   UNL     1      18.668  29.569  27.939  1.00  0.00    -0.332 OA
ATOM     30  C   UNL     1      20.015  27.088  28.621  1.00  0.00     0.180 C 
ATOM     31  C   UNL     1      20.023  29.398  27.557  1.00  0.00     0.179 C 
ATOM     32  C   UNL     1      20.351  27.896  27.348  1.00  0.00     0.177 C 
BRANCH  28  33
ATOM     33  O   UNL     1      17.614  26.859  28.374  1.00  0.00    -0.384 OA
ATOM     34  H   UNL     1      17.289  26.060  28.866  1.00  0.00     0.211 HD
ENDBRANCH  28  33
BRANCH  30  35
ATOM     35  O   UNL     1      20.972  27.346  29.616  1.00  0.00    -0.387 OA
ATOM     36  H   UNL     1      21.139  26.488  30.089  1.00  0.00     0.211 HD
ENDBRANCH  30  35
BRANCH  31  37
ATOM     37  C   UNL     1      20.280  30.221  26.289  1.00  0.00     0.191 C 
BRANCH  37  38
ATOM     38  O   UNL     1      21.321  29.651  25.543  1.00  0.00    -0.394 OA
ATOM     39  H   UNL     1      21.485  28.757  25.938  1.00  0.00     0.210 HD
ENDBRANCH  37  38
ENDBRANCH  31  37
BRANCH  32  40
ATOM     40  O   UNL     1      19.697  27.357  26.224  1.00  0.00    -0.387 OA
ATOM     41  H   UNL     1      20.038  26.437  26.075  1.00  0.00     0.211 HD
ENDBRANCH  32  40
ENDBRANCH   1  27
TORSDOF 12
ENDMDL
MODEL 4
REMARK VINA RESULT:    -5.441      2.428      6.020
REMARK INTER + INTRA:          -9.512
REMARK INTER:                  -7.998
REMARK INTRA:                  -1.514
REMARK UNBOUND:                -1.526
REMARK SMILES O=c1c(O[C@H]2O[C@H](CO)[C@H](O)[C@@H](O)[C@@H]2O)c(-c2ccc(O)c(O)c2)oc2cc(O)cc(O)c12
REMARK SMILES IDX 4 1 3 2 16 3 25 4 2 5 26 6 1 7 33 8 27 9 31 10 28 11 30 12
REMARK SMILES IDX 17 13 18 14 19 15 20 16 24 17 22 18 21 19 23 21 32 23 29 25
REMARK SMILES IDX 5 27 14 28 6 29 12 30 7 31 10 32 15 33 13 35 8 37 9 38 11 40
REMARK H PARENT 21 20 23 22 32 24 29 26 15 34 13 36 9 39 11 41
REMARK Flexibility Score: inf
ROOT
ATOM      1  O   UNL     1      18.512  32.023  30.684  1.00  0.00    -0.454 OA
ENDROOT
BRANCH   1   2
ATOM      2  C   UNL     1      17.961  31.843  31.958  1.00  0.00     0.214 A 
ATOM      3  C   UNL     1      17.936  30.580  32.580  1.00  0.00     0.180 A 
ATOM      4  O   UNL     1      17.456  30.465  33.812  1.00  0.00    -0.452 OA
ATOM      5  C   UNL     1      17.422  32.944  32.632  1.00  0.00     0.239 A 
ATOM      6  C   UNL     1      16.968  31.486  34.505  1.00  0.00     0.146 A 
ATOM      7  O   UNL     1      17.366  34.045  32.026  1.00  0.00    -0.285 OA
ATOM      8  C   UNL     1      16.944  32.796  33.956  1.00  0.00     0.111 A 
ATOM      9  C   UNL     1      16.462  31.243  35.785  1.00  0.00     0.094 A 
ATOM     10  C   UNL     1      16.428  33.859  34.758  1.00  0.00     0.134 A 
ATOM     11  C   UNL     1      15.914  32.278  36.537  1.00  0.00     0.123 A 
ATOM     12  C   UNL     1      15.894  33.576  36.021  1.00  0.00     0.093 A 
BRANCH   3  13
ATOM     13  C   UNL     1      18.410  29.355  31.899  1.00  0.00     0.025 A 
ATOM     14  C   UNL     1      19.299  28.493  32.560  1.00  0.00     0.016 A 
ATOM     15  C   UNL     1      19.757  27.332  31.931  1.00  0.00     0.051 A 
ATOM     16  C   UNL     1      19.321  27.010  30.638  1.00  0.00     0.157 A 
ATOM     17  C   UNL     1      17.954  29.015  30.612  1.00  0.00     0.062 A 
ATOM     18  C   UNL     1      18.413  27.855  29.978  1.00  0.00     0.158 A 
BRANCH  16  19
ATOM     19  O   UNL     1      19.785  25.855  30.010  1.00  0.00    -0.504 OA
ATOM     20  H   UNL     1      20.741  25.538  30.121  1.00  0.00     0.293 HD
ENDBRANCH  16  19
BRANCH  18  21
ATOM     21  O   UNL     1      17.954  27.558  28.695  1.00  0.00    -0.504 OA
ATOM     22  H   UNL     1      18.452  26.929  28.078  1.00  0.00     0.293 HD
ENDBRANCH  18  21
ENDBRANCH   3  13
BRANCH  10  23
ATOM     23  O   UNL     1      16.437  35.205  34.375  1.00  0.00    -0.507 OA
ATOM     24  H   UNL     1      16.259  35.983  34.991  1.00  0.00     0.293 HD
ENDBRANCH  10  23
BRANCH  11  25
ATOM     25  O   UNL     1      15.397  32.009  37.802  1.00  0.00    -0.508 OA
ATOM     26  H   UNL     1      14.511  32.395  38.106  1.00  0.00     0.293 HD
ENDBRANCH  11  25
ENDBRANCH   1   2
BRANCH   1  27
ATOM     27  C   UNL     1      19.915  32.217  30.465  1.00  0.00     0.339 C 
ATOM     28  C   UNL     1      20.242  33.716  30.325  1.00  0.00     0.214 C 
ATOM     29  O   UNL     1      20.359  31.473  29.341  1.00  0.00    -0.332 OA
ATOM     30  C   UNL     1      19.709  34.282  28.990  1.00  0.00     0.180 C 
ATOM     31  C   UNL     1      19.697  31.879  28.155  1.00  0.00     0.179 C 
ATOM     32  C   UNL     1      20.048  33.350  27.804  1.00  0.00     0.177 C 
BRANCH  28  33
ATOM     33  O   UNL     1      21.632  33.895  30.416  1.00  0.00    -0.384 OA
ATOM     34  H   UNL     1      21.795  34.504  31.183  1.00  0.00     0.211 HD
ENDBRANCH  28  33
BRANCH  30  35
ATOM     35  O   UNL     1      18.317  34.445  29.085  1.00  0.00    -0.387 OA
ATOM     36  H   UNL     1      17.909  33.881  28.376  1.00  0.00     0.211 HD
ENDBRANCH  30  35
BRANCH  31  37
ATOM     37  C   UNL     1      20.085  30.917  27.026  1.00  0.00     0.191 C 
BRANCH  37  38
ATOM     38  O   UNL     1      19.413  29.696  27.176  1.00  0.00    -0.394 OA
ATOM     39  H   UNL     1      18.568  29.782  26.666  1.00  0.00     0.210 HD
ENDBRANCH  37  38
ENDBRANCH  31  37
BRANCH  32  40
ATOM     40  O   UNL     1      21.393  33.502  27.416  1.00  0.00    -0.387 OA
ATOM     41  H   UNL     1      21.830  32.612  27.447  1.00  0.00     0.211 HD
ENDBRANCH  32  40
ENDBRANCH   1  27
TORSDOF 12
ENDMDL
MODEL 5
REMARK VINA RESULT:    -5.406      2.542      8.835
REMARK INTER + INTRA:          -9.460
REMARK INTER:                  -7.972
REMARK INTRA:                  -1.488
REMARK UNBOUND:                -1.526
REMARK SMILES O=c1c(O[C@H]2O[C@H](CO)[C@H](O)[C@@H](O)[C@@H]2O)c(-c2ccc(O)c(O)c2)oc2cc(O)cc(O)c12
REMARK SMILES IDX 4 1 3 2 16 3 25 4 2 5 26 6 1 7 33 8 27 9 31 10 28 11 30 12
REMARK SMILES IDX 17 13 18 14 19 15 20 16 24 17 22 18 21 19 23 21 32 23 29 25
REMARK SMILES IDX 5 27 14 28 6 29 12 30 7 31 10 32 15 33 13 35 8 37 9 38 11 40
REMARK H PARENT 21 20 23 22 32 24 29 26 15 34 13 36 9 39 11 41
REMARK Flexibility Score: inf
ROOT
ATOM      1  O   UNL     1      19.757  28.029  31.214  1.00  0.00    -0.454 OA
ENDROOT
BRANCH   1   2
ATOM      2  C   UNL     1      20.077  27.181  32.281  1.00  0.00     0.214 A 
ATOM      3  C   UNL     1      19.696  27.482  33.602  1.00  0.00     0.180 A 
ATOM      4  O   UNL     1      19.970  26.622  34.576  1.00  0.00    -0.452 OA
ATOM      5  C   UNL     1      20.792  26.006  32.030  1.00  0.00     0.239 A 
ATOM      6  C   UNL     1      20.613  25.478  34.381  1.00  0.00     0.146 A 
ATOM      7  O   UNL     1      21.206  25.798  30.861  1.00  0.00    -0.285 OA
ATOM      8  C   UNL     1      21.044  25.094  33.083  1.00  0.00     0.111 A 
ATOM      9  C   UNL     1      20.873  24.663  35.486  1.00  0.00     0.094 A 
ATOM     10  C   UNL     1      21.711  23.841  32.932  1.00  0.00     0.134 A 
ATOM     11  C   UNL     1      21.570  23.467  35.334  1.00  0.00     0.123 A 
ATOM     12  C   UNL     1      21.990  23.065  34.064  1.00  0.00     0.093 A 
BRANCH   3  13
ATOM     13  C   UNL     1      19.011  28.744  33.959  1.00  0.00     0.025 A 
ATOM     14  C   UNL     1      17.861  28.708  34.761  1.00  0.00     0.016 A 
ATOM     15  C   UNL     1      17.202  29.891  35.107  1.00  0.00     0.051 A 
ATOM     16  C   UNL     1      17.693  31.127  34.667  1.00  0.00     0.157 A 
ATOM     17  C   UNL     1      19.517  29.989  33.542  1.00  0.00     0.062 A 
ATOM     18  C   UNL     1      18.858  31.176  33.884  1.00  0.00     0.158 A 
BRANCH  16  19
ATOM     19  O   UNL     1      17.030  32.306  35.008  1.00  0.00    -0.504 OA
ATOM     20  H   UNL     1      17.499  33.054  35.505  1.00  0.00     0.293 HD
ENDBRANCH  16  19
BRANCH  18  21
ATOM     21  O   UNL     1      19.378  32.390  33.437  1.00  0.00    -0.504 OA
ATOM     22  H   UNL     1      20.325  32.679  33.647  1.00  0.00     0.293 HD
ENDBRANCH  18  21
ENDBRANCH   3  13
BRANCH  10  23
ATOM     23  O   UNL     1      22.099  23.303  31.700  1.00  0.00    -0.507 OA
ATOM     24  H   UNL     1      22.971  22.830  31.524  1.00  0.00     0.293 HD
ENDBRANCH  10  23
BRANCH  11  25
ATOM     25  O   UNL     1      21.837  22.680  36.452  1.00  0.00    -0.508 OA
ATOM     26  H   UNL     1      22.496  22.974  37.162  1.00  0.00     0.293 HD
ENDBRANCH  11  25
ENDBRANCH   1   2
BRANCH   1  27
ATOM     27  C   UNL     1      18.506  27.962  30.518  1.00  0.00     0.339 C 
ATOM     28  C   UNL     1      18.638  27.111  29.240  1.00  0.00     0.214 C 
ATOM     29  O   UNL     1      18.014  29.263  30.237  1.00  0.00    -0.332 OA
ATOM     30  C   UNL     1      19.472  27.843  28.165  1.00  0.00     0.180 C 
ATOM     31  C   UNL     1      18.907  29.989  29.408  1.00  0.00     0.179 C 
ATOM     32  C   UNL     1      19.035  29.318  28.015  1.00  0.00     0.177 C 
BRANCH  28  33
ATOM     33  O   UNL     1      17.356  26.814  28.749  1.00  0.00    -0.384 OA
ATOM     34  H   UNL     1      17.400  25.901  28.363  1.00  0.00     0.211 HD
ENDBRANCH  28  33
BRANCH  30  35
ATOM     35  O   UNL     1      20.830  27.782  28.522  1.00  0.00    -0.387 OA
ATOM     36  H   UNL     1      20.868  27.740  29.514  1.00  0.00     0.211 HD
ENDBRANCH  30  35
BRANCH  31  37
ATOM     37  C   UNL     1      18.408  31.435  29.301  1.00  0.00     0.191 C 
BRANCH  37  38
ATOM     38  O   UNL     1      18.409  32.044  30.562  1.00  0.00    -0.394 OA
ATOM     39  H   UNL     1      17.585  32.594  30.603  1.00  0.00     0.210 HD
ENDBRANCH  37  38
ENDBRANCH  31  37
BRANCH  32  40
ATOM     40  O   UNL     1      17.849  29.414  27.263  1.00  0.00    -0.387 OA
ATOM     41  H   UNL     1      17.452  30.309  27.419  1.00  0.00     0.211 HD
ENDBRANCH  32  40
ENDBRANCH   1  27
TORSDOF 12
ENDMDL
MODEL 6
REMARK VINA RESULT:    -5.338      2.205      6.153
REMARK INTER + INTRA:          -9.361
REMARK INTER:                  -8.115
REMARK INTRA:                  -1.246
REMARK UNBOUND:                -1.526
REMARK SMILES O=c1c(O[C@H]2O[C@H](CO)[C@H](O)[C@@H](O)[C@@H]2O)c(-c2ccc(O)c(O)c2)oc2cc(O)cc(O)c12
REMARK SMILES IDX 4 1 3 2 16 3 25 4 2 5 26 6 1 7 33 8 27 9 31 10 28 11 30 12
REMARK SMILES IDX 17 13 18 14 19 15 20 16 24 17 22 18 21 19 23 21 32 23 29 25
REMARK SMILES IDX 5 27 14 28 6 29 12 30 7 31 10 32 15 33 13 35 8 37 9 38 11 40
REMARK H PARENT 21 20 23 22 32 24 29 26 15 34 13 36 9 39 11 41
REMARK Flexibility Score: inf
ROOT
ATOM      1  O   UNL     1      19.297  31.719  30.668  1.00  0.00    -0.454 OA
ENDROOT
BRANCH   1   2
ATOM      2  C   UNL     1      18.534  31.530  31.826  1.00  0.00     0.214 A 
ATOM      3  C   UNL     1      18.257  30.243  32.326  1.00  0.00     0.180 A 
ATOM      4  O   UNL     1      17.577  30.112  33.459  1.00  0.00    -0.452 OA
ATOM      5  C   UNL     1      18.032  32.645  32.504  1.00  0.00     0.239 A 
ATOM      6  C   UNL     1      17.113  31.141  34.157  1.00  0.00     0.146 A 
ATOM      7  O   UNL     1      18.207  33.782  31.994  1.00  0.00    -0.285 OA
ATOM      8  C   UNL     1      17.335  32.476  33.725  1.00  0.00     0.111 A 
ATOM      9  C   UNL     1      16.385  30.883  35.321  1.00  0.00     0.094 A 
ATOM     10  C   UNL     1      16.832  33.543  34.529  1.00  0.00     0.134 A 
ATOM     11  C   UNL     1      15.854  31.930  36.069  1.00  0.00     0.123 A 
ATOM     12  C   UNL     1      16.074  33.250  35.669  1.00  0.00     0.093 A 
BRANCH   3  13
ATOM     13  C   UNL     1      18.682  29.014  31.621  1.00  0.00     0.025 A 
ATOM     14  C   UNL     1      19.766  28.271  32.112  1.00  0.00     0.016 A 
ATOM     15  C   UNL     1      20.180  27.108  31.457  1.00  0.00     0.051 A 
ATOM     16  C   UNL     1      19.506  26.664  30.312  1.00  0.00     0.157 A 
ATOM     17  C   UNL     1      17.991  28.550  30.486  1.00  0.00     0.062 A 
ATOM     18  C   UNL     1      18.405  27.388  29.827  1.00  0.00     0.158 A 
BRANCH  16  19
ATOM     19  O   UNL     1      19.925  25.506  29.657  1.00  0.00    -0.504 OA
ATOM     20  H   UNL     1      20.487  25.547  28.814  1.00  0.00     0.293 HD
ENDBRANCH  16  19
BRANCH  18  21
ATOM     21  O   UNL     1      17.707  26.968  28.695  1.00  0.00    -0.504 OA
ATOM     22  H   UNL     1      17.031  26.214  28.728  1.00  0.00     0.293 HD
ENDBRANCH  18  21
ENDBRANCH   3  13
BRANCH  10  23
ATOM     23  O   UNL     1      17.064  34.897  34.269  1.00  0.00    -0.507 OA
ATOM     24  H   UNL     1      17.424  35.561  34.937  1.00  0.00     0.293 HD
ENDBRANCH  10  23
BRANCH  11  25
ATOM     25  O   UNL     1      15.113  31.648  37.215  1.00  0.00    -0.508 OA
ATOM     26  H   UNL     1      14.970  30.698  37.533  1.00  0.00     0.293 HD
ENDBRANCH  11  25
ENDBRANCH   1   2
BRANCH   1  27
ATOM     27  C   UNL     1      18.764  31.543  29.350  1.00  0.00     0.339 C 
ATOM     28  C   UNL     1      19.800  30.867  28.430  1.00  0.00     0.214 C 
ATOM     29  O   UNL     1      18.313  32.778  28.817  1.00  0.00    -0.332 OA
ATOM     30  C   UNL     1      20.961  31.830  28.094  1.00  0.00     0.180 C 
ATOM     31  C   UNL     1      19.371  33.716  28.712  1.00  0.00     0.179 C 
ATOM     32  C   UNL     1      20.440  33.230  27.698  1.00  0.00     0.177 C 
BRANCH  28  33
ATOM     33  O   UNL     1      19.162  30.437  27.255  1.00  0.00    -0.384 OA
ATOM     34  H   UNL     1      18.724  29.571  27.465  1.00  0.00     0.211 HD
ENDBRANCH  28  33
BRANCH  30  35
ATOM     35  O   UNL     1      21.806  31.935  29.212  1.00  0.00    -0.387 OA
ATOM     36  H   UNL     1      21.795  31.052  29.668  1.00  0.00     0.211 HD
ENDBRANCH  30  35
BRANCH  31  37
ATOM     37  C   UNL     1      18.782  35.074  28.311  1.00  0.00     0.191 C 
BRANCH  37  38
ATOM     38  O   UNL     1      17.702  34.896  27.435  1.00  0.00    -0.394 OA
ATOM     39  H   UNL     1      16.990  34.451  27.962  1.00  0.00     0.210 HD
ENDBRANCH  37  38
ENDBRANCH  31  37
BRANCH  32  40
ATOM     40  O   UNL     1      19.961  33.230  26.374  1.00  0.00    -0.387 OA
ATOM     41  H   UNL     1      19.699  34.156  26.136  1.00  0.00     0.211 HD
ENDBRANCH  32  40
ENDBRANCH   1  27
TORSDOF 12
ENDMDL
MODEL 7
REMARK VINA RESULT:    -5.286      2.474      3.572
REMARK INTER + INTRA:          -9.285
REMARK INTER:                  -7.576
REMARK INTRA:                  -1.709
REMARK UNBOUND:                -1.526
REMARK SMILES O=c1c(O[C@H]2O[C@H](CO)[C@H](O)[C@@H](O)[C@@H]2O)c(-c2ccc(O)c(O)c2)oc2cc(O)cc(O)c12
REMARK SMILES IDX 4 1 3 2 16 3 25 4 2 5 26 6 1 7 33 8 27 9 31 10 28 11 30 12
REMARK SMILES IDX 17 13 18 14 19 15 20 16 24 17 22 18 21 19 23 21 32 23 29 25
REMARK SMILES IDX 5 27 14 28 6 29 12 30 7 31 10 32 15 33 13 35 8 37 9 38 11 40
REMARK H PARENT 21 20 23 22 32 24 29 26 15 34 13 36 9 39 11 41
REMARK Flexibility Score: inf
ROOT
ATOM      1  O   UNL     1      18.186  33.196  32.759  1.00  0.00    -0.454 OA
ENDROOT
BRANCH   1   2
ATOM      2  C   UNL     1      18.438  33.312  31.387  1.00  0.00     0.214 A 
ATOM      3  C   UNL     1      18.772  32.193  30.601  1.00  0.00     0.180 A 
ATOM      4  O   UNL     1      18.946  32.339  29.292  1.00  0.00    -0.452 OA
ATOM      5  C   UNL     1      18.356  34.570  30.780  1.00  0.00     0.239 A 
ATOM      6  C   UNL     1      18.842  33.505  28.666  1.00  0.00     0.146 A 
ATOM      7  O   UNL     1      18.150  35.572  31.512  1.00  0.00    -0.285 OA
ATOM      8  C   UNL     1      18.518  34.690  29.379  1.00  0.00     0.111 A 
ATOM      9  C   UNL     1      19.076  33.546  27.289  1.00  0.00     0.094 A 
ATOM     10  C   UNL     1      18.398  35.911  28.649  1.00  0.00     0.134 A 
ATOM     11  C   UNL     1      19.007  34.751  26.596  1.00  0.00     0.123 A 
ATOM     12  C   UNL     1      18.675  35.925  27.276  1.00  0.00     0.093 A 
BRANCH   3  13
ATOM     13  C   UNL     1      18.959  30.846  31.183  1.00  0.00     0.025 A 
ATOM     14  C   UNL     1      18.064  29.817  30.854  1.00  0.00     0.016 A 
ATOM     15  C   UNL     1      18.227  28.539  31.395  1.00  0.00     0.051 A 
ATOM     16  C   UNL     1      19.294  28.269  32.262  1.00  0.00     0.157 A 
ATOM     17  C   UNL     1      20.045  30.565  32.032  1.00  0.00     0.062 A 
ATOM     18  C   UNL     1      20.209  29.287  32.578  1.00  0.00     0.158 A 
BRANCH  16  19
ATOM     19  O   UNL     1      19.451  26.995  32.806  1.00  0.00    -0.504 OA
ATOM     20  H   UNL     1      19.636  26.188  32.222  1.00  0.00     0.293 HD
ENDBRANCH  16  19
BRANCH  18  21
ATOM     21  O   UNL     1      21.287  29.049  33.430  1.00  0.00    -0.504 OA
ATOM     22  H   UNL     1      21.180  28.556  34.308  1.00  0.00     0.293 HD
ENDBRANCH  18  21
ENDBRANCH   3  13
BRANCH  10  23
ATOM     23  O   UNL     1      17.990  37.125  29.212  1.00  0.00    -0.507 OA
ATOM     24  H   UNL     1      18.584  37.928  29.347  1.00  0.00     0.293 HD
ENDBRANCH  10  23
BRANCH  11  25
ATOM     25  O   UNL     1      19.264  34.771  25.227  1.00  0.00    -0.508 OA
ATOM     26  H   UNL     1      20.129  35.145  24.856  1.00  0.00     0.293 HD
ENDBRANCH  11  25
ENDBRANCH   1   2
BRANCH   1  27
ATOM     27  C   UNL     1      16.862  33.105  33.300  1.00  0.00     0.339 C 
ATOM     28  C   UNL     1      16.693  34.070  34.490  1.00  0.00     0.214 C 
ATOM     29  O   UNL     1      16.553  31.767  33.658  1.00  0.00    -0.332 OA
ATOM     30  C   UNL     1      17.490  33.584  35.721  1.00  0.00     0.180 C 
ATOM     31  C   UNL     1      17.438  31.277  34.651  1.00  0.00     0.179 C 
ATOM     32  C   UNL     1      17.279  32.074  35.973  1.00  0.00     0.177 C 
BRANCH  28  33
ATOM     33  O   UNL     1      15.328  34.183  34.802  1.00  0.00    -0.384 OA
ATOM     34  H   UNL     1      14.917  34.745  34.094  1.00  0.00     0.211 HD
ENDBRANCH  28  33
BRANCH  30  35
ATOM     35  O   UNL     1      18.855  33.846  35.513  1.00  0.00    -0.387 OA
ATOM     36  H   UNL     1      19.126  34.524  36.187  1.00  0.00     0.211 HD
ENDBRANCH  30  35
BRANCH  31  37
ATOM     37  C   UNL     1      17.167  29.781  34.852  1.00  0.00     0.191 C 
BRANCH  37  38
ATOM     38  O   UNL     1      15.788  29.539  34.899  1.00  0.00    -0.394 OA
ATOM     39  H   UNL     1      15.456  29.653  33.971  1.00  0.00     0.210 HD
ENDBRANCH  37  38
ENDBRANCH  31  37
BRANCH  32  40
ATOM     40  O   UNL     1      16.038  31.839  36.594  1.00  0.00    -0.387 OA
ATOM     41  H   UNL     1      15.320  32.162  35.992  1.00  0.00     0.211 HD
ENDBRANCH  32  40
ENDBRANCH   1  27
TORSDOF 12
ENDMDL
MODEL 8
REMARK VINA RESULT:    -5.242      2.841      7.163
REMARK INTER + INTRA:          -9.220
REMARK INTER:                  -7.540
REMARK INTRA:                  -1.680
REMARK UNBOUND:                -1.526
REMARK SMILES O=c1c(O[C@H]2O[C@H](CO)[C@H](O)[C@@H](O)[C@@H]2O)c(-c2ccc(O)c(O)c2)oc2cc(O)cc(O)c12
REMARK SMILES IDX 4 1 3 2 16 3 25 4 2 5 26 6 1 7 33 8 27 9 31 10 28 11 30 12
REMARK SMILES IDX 17 13 18 14 19 15 20 16 24 17 22 18 21 19 23 21 32 23 29 25
REMARK SMILES IDX 5 27 14 28 6 29 12 30 7 31 10 32 15 33 13 35 8 37 9 38 11 40
REMARK H PARENT 21 20 23 22 32 24 29 26 15 34 13 36 9 39 11 41
REMARK Flexibility Score: inf
ROOT
ATOM      1  O   UNL     1      18.086  33.367  32.474  1.00  0.00    -0.454 OA
ENDROOT
BRANCH   1   2
ATOM      2  C   UNL     1      18.182  32.044  32.029  1.00  0.00     0.214 A 
ATOM      3  C   UNL     1      18.098  30.957  32.921  1.00  0.00     0.180 A 
ATOM      4  O   UNL     1      18.136  29.717  32.448  1.00  0.00    -0.452 OA
ATOM      5  C   UNL     1      18.365  31.792  30.666  1.00  0.00     0.239 A 
ATOM      6  C   UNL     1      18.271  29.429  31.160  1.00  0.00     0.146 A 
ATOM      7  O   UNL     1      18.532  32.773  29.896  1.00  0.00    -0.285 OA
ATOM      8  C   UNL     1      18.372  30.460  30.188  1.00  0.00     0.111 A 
ATOM      9  C   UNL     1      18.328  28.085  30.779  1.00  0.00     0.094 A 
ATOM     10  C   UNL     1      18.493  30.089  28.815  1.00  0.00     0.134 A 
ATOM     11  C   UNL     1      18.498  27.736  29.443  1.00  0.00     0.123 A 
ATOM     12  C   UNL     1      18.585  28.735  28.470  1.00  0.00     0.093 A 
BRANCH   3  13
ATOM     13  C   UNL     1      17.988  31.143  34.384  1.00  0.00     0.025 A 
ATOM     14  C   UNL     1      19.153  31.251  35.160  1.00  0.00     0.016 A 
ATOM     15  C   UNL     1      19.066  31.427  36.544  1.00  0.00     0.051 A 
ATOM     16  C   UNL     1      17.815  31.511  37.169  1.00  0.00     0.157 A 
ATOM     17  C   UNL     1      16.734  31.255  35.012  1.00  0.00     0.062 A 
ATOM     18  C   UNL     1      16.644  31.428  36.397  1.00  0.00     0.158 A 
BRANCH  16  19
ATOM     19  O   UNL     1      17.731  31.680  38.550  1.00  0.00    -0.504 OA
ATOM     20  H   UNL     1      16.838  31.761  39.022  1.00  0.00     0.293 HD
ENDBRANCH  16  19
BRANCH  18  21
ATOM     21  O   UNL     1      15.383  31.517  36.987  1.00  0.00    -0.504 OA
ATOM     22  H   UNL     1      14.962  30.736  37.476  1.00  0.00     0.293 HD
ENDBRANCH  18  21
ENDBRANCH   3  13
BRANCH  10  23
ATOM     23  O   UNL     1      18.503  31.001  27.754  1.00  0.00    -0.507 OA
ATOM     24  H   UNL     1      18.572  32.002  27.853  1.00  0.00     0.293 HD
ENDBRANCH  10  23
BRANCH  11  25
ATOM     25  O   UNL     1      18.573  26.391  29.088  1.00  0.00    -0.508 OA
ATOM     26  H   UNL     1      18.069  26.024  28.290  1.00  0.00     0.293 HD
ENDBRANCH  11  25
ENDBRANCH   1   2
BRANCH   1  27
ATOM     27  C   UNL     1      16.847  34.085  32.514  1.00  0.00     0.339 C 
ATOM     28  C   UNL     1      16.995  35.464  31.842  1.00  0.00     0.214 C 
ATOM     29  O   UNL     1      16.368  34.196  33.845  1.00  0.00    -0.332 OA
ATOM     30  C   UNL     1      17.853  36.417  32.704  1.00  0.00     0.180 C 
ATOM     31  C   UNL     1      17.280  34.905  34.668  1.00  0.00     0.179 C 
ATOM     32  C   UNL     1      17.428  36.374  34.189  1.00  0.00     0.177 C 
BRANCH  28  33
ATOM     33  O   UNL     1      15.719  36.011  31.625  1.00  0.00    -0.384 OA
ATOM     34  H   UNL     1      15.426  35.709  30.726  1.00  0.00     0.211 HD
ENDBRANCH  28  33
BRANCH  30  35
ATOM     35  O   UNL     1      19.204  36.050  32.584  1.00  0.00    -0.387 OA
ATOM     36  H   UNL     1      19.572  36.547  31.806  1.00  0.00     0.211 HD
ENDBRANCH  30  35
BRANCH  31  37
ATOM     37  C   UNL     1      16.793  34.825  36.119  1.00  0.00     0.191 C 
BRANCH  37  38
ATOM     38  O   UNL     1      15.403  34.648  36.156  1.00  0.00    -0.394 OA
ATOM     39  H   UNL     1      15.024  35.318  35.532  1.00  0.00     0.210 HD
ENDBRANCH  37  38
ENDBRANCH  31  37
BRANCH  32  40
ATOM     40  O   UNL     1      16.256  37.125  34.397  1.00  0.00    -0.387 OA
ATOM     41  H   UNL     1      15.772  36.741  35.173  1.00  0.00     0.211 HD
ENDBRANCH  32  40
ENDBRANCH   1  27
TORSDOF 12
ENDMDL
MODEL 9
REMARK VINA RESULT:    -5.192      2.673      6.747
REMARK INTER + INTRA:          -9.147
REMARK INTER:                  -7.585
REMARK INTRA:                  -1.562
REMARK UNBOUND:                -1.526
REMARK SMILES O=c1c(O[C@H]2O[C@H](CO)[C@H](O)[C@@H](O)[C@@H]2O)c(-c2ccc(O)c(O)c2)oc2cc(O)cc(O)c12
REMARK SMILES IDX 4 1 3 2 16 3 25 4 2 5 26 6 1 7 33 8 27 9 31 10 28 11 30 12
REMARK SMILES IDX 17 13 18 14 19 15 20 16 24 17 22 18 21 19 23 21 32 23 29 25
REMARK SMILES IDX 5 27 14 28 6 29 12 30 7 31 10 32 15 33 13 35 8 37 9 38 11 40
REMARK H PARENT 21 20 23 22 32 24 29 26 15 34 13 36 9 39 11 41
REMARK Flexibility Score: inf
ROOT
ATOM      1  O   UNL     1      18.729  30.313  34.414  1.00  0.00    -0.454 OA
ENDROOT
BRANCH   1   2
ATOM      2  C   UNL     1      18.604  30.011  33.053  1.00  0.00     0.214 A 
ATOM      3  C   UNL     1      18.062  30.935  32.139  1.00  0.00     0.180 A 
ATOM      4  O   UNL     1      18.014  30.630  30.848  1.00  0.00    -0.452 OA
ATOM      5  C   UNL     1      19.026  28.762  32.588  1.00  0.00     0.239 A 
ATOM      6  C   UNL     1      18.437  29.472  30.354  1.00  0.00     0.146 A 
ATOM      7  O   UNL     1      19.419  27.914  33.430  1.00  0.00    -0.285 OA
ATOM      8  C   UNL     1      18.990  28.475  31.202  1.00  0.00     0.111 A 
ATOM      9  C   UNL     1      18.312  29.248  28.981  1.00  0.00     0.094 A 
ATOM     10  C   UNL     1      19.449  27.260  30.611  1.00  0.00     0.134 A 
ATOM     11  C   UNL     1      18.715  28.037  28.423  1.00  0.00     0.123 A 
ATOM     12  C   UNL     1      19.274  27.050  29.237  1.00  0.00     0.093 A 
BRANCH   3  13
ATOM     13  C   UNL     1      17.517  32.243  32.567  1.00  0.00     0.025 A 
ATOM     14  C   UNL     1      16.452  32.287  33.479  1.00  0.00     0.016 A 
ATOM     15  C   UNL     1      15.926  33.513  33.893  1.00  0.00     0.051 A 
ATOM     16  C   UNL     1      16.468  34.713  33.411  1.00  0.00     0.157 A 
ATOM     17  C   UNL     1      18.076  33.449  32.107  1.00  0.00     0.062 A 
ATOM     18  C   UNL     1      17.550  34.679  32.517  1.00  0.00     0.158 A 
BRANCH  16  19
ATOM     19  O   UNL     1      15.936  35.935  33.821  1.00  0.00    -0.504 OA
ATOM     20  H   UNL     1      16.463  36.573  34.407  1.00  0.00     0.293 HD
ENDBRANCH  16  19
BRANCH  18  21
ATOM     21  O   UNL     1      18.118  35.855  32.027  1.00  0.00    -0.504 OA
ATOM     22  H   UNL     1      18.253  36.013  31.035  1.00  0.00     0.293 HD
ENDBRANCH  18  21
ENDBRANCH   3  13
BRANCH  10  23
ATOM     23  O   UNL     1      20.099  26.242  31.316  1.00  0.00    -0.507 OA
ATOM     24  H   UNL     1      19.962  25.254  31.165  1.00  0.00     0.293 HD
ENDBRANCH  10  23
BRANCH  11  25
ATOM     25  O   UNL     1      18.561  27.827  27.054  1.00  0.00    -0.508 OA
ATOM     26  H   UNL     1      19.307  28.030  26.400  1.00  0.00     0.293 HD
ENDBRANCH  11  25
ENDBRANCH   1   2
BRANCH   1  27
ATOM     27  C   UNL     1      19.731  31.202  34.923  1.00  0.00     0.339 C 
ATOM     28  C   UNL     1      21.002  30.422  35.314  1.00  0.00     0.214 C 
ATOM     29  O   UNL     1      19.227  31.966  36.007  1.00  0.00    -0.332 OA
ATOM     30  C   UNL     1      20.767  29.572  36.583  1.00  0.00     0.180 C 
ATOM     31  C   UNL     1      18.827  31.137  37.085  1.00  0.00     0.179 C 
ATOM     32  C   UNL     1      20.044  30.382  37.682  1.00  0.00     0.177 C 
BRANCH  28  33
ATOM     33  O   UNL     1      22.055  31.329  35.518  1.00  0.00    -0.384 OA
ATOM     34  H   UNL     1      22.835  30.799  35.830  1.00  0.00     0.211 HD
ENDBRANCH  28  33
BRANCH  30  35
ATOM     35  O   UNL     1      20.003  28.443  36.241  1.00  0.00    -0.387 OA
ATOM     36  H   UNL     1      20.321  28.135  35.352  1.00  0.00     0.211 HD
ENDBRANCH  30  35
BRANCH  31  37
ATOM     37  C   UNL     1      18.125  32.007  38.135  1.00  0.00     0.191 C 
BRANCH  37  38
ATOM     38  O   UNL     1      18.227  31.417  39.402  1.00  0.00    -0.394 OA
ATOM     39  H   UNL     1      17.317  31.099  39.632  1.00  0.00     0.210 HD
ENDBRANCH  37  38
ENDBRANCH  31  37
BRANCH  32  40
ATOM     40  O   UNL     1      20.940  31.246  38.339  1.00  0.00    -0.387 OA
ATOM     41  H   UNL     1      21.291  30.781  39.142  1.00  0.00     0.211 HD
ENDBRANCH  32  40
ENDBRANCH   1  27
TORSDOF 12
ENDMDL
