MODEL 1
REMARK VINA RESULT:    -4.369      0.000      0.000
REMARK INTER + INTRA:          -5.056
REMARK INTER:                  -5.008
REMARK INTRA:                  -0.049
REMARK UNBOUND:                -0.049
REMARK SMILES O=C([O-])c1cc(O)c(O)c(O)c1
REMARK SMILES IDX 4 1 5 2 12 3 6 4 10 5 8 6 2 7 1 8 3 9 7 10 11 12 9 14
REMARK H PARENT 7 11 11 13 9 15
REMARK Flexibility Score: inf
ROOT
ATOM      1  C   UNL     1      73.950  38.443  20.060  1.00  0.00     0.005 A 
ATOM      2  C   UNL     1      73.648  38.722  21.404  1.00  0.00     0.060 A 
ATOM      3  C   UNL     1      75.110  38.995  19.493  1.00  0.00     0.060 A 
ATOM      4  C   UNL     1      74.488  39.538  22.170  1.00  0.00     0.162 A 
ATOM      5  C   UNL     1      75.958  39.813  20.254  1.00  0.00     0.162 A 
ATOM      6  C   UNL     1      75.646  40.087  21.598  1.00  0.00     0.200 A 
ENDROOT
BRANCH   1   7
ATOM      7  C   UNL     1      73.062  37.580  19.250  1.00  0.00     0.072 C 
ATOM      8  O   UNL     1      72.607  36.505  19.725  1.00  0.00    -0.545 OA
ATOM      9  O   UNL     1      72.716  37.943  17.954  1.00  0.00    -0.545 OA
ENDBRANCH   1   7
BRANCH   4  10
ATOM     10  O   UNL     1      74.153  39.790  23.500  1.00  0.00    -0.504 OA
ATOM     11  H   UNL     1      74.828  39.714  24.250  1.00  0.00     0.293 HD
ENDBRANCH   4  10
BRANCH   5  12
ATOM     12  O   UNL     1      77.106  40.355  19.680  1.00  0.00    -0.504 OA
ATOM     13  H   UNL     1      77.392  40.118  18.738  1.00  0.00     0.293 HD
ENDBRANCH   5  12
BRANCH   6  14
ATOM     14  O   UNL     1      76.478  40.900  22.369  1.00  0.00    -0.502 OA
ATOM     15  H   UNL     1      77.233  40.523  22.929  1.00  0.00     0.293 HD
ENDBRANCH   6  14
TORSDOF 4
ENDMDL
MODEL 2
REMARK VINA RESULT:    -4.360      0.033      2.429
REMARK INTER + INTRA:          -5.046
REMARK INTER:                  -4.998
REMARK INTRA:                  -0.049
REMARK UNBOUND:                -0.049
REMARK SMILES O=C([O-])c1cc(O)c(O)c(O)c1
REMARK SMILES IDX 4 1 5 2 12 3 6 4 10 5 8 6 2 7 1 8 3 9 7 10 11 12 9 14
REMARK H PARENT 7 11 11 13 9 15
REMARK Flexibility Score: inf
ROOT
ATOM      1  C   UNL     1      73.943  38.469  20.054  1.00  0.00     0.005 A 
ATOM      2  C   UNL     1      75.107  39.020  19.493  1.00  0.00     0.060 A 
ATOM      3  C   UNL     1      73.633  38.749  21.395  1.00  0.00     0.060 A 
ATOM      4  C   UNL     1      75.950  39.836  20.255  1.00  0.00     0.162 A 
ATOM      5  C   UNL     1      74.472  39.568  22.166  1.00  0.00     0.162 A 
ATOM      6  C   UNL     1      75.635  40.114  21.596  1.00  0.00     0.200 A 
ENDROOT
BRANCH   1   7
ATOM      7  C   UNL     1      73.052  37.605  19.248  1.00  0.00     0.072 C 
ATOM      8  O   UNL     1      72.575  36.545  19.736  1.00  0.00    -0.545 OA
ATOM      9  O   UNL     1      72.729  37.949  17.941  1.00  0.00    -0.545 OA
ENDBRANCH   1   7
BRANCH   4  10
ATOM     10  O   UNL     1      77.096  40.364  19.661  1.00  0.00    -0.504 OA
ATOM     11  H   UNL     1      77.288  41.358  19.648  1.00  0.00     0.293 HD
ENDBRANCH   4  10
BRANCH   5  12
ATOM     12  O   UNL     1      74.153  39.839  23.495  1.00  0.00    -0.504 OA
ATOM     13  H   UNL     1      74.847  40.184  24.148  1.00  0.00     0.293 HD
ENDBRANCH   5  12
BRANCH   6  14
ATOM     14  O   UNL     1      76.480  40.929  22.348  1.00  0.00    -0.502 OA
ATOM     15  H   UNL     1      77.228  40.553  22.919  1.00  0.00     0.293 HD
ENDBRANCH   6  14
TORSDOF 4
ENDMDL
MODEL 3
REMARK VINA RESULT:    -4.203      2.739      3.390
REMARK INTER + INTRA:          -4.866
REMARK INTER:                  -4.815
REMARK INTRA:                  -0.051
REMARK UNBOUND:                -0.049
REMARK SMILES O=C([O-])c1cc(O)c(O)c(O)c1
REMARK SMILES IDX 4 1 5 2 12 3 6 4 10 5 8 6 2 7 1 8 3 9 7 10 11 12 9 14
REMARK H PARENT 7 11 11 13 9 15
REMARK Flexibility Score: inf
ROOT
ATOM      1  C   UNL     1      71.445  39.851  21.299  1.00  0.00     0.005 A 
ATOM      2  C   UNL     1      72.286  40.068  22.403  1.00  0.00     0.060 A 
ATOM      3  C   UNL     1      71.962  39.206  20.163  1.00  0.00     0.060 A 
ATOM      4  C   UNL     1      73.620  39.650  22.377  1.00  0.00     0.162 A 
ATOM      5  C   UNL     1      73.299  38.783  20.130  1.00  0.00     0.162 A 
ATOM      6  C   UNL     1      74.132  39.006  21.239  1.00  0.00     0.200 A 
ENDROOT
BRANCH   1   7
ATOM      7  C   UNL     1      70.033  40.294  21.326  1.00  0.00     0.072 C 
ATOM      8  O   UNL     1      69.400  40.350  22.416  1.00  0.00    -0.545 OA
ATOM      9  O   UNL     1      69.383  40.655  20.152  1.00  0.00    -0.545 OA
ENDBRANCH   1   7
BRANCH   4  10
ATOM     10  O   UNL     1      74.422  39.884  23.494  1.00  0.00    -0.504 OA
ATOM     11  H   UNL     1      74.182  39.536  24.413  1.00  0.00     0.293 HD
ENDBRANCH   4  10
BRANCH   5  12
ATOM     12  O   UNL     1      73.800  38.145  18.997  1.00  0.00    -0.504 OA
ATOM     13  H   UNL     1      74.641  37.580  19.034  1.00  0.00     0.293 HD
ENDBRANCH   5  12
BRANCH   6  14
ATOM     14  O   UNL     1      75.465  38.592  21.222  1.00  0.00    -0.502 OA
ATOM     15  H   UNL     1      76.026  38.610  20.379  1.00  0.00     0.293 HD
ENDBRANCH   6  14
TORSDOF 4
ENDMDL
MODEL 4
REMARK VINA RESULT:    -4.186      2.775      3.918
REMARK INTER + INTRA:          -4.847
REMARK INTER:                  -4.796
REMARK INTRA:                  -0.051
REMARK UNBOUND:                -0.049
REMARK SMILES O=C([O-])c1cc(O)c(O)c(O)c1
REMARK SMILES IDX 4 1 5 2 12 3 6 4 10 5 8 6 2 7 1 8 3 9 7 10 11 12 9 14
REMARK H PARENT 7 11 11 13 9 15
REMARK Flexibility Score: inf
ROOT
ATOM      1  C   UNL     1      71.383  39.852  21.263  1.00  0.00     0.005 A 
ATOM      2  C   UNL     1      71.903  39.207  20.129  1.00  0.00     0.060 A 
ATOM      3  C   UNL     1      72.220  40.063  22.371  1.00  0.00     0.060 A 
ATOM      4  C   UNL     1      73.234  38.777  20.098  1.00  0.00     0.162 A 
ATOM      5  C   UNL     1      73.556  39.637  22.349  1.00  0.00     0.162 A 
ATOM      6  C   UNL     1      74.066  38.991  21.209  1.00  0.00     0.200 A 
ENDROOT
BRANCH   1   7
ATOM      7  C   UNL     1      69.975  40.306  21.295  1.00  0.00     0.072 C 
ATOM      8  O   UNL     1      69.339  40.346  22.383  1.00  0.00    -0.545 OA
ATOM      9  O   UNL     1      69.332  40.695  20.126  1.00  0.00    -0.545 OA
ENDBRANCH   1   7
BRANCH   4  10
ATOM     10  O   UNL     1      73.711  38.140  18.953  1.00  0.00    -0.504 OA
ATOM     11  H   UNL     1      74.701  38.032  18.769  1.00  0.00     0.293 HD
ENDBRANCH   4  10
BRANCH   5  12
ATOM     12  O   UNL     1      74.376  39.852  23.455  1.00  0.00    -0.504 OA
ATOM     13  H   UNL     1      74.931  40.694  23.549  1.00  0.00     0.293 HD
ENDBRANCH   5  12
BRANCH   6  14
ATOM     14  O   UNL     1      75.392  38.560  21.170  1.00  0.00    -0.502 OA
ATOM     15  H   UNL     1      76.063  38.932  20.509  1.00  0.00     0.293 HD
ENDBRANCH   6  14
TORSDOF 4
ENDMDL
MODEL 5
REMARK VINA RESULT:    -4.101      2.063      3.315
REMARK INTER + INTRA:          -4.749
REMARK INTER:                  -4.703
REMARK INTRA:                  -0.046
REMARK UNBOUND:                -0.049
REMARK SMILES O=C([O-])c1cc(O)c(O)c(O)c1
REMARK SMILES IDX 4 1 5 2 12 3 6 4 10 5 8 6 2 7 1 8 3 9 7 10 11 12 9 14
REMARK H PARENT 7 11 11 13 9 15
REMARK Flexibility Score: inf
ROOT
ATOM      1  C   UNL     1      73.599  38.676  19.898  1.00  0.00     0.005 A 
ATOM      2  C   UNL     1      72.238  39.001  19.775  1.00  0.00     0.060 A 
ATOM      3  C   UNL     1      74.252  38.921  21.117  1.00  0.00     0.060 A 
ATOM      4  C   UNL     1      71.538  39.561  20.849  1.00  0.00     0.162 A 
ATOM      5  C   UNL     1      73.557  39.481  22.199  1.00  0.00     0.162 A 
ATOM      6  C   UNL     1      72.195  39.804  22.066  1.00  0.00     0.200 A 
ENDROOT
BRANCH   1   7
ATOM      7  C   UNL     1      74.339  38.084  18.761  1.00  0.00     0.072 C 
ATOM      8  O   UNL     1      75.325  38.686  18.256  1.00  0.00    -0.545 OA
ATOM      9  O   UNL     1      73.959  36.856  18.234  1.00  0.00    -0.545 OA
ENDBRANCH   1   7
BRANCH   4  10
ATOM     10  O   UNL     1      70.187  39.870  20.687  1.00  0.00    -0.504 OA
ATOM     11  H   UNL     1      69.453  39.321  21.116  1.00  0.00     0.293 HD
ENDBRANCH   4  10
BRANCH   5  12
ATOM     12  O   UNL     1      74.216  39.719  23.404  1.00  0.00    -0.504 OA
ATOM     13  H   UNL     1      74.827  39.027  23.821  1.00  0.00     0.293 HD
ENDBRANCH   5  12
BRANCH   6  14
ATOM     14  O   UNL     1      71.490  40.362  23.133  1.00  0.00    -0.502 OA
ATOM     15  H   UNL     1      71.476  39.939  24.052  1.00  0.00     0.293 HD
ENDBRANCH   6  14
TORSDOF 4
ENDMDL
MODEL 6
REMARK VINA RESULT:    -4.100      2.052      3.362
REMARK INTER + INTRA:          -4.748
REMARK INTER:                  -4.701
REMARK INTRA:                  -0.047
REMARK UNBOUND:                -0.049
REMARK SMILES O=C([O-])c1cc(O)c(O)c(O)c1
REMARK SMILES IDX 4 1 5 2 12 3 6 4 10 5 8 6 2 7 1 8 3 9 7 10 11 12 9 14
REMARK H PARENT 7 11 11 13 9 15
REMARK Flexibility Score: inf
ROOT
ATOM      1  C   UNL     1      73.632  38.663  19.947  1.00  0.00     0.005 A 
ATOM      2  C   UNL     1      74.262  38.932  21.173  1.00  0.00     0.060 A 
ATOM      3  C   UNL     1      72.270  38.974  19.797  1.00  0.00     0.060 A 
ATOM      4  C   UNL     1      73.549  39.501  22.233  1.00  0.00     0.162 A 
ATOM      5  C   UNL     1      71.548  39.545  20.854  1.00  0.00     0.162 A 
ATOM      6  C   UNL     1      72.187  39.810  22.078  1.00  0.00     0.200 A 
ENDROOT
BRANCH   1   7
ATOM      7  C   UNL     1      74.387  38.061  18.825  1.00  0.00     0.072 C 
ATOM      8  O   UNL     1      75.454  38.592  18.413  1.00  0.00    -0.545 OA
ATOM      9  O   UNL     1      73.932  36.901  18.210  1.00  0.00    -0.545 OA
ENDBRANCH   1   7
BRANCH   4  10
ATOM     10  O   UNL     1      74.211  39.752  23.434  1.00  0.00    -0.504 OA
ATOM     11  H   UNL     1      74.124  40.634  23.924  1.00  0.00     0.293 HD
ENDBRANCH   4  10
BRANCH   5  12
ATOM     12  O   UNL     1      70.197  39.849  20.693  1.00  0.00    -0.504 OA
ATOM     13  H   UNL     1      69.691  39.591  19.855  1.00  0.00     0.293 HD
ENDBRANCH   5  12
BRANCH   6  14
ATOM     14  O   UNL     1      71.483  40.377  23.140  1.00  0.00    -0.502 OA
ATOM     15  H   UNL     1      71.948  40.830  23.917  1.00  0.00     0.293 HD
ENDBRANCH   6  14
TORSDOF 4
ENDMDL
MODEL 7
REMARK VINA RESULT:    -3.776      1.994      3.801
REMARK INTER + INTRA:          -4.376
REMARK INTER:                  -4.328
REMARK INTRA:                  -0.048
REMARK UNBOUND:                -0.049
REMARK SMILES O=C([O-])c1cc(O)c(O)c(O)c1
REMARK SMILES IDX 4 1 5 2 12 3 6 4 10 5 8 6 2 7 1 8 3 9 7 10 11 12 9 14
REMARK H PARENT 7 11 11 13 9 15
REMARK Flexibility Score: inf
ROOT
ATOM      1  C   UNL     1      75.246  40.161  20.018  1.00  0.00     0.005 A 
ATOM      2  C   UNL     1      73.912  40.213  19.582  1.00  0.00     0.060 A 
ATOM      3  C   UNL     1      75.511  39.970  21.384  1.00  0.00     0.060 A 
ATOM      4  C   UNL     1      72.858  40.076  20.492  1.00  0.00     0.162 A 
ATOM      5  C   UNL     1      74.461  39.832  22.302  1.00  0.00     0.162 A 
ATOM      6  C   UNL     1      73.128  39.885  21.857  1.00  0.00     0.200 A 
ENDROOT
BRANCH   1   7
ATOM      7  C   UNL     1      76.361  40.306  19.055  1.00  0.00     0.072 C 
ATOM      8  O   UNL     1      77.294  41.125  19.274  1.00  0.00    -0.545 OA
ATOM      9  O   UNL     1      76.396  39.541  17.896  1.00  0.00    -0.545 OA
ENDBRANCH   1   7
BRANCH   4  10
ATOM     10  O   UNL     1      71.547  40.133  20.019  1.00  0.00    -0.504 OA
ATOM     11  H   UNL     1      71.307  40.589  19.148  1.00  0.00     0.293 HD
ENDBRANCH   4  10
BRANCH   5  12
ATOM     12  O   UNL     1      74.736  39.643  23.655  1.00  0.00    -0.504 OA
ATOM     13  H   UNL     1      75.416  40.213  24.144  1.00  0.00     0.293 HD
ENDBRANCH   5  12
BRANCH   6  14
ATOM     14  O   UNL     1      72.072  39.750  22.758  1.00  0.00    -0.502 OA
ATOM     15  H   UNL     1      71.224  40.299  22.683  1.00  0.00     0.293 HD
ENDBRANCH   6  14
TORSDOF 4
ENDMDL
MODEL 8
REMARK VINA RESULT:    -3.672      1.438      4.110
REMARK INTER + INTRA:          -4.257
REMARK INTER:                  -4.211
REMARK INTRA:                  -0.047
REMARK UNBOUND:                -0.049
REMARK SMILES O=C([O-])c1cc(O)c(O)c(O)c1
REMARK SMILES IDX 4 1 5 2 12 3 6 4 10 5 8 6 2 7 1 8 3 9 7 10 11 12 9 14
REMARK H PARENT 7 11 11 13 9 15
REMARK Flexibility Score: inf
ROOT
ATOM      1  C   UNL     1      73.902  39.244  21.243  1.00  0.00     0.005 A 
ATOM      2  C   UNL     1      73.000  38.167  21.270  1.00  0.00     0.060 A 
ATOM      3  C   UNL     1      74.720  39.421  20.115  1.00  0.00     0.060 A 
ATOM      4  C   UNL     1      72.914  37.281  20.191  1.00  0.00     0.162 A 
ATOM      5  C   UNL     1      74.639  38.538  19.029  1.00  0.00     0.162 A 
ATOM      6  C   UNL     1      73.734  37.463  19.065  1.00  0.00     0.200 A 
ENDROOT
BRANCH   1   7
ATOM      7  C   UNL     1      73.993  40.181  22.385  1.00  0.00     0.072 C 
ATOM      8  O   UNL     1      72.983  40.838  22.756  1.00  0.00    -0.545 OA
ATOM      9  O   UNL     1      75.193  40.351  23.064  1.00  0.00    -0.545 OA
ENDBRANCH   1   7
BRANCH   4  10
ATOM     10  O   UNL     1      72.006  36.224  20.256  1.00  0.00    -0.504 OA
ATOM     11  H   UNL     1      72.268  35.273  20.028  1.00  0.00     0.293 HD
ENDBRANCH   4  10
BRANCH   5  12
ATOM     12  O   UNL     1      75.456  38.724  17.915  1.00  0.00    -0.504 OA
ATOM     13  H   UNL     1      76.243  39.362  17.934  1.00  0.00     0.293 HD
ENDBRANCH   5  12
BRANCH   6  14
ATOM     14  O   UNL     1      73.642  36.574  17.994  1.00  0.00    -0.502 OA
ATOM     15  H   UNL     1      74.336  35.856  17.826  1.00  0.00     0.293 HD
ENDBRANCH   6  14
TORSDOF 4
ENDMDL
MODEL 9
REMARK VINA RESULT:    -3.665      1.426      4.671
REMARK INTER + INTRA:          -4.250
REMARK INTER:                  -4.203
REMARK INTRA:                  -0.047
REMARK UNBOUND:                -0.049
REMARK SMILES O=C([O-])c1cc(O)c(O)c(O)c1
REMARK SMILES IDX 4 1 5 2 12 3 6 4 10 5 8 6 2 7 1 8 3 9 7 10 11 12 9 14
REMARK H PARENT 7 11 11 13 9 15
REMARK Flexibility Score: inf
ROOT
ATOM      1  C   UNL     1      73.930  39.232  21.235  1.00  0.00     0.005 A 
ATOM      2  C   UNL     1      74.777  39.402  20.127  1.00  0.00     0.060 A 
ATOM      3  C   UNL     1      73.025  38.158  21.244  1.00  0.00     0.060 A 
ATOM      4  C   UNL     1      74.725  38.517  19.046  1.00  0.00     0.162 A 
ATOM      5  C   UNL     1      72.967  37.265  20.164  1.00  0.00     0.162 A 
ATOM      6  C   UNL     1      73.818  37.444  19.060  1.00  0.00     0.200 A 
ENDROOT
BRANCH   1   7
ATOM      7  C   UNL     1      73.985  40.169  22.379  1.00  0.00     0.072 C 
ATOM      8  O   UNL     1      72.956  40.801  22.741  1.00  0.00    -0.545 OA
ATOM      9  O   UNL     1      75.174  40.367  23.072  1.00  0.00    -0.545 OA
ENDBRANCH   1   7
BRANCH   4  10
ATOM     10  O   UNL     1      75.582  38.720  17.965  1.00  0.00    -0.504 OA
ATOM     11  H   UNL     1      76.278  39.456  17.959  1.00  0.00     0.293 HD
ENDBRANCH   4  10
BRANCH   5  12
ATOM     12  O   UNL     1      72.065  36.202  20.184  1.00  0.00    -0.504 OA
ATOM     13  H   UNL     1      71.836  35.716  21.043  1.00  0.00     0.293 HD
ENDBRANCH   5  12
BRANCH   6  14
ATOM     14  O   UNL     1      73.772  36.565  17.977  1.00  0.00    -0.502 OA
ATOM     15  H   UNL     1      72.921  36.392  17.457  1.00  0.00     0.293 HD
ENDBRANCH   6  14
TORSDOF 4
ENDMDL
