MODEL 1
REMARK VINA RESULT:    -3.856      0.000      0.000
REMARK INTER + INTRA:          -3.969
REMARK INTER:                  -3.969
REMARK INTRA:                   0.000
REMARK UNBOUND:                 0.000
REMARK SMILES Oc1ccc2[nH]ccc2c1
REMARK SMILES IDX 3 1 4 2 5 3 9 4 8 5 7 6 6 7 10 8 2 9 1 11
REMARK H PARENT 6 10 1 12
REMARK Flexibility Score: inf
ROOT
ATOM      1  C   UNL     1     143.995 142.909 136.724  1.00  0.00     0.048 A 
ATOM      2  C   UNL     1     145.247 142.517 137.232  1.00  0.00     0.030 A 
ATOM      3  C   UNL     1     146.126 143.520 137.637  1.00  0.00     0.046 A 
ATOM      4  C   UNL     1     145.797 144.846 137.549  1.00  0.00     0.003 A 
ATOM      5  C   UNL     1     146.868 145.570 138.024  1.00  0.00     0.028 A 
ATOM      6  C   UNL     1     147.818 144.619 138.384  1.00  0.00     0.083 A 
ATOM      7  N   UNL     1     147.360 143.369 138.146  1.00  0.00    -0.361 N 
ATOM      8  C   UNL     1     144.565 145.267 137.052  1.00  0.00     0.056 A 
ATOM      9  C   UNL     1     143.651 144.280 136.633  1.00  0.00     0.116 A 
ATOM     10  H   UNL     1     147.865 142.472 138.323  1.00  0.00     0.166 HD
ENDROOT
BRANCH   9  11
ATOM     11  O   UNL     1     142.411 144.666 136.130  1.00  0.00    -0.508 OA
ATOM     12  H   UNL     1     142.166 145.643 136.022  1.00  0.00     0.293 HD
ENDBRANCH   9  11
TORSDOF 1
ENDMDL
MODEL 2
REMARK VINA RESULT:    -3.852     19.012     20.646
REMARK INTER + INTRA:          -3.964
REMARK INTER:                  -3.964
REMARK INTRA:                   0.000
REMARK UNBOUND:                 0.000
REMARK SMILES Oc1ccc2[nH]ccc2c1
REMARK SMILES IDX 3 1 4 2 5 3 9 4 8 5 7 6 6 7 10 8 2 9 1 11
REMARK H PARENT 6 10 1 12
REMARK Flexibility Score: inf
ROOT
ATOM      1  C   UNL     1     131.221 132.072 137.224  1.00  0.00     0.048 A 
ATOM      2  C   UNL     1     131.595 130.718 137.151  1.00  0.00     0.030 A 
ATOM      3  C   UNL     1     130.701 129.769 137.645  1.00  0.00     0.046 A 
ATOM      4  C   UNL     1     129.495 130.128 138.185  1.00  0.00     0.003 A 
ATOM      5  C   UNL     1     128.856 128.972 138.574  1.00  0.00     0.028 A 
ATOM      6  C   UNL     1     129.732 127.943 138.240  1.00  0.00     0.083 A 
ATOM      7  N   UNL     1     130.857 128.435 137.673  1.00  0.00    -0.361 N 
ATOM      8  C   UNL     1     129.095 131.460 138.271  1.00  0.00     0.056 A 
ATOM      9  C   UNL     1     129.974 132.446 137.783  1.00  0.00     0.116 A 
ATOM     10  H   UNL     1     131.677 127.888 137.329  1.00  0.00     0.166 HD
ENDROOT
BRANCH   9  11
ATOM     11  O   UNL     1     129.605 133.787 137.854  1.00  0.00    -0.508 OA
ATOM     12  H   UNL     1     130.080 134.434 138.472  1.00  0.00     0.293 HD
ENDBRANCH   9  11
TORSDOF 1
ENDMDL
MODEL 3
REMARK VINA RESULT:    -3.841     13.835     15.376
REMARK INTER + INTRA:          -3.953
REMARK INTER:                  -3.953
REMARK INTRA:                   0.000
REMARK UNBOUND:                 0.000
REMARK SMILES Oc1ccc2[nH]ccc2c1
REMARK SMILES IDX 3 1 4 2 5 3 9 4 8 5 7 6 6 7 10 8 2 9 1 11
REMARK H PARENT 6 10 1 12
REMARK Flexibility Score: inf
ROOT
ATOM      1  C   UNL     1     131.972 145.106 137.126  1.00  0.00     0.048 A 
ATOM      2  C   UNL     1     130.591 144.844 137.054  1.00  0.00     0.030 A 
ATOM      3  C   UNL     1     129.722 145.784 137.606  1.00  0.00     0.046 A 
ATOM      4  C   UNL     1     130.181 146.928 138.200  1.00  0.00     0.003 A 
ATOM      5  C   UNL     1     129.083 147.636 138.637  1.00  0.00     0.028 A 
ATOM      6  C   UNL     1     127.985 146.861 138.275  1.00  0.00     0.083 A 
ATOM      7  N   UNL     1     128.380 145.731 137.646  1.00  0.00    -0.361 N 
ATOM      8  C   UNL     1     131.541 147.219 138.286  1.00  0.00     0.056 A 
ATOM      9  C   UNL     1     132.449 146.290 137.740  1.00  0.00     0.116 A 
ATOM     10  H   UNL     1     127.766 144.975 137.269  1.00  0.00     0.166 HD
ENDROOT
BRANCH   9  11
ATOM     11  O   UNL     1     133.815 146.549 137.810  1.00  0.00    -0.508 OA
ATOM     12  H   UNL     1     134.385 146.613 136.975  1.00  0.00     0.293 HD
ENDBRANCH   9  11
TORSDOF 1
ENDMDL
MODEL 4
REMARK VINA RESULT:    -3.838     13.674     14.602
REMARK INTER + INTRA:          -3.950
REMARK INTER:                  -3.950
REMARK INTRA:                   0.000
REMARK UNBOUND:                 0.000
REMARK SMILES Oc1ccc2[nH]ccc2c1
REMARK SMILES IDX 3 1 4 2 5 3 9 4 8 5 7 6 6 7 10 8 2 9 1 11
REMARK H PARENT 6 10 1 12
REMARK Flexibility Score: inf
ROOT
ATOM      1  C   UNL     1     143.667 128.744 138.039  1.00  0.00     0.048 A 
ATOM      2  C   UNL     1     144.883 128.045 138.157  1.00  0.00     0.030 A 
ATOM      3  C   UNL     1     146.063 128.787 138.150  1.00  0.00     0.046 A 
ATOM      4  C   UNL     1     146.055 130.151 138.033  1.00  0.00     0.003 A 
ATOM      5  C   UNL     1     147.365 130.575 138.059  1.00  0.00     0.028 A 
ATOM      6  C   UNL     1     148.120 129.413 138.194  1.00  0.00     0.083 A 
ATOM      7  N   UNL     1     147.320 128.324 138.249  1.00  0.00    -0.361 N 
ATOM      8  C   UNL     1     144.869 130.873 137.915  1.00  0.00     0.056 A 
ATOM      9  C   UNL     1     143.657 130.155 137.918  1.00  0.00     0.116 A 
ATOM     10  H   UNL     1     147.621 127.329 138.349  1.00  0.00     0.166 HD
ENDROOT
BRANCH   9  11
ATOM     11  O   UNL     1     142.454 130.846 137.801  1.00  0.00    -0.508 OA
ATOM     12  H   UNL     1     141.727 130.764 138.502  1.00  0.00     0.293 HD
ENDBRANCH   9  11
TORSDOF 1
ENDMDL
MODEL 5
REMARK VINA RESULT:    -3.818     19.230     20.673
REMARK INTER + INTRA:          -3.929
REMARK INTER:                  -3.929
REMARK INTRA:                   0.000
REMARK UNBOUND:                 0.000
REMARK SMILES Oc1ccc2[nH]ccc2c1
REMARK SMILES IDX 3 1 4 2 5 3 9 4 8 5 7 6 6 7 10 8 2 9 1 11
REMARK H PARENT 6 10 1 12
REMARK Flexibility Score: inf
ROOT
ATOM      1  C   UNL     1     129.015 132.797 138.050  1.00  0.00     0.048 A 
ATOM      2  C   UNL     1     128.268 131.608 138.135  1.00  0.00     0.030 A 
ATOM      3  C   UNL     1     128.963 130.401 138.116  1.00  0.00     0.046 A 
ATOM      4  C   UNL     1     130.328 130.357 138.018  1.00  0.00     0.003 A 
ATOM      5  C   UNL     1     130.700 129.031 138.026  1.00  0.00     0.028 A 
ATOM      6  C   UNL     1     129.508 128.320 138.130  1.00  0.00     0.083 A 
ATOM      7  N   UNL     1     128.451 129.161 138.185  1.00  0.00    -0.361 N 
ATOM      8  C   UNL     1     131.098 131.516 137.933  1.00  0.00     0.056 A 
ATOM      9  C   UNL     1     130.428 132.755 137.949  1.00  0.00     0.116 A 
ATOM     10  H   UNL     1     127.443 128.897 138.265  1.00  0.00     0.166 HD
ENDROOT
BRANCH   9  11
ATOM     11  O   UNL     1     131.166 133.932 137.865  1.00  0.00    -0.508 OA
ATOM     12  H   UNL     1     132.133 133.929 137.563  1.00  0.00     0.293 HD
ENDBRANCH   9  11
TORSDOF 1
ENDMDL
MODEL 6
REMARK VINA RESULT:    -3.798     11.796     13.258
REMARK INTER + INTRA:          -3.909
REMARK INTER:                  -3.909
REMARK INTRA:                   0.000
REMARK UNBOUND:                 0.000
REMARK SMILES Oc1ccc2[nH]ccc2c1
REMARK SMILES IDX 3 1 4 2 5 3 9 4 8 5 7 6 6 7 10 8 2 9 1 11
REMARK H PARENT 6 10 1 12
REMARK Flexibility Score: inf
ROOT
ATOM      1  C   UNL     1     145.809 130.375 137.783  1.00  0.00     0.048 A 
ATOM      2  C   UNL     1     145.836 131.619 137.125  1.00  0.00     0.030 A 
ATOM      3  C   UNL     1     144.617 132.213 136.806  1.00  0.00     0.046 A 
ATOM      4  C   UNL     1     143.423 131.618 137.115  1.00  0.00     0.003 A 
ATOM      5  C   UNL     1     142.419 132.450 136.670  1.00  0.00     0.028 A 
ATOM      6  C   UNL     1     143.076 133.536 136.099  1.00  0.00     0.083 A 
ATOM      7  N   UNL     1     144.417 133.386 136.184  1.00  0.00    -0.361 N 
ATOM      8  C   UNL     1     143.360 130.388 137.766  1.00  0.00     0.056 A 
ATOM      9  C   UNL     1     144.574 129.758 138.104  1.00  0.00     0.116 A 
ATOM     10  H   UNL     1     145.146 134.050 135.837  1.00  0.00     0.166 HD
ENDROOT
BRANCH   9  11
ATOM     11  O   UNL     1     144.548 128.527 138.754  1.00  0.00    -0.508 OA
ATOM     12  H   UNL     1     145.291 128.245 139.382  1.00  0.00     0.293 HD
ENDBRANCH   9  11
TORSDOF 1
ENDMDL
MODEL 7
REMARK VINA RESULT:    -3.784      2.567      4.044
REMARK INTER + INTRA:          -3.895
REMARK INTER:                  -3.895
REMARK INTRA:                   0.000
REMARK UNBOUND:                 0.000
REMARK SMILES Oc1ccc2[nH]ccc2c1
REMARK SMILES IDX 3 1 4 2 5 3 9 4 8 5 7 6 6 7 10 8 2 9 1 11
REMARK H PARENT 6 10 1 12
REMARK Flexibility Score: inf
ROOT
ATOM      1  C   UNL     1     146.041 145.827 137.732  1.00  0.00     0.048 A 
ATOM      2  C   UNL     1     144.781 145.821 137.106  1.00  0.00     0.030 A 
ATOM      3  C   UNL     1     144.216 144.586 136.793  1.00  0.00     0.046 A 
ATOM      4  C   UNL     1     144.854 143.409 137.080  1.00  0.00     0.003 A 
ATOM      5  C   UNL     1     144.042 142.383 136.650  1.00  0.00     0.028 A 
ATOM      6  C   UNL     1     142.922 143.010 136.110  1.00  0.00     0.083 A 
ATOM      7  N   UNL     1     143.034 144.355 136.200  1.00  0.00    -0.361 N 
ATOM      8  C   UNL     1     146.102 143.380 137.700  1.00  0.00     0.056 A 
ATOM      9  C   UNL     1     146.703 144.610 138.029  1.00  0.00     0.116 A 
ATOM     10  H   UNL     1     142.340 145.065 135.874  1.00  0.00     0.166 HD
ENDROOT
BRANCH   9  11
ATOM     11  O   UNL     1     147.950 144.618 138.649  1.00  0.00    -0.508 OA
ATOM     12  H   UNL     1     148.087 144.210 139.566  1.00  0.00     0.293 HD
ENDBRANCH   9  11
TORSDOF 1
ENDMDL
MODEL 8
REMARK VINA RESULT:    -3.750     12.326     13.678
REMARK INTER + INTRA:          -3.860
REMARK INTER:                  -3.860
REMARK INTRA:                   0.000
REMARK UNBOUND:                 0.000
REMARK SMILES Oc1ccc2[nH]ccc2c1
REMARK SMILES IDX 3 1 4 2 5 3 9 4 8 5 7 6 6 7 10 8 2 9 1 11
REMARK H PARENT 6 10 1 12
REMARK Flexibility Score: inf
ROOT
ATOM      1  C   UNL     1     143.316 131.736 137.139  1.00  0.00     0.048 A 
ATOM      2  C   UNL     1     143.272 130.477 137.767  1.00  0.00     0.030 A 
ATOM      3  C   UNL     1     144.484 129.859 138.069  1.00  0.00     0.046 A 
ATOM      4  C   UNL     1     145.685 130.443 137.771  1.00  0.00     0.003 A 
ATOM      5  C   UNL     1     146.677 129.586 138.193  1.00  0.00     0.028 A 
ATOM      6  C   UNL     1     146.007 128.496 138.740  1.00  0.00     0.083 A 
ATOM      7  N   UNL     1     144.668 128.667 138.661  1.00  0.00    -0.361 N 
ATOM      8  C   UNL     1     145.764 131.689 137.151  1.00  0.00     0.056 A 
ATOM      9  C   UNL     1     144.558 132.343 136.830  1.00  0.00     0.116 A 
ATOM     10  H   UNL     1     143.930 128.007 138.995  1.00  0.00     0.166 HD
ENDROOT
BRANCH   9  11
ATOM     11  O   UNL     1     144.601 133.588 136.209  1.00  0.00    -0.508 OA
ATOM     12  H   UNL     1     144.823 133.681 135.225  1.00  0.00     0.293 HD
ENDBRANCH   9  11
TORSDOF 1
ENDMDL
MODEL 9
REMARK VINA RESULT:    -3.744     18.277     19.946
REMARK INTER + INTRA:          -3.854
REMARK INTER:                  -3.854
REMARK INTRA:                   0.000
REMARK UNBOUND:                 0.000
REMARK SMILES Oc1ccc2[nH]ccc2c1
REMARK SMILES IDX 3 1 4 2 5 3 9 4 8 5 7 6 6 7 10 8 2 9 1 11
REMARK H PARENT 6 10 1 12
REMARK Flexibility Score: inf
ROOT
ATOM      1  C   UNL     1     131.439 133.070 137.124  1.00  0.00     0.048 A 
ATOM      2  C   UNL     1     130.169 132.996 137.723  1.00  0.00     0.030 A 
ATOM      3  C   UNL     1     129.654 131.731 138.002  1.00  0.00     0.046 A 
ATOM      4  C   UNL     1     130.351 130.590 137.710  1.00  0.00     0.003 A 
ATOM      5  C   UNL     1     129.578 129.520 138.105  1.00  0.00     0.028 A 
ATOM      6  C   UNL     1     128.420 130.086 138.631  1.00  0.00     0.083 A 
ATOM      7  N   UNL     1     128.472 131.436 138.566  1.00  0.00    -0.361 N 
ATOM      8  C   UNL     1     131.612 130.628 137.117  1.00  0.00     0.056 A 
ATOM      9  C   UNL     1     132.162 131.891 136.820  1.00  0.00     0.116 A 
ATOM     10  H   UNL     1     127.740 132.108 138.890  1.00  0.00     0.166 HD
ENDROOT
BRANCH   9  11
ATOM     11  O   UNL     1     133.420 131.965 136.227  1.00  0.00    -0.508 OA
ATOM     12  H   UNL     1     134.066 132.714 136.449  1.00  0.00     0.293 HD
ENDBRANCH   9  11
TORSDOF 1
ENDMDL
