MODEL 1
REMARK VINA RESULT:    -2.405      0.000      0.000
REMARK INTER + INTRA:          -2.405
REMARK INTER:                  -2.405
REMARK INTRA:                   0.000
REMARK UNBOUND:                 0.000
REMARK SMILES CC(=O)[O-]
REMARK SMILES IDX 1 1 2 2 3 3 4 4
REMARK H PARENT
REMARK Flexibility Score: inf
ROOT
ATOM      1  C   UNL     1      46.015  -7.863  26.418  1.00  0.00     0.063 C 
ATOM      2  C   UNL     1      45.180  -7.266  25.336  1.00  0.00     0.038 C 
ATOM      3  O   UNL     1      44.538  -6.203  25.547  1.00  0.00    -0.550 OA
ATOM      4  O   UNL     1      45.148  -7.852  24.077  1.00  0.00    -0.550 OA
ENDROOT
TORSDOF 0
ENDMDL
MODEL 2
REMARK VINA RESULT:    -2.395      3.598      3.878
REMARK INTER + INTRA:          -2.395
REMARK INTER:                  -2.395
REMARK INTRA:                   0.000
REMARK UNBOUND:                 0.000
REMARK SMILES CC(=O)[O-]
REMARK SMILES IDX 1 1 2 2 3 3 4 4
REMARK H PARENT
REMARK Flexibility Score: inf
ROOT
ATOM      1  C   UNL     1      48.494  -7.438  23.287  1.00  0.00     0.063 C 
ATOM      2  C   UNL     1      48.465  -7.473  24.777  1.00  0.00     0.038 C 
ATOM      3  O   UNL     1      49.539  -7.405  25.432  1.00  0.00    -0.550 OA
ATOM      4  O   UNL     1      47.251  -7.529  25.450  1.00  0.00    -0.550 OA
ENDROOT
TORSDOF 0
ENDMDL
MODEL 3
REMARK VINA RESULT:    -2.390      4.246      4.656
REMARK INTER + INTRA:          -2.390
REMARK INTER:                  -2.390
REMARK INTRA:                   0.000
REMARK UNBOUND:                 0.000
REMARK SMILES CC(=O)[O-]
REMARK SMILES IDX 1 1 2 2 3 3 4 4
REMARK H PARENT
REMARK Flexibility Score: inf
ROOT
ATOM      1  C   UNL     1      47.020  -7.697  22.349  1.00  0.00     0.063 C 
ATOM      2  C   UNL     1      48.504  -7.605  22.468  1.00  0.00     0.038 C 
ATOM      3  O   UNL     1      49.029  -7.229  23.548  1.00  0.00    -0.550 OA
ATOM      4  O   UNL     1      49.313  -7.984  21.404  1.00  0.00    -0.550 OA
ENDROOT
TORSDOF 0
ENDMDL
MODEL 4
REMARK VINA RESULT:    -2.355      3.747      4.020
REMARK INTER + INTRA:          -2.355
REMARK INTER:                  -2.355
REMARK INTRA:                   0.000
REMARK UNBOUND:                 0.000
REMARK SMILES CC(=O)[O-]
REMARK SMILES IDX 1 1 2 2 3 3 4 4
REMARK H PARENT
REMARK Flexibility Score: inf
ROOT
ATOM      1  C   UNL     1      47.260  -7.495  22.690  1.00  0.00     0.063 C 
ATOM      2  C   UNL     1      48.196  -7.021  23.750  1.00  0.00     0.038 C 
ATOM      3  O   UNL     1      48.708  -7.843  24.554  1.00  0.00    -0.550 OA
ATOM      4  O   UNL     1      48.545  -5.678  23.822  1.00  0.00    -0.550 OA
ENDROOT
TORSDOF 0
ENDMDL
MODEL 5
REMARK VINA RESULT:    -2.348      3.242      3.589
REMARK INTER + INTRA:          -2.348
REMARK INTER:                  -2.348
REMARK INTRA:                   0.000
REMARK UNBOUND:                 0.000
REMARK SMILES CC(=O)[O-]
REMARK SMILES IDX 1 1 2 2 3 3 4 4
REMARK H PARENT
REMARK Flexibility Score: inf
ROOT
ATOM      1  C   UNL     1      47.015  -7.607  22.608  1.00  0.00     0.063 C 
ATOM      2  C   UNL     1      47.745  -6.971  23.742  1.00  0.00     0.038 C 
ATOM      3  O   UNL     1      48.512  -5.996  23.532  1.00  0.00    -0.550 OA
ATOM      4  O   UNL     1      47.542  -7.421  25.041  1.00  0.00    -0.550 OA
ENDROOT
TORSDOF 0
ENDMDL
MODEL 6
REMARK VINA RESULT:    -2.325      3.301      3.492
REMARK INTER + INTRA:          -2.325
REMARK INTER:                  -2.325
REMARK INTRA:                   0.000
REMARK UNBOUND:                 0.000
REMARK SMILES CC(=O)[O-]
REMARK SMILES IDX 1 1 2 2 3 3 4 4
REMARK H PARENT
REMARK Flexibility Score: inf
ROOT
ATOM      1  C   UNL     1      49.726  -7.018  25.261  1.00  0.00     0.063 C 
ATOM      2  C   UNL     1      48.465  -7.435  24.583  1.00  0.00     0.038 C 
ATOM      3  O   UNL     1      47.385  -7.478  25.229  1.00  0.00    -0.550 OA
ATOM      4  O   UNL     1      48.467  -7.728  23.226  1.00  0.00    -0.550 OA
ENDROOT
TORSDOF 0
ENDMDL
MODEL 7
REMARK VINA RESULT:    -2.316      3.459      3.723
REMARK INTER + INTRA:          -2.316
REMARK INTER:                  -2.316
REMARK INTRA:                   0.000
REMARK UNBOUND:                 0.000
REMARK SMILES CC(=O)[O-]
REMARK SMILES IDX 1 1 2 2 3 3 4 4
REMARK H PARENT
REMARK Flexibility Score: inf
ROOT
ATOM      1  C   UNL     1      47.231  -7.384  25.301  1.00  0.00     0.063 C 
ATOM      2  C   UNL     1      48.581  -7.483  24.674  1.00  0.00     0.038 C 
ATOM      3  O   UNL     1      49.616  -7.384  25.385  1.00  0.00    -0.550 OA
ATOM      4  O   UNL     1      48.702  -7.734  23.314  1.00  0.00    -0.550 OA
ENDROOT
TORSDOF 0
ENDMDL
MODEL 8
REMARK VINA RESULT:    -2.270      1.736      1.740
REMARK INTER + INTRA:          -2.270
REMARK INTER:                  -2.270
REMARK INTRA:                   0.000
REMARK UNBOUND:                 0.000
REMARK SMILES CC(=O)[O-]
REMARK SMILES IDX 1 1 2 2 3 3 4 4
REMARK H PARENT
REMARK Flexibility Score: inf
ROOT
ATOM      1  C   UNL     1      45.873  -7.847  26.357  1.00  0.00     0.063 C 
ATOM      2  C   UNL     1      46.626  -6.921  25.462  1.00  0.00     0.038 C 
ATOM      3  O   UNL     1      46.937  -5.769  25.863  1.00  0.00    -0.550 OA
ATOM      4  O   UNL     1      47.031  -7.345  24.203  1.00  0.00    -0.550 OA
ENDROOT
TORSDOF 0
ENDMDL
MODEL 9
REMARK VINA RESULT:    -2.256      3.616      3.987
REMARK INTER + INTRA:          -2.256
REMARK INTER:                  -2.256
REMARK INTRA:                   0.000
REMARK UNBOUND:                 0.000
REMARK SMILES CC(=O)[O-]
REMARK SMILES IDX 1 1 2 2 3 3 4 4
REMARK H PARENT
REMARK Flexibility Score: inf
ROOT
ATOM      1  C   UNL     1      48.301  -7.416  23.963  1.00  0.00     0.063 C 
ATOM      2  C   UNL     1      47.873  -7.562  22.542  1.00  0.00     0.038 C 
ATOM      3  O   UNL     1      46.653  -7.482  22.239  1.00  0.00    -0.550 OA
ATOM      4  O   UNL     1      48.821  -7.736  21.542  1.00  0.00    -0.550 OA
ENDROOT
TORSDOF 0
ENDMDL
