MODEL 1
REMARK VINA RESULT:    -3.929      0.000      0.000
REMARK INTER + INTRA:          -4.293
REMARK INTER:                  -4.274
REMARK INTRA:                  -0.020
REMARK UNBOUND:                -0.020
REMARK SMILES OCc1ccccc1
REMARK SMILES IDX 2 1 3 2 6 3 5 4 7 5 4 6 8 7 1 8
REMARK H PARENT 1 9
REMARK Flexibility Score: inf
ROOT
ATOM      1  C   UNL     1      34.177   7.586  52.814  1.00  0.00     0.191 C 
ENDROOT
BRANCH   1   2
ATOM      2  C   UNL     1      34.523   8.821  53.599  1.00  0.00    -0.023 A 
ATOM      3  C   UNL     1      35.170  11.167  54.996  1.00  0.00     0.000 A 
ATOM      4  C   UNL     1      33.834  10.872  54.706  1.00  0.00     0.000 A 
ATOM      5  C   UNL     1      36.183  10.298  54.582  1.00  0.00     0.000 A 
ATOM      6  C   UNL     1      33.510   9.707  54.005  1.00  0.00     0.006 A 
ATOM      7  C   UNL     1      35.863   9.130  53.880  1.00  0.00     0.006 A 
ENDBRANCH   1   2
BRANCH   1   8
ATOM      8  O   UNL     1      32.823   7.605  52.459  1.00  0.00    -0.392 OA
ATOM      9  H   UNL     1      32.633   6.735  52.019  1.00  0.00     0.211 HD
ENDBRANCH   1   8
TORSDOF 2
ENDMDL
MODEL 2
REMARK VINA RESULT:    -3.927      0.052      1.714
REMARK INTER + INTRA:          -4.291
REMARK INTER:                  -4.272
REMARK INTRA:                  -0.019
REMARK UNBOUND:                -0.020
REMARK SMILES OCc1ccccc1
REMARK SMILES IDX 2 1 3 2 6 3 5 4 7 5 4 6 8 7 1 8
REMARK H PARENT 1 9
REMARK Flexibility Score: inf
ROOT
ATOM      1  C   UNL     1      34.216   7.608  52.815  1.00  0.00     0.191 C 
ENDROOT
BRANCH   1   2
ATOM      2  C   UNL     1      34.556   8.865  53.568  1.00  0.00    -0.023 A 
ATOM      3  C   UNL     1      35.186  11.168  55.042  1.00  0.00     0.000 A 
ATOM      4  C   UNL     1      36.202  10.290  54.650  1.00  0.00     0.000 A 
ATOM      5  C   UNL     1      33.857  10.894  54.708  1.00  0.00     0.000 A 
ATOM      6  C   UNL     1      35.889   9.139  53.920  1.00  0.00     0.006 A 
ATOM      7  C   UNL     1      33.540   9.743  53.978  1.00  0.00     0.006 A 
ENDBRANCH   1   2
BRANCH   1   8
ATOM      8  O   UNL     1      32.864   7.616  52.452  1.00  0.00    -0.392 OA
ATOM      9  H   UNL     1      32.524   8.529  52.645  1.00  0.00     0.211 HD
ENDBRANCH   1   8
TORSDOF 2
ENDMDL
MODEL 3
REMARK VINA RESULT:    -3.880     21.007     21.375
REMARK INTER + INTRA:          -4.240
REMARK INTER:                  -4.221
REMARK INTRA:                  -0.020
REMARK UNBOUND:                -0.020
REMARK SMILES OCc1ccccc1
REMARK SMILES IDX 2 1 3 2 6 3 5 4 7 5 4 6 8 7 1 8
REMARK H PARENT 1 9
REMARK Flexibility Score: inf
ROOT
ATOM      1  C   UNL     1      33.521  25.820  39.614  1.00  0.00     0.191 C 
ENDROOT
BRANCH   1   2
ATOM      2  C   UNL     1      33.896  24.584  38.843  1.00  0.00    -0.023 A 
ATOM      3  C   UNL     1      34.604  22.239  37.477  1.00  0.00     0.000 A 
ATOM      4  C   UNL     1      33.273  22.458  37.843  1.00  0.00     0.000 A 
ATOM      5  C   UNL     1      35.583  23.182  37.799  1.00  0.00     0.000 A 
ATOM      6  C   UNL     1      32.919  23.624  38.529  1.00  0.00     0.006 A 
ATOM      7  C   UNL     1      35.233  24.350  38.486  1.00  0.00     0.006 A 
ENDBRANCH   1   2
BRANCH   1   8
ATOM      8  O   UNL     1      32.202  25.720  40.072  1.00  0.00    -0.392 OA
ATOM      9  H   UNL     1      31.622  25.696  39.266  1.00  0.00     0.211 HD
ENDBRANCH   1   8
TORSDOF 2
ENDMDL
MODEL 4
REMARK VINA RESULT:    -3.862     20.465     20.711
REMARK INTER + INTRA:          -4.220
REMARK INTER:                  -4.203
REMARK INTRA:                  -0.017
REMARK UNBOUND:                -0.020
REMARK SMILES OCc1ccccc1
REMARK SMILES IDX 2 1 3 2 6 3 5 4 7 5 4 6 8 7 1 8
REMARK H PARENT 1 9
REMARK Flexibility Score: inf
ROOT
ATOM      1  C   UNL     1      32.828  23.709  38.434  1.00  0.00     0.191 C 
ENDROOT
BRANCH   1   2
ATOM      2  C   UNL     1      33.662  22.517  38.052  1.00  0.00    -0.023 A 
ATOM      3  C   UNL     1      35.240  20.286  37.417  1.00  0.00     0.000 A 
ATOM      4  C   UNL     1      33.921  20.109  37.846  1.00  0.00     0.000 A 
ATOM      5  C   UNL     1      35.775  21.572  37.313  1.00  0.00     0.000 A 
ATOM      6  C   UNL     1      33.135  21.220  38.169  1.00  0.00     0.006 A 
ATOM      7  C   UNL     1      34.992  22.686  37.635  1.00  0.00     0.006 A 
ENDBRANCH   1   2
BRANCH   1   8
ATOM      8  O   UNL     1      33.272  24.846  37.748  1.00  0.00    -0.392 OA
ATOM      9  H   UNL     1      34.253  24.744  37.634  1.00  0.00     0.211 HD
ENDBRANCH   1   8
TORSDOF 2
ENDMDL
MODEL 5
REMARK VINA RESULT:    -3.856      1.458      2.557
REMARK INTER + INTRA:          -4.213
REMARK INTER:                  -4.199
REMARK INTRA:                  -0.014
REMARK UNBOUND:                -0.020
REMARK SMILES OCc1ccccc1
REMARK SMILES IDX 2 1 3 2 6 3 5 4 7 5 4 6 8 7 1 8
REMARK H PARENT 1 9
REMARK Flexibility Score: inf
ROOT
ATOM      1  C   UNL     1      34.671   8.963  53.894  1.00  0.00     0.191 C 
ENDROOT
BRANCH   1   2
ATOM      2  C   UNL     1      34.784  10.420  54.248  1.00  0.00    -0.023 A 
ATOM      3  C   UNL     1      34.985  13.120  54.985  1.00  0.00     0.000 A 
ATOM      4  C   UNL     1      36.122  12.306  55.000  1.00  0.00     0.000 A 
ATOM      5  C   UNL     1      33.748  12.588  54.613  1.00  0.00     0.000 A 
ATOM      6  C   UNL     1      36.022  10.959  54.638  1.00  0.00     0.006 A 
ATOM      7  C   UNL     1      33.644  11.240  54.251  1.00  0.00     0.006 A 
ENDBRANCH   1   2
BRANCH   1   8
ATOM      8  O   UNL     1      33.606   8.380  54.592  1.00  0.00    -0.392 OA
ATOM      9  H   UNL     1      33.983   7.613  55.097  1.00  0.00     0.211 HD
ENDBRANCH   1   8
TORSDOF 2
ENDMDL
MODEL 6
REMARK VINA RESULT:    -3.705      3.050      4.422
REMARK INTER + INTRA:          -4.050
REMARK INTER:                  -4.033
REMARK INTRA:                  -0.017
REMARK UNBOUND:                -0.020
REMARK SMILES OCc1ccccc1
REMARK SMILES IDX 2 1 3 2 6 3 5 4 7 5 4 6 8 7 1 8
REMARK H PARENT 1 9
REMARK Flexibility Score: inf
ROOT
ATOM      1  C   UNL     1      33.871  14.411  53.887  1.00  0.00     0.191 C 
ENDROOT
BRANCH   1   2
ATOM      2  C   UNL     1      34.331  13.036  54.287  1.00  0.00    -0.023 A 
ATOM      3  C   UNL     1      35.217  10.460  54.958  1.00  0.00     0.000 A 
ATOM      4  C   UNL     1      36.085  11.550  55.074  1.00  0.00     0.000 A 
ATOM      5  C   UNL     1      33.911  10.652  54.500  1.00  0.00     0.000 A 
ATOM      6  C   UNL     1      35.647  12.833  54.734  1.00  0.00     0.006 A 
ATOM      7  C   UNL     1      33.469  11.935  54.159  1.00  0.00     0.006 A 
ENDBRANCH   1   2
BRANCH   1   8
ATOM      8  O   UNL     1      32.481  14.514  54.027  1.00  0.00    -0.392 OA
ATOM      9  H   UNL     1      32.318  15.143  54.777  1.00  0.00     0.211 HD
ENDBRANCH   1   8
TORSDOF 2
ENDMDL
MODEL 7
REMARK VINA RESULT:    -3.696      2.472      3.561
REMARK INTER + INTRA:          -4.040
REMARK INTER:                  -4.022
REMARK INTRA:                  -0.018
REMARK UNBOUND:                -0.020
REMARK SMILES OCc1ccccc1
REMARK SMILES IDX 2 1 3 2 6 3 5 4 7 5 4 6 8 7 1 8
REMARK H PARENT 1 9
REMARK Flexibility Score: inf
ROOT
ATOM      1  C   UNL     1      33.002  13.558  53.405  1.00  0.00     0.191 C 
ENDROOT
BRANCH   1   2
ATOM      2  C   UNL     1      33.822  12.409  53.923  1.00  0.00    -0.023 A 
ATOM      3  C   UNL     1      35.307  10.266  54.958  1.00  0.00     0.000 A 
ATOM      4  C   UNL     1      34.120  10.021  54.261  1.00  0.00     0.000 A 
ATOM      5  C   UNL     1      35.749  11.577  55.147  1.00  0.00     0.000 A 
ATOM      6  C   UNL     1      33.376  11.088  53.750  1.00  0.00     0.006 A 
ATOM      7  C   UNL     1      35.007  12.648  54.637  1.00  0.00     0.006 A 
ENDBRANCH   1   2
BRANCH   1   8
ATOM      8  O   UNL     1      32.166  13.124  52.369  1.00  0.00    -0.392 OA
ATOM      9  H   UNL     1      31.952  13.926  51.822  1.00  0.00     0.211 HD
ENDBRANCH   1   8
TORSDOF 2
ENDMDL
MODEL 8
REMARK VINA RESULT:    -3.466     19.801     19.970
REMARK INTER + INTRA:          -3.790
REMARK INTER:                  -3.774
REMARK INTRA:                  -0.016
REMARK UNBOUND:                -0.020
REMARK SMILES OCc1ccccc1
REMARK SMILES IDX 2 1 3 2 6 3 5 4 7 5 4 6 8 7 1 8
REMARK H PARENT 1 9
REMARK Flexibility Score: inf
ROOT
ATOM      1  C   UNL     1      34.626  18.847  38.087  1.00  0.00     0.191 C 
ENDROOT
BRANCH   1   2
ATOM      2  C   UNL     1      34.539  20.337  37.902  1.00  0.00    -0.023 A 
ATOM      3  C   UNL     1      34.403  23.126  37.632  1.00  0.00     0.000 A 
ATOM      4  C   UNL     1      35.602  22.457  37.368  1.00  0.00     0.000 A 
ATOM      5  C   UNL     1      33.275  22.408  38.038  1.00  0.00     0.000 A 
ATOM      6  C   UNL     1      35.673  21.068  37.508  1.00  0.00     0.006 A 
ATOM      7  C   UNL     1      33.343  21.017  38.179  1.00  0.00     0.006 A 
ENDBRANCH   1   2
BRANCH   1   8
ATOM      8  O   UNL     1      35.519  18.298  37.158  1.00  0.00    -0.392 OA
ATOM      9  H   UNL     1      36.092  17.660  37.659  1.00  0.00     0.211 HD
ENDBRANCH   1   8
TORSDOF 2
ENDMDL
MODEL 9
REMARK VINA RESULT:    -3.459     19.158     19.410
REMARK INTER + INTRA:          -3.782
REMARK INTER:                  -3.767
REMARK INTRA:                  -0.015
REMARK UNBOUND:                -0.020
REMARK SMILES OCc1ccccc1
REMARK SMILES IDX 2 1 3 2 6 3 5 4 7 5 4 6 8 7 1 8
REMARK H PARENT 1 9
REMARK Flexibility Score: inf
ROOT
ATOM      1  C   UNL     1      32.797  19.797  40.164  1.00  0.00     0.191 C 
ENDROOT
BRANCH   1   2
ATOM      2  C   UNL     1      33.356  20.742  39.135  1.00  0.00    -0.023 A 
ATOM      3  C   UNL     1      34.461  22.517  37.265  1.00  0.00     0.000 A 
ATOM      4  C   UNL     1      34.832  21.169  37.252  1.00  0.00     0.000 A 
ATOM      5  C   UNL     1      33.547  22.982  38.215  1.00  0.00     0.000 A 
ATOM      6  C   UNL     1      34.286  20.284  38.187  1.00  0.00     0.006 A 
ATOM      7  C   UNL     1      32.999  22.100  39.152  1.00  0.00     0.006 A 
ENDBRANCH   1   2
BRANCH   1   8
ATOM      8  O   UNL     1      31.443  20.076  40.388  1.00  0.00    -0.392 OA
ATOM      9  H   UNL     1      31.194  19.612  41.230  1.00  0.00     0.211 HD
ENDBRANCH   1   8
TORSDOF 2
ENDMDL
