MODEL 1
REMARK VINA RESULT:    -3.912      0.000      0.000
REMARK INTER + INTRA:          -6.910
REMARK INTER:                  -5.970
REMARK INTRA:                  -0.940
REMARK UNBOUND:                -0.940
REMARK SMILES O=C([O-])CCCCCCCCC(=O)[O-]
REMARK SMILES IDX 7 1 6 2 5 3 4 4 2 5 1 6 3 7 8 8 9 9 10 10 11 11 12 12 13 13
REMARK SMILES IDX 14 14
REMARK H PARENT
REMARK Flexibility Score: inf
ROOT
ATOM      1  C   UNL     1      23.144   4.333  17.549  1.00  0.00     0.000 C 
ENDROOT
BRANCH   1   2
ATOM      2  C   UNL     1      22.924   3.852  18.992  1.00  0.00     0.000 C 
BRANCH   2   3
ATOM      3  C   UNL     1      21.648   3.005  19.146  1.00  0.00     0.006 C 
BRANCH   3   4
ATOM      4  C   UNL     1      21.961   1.548  19.513  1.00  0.00     0.053 C 
BRANCH   4   5
ATOM      5  C   UNL     1      21.356   0.588  18.536  1.00  0.00     0.041 C 
ATOM      6  O   UNL     1      21.803   0.515  17.360  1.00  0.00    -0.550 OA
ATOM      7  O   UNL     1      20.321  -0.248  18.932  1.00  0.00    -0.550 OA
ENDBRANCH   4   5
ENDBRANCH   3   4
ENDBRANCH   2   3
ENDBRANCH   1   2
BRANCH   1   8
ATOM      8  C   UNL     1      24.551   4.008  17.026  1.00  0.00     0.000 C 
BRANCH   8   9
ATOM      9  C   UNL     1      25.273   3.034  17.963  1.00  0.00     0.000 C 
BRANCH   9  10
ATOM     10  C   UNL     1      25.403   1.647  17.324  1.00  0.00     0.006 C 
BRANCH  10  11
ATOM     11  C   UNL     1      25.232   0.541  18.369  1.00  0.00     0.053 C 
BRANCH  11  12
ATOM     12  C   UNL     1      25.089  -0.792  17.704  1.00  0.00     0.041 C 
ATOM     13  O   UNL     1      24.752  -0.863  16.492  1.00  0.00    -0.550 OA
ATOM     14  O   UNL     1      25.378  -1.955  18.408  1.00  0.00    -0.550 OA
ENDBRANCH  11  12
ENDBRANCH  10  11
ENDBRANCH   9  10
ENDBRANCH   8   9
ENDBRANCH   1   8
TORSDOF 9
ENDMDL
MODEL 2
REMARK VINA RESULT:    -3.796     10.085     11.484
REMARK INTER + INTRA:          -6.733
REMARK INTER:                  -6.101
REMARK INTRA:                  -0.632
REMARK UNBOUND:                -0.940
REMARK SMILES O=C([O-])CCCCCCCCC(=O)[O-]
REMARK SMILES IDX 7 1 6 2 5 3 4 4 2 5 1 6 3 7 8 8 9 9 10 10 11 11 12 12 13 13
REMARK SMILES IDX 14 14
REMARK H PARENT
REMARK Flexibility Score: inf
ROOT
ATOM      1  C   UNL     1      28.828   2.071   9.497  1.00  0.00     0.000 C 
ENDROOT
BRANCH   1   2
ATOM      2  C   UNL     1      28.755   3.089  10.646  1.00  0.00     0.000 C 
BRANCH   2   3
ATOM      3  C   UNL     1      27.569   4.059  10.502  1.00  0.00     0.006 C 
BRANCH   3   4
ATOM      4  C   UNL     1      26.692   3.724   9.287  1.00  0.00     0.053 C 
BRANCH   4   5
ATOM      5  C   UNL     1      26.406   4.939   8.459  1.00  0.00     0.041 C 
ATOM      6  O   UNL     1      27.086   5.988   8.616  1.00  0.00    -0.550 OA
ATOM      7  O   UNL     1      25.412   4.902   7.491  1.00  0.00    -0.550 OA
ENDBRANCH   4   5
ENDBRANCH   3   4
ENDBRANCH   2   3
ENDBRANCH   1   2
BRANCH   1   8
ATOM      8  C   UNL     1      29.061   0.636   9.993  1.00  0.00     0.000 C 
BRANCH   8   9
ATOM      9  C   UNL     1      28.573  -0.387   8.961  1.00  0.00     0.000 C 
BRANCH   9  10
ATOM     10  C   UNL     1      28.960   0.036   7.538  1.00  0.00     0.006 C 
BRANCH  10  11
ATOM     11  C   UNL     1      27.774  -0.105   6.581  1.00  0.00     0.053 C 
BRANCH  11  12
ATOM     12  C   UNL     1      27.680   1.090   5.684  1.00  0.00     0.041 C 
ATOM     13  O   UNL     1      28.079   2.216   6.084  1.00  0.00    -0.550 OA
ATOM     14  O   UNL     1      27.198   0.950   4.388  1.00  0.00    -0.550 OA
ENDBRANCH  11  12
ENDBRANCH  10  11
ENDBRANCH   9  10
ENDBRANCH   8   9
ENDBRANCH   1   8
TORSDOF 9
ENDMDL
MODEL 3
REMARK VINA RESULT:    -3.753      0.745      3.997
REMARK INTER + INTRA:          -6.668
REMARK INTER:                  -5.836
REMARK INTRA:                  -0.832
REMARK UNBOUND:                -0.940
REMARK SMILES O=C([O-])CCCCCCCCC(=O)[O-]
REMARK SMILES IDX 7 1 6 2 5 3 4 4 2 5 1 6 3 7 8 8 9 9 10 10 11 11 12 12 13 13
REMARK SMILES IDX 14 14
REMARK H PARENT
REMARK Flexibility Score: inf
ROOT
ATOM      1  C   UNL     1      24.523   3.416  18.863  1.00  0.00     0.000 C 
ENDROOT
BRANCH   1   2
ATOM      2  C   UNL     1      24.981   3.048  17.442  1.00  0.00     0.000 C 
BRANCH   2   3
ATOM      3  C   UNL     1      25.707   1.692  17.388  1.00  0.00     0.006 C 
BRANCH   3   4
ATOM      4  C   UNL     1      24.985   0.616  18.211  1.00  0.00     0.053 C 
BRANCH   4   5
ATOM      5  C   UNL     1      24.994  -0.712  17.517  1.00  0.00     0.041 C 
ATOM      6  O   UNL     1      24.739  -0.785  16.286  1.00  0.00    -0.550 OA
ATOM      7  O   UNL     1      25.318  -1.863  18.222  1.00  0.00    -0.550 OA
ENDBRANCH   4   5
ENDBRANCH   3   4
ENDBRANCH   2   3
ENDBRANCH   1   2
BRANCH   1   8
ATOM      8  C   UNL     1      23.095   3.980  18.895  1.00  0.00     0.000 C 
BRANCH   8   9
ATOM      9  C   UNL     1      22.096   2.982  18.297  1.00  0.00     0.000 C 
BRANCH   9  10
ATOM     10  C   UNL     1      21.205   2.373  19.386  1.00  0.00     0.006 C 
BRANCH  10  11
ATOM     11  C   UNL     1      21.607   0.925  19.679  1.00  0.00     0.053 C 
BRANCH  11  12
ATOM     12  C   UNL     1      20.852  -0.018  18.794  1.00  0.00     0.041 C 
ATOM     13  O   UNL     1      19.635  -0.256  19.014  1.00  0.00    -0.550 OA
ATOM     14  O   UNL     1      21.480  -0.594  17.697  1.00  0.00    -0.550 OA
ENDBRANCH  11  12
ENDBRANCH  10  11
ENDBRANCH   9  10
ENDBRANCH   8   9
ENDBRANCH   1   8
TORSDOF 9
ENDMDL
MODEL 4
REMARK VINA RESULT:    -3.731      9.783     11.568
REMARK INTER + INTRA:          -6.634
REMARK INTER:                  -6.098
REMARK INTRA:                  -0.536
REMARK UNBOUND:                -0.940
REMARK SMILES O=C([O-])CCCCCCCCC(=O)[O-]
REMARK SMILES IDX 7 1 6 2 5 3 4 4 2 5 1 6 3 7 8 8 9 9 10 10 11 11 12 12 13 13
REMARK SMILES IDX 14 14
REMARK H PARENT
REMARK Flexibility Score: inf
ROOT
ATOM      1  C   UNL     1      28.188   2.745   7.861  1.00  0.00     0.000 C 
ENDROOT
BRANCH   1   2
ATOM      2  C   UNL     1      27.718   1.423   8.488  1.00  0.00     0.000 C 
BRANCH   2   3
ATOM      3  C   UNL     1      28.850   0.386   8.599  1.00  0.00     0.006 C 
BRANCH   3   4
ATOM      4  C   UNL     1      28.401  -0.883   9.338  1.00  0.00     0.053 C 
BRANCH   4   5
ATOM      5  C   UNL     1      28.436  -2.085   8.445  1.00  0.00     0.041 C 
ATOM      6  O   UNL     1      28.133  -3.221   8.899  1.00  0.00    -0.550 OA
ATOM      7  O   UNL     1      28.771  -1.947   7.105  1.00  0.00    -0.550 OA
ENDBRANCH   4   5
ENDBRANCH   3   4
ENDBRANCH   2   3
ENDBRANCH   1   2
BRANCH   1   8
ATOM      8  C   UNL     1      28.706   3.743   8.907  1.00  0.00     0.000 C 
BRANCH   8   9
ATOM      9  C   UNL     1      27.801   3.761  10.144  1.00  0.00     0.000 C 
BRANCH   9  10
ATOM     10  C   UNL     1      26.538   4.592   9.892  1.00  0.00     0.006 C 
BRANCH  10  11
ATOM     11  C   UNL     1      26.862   5.860   9.098  1.00  0.00     0.053 C 
BRANCH  11  12
ATOM     12  C   UNL     1      25.866   6.061   8.000  1.00  0.00     0.041 C 
ATOM     13  O   UNL     1      25.093   7.055   8.019  1.00  0.00    -0.550 OA
ATOM     14  O   UNL     1      25.825   5.177   6.928  1.00  0.00    -0.550 OA
ENDBRANCH  11  12
ENDBRANCH  10  11
ENDBRANCH   9  10
ENDBRANCH   8   9
ENDBRANCH   1   8
TORSDOF 9
ENDMDL
MODEL 5
REMARK VINA RESULT:    -3.722      9.809     11.630
REMARK INTER + INTRA:          -6.620
REMARK INTER:                  -5.629
REMARK INTRA:                  -0.992
REMARK UNBOUND:                -0.940
REMARK SMILES O=C([O-])CCCCCCCCC(=O)[O-]
REMARK SMILES IDX 7 1 6 2 5 3 4 4 2 5 1 6 3 7 8 8 9 9 10 10 11 11 12 12 13 13
REMARK SMILES IDX 14 14
REMARK H PARENT
REMARK Flexibility Score: inf
ROOT
ATOM      1  C   UNL     1      28.459   2.153   9.072  1.00  0.00     0.000 C 
ENDROOT
BRANCH   1   2
ATOM      2  C   UNL     1      28.434   1.662   7.616  1.00  0.00     0.000 C 
BRANCH   2   3
ATOM      3  C   UNL     1      27.610   2.580   6.696  1.00  0.00     0.006 C 
BRANCH   3   4
ATOM      4  C   UNL     1      26.177   2.068   6.500  1.00  0.00     0.053 C 
BRANCH   4   5
ATOM      5  C   UNL     1      25.198   2.821   7.347  1.00  0.00     0.041 C 
ATOM      6  O   UNL     1      24.613   3.838   6.888  1.00  0.00    -0.550 OA
ATOM      7  O   UNL     1      24.908   2.382   8.631  1.00  0.00    -0.550 OA
ENDBRANCH   4   5
ENDBRANCH   3   4
ENDBRANCH   2   3
ENDBRANCH   1   2
BRANCH   1   8
ATOM      8  C   UNL     1      28.379   3.683   9.181  1.00  0.00     0.000 C 
BRANCH   8   9
ATOM      9  C   UNL     1      27.503   4.104  10.366  1.00  0.00     0.000 C 
BRANCH   9  10
ATOM     10  C   UNL     1      26.699   5.367  10.036  1.00  0.00     0.006 C 
BRANCH  10  11
ATOM     11  C   UNL     1      26.947   5.816   8.594  1.00  0.00     0.053 C 
BRANCH  11  12
ATOM     12  C   UNL     1      26.512   7.236   8.405  1.00  0.00     0.041 C 
ATOM     13  O   UNL     1      25.469   7.660   8.969  1.00  0.00    -0.550 OA
ATOM     14  O   UNL     1      27.287   8.104   7.645  1.00  0.00    -0.550 OA
ENDBRANCH  11  12
ENDBRANCH  10  11
ENDBRANCH   9  10
ENDBRANCH   8   9
ENDBRANCH   1   8
TORSDOF 9
ENDMDL
MODEL 6
REMARK VINA RESULT:    -3.719      9.458     10.702
REMARK INTER + INTRA:          -6.615
REMARK INTER:                  -5.941
REMARK INTRA:                  -0.674
REMARK UNBOUND:                -0.940
REMARK SMILES O=C([O-])CCCCCCCCC(=O)[O-]
REMARK SMILES IDX 7 1 6 2 5 3 4 4 2 5 1 6 3 7 8 8 9 9 10 10 11 11 12 12 13 13
REMARK SMILES IDX 14 14
REMARK H PARENT
REMARK Flexibility Score: inf
ROOT
ATOM      1  C   UNL     1      28.030   3.988  10.711  1.00  0.00     0.000 C 
ENDROOT
BRANCH   1   2
ATOM      2  C   UNL     1      26.628   4.294  10.163  1.00  0.00     0.000 C 
BRANCH   2   3
ATOM      3  C   UNL     1      26.422   5.789   9.863  1.00  0.00     0.006 C 
BRANCH   3   4
ATOM      4  C   UNL     1      26.697   6.127   8.390  1.00  0.00     0.053 C 
BRANCH   4   5
ATOM      5  C   UNL     1      25.666   5.527   7.484  1.00  0.00     0.041 C 
ATOM      6  O   UNL     1      24.490   5.979   7.475  1.00  0.00    -0.550 OA
ATOM      7  O   UNL     1      26.013   4.493   6.625  1.00  0.00    -0.550 OA
ENDBRANCH   4   5
ENDBRANCH   3   4
ENDBRANCH   2   3
ENDBRANCH   1   2
BRANCH   1   8
ATOM      8  C   UNL     1      28.661   2.748  10.062  1.00  0.00     0.000 C 
BRANCH   8   9
ATOM      9  C   UNL     1      28.552   2.813   8.534  1.00  0.00     0.000 C 
BRANCH   9  10
ATOM     10  C   UNL     1      28.412   1.410   7.931  1.00  0.00     0.006 C 
BRANCH  10  11
ATOM     11  C   UNL     1      28.751   0.331   8.963  1.00  0.00     0.053 C 
BRANCH  11  12
ATOM     12  C   UNL     1      28.381  -1.024   8.446  1.00  0.00     0.041 C 
ATOM     13  O   UNL     1      28.176  -1.198   7.215  1.00  0.00    -0.550 OA
ATOM     14  O   UNL     1      28.313  -2.105   9.316  1.00  0.00    -0.550 OA
ENDBRANCH  11  12
ENDBRANCH  10  11
ENDBRANCH   9  10
ENDBRANCH   8   9
ENDBRANCH   1   8
TORSDOF 9
ENDMDL
MODEL 7
REMARK VINA RESULT:    -3.706      2.839      4.711
REMARK INTER + INTRA:          -6.596
REMARK INTER:                  -5.739
REMARK INTRA:                  -0.857
REMARK UNBOUND:                -0.940
REMARK SMILES O=C([O-])CCCCCCCCC(=O)[O-]
REMARK SMILES IDX 7 1 6 2 5 3 4 4 2 5 1 6 3 7 8 8 9 9 10 10 11 11 12 12 13 13
REMARK SMILES IDX 14 14
REMARK H PARENT
REMARK Flexibility Score: inf
ROOT
ATOM      1  C   UNL     1      25.355   1.361  17.332  1.00  0.00     0.000 C 
ENDROOT
BRANCH   1   2
ATOM      2  C   UNL     1      24.963   0.617  18.618  1.00  0.00     0.000 C 
BRANCH   2   3
ATOM      3  C   UNL     1      23.853  -0.423  18.385  1.00  0.00     0.006 C 
BRANCH   3   4
ATOM      4  C   UNL     1      22.790   0.077  17.396  1.00  0.00     0.053 C 
BRANCH   4   5
ATOM      5  C   UNL     1      21.713   0.855  18.087  1.00  0.00     0.041 C 
ATOM      6  O   UNL     1      21.385   0.571  19.270  1.00  0.00    -0.550 OA
ATOM      7  O   UNL     1      21.094   1.914  17.438  1.00  0.00    -0.550 OA
ENDBRANCH   4   5
ENDBRANCH   3   4
ENDBRANCH   2   3
ENDBRANCH   1   2
BRANCH   1   8
ATOM      8  C   UNL     1      25.362   2.886  17.510  1.00  0.00     0.000 C 
BRANCH   8   9
ATOM      9  C   UNL     1      24.488   3.304  18.698  1.00  0.00     0.000 C 
BRANCH   9  10
ATOM     10  C   UNL     1      23.428   4.326  18.271  1.00  0.00     0.006 C 
BRANCH  10  11
ATOM     11  C   UNL     1      23.793   4.970  16.931  1.00  0.00     0.053 C 
BRANCH  11  12
ATOM     12  C   UNL     1      23.503   6.438  16.958  1.00  0.00     0.041 C 
ATOM     13  O   UNL     1      23.413   7.086  15.881  1.00  0.00    -0.550 OA
ATOM     14  O   UNL     1      23.281   7.081  18.169  1.00  0.00    -0.550 OA
ENDBRANCH  11  12
ENDBRANCH  10  11
ENDBRANCH   9  10
ENDBRANCH   8   9
ENDBRANCH   1   8
TORSDOF 9
ENDMDL
MODEL 8
REMARK VINA RESULT:    -3.703      3.925      6.227
REMARK INTER + INTRA:          -6.591
REMARK INTER:                  -6.166
REMARK INTRA:                  -0.425
REMARK UNBOUND:                -0.940
REMARK SMILES O=C([O-])CCCCCCCCC(=O)[O-]
REMARK SMILES IDX 7 1 6 2 5 3 4 4 2 5 1 6 3 7 8 8 9 9 10 10 11 11 12 12 13 13
REMARK SMILES IDX 14 14
REMARK H PARENT
REMARK Flexibility Score: inf
ROOT
ATOM      1  C   UNL     1      24.155   3.428  18.473  1.00  0.00     0.000 C 
ENDROOT
BRANCH   1   2
ATOM      2  C   UNL     1      24.960   2.921  17.266  1.00  0.00     0.000 C 
BRANCH   2   3
ATOM      3  C   UNL     1      25.718   1.616  17.567  1.00  0.00     0.006 C 
BRANCH   3   4
ATOM      4  C   UNL     1      24.798   0.533  18.148  1.00  0.00     0.053 C 
BRANCH   4   5
ATOM      5  C   UNL     1      24.874  -0.739  17.361  1.00  0.00     0.041 C 
ATOM      6  O   UNL     1      25.077  -1.835  17.947  1.00  0.00    -0.550 OA
ATOM      7  O   UNL     1      24.688  -0.718  15.986  1.00  0.00    -0.550 OA
ENDBRANCH   4   5
ENDBRANCH   3   4
ENDBRANCH   2   3
ENDBRANCH   1   2
BRANCH   1   8
ATOM      8  C   UNL     1      23.442   4.758  18.191  1.00  0.00     0.000 C 
BRANCH   8   9
ATOM      9  C   UNL     1      23.658   5.200  16.739  1.00  0.00     0.000 C 
BRANCH   9  10
ATOM     10  C   UNL     1      23.826   6.721  16.644  1.00  0.00     0.006 C 
BRANCH  10  11
ATOM     11  C   UNL     1      23.435   7.401  17.959  1.00  0.00     0.053 C 
BRANCH  11  12
ATOM     12  C   UNL     1      23.499   8.890  17.819  1.00  0.00     0.041 C 
ATOM     13  O   UNL     1      23.018   9.632  18.716  1.00  0.00    -0.550 OA
ATOM     14  O   UNL     1      24.134   9.458  16.722  1.00  0.00    -0.550 OA
ENDBRANCH  11  12
ENDBRANCH  10  11
ENDBRANCH   9  10
ENDBRANCH   8   9
ENDBRANCH   1   8
TORSDOF 9
ENDMDL
MODEL 9
REMARK VINA RESULT:    -3.668      9.682     11.291
REMARK INTER + INTRA:          -6.538
REMARK INTER:                  -5.538
REMARK INTRA:                  -1.001
REMARK UNBOUND:                -0.940
REMARK SMILES O=C([O-])CCCCCCCCC(=O)[O-]
REMARK SMILES IDX 7 1 6 2 5 3 4 4 2 5 1 6 3 7 8 8 9 9 10 10 11 11 12 12 13 13
REMARK SMILES IDX 14 14
REMARK H PARENT
REMARK Flexibility Score: inf
ROOT
ATOM      1  C   UNL     1      28.645   3.610   9.301  1.00  0.00     0.000 C 
ENDROOT
BRANCH   1   2
ATOM      2  C   UNL     1      27.613   3.984  10.377  1.00  0.00     0.000 C 
BRANCH   2   3
ATOM      3  C   UNL     1      26.791   5.230  10.001  1.00  0.00     0.006 C 
BRANCH   3   4
ATOM      4  C   UNL     1      27.096   5.714   8.576  1.00  0.00     0.053 C 
BRANCH   4   5
ATOM      5  C   UNL     1      26.501   7.063   8.311  1.00  0.00     0.041 C 
ATOM      6  O   UNL     1      27.197   7.972   7.786  1.00  0.00    -0.550 OA
ATOM      7  O   UNL     1      25.168   7.307   8.614  1.00  0.00    -0.550 OA
ENDBRANCH   4   5
ENDBRANCH   3   4
ENDBRANCH   2   3
ENDBRANCH   1   2
BRANCH   1   8
ATOM      8  C   UNL     1      28.386   2.225   8.690  1.00  0.00     0.000 C 
BRANCH   8   9
ATOM      9  C   UNL     1      28.384   2.293   7.158  1.00  0.00     0.000 C 
BRANCH   9  10
ATOM     10  C   UNL     1      26.953   2.368   6.611  1.00  0.00     0.006 C 
BRANCH  10  11
ATOM     11  C   UNL     1      25.952   1.779   7.608  1.00  0.00     0.053 C 
BRANCH  11  12
ATOM     12  C   UNL     1      24.894   2.784   7.943  1.00  0.00     0.041 C 
ATOM     13  O   UNL     1      24.553   3.651   7.097  1.00  0.00    -0.550 OA
ATOM     14  O   UNL     1      24.249   2.730   9.173  1.00  0.00    -0.550 OA
ENDBRANCH  11  12
ENDBRANCH  10  11
ENDBRANCH   9  10
ENDBRANCH   8   9
ENDBRANCH   1   8
TORSDOF 9
ENDMDL
