MODEL 1
REMARK VINA RESULT:    -5.349      0.000      0.000
REMARK INTER + INTRA:          -5.505
REMARK INTER:                  -5.505
REMARK INTRA:                   0.000
REMARK UNBOUND:                 0.000
REMARK SMILES Nc1ncnc2nc[nH]c12
REMARK SMILES IDX 8 1 7 2 6 3 5 4 4 5 3 6 2 7 10 8 9 9 1 11
REMARK H PARENT 9 10 1 12 1 13
REMARK Flexibility Score: inf
ROOT
ATOM      1  C   UNL     1      97.508 106.655 100.668  1.00  0.00     0.199 A 
ATOM      2  N   UNL     1      98.646 106.041 100.242  1.00  0.00    -0.217 NA
ATOM      3  C   UNL     1      98.616 104.882 100.919  1.00  0.00     0.182 A 
ATOM      4  N   UNL     1      99.533 103.887 100.859  1.00  0.00    -0.215 NA
ATOM      5  C   UNL     1      99.329 102.774 101.627  1.00  0.00     0.226 A 
ATOM      6  N   UNL     1      98.222 102.677 102.433  1.00  0.00    -0.217 NA
ATOM      7  C   UNL     1      97.296 103.679 102.494  1.00  0.00     0.152 A 
ATOM      8  C   UNL     1      97.518 104.806 101.706  1.00  0.00     0.127 A 
ATOM      9  N   UNL     1      96.797 105.925 101.564  1.00  0.00    -0.340 N 
ATOM     10  H   UNL     1      95.898 106.185 102.026  1.00  0.00     0.168 HD
ENDROOT
BRANCH   7  11
ATOM     11  N   UNL     1      96.152 103.557 103.339  1.00  0.00    -0.382 N 
ATOM     12  H   UNL     1      95.327 104.188 103.234  1.00  0.00     0.158 HD
ATOM     13  H   UNL     1      96.128 102.823 104.082  1.00  0.00     0.158 HD
ENDBRANCH   7  11
TORSDOF 1
ENDMDL
MODEL 2
REMARK VINA RESULT:    -5.306      1.753      2.896
REMARK INTER + INTRA:          -5.461
REMARK INTER:                  -5.461
REMARK INTRA:                   0.000
REMARK UNBOUND:                 0.000
REMARK SMILES Nc1ncnc2nc[nH]c12
REMARK SMILES IDX 8 1 7 2 6 3 5 4 4 5 3 6 2 7 10 8 9 9 1 11
REMARK H PARENT 9 10 1 12 1 13
REMARK Flexibility Score: inf
ROOT
ATOM      1  C   UNL     1      94.924 103.621 100.832  1.00  0.00     0.199 A 
ATOM      2  N   UNL     1      96.007 102.898 100.435  1.00  0.00    -0.217 NA
ATOM      3  C   UNL     1      97.009 103.777 100.592  1.00  0.00     0.182 A 
ATOM      4  N   UNL     1      98.322 103.561 100.335  1.00  0.00    -0.215 NA
ATOM      5  C   UNL     1      99.201 104.584 100.558  1.00  0.00     0.226 A 
ATOM      6  N   UNL     1      98.757 105.793 101.032  1.00  0.00    -0.217 NA
ATOM      7  C   UNL     1      97.434 106.013 101.293  1.00  0.00     0.152 A 
ATOM      8  C   UNL     1      96.551 104.962 101.059  1.00  0.00     0.127 A 
ATOM      9  N   UNL     1      95.224 104.887 101.219  1.00  0.00    -0.340 N 
ATOM     10  H   UNL     1      94.566 105.621 101.561  1.00  0.00     0.168 HD
ENDROOT
BRANCH   7  11
ATOM     11  N   UNL     1      96.994 107.279 101.784  1.00  0.00    -0.382 N 
ATOM     12  H   UNL     1      96.005 107.593 101.673  1.00  0.00     0.158 HD
ATOM     13  H   UNL     1      97.668 107.914 102.268  1.00  0.00     0.158 HD
ENDBRANCH   7  11
TORSDOF 1
ENDMDL
MODEL 3
REMARK VINA RESULT:    -5.239      2.651      3.574
REMARK INTER + INTRA:          -5.392
REMARK INTER:                  -5.392
REMARK INTRA:                   0.000
REMARK UNBOUND:                 0.000
REMARK SMILES Nc1ncnc2nc[nH]c12
REMARK SMILES IDX 8 1 7 2 6 3 5 4 4 5 3 6 2 7 10 8 9 9 1 11
REMARK H PARENT 9 10 1 12 1 13
REMARK Flexibility Score: inf
ROOT
ATOM      1  C   UNL     1      99.229 102.516 101.880  1.00  0.00     0.199 A 
ATOM      2  N   UNL     1      98.718 101.637 100.975  1.00  0.00    -0.217 NA
ATOM      3  C   UNL     1      97.419 101.604 101.312  1.00  0.00     0.182 A 
ATOM      4  N   UNL     1      96.448 100.872 100.716  1.00  0.00    -0.215 NA
ATOM      5  C   UNL     1      95.174 100.970 101.203  1.00  0.00     0.226 A 
ATOM      6  N   UNL     1      94.896 101.791 102.267  1.00  0.00    -0.217 NA
ATOM      7  C   UNL     1      95.875 102.531 102.869  1.00  0.00     0.152 A 
ATOM      8  C   UNL     1      97.166 102.420 102.362  1.00  0.00     0.127 A 
ATOM      9  N   UNL     1      98.305 103.011 102.743  1.00  0.00    -0.340 N 
ATOM     10  H   UNL     1      98.459 103.695 103.516  1.00  0.00     0.168 HD
ENDROOT
BRANCH   7  11
ATOM     11  N   UNL     1      95.563 103.378 103.975  1.00  0.00    -0.382 N 
ATOM     12  H   UNL     1      95.325 102.986 104.913  1.00  0.00     0.158 HD
ATOM     13  H   UNL     1      95.569 104.416 103.856  1.00  0.00     0.158 HD
ENDBRANCH   7  11
TORSDOF 1
ENDMDL
MODEL 4
REMARK VINA RESULT:    -4.929      1.465      3.699
REMARK INTER + INTRA:          -5.073
REMARK INTER:                  -5.073
REMARK INTRA:                   0.000
REMARK UNBOUND:                 0.000
REMARK SMILES Nc1ncnc2nc[nH]c12
REMARK SMILES IDX 8 1 7 2 6 3 5 4 4 5 3 6 2 7 10 8 9 9 1 11
REMARK H PARENT 9 10 1 12 1 13
REMARK Flexibility Score: inf
ROOT
ATOM      1  C   UNL     1      99.354 101.705 101.594  1.00  0.00     0.199 A 
ATOM      2  N   UNL     1      98.035 101.503 101.321  1.00  0.00    -0.217 NA
ATOM      3  C   UNL     1      97.579 102.757 101.171  1.00  0.00     0.182 A 
ATOM      4  N   UNL     1      96.308 103.125 100.884  1.00  0.00    -0.215 NA
ATOM      5  C   UNL     1      96.033 104.460 100.769  1.00  0.00     0.226 A 
ATOM      6  N   UNL     1      97.025 105.393 100.941  1.00  0.00    -0.217 NA
ATOM      7  C   UNL     1      98.308 105.023 101.230  1.00  0.00     0.152 A 
ATOM      8  C   UNL     1      98.572 103.660 101.344  1.00  0.00     0.127 A 
ATOM      9  N   UNL     1      99.712 103.014 101.616  1.00  0.00    -0.340 N 
ATOM     10  H   UNL     1     100.659 103.411 101.801  1.00  0.00     0.168 HD
ENDROOT
BRANCH   7  11
ATOM     11  N   UNL     1      99.324 106.010 101.405  1.00  0.00    -0.382 N 
ATOM     12  H   UNL     1      99.104 106.956 101.790  1.00  0.00     0.158 HD
ATOM     13  H   UNL     1     100.312 105.795 101.146  1.00  0.00     0.158 HD
ENDBRANCH   7  11
TORSDOF 1
ENDMDL
MODEL 5
REMARK VINA RESULT:    -4.890      0.983      2.942
REMARK INTER + INTRA:          -5.033
REMARK INTER:                  -5.033
REMARK INTRA:                   0.000
REMARK UNBOUND:                 0.000
REMARK SMILES Nc1ncnc2nc[nH]c12
REMARK SMILES IDX 8 1 7 2 6 3 5 4 4 5 3 6 2 7 10 8 9 9 1 11
REMARK H PARENT 9 10 1 12 1 13
REMARK Flexibility Score: inf
ROOT
ATOM      1  C   UNL     1      99.728 101.888 101.517  1.00  0.00     0.199 A 
ATOM      2  N   UNL     1     100.278 102.990 100.938  1.00  0.00    -0.217 NA
ATOM      3  C   UNL     1      99.334 103.922 101.145  1.00  0.00     0.182 A 
ATOM      4  N   UNL     1      99.383 105.221 100.761  1.00  0.00    -0.215 NA
ATOM      5  C   UNL     1      98.318 106.024 101.064  1.00  0.00     0.226 A 
ATOM      6  N   UNL     1      97.235 105.520 101.739  1.00  0.00    -0.217 NA
ATOM      7  C   UNL     1      97.185 104.210 102.129  1.00  0.00     0.152 A 
ATOM      8  C   UNL     1      98.277 103.406 101.812  1.00  0.00     0.127 A 
ATOM      9  N   UNL     1      98.503 102.110 102.060  1.00  0.00    -0.340 N 
ATOM     10  H   UNL     1      97.893 101.423 102.553  1.00  0.00     0.168 HD
ENDROOT
BRANCH   7  11
ATOM     11  N   UNL     1      96.048 103.707 102.830  1.00  0.00    -0.382 N 
ATOM     12  H   UNL     1      95.917 103.882 103.851  1.00  0.00     0.158 HD
ATOM     13  H   UNL     1      95.325 103.150 102.323  1.00  0.00     0.158 HD
ENDBRANCH   7  11
TORSDOF 1
ENDMDL
MODEL 6
REMARK VINA RESULT:    -4.783      1.667      3.223
REMARK INTER + INTRA:          -4.923
REMARK INTER:                  -4.923
REMARK INTRA:                   0.000
REMARK UNBOUND:                 0.000
REMARK SMILES Nc1ncnc2nc[nH]c12
REMARK SMILES IDX 8 1 7 2 6 3 5 4 4 5 3 6 2 7 10 8 9 9 1 11
REMARK H PARENT 9 10 1 12 1 13
REMARK Flexibility Score: inf
ROOT
ATOM      1  C   UNL     1      96.150 102.965 102.696  1.00  0.00     0.199 A 
ATOM      2  N   UNL     1      96.222 102.320 101.500  1.00  0.00    -0.217 NA
ATOM      3  C   UNL     1      97.012 103.135 100.783  1.00  0.00     0.182 A 
ATOM      4  N   UNL     1      97.408 102.954  99.500  1.00  0.00    -0.215 NA
ATOM      5  C   UNL     1      98.220 103.899  98.936  1.00  0.00     0.226 A 
ATOM      6  N   UNL     1      98.618 104.996  99.657  1.00  0.00    -0.217 NA
ATOM      7  C   UNL     1      98.220 105.180 100.952  1.00  0.00     0.152 A 
ATOM      8  C   UNL     1      97.394 104.209 101.512  1.00  0.00     0.127 A 
ATOM      9  N   UNL     1      96.855 104.124 102.735  1.00  0.00    -0.340 N 
ATOM     10  H   UNL     1      96.950 104.785 103.537  1.00  0.00     0.168 HD
ENDROOT
BRANCH   7  11
ATOM     11  N   UNL     1      98.646 106.329 101.683  1.00  0.00    -0.382 N 
ATOM     12  H   UNL     1      98.928 107.210 101.199  1.00  0.00     0.158 HD
ATOM     13  H   UNL     1      98.681 106.301 102.727  1.00  0.00     0.158 HD
ENDBRANCH   7  11
TORSDOF 1
ENDMDL
MODEL 7
REMARK VINA RESULT:    -4.732      1.508      3.409
REMARK INTER + INTRA:          -4.870
REMARK INTER:                  -4.870
REMARK INTRA:                   0.000
REMARK UNBOUND:                 0.000
REMARK SMILES Nc1ncnc2nc[nH]c12
REMARK SMILES IDX 8 1 7 2 6 3 5 4 4 5 3 6 2 7 10 8 9 9 1 11
REMARK H PARENT 9 10 1 12 1 13
REMARK Flexibility Score: inf
ROOT
ATOM      1  C   UNL     1      95.714 102.150 102.347  1.00  0.00     0.199 A 
ATOM      2  N   UNL     1      95.855 103.476 102.074  1.00  0.00    -0.217 NA
ATOM      3  C   UNL     1      97.159 103.567 101.767  1.00  0.00     0.182 A 
ATOM      4  N   UNL     1      97.830 104.689 101.413  1.00  0.00    -0.215 NA
ATOM      5  C   UNL     1      99.165 104.584 101.134  1.00  0.00     0.226 A 
ATOM      6  N   UNL     1      99.798 103.369 101.213  1.00  0.00    -0.217 NA
ATOM      7  C   UNL     1      99.123 102.235 101.569  1.00  0.00     0.152 A 
ATOM      8  C   UNL     1      97.765 102.360 101.850  1.00  0.00     0.127 A 
ATOM      9  N   UNL     1      96.864 101.441 102.219  1.00  0.00    -0.340 N 
ATOM     10  H   UNL     1      97.001 100.418 102.373  1.00  0.00     0.168 HD
ENDROOT
BRANCH   7  11
ATOM     11  N   UNL     1      99.802 100.982 101.644  1.00  0.00    -0.382 N 
ATOM     12  H   UNL     1     100.206 100.634 102.542  1.00  0.00     0.158 HD
ATOM     13  H   UNL     1      99.906 100.391 100.789  1.00  0.00     0.158 HD
ENDBRANCH   7  11
TORSDOF 1
ENDMDL
MODEL 8
REMARK VINA RESULT:    -4.722      2.343      3.490
REMARK INTER + INTRA:          -4.860
REMARK INTER:                  -4.860
REMARK INTRA:                   0.000
REMARK UNBOUND:                 0.000
REMARK SMILES Nc1ncnc2nc[nH]c12
REMARK SMILES IDX 8 1 7 2 6 3 5 4 4 5 3 6 2 7 10 8 9 9 1 11
REMARK H PARENT 9 10 1 12 1 13
REMARK Flexibility Score: inf
ROOT
ATOM      1  C   UNL     1      96.004 100.493 100.500  1.00  0.00     0.199 A 
ATOM      2  N   UNL     1      96.820 101.173  99.648  1.00  0.00    -0.217 NA
ATOM      3  C   UNL     1      97.093 102.289 100.344  1.00  0.00     0.182 A 
ATOM      4  N   UNL     1      97.876 103.319  99.945  1.00  0.00    -0.215 NA
ATOM      5  C   UNL     1      98.036 104.377 100.797  1.00  0.00     0.226 A 
ATOM      6  N   UNL     1      97.417 104.384 102.022  1.00  0.00    -0.217 NA
ATOM      7  C   UNL     1      96.627 103.345 102.427  1.00  0.00     0.152 A 
ATOM      8  C   UNL     1      96.474 102.276 101.548  1.00  0.00     0.127 A 
ATOM      9  N   UNL     1      95.773 101.142 101.670  1.00  0.00    -0.340 N 
ATOM     10  H   UNL     1      95.186 100.820 102.470  1.00  0.00     0.168 HD
ENDROOT
BRANCH   7  11
ATOM     11  N   UNL     1      95.993 103.374 103.705  1.00  0.00    -0.382 N 
ATOM     12  H   UNL     1      95.032 102.990 103.846  1.00  0.00     0.158 HD
ATOM     13  H   UNL     1      96.490 103.786 104.526  1.00  0.00     0.158 HD
ENDBRANCH   7  11
TORSDOF 1
ENDMDL
MODEL 9
REMARK VINA RESULT:    -4.714      1.287      2.671
REMARK INTER + INTRA:          -4.852
REMARK INTER:                  -4.852
REMARK INTRA:                   0.000
REMARK UNBOUND:                 0.000
REMARK SMILES Nc1ncnc2nc[nH]c12
REMARK SMILES IDX 8 1 7 2 6 3 5 4 4 5 3 6 2 7 10 8 9 9 1 11
REMARK H PARENT 9 10 1 12 1 13
REMARK Flexibility Score: inf
ROOT
ATOM      1  C   UNL     1      98.987 105.554 101.223  1.00  0.00     0.199 A 
ATOM      2  N   UNL     1      97.645 105.561 101.448  1.00  0.00    -0.217 NA
ATOM      3  C   UNL     1      97.385 104.261 101.664  1.00  0.00     0.182 A 
ATOM      4  N   UNL     1      96.177 103.713 101.941  1.00  0.00    -0.215 NA
ATOM      5  C   UNL     1      96.110 102.361 102.133  1.00  0.00     0.226 A 
ATOM      6  N   UNL     1      97.241 101.588 102.047  1.00  0.00    -0.217 NA
ATOM      7  C   UNL     1      98.461 102.140 101.769  1.00  0.00     0.152 A 
ATOM      8  C   UNL     1      98.512 103.517 101.576  1.00  0.00     0.127 A 
ATOM      9  N   UNL     1      99.547 104.319 101.294  1.00  0.00    -0.340 N 
ATOM     10  H   UNL     1     100.550 104.067 101.161  1.00  0.00     0.168 HD
ENDROOT
BRANCH   7  11
ATOM     11  N   UNL     1      99.624 101.317 101.685  1.00  0.00    -0.382 N 
ATOM     12  H   UNL     1     100.507 101.664 101.250  1.00  0.00     0.158 HD
ATOM     13  H   UNL     1      99.604 100.343 102.062  1.00  0.00     0.158 HD
ENDBRANCH   7  11
TORSDOF 1
ENDMDL
