MODEL 1
REMARK VINA RESULT:    28.923      0.000      0.000
REMARK INTER + INTRA:          34.532
REMARK INTER:                  34.841
REMARK INTRA:                  -0.309
REMARK UNBOUND:                -0.309
REMARK SMILES O=c1c(O)c(-c2ccc(O)c(O)c2)oc2cc(O)cc(O)c12
REMARK SMILES IDX 5 1 3 2 2 3 1 4 22 5 20 6 19 7 17 8 16 9 15 10 14 11 6 12
REMARK SMILES IDX 7 13 8 14 9 15 13 16 11 17 10 18 12 20 4 22 21 24 18 26
REMARK H PARENT 10 19 12 21 4 23 21 25 18 27
REMARK Flexibility Score: inf
ROOT
ATOM      1  C   UNL     1     -39.088  24.831   4.335  1.00  0.00     0.180 A 
ATOM      2  C   UNL     1     -39.626  26.089   4.665  1.00  0.00     0.208 A 
ATOM      3  C   UNL     1     -39.629  27.103   3.693  1.00  0.00     0.238 A 
ATOM      4  O   UNL     1     -40.119  28.230   3.974  1.00  0.00    -0.285 OA
ATOM      5  C   UNL     1     -39.078  26.849   2.421  1.00  0.00     0.111 A 
ATOM      6  C   UNL     1     -39.038  27.817   1.388  1.00  0.00     0.134 A 
ATOM      7  C   UNL     1     -38.463  27.489   0.150  1.00  0.00     0.093 A 
ATOM      8  C   UNL     1     -37.928  26.218  -0.074  1.00  0.00     0.123 A 
ATOM      9  C   UNL     1     -37.966  25.259   0.943  1.00  0.00     0.094 A 
ATOM     10  C   UNL     1     -38.535  25.564   2.182  1.00  0.00     0.146 A 
ATOM     11  O   UNL     1     -38.563  24.633   3.129  1.00  0.00    -0.452 OA
ENDROOT
BRANCH   1  12
ATOM     12  C   UNL     1     -39.066  23.708   5.298  1.00  0.00     0.025 A 
ATOM     13  C   UNL     1     -40.108  22.769   5.287  1.00  0.00     0.016 A 
ATOM     14  C   UNL     1     -40.119  21.714   6.200  1.00  0.00     0.051 A 
ATOM     15  C   UNL     1     -39.101  21.583   7.152  1.00  0.00     0.157 A 
ATOM     16  C   UNL     1     -38.055  23.592   6.267  1.00  0.00     0.062 A 
ATOM     17  C   UNL     1     -38.058  22.539   7.190  1.00  0.00     0.158 A 
BRANCH  15  18
ATOM     18  O   UNL     1     -39.166  20.500   8.032  1.00  0.00    -0.504 OA
ATOM     19  H   UNL     1     -40.013  19.990   8.238  1.00  0.00     0.293 HD
ENDBRANCH  15  18
BRANCH  17  20
ATOM     20  O   UNL     1     -37.021  22.485   8.123  1.00  0.00    -0.504 OA
ATOM     21  H   UNL     1     -36.936  21.772   8.834  1.00  0.00     0.293 HD
ENDBRANCH  17  20
ENDBRANCH   1  12
BRANCH   2  22
ATOM     22  O   UNL     1     -40.122  26.330   5.949  1.00  0.00    -0.502 OA
ATOM     23  H   UNL     1     -40.496  27.230   6.227  1.00  0.00     0.293 HD
ENDBRANCH   2  22
BRANCH   6  24
ATOM     24  O   UNL     1     -39.561  29.095   1.581  1.00  0.00    -0.507 OA
ATOM     25  H   UNL     1     -39.116  29.767   2.195  1.00  0.00     0.293 HD
ENDBRANCH   6  24
BRANCH   8  26
ATOM     26  O   UNL     1     -37.363  25.920  -1.311  1.00  0.00    -0.508 OA
ATOM     27  H   UNL     1     -37.542  26.492  -2.127  1.00  0.00     0.293 HD
ENDBRANCH   8  26
TORSDOF 6
ENDMDL
