MODEL 1
REMARK VINA RESULT:     2.527      0.000      0.000
REMARK INTER + INTRA:           3.056
REMARK INTER:                   3.118
REMARK INTRA:                  -0.061
REMARK UNBOUND:                -0.061
REMARK SMILES CCCCCC(=O)[O-]
REMARK SMILES IDX 4 1 5 2 6 3 7 4 8 5 3 6 2 7 1 8
REMARK H PARENT
REMARK Flexibility Score: inf
ROOT
ATOM      1  C   UNL     1      17.256  17.380  17.019  1.00  0.00     0.006 C 
ENDROOT
BRANCH   1   2
ATOM      2  C   UNL     1      16.544  17.642  15.689  1.00  0.00     0.053 C 
BRANCH   2   3
ATOM      3  C   UNL     1      17.474  17.403  14.541  1.00  0.00     0.041 C 
ATOM      4  O   UNL     1      17.774  16.229  14.202  1.00  0.00    -0.550 OA
ATOM      5  O   UNL     1      18.046  18.480  13.875  1.00  0.00    -0.550 OA
ENDBRANCH   2   3
ENDBRANCH   1   2
BRANCH   1   6
ATOM      6  C   UNL     1      16.343  17.707  18.206  1.00  0.00     0.000 C 
BRANCH   6   7
ATOM      7  C   UNL     1      16.795  16.966  19.469  1.00  0.00    -0.003 C 
ATOM      8  C   UNL     1      18.194  17.404  19.895  1.00  0.00     0.004 C 
ENDBRANCH   6   7
ENDBRANCH   1   6
TORSDOF 4
ENDMDL
MODEL 2
REMARK VINA RESULT:     3.005      3.030      4.650
REMARK INTER + INTRA:           3.647
REMARK INTER:                   3.701
REMARK INTRA:                  -0.054
REMARK UNBOUND:                -0.061
REMARK SMILES CCCCCC(=O)[O-]
REMARK SMILES IDX 4 1 5 2 6 3 7 4 8 5 3 6 2 7 1 8
REMARK H PARENT
REMARK Flexibility Score: inf
ROOT
ATOM      1  C   UNL     1      17.355  17.440  16.900  1.00  0.00     0.006 C 
ENDROOT
BRANCH   1   2
ATOM      2  C   UNL     1      16.394  17.727  18.057  1.00  0.00     0.053 C 
BRANCH   2   3
ATOM      3  C   UNL     1      16.871  17.064  19.311  1.00  0.00     0.041 C 
ATOM      4  O   UNL     1      16.162  16.190  19.874  1.00  0.00    -0.550 OA
ATOM      5  O   UNL     1      18.077  17.449  19.885  1.00  0.00    -0.550 OA
ENDBRANCH   2   3
ENDBRANCH   1   2
BRANCH   1   6
ATOM      6  C   UNL     1      16.665  17.651  15.547  1.00  0.00     0.000 C 
BRANCH   6   7
ATOM      7  C   UNL     1      17.661  17.496  14.392  1.00  0.00    -0.003 C 
ATOM      8  C   UNL     1      17.706  16.056  13.891  1.00  0.00     0.004 C 
ENDBRANCH   6   7
ENDBRANCH   1   6
TORSDOF 4
ENDMDL
MODEL 3
REMARK VINA RESULT:     5.204      3.846      4.882
REMARK INTER + INTRA:           6.359
REMARK INTER:                   6.469
REMARK INTRA:                  -0.110
REMARK UNBOUND:                -0.061
REMARK SMILES CCCCCC(=O)[O-]
REMARK SMILES IDX 4 1 5 2 6 3 7 4 8 5 3 6 2 7 1 8
REMARK H PARENT
REMARK Flexibility Score: inf
ROOT
ATOM      1  C   UNL     1      16.971  17.522  19.476  1.00  0.00     0.006 C 
ENDROOT
BRANCH   1   2
ATOM      2  C   UNL     1      17.980  17.148  20.565  1.00  0.00     0.053 C 
BRANCH   2   3
ATOM      3  C   UNL     1      19.240  17.939  20.407  1.00  0.00     0.041 C 
ATOM      4  O   UNL     1      20.013  17.712  19.441  1.00  0.00    -0.550 OA
ATOM      5  O   UNL     1      19.584  18.894  21.356  1.00  0.00    -0.550 OA
ENDBRANCH   2   3
ENDBRANCH   1   2
BRANCH   1   6
ATOM      6  C   UNL     1      15.832  16.498  19.405  1.00  0.00     0.000 C 
BRANCH   6   7
ATOM      7  C   UNL     1      16.070  15.341  20.382  1.00  0.00    -0.003 C 
ATOM      8  C   UNL     1      14.921  14.337  20.340  1.00  0.00     0.004 C 
ENDBRANCH   6   7
ENDBRANCH   1   6
TORSDOF 4
ENDMDL
MODEL 4
REMARK VINA RESULT:     5.453      3.502      4.766
REMARK INTER + INTRA:           6.666
REMARK INTER:                   6.784
REMARK INTRA:                  -0.118
REMARK UNBOUND:                -0.061
REMARK SMILES CCCCCC(=O)[O-]
REMARK SMILES IDX 4 1 5 2 6 3 7 4 8 5 3 6 2 7 1 8
REMARK H PARENT
REMARK Flexibility Score: inf
ROOT
ATOM      1  C   UNL     1      18.326  17.910  20.977  1.00  0.00     0.006 C 
ENDROOT
BRANCH   1   2
ATOM      2  C   UNL     1      18.062  17.092  19.710  1.00  0.00     0.053 C 
BRANCH   2   3
ATOM      3  C   UNL     1      16.614  17.152  19.340  1.00  0.00     0.041 C 
ATOM      4  O   UNL     1      16.168  18.125  18.679  1.00  0.00    -0.550 OA
ATOM      5  O   UNL     1      15.746  16.154  19.768  1.00  0.00    -0.550 OA
ENDBRANCH   2   3
ENDBRANCH   1   2
BRANCH   1   6
ATOM      6  C   UNL     1      19.751  18.474  20.983  1.00  0.00     0.000 C 
BRANCH   6   7
ATOM      7  C   UNL     1      20.567  17.919  19.809  1.00  0.00    -0.003 C 
ATOM      8  C   UNL     1      22.059  17.906  20.131  1.00  0.00     0.004 C 
ENDBRANCH   6   7
ENDBRANCH   1   6
TORSDOF 4
ENDMDL
