MODEL 1
REMARK VINA RESULT:    -3.275      0.000      0.000
REMARK INTER + INTRA:          -3.850
REMARK INTER:                  -3.754
REMARK INTRA:                  -0.096
REMARK UNBOUND:                -0.096
REMARK SMILES COc1cc(C(=O)[O-])ccc1O
REMARK SMILES IDX 5 1 9 2 4 3 10 4 3 5 11 6 6 7 7 8 8 9 2 10 1 11 12 12
REMARK H PARENT 12 13
REMARK Flexibility Score: inf
ROOT
ATOM      1  C   UNL     1     -28.403  21.224  46.691  1.00  0.00     0.001 A 
ATOM      2  C   UNL     1     -27.498  20.188  46.413  1.00  0.00     0.014 A 
ATOM      3  C   UNL     1     -29.282  21.653  45.681  1.00  0.00     0.060 A 
ATOM      4  C   UNL     1     -27.471  19.592  45.151  1.00  0.00     0.051 A 
ATOM      5  C   UNL     1     -29.259  21.055  44.405  1.00  0.00     0.161 A 
ATOM      6  C   UNL     1     -28.345  20.019  44.148  1.00  0.00     0.157 A 
ENDROOT
BRANCH   1   7
ATOM      7  C   UNL     1     -28.435  21.858  48.029  1.00  0.00     0.072 C 
ATOM      8  O   UNL     1     -27.500  22.617  48.400  1.00  0.00    -0.545 OA
ATOM      9  O   UNL     1     -29.497  21.626  48.894  1.00  0.00    -0.545 OA
ENDBRANCH   1   7
BRANCH   5  10
ATOM     10  O   UNL     1     -30.125  21.463  43.377  1.00  0.00    -0.493 OA
ATOM     11  C   UNL     1     -29.944  22.631  42.583  1.00  0.00     0.278 C 
ENDBRANCH   5  10
BRANCH   6  12
ATOM     12  O   UNL     1     -28.289  19.399  42.899  1.00  0.00    -0.504 OA
ATOM     13  H   UNL     1     -28.062  18.418  42.792  1.00  0.00     0.293 HD
ENDBRANCH   6  12
TORSDOF 3
ENDMDL
MODEL 2
REMARK VINA RESULT:    -3.248      4.329      7.816
REMARK INTER + INTRA:          -3.819
REMARK INTER:                  -3.741
REMARK INTRA:                  -0.078
REMARK UNBOUND:                -0.096
REMARK SMILES COc1cc(C(=O)[O-])ccc1O
REMARK SMILES IDX 5 1 9 2 4 3 10 4 3 5 11 6 6 7 7 8 8 9 2 10 1 11 12 12
REMARK H PARENT 12 13
REMARK Flexibility Score: inf
ROOT
ATOM      1  C   UNL     1     -28.953  22.275  50.607  1.00  0.00     0.001 A 
ATOM      2  C   UNL     1     -29.814  23.135  51.307  1.00  0.00     0.014 A 
ATOM      3  C   UNL     1     -28.070  21.455  51.330  1.00  0.00     0.060 A 
ATOM      4  C   UNL     1     -29.792  23.175  52.703  1.00  0.00     0.051 A 
ATOM      5  C   UNL     1     -28.043  21.491  52.739  1.00  0.00     0.161 A 
ATOM      6  C   UNL     1     -28.914  22.359  53.420  1.00  0.00     0.157 A 
ENDROOT
BRANCH   1   7
ATOM      7  C   UNL     1     -28.974  22.229  49.127  1.00  0.00     0.072 C 
ATOM      8  O   UNL     1     -30.042  21.970  48.509  1.00  0.00    -0.545 OA
ATOM      9  O   UNL     1     -27.816  22.472  48.398  1.00  0.00    -0.545 OA
ENDBRANCH   1   7
BRANCH   5  10
ATOM     10  O   UNL     1     -27.171  20.684  53.488  1.00  0.00    -0.493 OA
ATOM     11  C   UNL     1     -26.722  19.393  53.090  1.00  0.00     0.278 C 
ENDBRANCH   5  10
BRANCH   6  12
ATOM     12  O   UNL     1     -28.920  22.427  54.814  1.00  0.00    -0.504 OA
ATOM     13  H   UNL     1     -29.353  21.713  55.388  1.00  0.00     0.293 HD
ENDBRANCH   6  12
TORSDOF 3
ENDMDL
MODEL 3
REMARK VINA RESULT:    -2.987      1.285      2.970
REMARK INTER + INTRA:          -3.520
REMARK INTER:                  -3.433
REMARK INTRA:                  -0.087
REMARK UNBOUND:                -0.096
REMARK SMILES COc1cc(C(=O)[O-])ccc1O
REMARK SMILES IDX 5 1 9 2 4 3 10 4 3 5 11 6 6 7 7 8 8 9 2 10 1 11 12 12
REMARK H PARENT 12 13
REMARK Flexibility Score: inf
ROOT
ATOM      1  C   UNL     1     -28.818  21.230  47.273  1.00  0.00     0.001 A 
ATOM      2  C   UNL     1     -29.613  21.720  46.225  1.00  0.00     0.014 A 
ATOM      3  C   UNL     1     -27.821  20.280  46.988  1.00  0.00     0.060 A 
ATOM      4  C   UNL     1     -29.416  21.270  44.918  1.00  0.00     0.051 A 
ATOM      5  C   UNL     1     -27.617  19.822  45.670  1.00  0.00     0.161 A 
ATOM      6  C   UNL     1     -28.425  20.327  44.636  1.00  0.00     0.157 A 
ENDROOT
BRANCH   1   7
ATOM      7  C   UNL     1     -29.024  21.704  48.660  1.00  0.00     0.072 C 
ATOM      8  O   UNL     1     -29.991  21.277  49.346  1.00  0.00    -0.545 OA
ATOM      9  O   UNL     1     -28.153  22.628  49.226  1.00  0.00    -0.545 OA
ENDBRANCH   1   7
BRANCH   5  10
ATOM     10  O   UNL     1     -26.629  18.875  45.356  1.00  0.00    -0.493 OA
ATOM     11  C   UNL     1     -25.237  19.047  45.600  1.00  0.00     0.278 C 
ENDBRANCH   5  10
BRANCH   6  12
ATOM     12  O   UNL     1     -28.257  19.901  43.317  1.00  0.00    -0.504 OA
ATOM     13  H   UNL     1     -28.747  20.333  42.543  1.00  0.00     0.293 HD
ENDBRANCH   6  12
TORSDOF 3
ENDMDL
MODEL 4
REMARK VINA RESULT:    -2.919      3.880      7.022
REMARK INTER + INTRA:          -3.442
REMARK INTER:                  -3.368
REMARK INTRA:                  -0.075
REMARK UNBOUND:                -0.096
REMARK SMILES COc1cc(C(=O)[O-])ccc1O
REMARK SMILES IDX 5 1 9 2 4 3 10 4 3 5 11 6 6 7 7 8 8 9 2 10 1 11 12 12
REMARK H PARENT 12 13
REMARK Flexibility Score: inf
ROOT
ATOM      1  C   UNL     1     -29.071  21.786  50.108  1.00  0.00     0.001 A 
ATOM      2  C   UNL     1     -28.620  20.927  51.123  1.00  0.00     0.014 A 
ATOM      3  C   UNL     1     -29.570  23.053  50.457  1.00  0.00     0.060 A 
ATOM      4  C   UNL     1     -28.666  21.326  52.460  1.00  0.00     0.051 A 
ATOM      5  C   UNL     1     -29.619  23.462  51.805  1.00  0.00     0.161 A 
ATOM      6  C   UNL     1     -29.162  22.586  52.806  1.00  0.00     0.157 A 
ENDROOT
BRANCH   1   7
ATOM      7  C   UNL     1     -29.023  21.366  48.689  1.00  0.00     0.072 C 
ATOM      8  O   UNL     1     -29.872  20.555  48.232  1.00  0.00    -0.545 OA
ATOM      9  O   UNL     1     -28.040  21.861  47.840  1.00  0.00    -0.545 OA
ENDBRANCH   1   7
BRANCH   5  10
ATOM     10  O   UNL     1     -30.112  24.721  52.183  1.00  0.00    -0.493 OA
ATOM     11  C   UNL     1     -30.125  25.870  51.343  1.00  0.00     0.278 C 
ENDBRANCH   5  10
BRANCH   6  12
ATOM     12  O   UNL     1     -29.193  22.950  54.152  1.00  0.00    -0.504 OA
ATOM     13  H   UNL     1     -29.150  23.916  54.452  1.00  0.00     0.293 HD
ENDBRANCH   6  12
TORSDOF 3
ENDMDL
MODEL 5
REMARK VINA RESULT:    -2.902      3.885      6.248
REMARK INTER + INTRA:          -3.422
REMARK INTER:                  -3.319
REMARK INTRA:                  -0.103
REMARK UNBOUND:                -0.096
REMARK SMILES COc1cc(C(=O)[O-])ccc1O
REMARK SMILES IDX 5 1 9 2 4 3 10 4 3 5 11 6 6 7 7 8 8 9 2 10 1 11 12 12
REMARK H PARENT 12 13
REMARK Flexibility Score: inf
ROOT
ATOM      1  C   UNL     1     -27.942  21.265  52.158  1.00  0.00     0.001 A 
ATOM      2  C   UNL     1     -27.967  22.657  52.341  1.00  0.00     0.014 A 
ATOM      3  C   UNL     1     -28.660  20.703  51.088  1.00  0.00     0.060 A 
ATOM      4  C   UNL     1     -28.695  23.471  51.472  1.00  0.00     0.051 A 
ATOM      5  C   UNL     1     -29.398  21.520  50.207  1.00  0.00     0.161 A 
ATOM      6  C   UNL     1     -29.408  22.912  50.409  1.00  0.00     0.157 A 
ENDROOT
BRANCH   1   7
ATOM      7  C   UNL     1     -27.171  20.398  53.078  1.00  0.00     0.072 C 
ATOM      8  O   UNL     1     -26.800  20.828  54.203  1.00  0.00    -0.545 OA
ATOM      9  O   UNL     1     -26.843  19.098  52.713  1.00  0.00    -0.545 OA
ENDBRANCH   1   7
BRANCH   5  10
ATOM     10  O   UNL     1     -30.124  20.987  49.131  1.00  0.00    -0.493 OA
ATOM     11  C   UNL     1     -29.551  20.567  47.897  1.00  0.00     0.278 C 
ENDBRANCH   5  10
BRANCH   6  12
ATOM     12  O   UNL     1     -30.125  23.757  49.560  1.00  0.00    -0.504 OA
ATOM     13  H   UNL     1     -30.973  24.225  49.854  1.00  0.00     0.293 HD
ENDBRANCH   6  12
TORSDOF 3
ENDMDL
MODEL 6
REMARK VINA RESULT:    -2.818      1.750      4.633
REMARK INTER + INTRA:          -3.327
REMARK INTER:                  -3.242
REMARK INTRA:                  -0.085
REMARK UNBOUND:                -0.096
REMARK SMILES COc1cc(C(=O)[O-])ccc1O
REMARK SMILES IDX 5 1 9 2 4 3 10 4 3 5 11 6 6 7 7 8 8 9 2 10 1 11 12 12
REMARK H PARENT 12 13
REMARK Flexibility Score: inf
ROOT
ATOM      1  C   UNL     1     -29.068  21.010  44.999  1.00  0.00     0.001 A 
ATOM      2  C   UNL     1     -29.836  21.528  46.055  1.00  0.00     0.014 A 
ATOM      3  C   UNL     1     -28.016  20.125  45.289  1.00  0.00     0.060 A 
ATOM      4  C   UNL     1     -29.557  21.168  47.375  1.00  0.00     0.051 A 
ATOM      5  C   UNL     1     -27.729  19.758  46.620  1.00  0.00     0.161 A 
ATOM      6  C   UNL     1     -28.510  20.288  47.662  1.00  0.00     0.157 A 
ENDROOT
BRANCH   1   7
ATOM      7  C   UNL     1     -29.362  21.389  43.598  1.00  0.00     0.072 C 
ATOM      8  O   UNL     1     -29.004  20.646  42.645  1.00  0.00    -0.545 OA
ATOM      9  O   UNL     1     -30.036  22.571  43.314  1.00  0.00    -0.545 OA
ENDBRANCH   1   7
BRANCH   5  10
ATOM     10  O   UNL     1     -26.684  18.876  46.940  1.00  0.00    -0.493 OA
ATOM     11  C   UNL     1     -25.406  18.875  46.313  1.00  0.00     0.278 C 
ENDBRANCH   5  10
BRANCH   6  12
ATOM     12  O   UNL     1     -28.261  19.951  48.993  1.00  0.00    -0.504 OA
ATOM     13  H   UNL     1     -28.990  19.949  49.695  1.00  0.00     0.293 HD
ENDBRANCH   6  12
TORSDOF 3
ENDMDL
MODEL 7
REMARK VINA RESULT:    -2.737      1.431      4.443
REMARK INTER + INTRA:          -3.234
REMARK INTER:                  -3.130
REMARK INTRA:                  -0.103
REMARK UNBOUND:                -0.096
REMARK SMILES COc1cc(C(=O)[O-])ccc1O
REMARK SMILES IDX 5 1 9 2 4 3 10 4 3 5 11 6 6 7 7 8 8 9 2 10 1 11 12 12
REMARK H PARENT 12 13
REMARK Flexibility Score: inf
ROOT
ATOM      1  C   UNL     1     -28.984  20.764  45.400  1.00  0.00     0.001 A 
ATOM      2  C   UNL     1     -28.386  19.498  45.512  1.00  0.00     0.014 A 
ATOM      3  C   UNL     1     -29.288  21.483  46.569  1.00  0.00     0.060 A 
ATOM      4  C   UNL     1     -28.098  18.961  46.768  1.00  0.00     0.051 A 
ATOM      5  C   UNL     1     -28.999  20.945  47.840  1.00  0.00     0.161 A 
ATOM      6  C   UNL     1     -28.400  19.676  47.930  1.00  0.00     0.157 A 
ENDROOT
BRANCH   1   7
ATOM      7  C   UNL     1     -29.291  21.337  44.069  1.00  0.00     0.072 C 
ATOM      8  O   UNL     1     -29.778  22.495  43.967  1.00  0.00    -0.545 OA
ATOM      9  O   UNL     1     -29.045  20.605  42.913  1.00  0.00    -0.545 OA
ENDBRANCH   1   7
BRANCH   5  10
ATOM     10  O   UNL     1     -29.292  21.640  49.025  1.00  0.00    -0.493 OA
ATOM     11  C   UNL     1     -28.463  22.646  49.598  1.00  0.00     0.278 C 
ENDBRANCH   5  10
BRANCH   6  12
ATOM     12  O   UNL     1     -28.098  19.108  49.167  1.00  0.00    -0.504 OA
ATOM     13  H   UNL     1     -28.812  18.890  49.852  1.00  0.00     0.293 HD
ENDBRANCH   6  12
TORSDOF 3
ENDMDL
MODEL 8
REMARK VINA RESULT:    -2.640      2.411      3.568
REMARK INTER + INTRA:          -3.123
REMARK INTER:                  -3.053
REMARK INTRA:                  -0.070
REMARK UNBOUND:                -0.096
REMARK SMILES COc1cc(C(=O)[O-])ccc1O
REMARK SMILES IDX 5 1 9 2 4 3 10 4 3 5 11 6 6 7 7 8 8 9 2 10 1 11 12 12
REMARK H PARENT 12 13
REMARK Flexibility Score: inf
ROOT
ATOM      1  C   UNL     1     -28.809  22.006  49.760  1.00  0.00     0.001 A 
ATOM      2  C   UNL     1     -29.270  20.722  50.095  1.00  0.00     0.014 A 
ATOM      3  C   UNL     1     -28.323  22.240  48.462  1.00  0.00     0.060 A 
ATOM      4  C   UNL     1     -29.246  19.694  49.151  1.00  0.00     0.051 A 
ATOM      5  C   UNL     1     -28.295  21.205  47.505  1.00  0.00     0.161 A 
ATOM      6  C   UNL     1     -28.762  19.928  47.862  1.00  0.00     0.157 A 
ENDROOT
BRANCH   1   7
ATOM      7  C   UNL     1     -28.834  23.099  50.758  1.00  0.00     0.072 C 
ATOM      8  O   UNL     1     -29.638  24.061  50.634  1.00  0.00    -0.545 OA
ATOM      9  O   UNL     1     -27.970  23.080  51.847  1.00  0.00    -0.545 OA
ENDBRANCH   1   7
BRANCH   5  10
ATOM     10  O   UNL     1     -27.815  21.410  46.201  1.00  0.00    -0.493 OA
ATOM     11  C   UNL     1     -28.627  21.763  45.087  1.00  0.00     0.278 C 
ENDBRANCH   5  10
BRANCH   6  12
ATOM     12  O   UNL     1     -28.753  18.875  46.946  1.00  0.00    -0.504 OA
ATOM     13  H   UNL     1     -28.292  17.995  47.138  1.00  0.00     0.293 HD
ENDBRANCH   6  12
TORSDOF 3
ENDMDL
MODEL 9
REMARK VINA RESULT:    -2.574      2.953      6.101
REMARK INTER + INTRA:          -3.046
REMARK INTER:                  -2.954
REMARK INTRA:                  -0.092
REMARK UNBOUND:                -0.096
REMARK SMILES COc1cc(C(=O)[O-])ccc1O
REMARK SMILES IDX 5 1 9 2 4 3 10 4 3 5 11 6 6 7 7 8 8 9 2 10 1 11 12 12
REMARK H PARENT 12 13
REMARK Flexibility Score: inf
ROOT
ATOM      1  C   UNL     1     -28.974  21.018  48.727  1.00  0.00     0.001 A 
ATOM      2  C   UNL     1     -29.108  19.842  49.483  1.00  0.00     0.014 A 
ATOM      3  C   UNL     1     -28.891  22.253  49.394  1.00  0.00     0.060 A 
ATOM      4  C   UNL     1     -29.158  19.899  50.877  1.00  0.00     0.051 A 
ATOM      5  C   UNL     1     -28.942  22.317  50.801  1.00  0.00     0.161 A 
ATOM      6  C   UNL     1     -29.076  21.126  51.538  1.00  0.00     0.157 A 
ENDROOT
BRANCH   1   7
ATOM      7  C   UNL     1     -28.920  20.961  47.249  1.00  0.00     0.072 C 
ATOM      8  O   UNL     1     -29.829  20.381  46.597  1.00  0.00    -0.545 OA
ATOM      9  O   UNL     1     -27.866  21.547  46.559  1.00  0.00    -0.545 OA
ENDBRANCH   1   7
BRANCH   5  10
ATOM     10  O   UNL     1     -28.861  23.535  51.494  1.00  0.00    -0.493 OA
ATOM     11  C   UNL     1     -29.810  24.591  51.386  1.00  0.00     0.278 C 
ENDBRANCH   5  10
BRANCH   6  12
ATOM     12  O   UNL     1     -29.129  21.144  52.933  1.00  0.00    -0.504 OA
ATOM     13  H   UNL     1     -29.289  20.306  53.478  1.00  0.00     0.293 HD
ENDBRANCH   6  12
TORSDOF 3
ENDMDL
