MODEL 1
REMARK VINA RESULT:    -3.573      0.000      0.000
REMARK INTER + INTRA:          -5.577
REMARK INTER:                  -5.244
REMARK INTRA:                  -0.332
REMARK UNBOUND:                -0.332
REMARK SMILES O=C([O-])CCCCCCCC(=O)[O-]
REMARK SMILES IDX 7 1 6 2 5 3 4 4 2 5 1 6 3 7 8 8 9 9 10 10 11 11 12 12 13 13
REMARK H PARENT
REMARK Flexibility Score: inf
ROOT
ATOM      1  C   UNL     1      38.508   5.162  -8.056  1.00  0.00     0.000 C 
ENDROOT
BRANCH   1   2
ATOM      2  C   UNL     1      37.466   4.929  -6.950  1.00  0.00     0.000 C 
BRANCH   2   3
ATOM      3  C   UNL     1      36.458   6.081  -6.830  1.00  0.00     0.006 C 
BRANCH   3   4
ATOM      4  C   UNL     1      35.062   5.553  -6.486  1.00  0.00     0.053 C 
BRANCH   4   5
ATOM      5  C   UNL     1      34.823   5.622  -5.011  1.00  0.00     0.041 C 
ATOM      6  O   UNL     1      34.326   4.637  -4.403  1.00  0.00    -0.550 OA
ATOM      7  O   UNL     1      35.196   6.754  -4.298  1.00  0.00    -0.550 OA
ENDBRANCH   4   5
ENDBRANCH   3   4
ENDBRANCH   2   3
ENDBRANCH   1   2
BRANCH   1   8
ATOM      8  C   UNL     1      39.820   4.400  -7.800  1.00  0.00     0.000 C 
BRANCH   8   9
ATOM      9  C   UNL     1      39.752   3.516  -6.544  1.00  0.00     0.006 C 
BRANCH   9  10
ATOM     10  C   UNL     1      39.880   2.020  -6.865  1.00  0.00     0.053 C 
BRANCH  10  11
ATOM     11  C   UNL     1      40.664   1.324  -5.798  1.00  0.00     0.041 C 
ATOM     12  O   UNL     1      40.161   0.355  -5.172  1.00  0.00    -0.550 OA
ATOM     13  O   UNL     1      41.934   1.777  -5.461  1.00  0.00    -0.550 OA
ENDBRANCH  10  11
ENDBRANCH   9  10
ENDBRANCH   8   9
ENDBRANCH   1   8
TORSDOF 8
ENDMDL
MODEL 2
REMARK VINA RESULT:    -3.544      5.184      7.608
REMARK INTER + INTRA:          -5.533
REMARK INTER:                  -5.052
REMARK INTRA:                  -0.481
REMARK UNBOUND:                -0.332
REMARK SMILES O=C([O-])CCCCCCCC(=O)[O-]
REMARK SMILES IDX 7 1 6 2 5 3 4 4 2 5 1 6 3 7 8 8 9 9 10 10 11 11 12 12 13 13
REMARK H PARENT
REMARK Flexibility Score: inf
ROOT
ATOM      1  C   UNL     1      31.131   6.086  -7.154  1.00  0.00     0.000 C 
ENDROOT
BRANCH   1   2
ATOM      2  C   UNL     1      29.775   6.768  -6.910  1.00  0.00     0.000 C 
BRANCH   2   3
ATOM      3  C   UNL     1      29.638   8.103  -7.658  1.00  0.00     0.006 C 
BRANCH   3   4
ATOM      4  C   UNL     1      28.496   8.047  -8.675  1.00  0.00     0.053 C 
BRANCH   4   5
ATOM      5  C   UNL     1      28.929   7.326  -9.912  1.00  0.00     0.041 C 
ATOM      6  O   UNL     1      28.098   6.652 -10.577  1.00  0.00    -0.550 OA
ATOM      7  O   UNL     1      30.239   7.438 -10.361  1.00  0.00    -0.550 OA
ENDBRANCH   4   5
ENDBRANCH   3   4
ENDBRANCH   2   3
ENDBRANCH   1   2
BRANCH   1   8
ATOM      8  C   UNL     1      32.270   7.098  -7.365  1.00  0.00     0.000 C 
BRANCH   8   9
ATOM      9  C   UNL     1      33.650   6.510  -7.027  1.00  0.00     0.006 C 
BRANCH   9  10
ATOM     10  C   UNL     1      33.559   5.134  -6.353  1.00  0.00     0.053 C 
BRANCH  10  11
ATOM     11  C   UNL     1      34.456   5.079  -5.157  1.00  0.00     0.041 C 
ATOM     12  O   UNL     1      34.184   4.312  -4.196  1.00  0.00    -0.550 OA
ATOM     13  O   UNL     1      35.566   5.911  -5.082  1.00  0.00    -0.550 OA
ENDBRANCH  10  11
ENDBRANCH   9  10
ENDBRANCH   8   9
ENDBRANCH   1   8
TORSDOF 8
ENDMDL
MODEL 3
REMARK VINA RESULT:    -3.455     10.201     12.615
REMARK INTER + INTRA:          -5.403
REMARK INTER:                  -5.015
REMARK INTRA:                  -0.388
REMARK UNBOUND:                -0.332
REMARK SMILES O=C([O-])CCCCCCCC(=O)[O-]
REMARK SMILES IDX 7 1 6 2 5 3 4 4 2 5 1 6 3 7 8 8 9 9 10 10 11 11 12 12 13 13
REMARK H PARENT
REMARK Flexibility Score: inf
ROOT
ATOM      1  C   UNL     1      32.227  -1.269   3.553  1.00  0.00     0.000 C 
ENDROOT
BRANCH   1   2
ATOM      2  C   UNL     1      31.074  -2.082   2.940  1.00  0.00     0.000 C 
BRANCH   2   3
ATOM      3  C   UNL     1      29.706  -1.715   3.536  1.00  0.00     0.006 C 
BRANCH   3   4
ATOM      4  C   UNL     1      28.568  -2.246   2.660  1.00  0.00     0.053 C 
BRANCH   4   5
ATOM      5  C   UNL     1      27.530  -1.190   2.451  1.00  0.00     0.041 C 
ATOM      6  O   UNL     1      27.821  -0.128   1.839  1.00  0.00    -0.550 OA
ATOM      7  O   UNL     1      26.227  -1.399   2.885  1.00  0.00    -0.550 OA
ENDBRANCH   4   5
ENDBRANCH   3   4
ENDBRANCH   2   3
ENDBRANCH   1   2
BRANCH   1   8
ATOM      8  C   UNL     1      32.969  -0.418   2.508  1.00  0.00     0.000 C 
BRANCH   8   9
ATOM      9  C   UNL     1      32.026   0.524   1.740  1.00  0.00     0.006 C 
BRANCH   9  10
ATOM     10  C   UNL     1      32.123   1.979   2.219  1.00  0.00     0.053 C 
BRANCH  10  11
ATOM     11  C   UNL     1      32.409   2.889   1.067  1.00  0.00     0.041 C 
ATOM     12  O   UNL     1      33.465   2.749   0.396  1.00  0.00    -0.550 OA
ATOM     13  O   UNL     1      31.531   3.923   0.764  1.00  0.00    -0.550 OA
ENDBRANCH  10  11
ENDBRANCH   9  10
ENDBRANCH   8   9
ENDBRANCH   1   8
TORSDOF 8
ENDMDL
MODEL 4
REMARK VINA RESULT:    -3.421      1.635      2.107
REMARK INTER + INTRA:          -5.353
REMARK INTER:                  -4.784
REMARK INTRA:                  -0.570
REMARK UNBOUND:                -0.332
REMARK SMILES O=C([O-])CCCCCCCC(=O)[O-]
REMARK SMILES IDX 7 1 6 2 5 3 4 4 2 5 1 6 3 7 8 8 9 9 10 10 11 11 12 12 13 13
REMARK H PARENT
REMARK Flexibility Score: inf
ROOT
ATOM      1  C   UNL     1      36.106   2.252  -8.016  1.00  0.00     0.000 C 
ENDROOT
BRANCH   1   2
ATOM      2  C   UNL     1      35.949   3.757  -8.292  1.00  0.00     0.000 C 
BRANCH   2   3
ATOM      3  C   UNL     1      35.115   4.474  -7.220  1.00  0.00     0.006 C 
BRANCH   3   4
ATOM      4  C   UNL     1      35.927   5.584  -6.547  1.00  0.00     0.053 C 
BRANCH   4   5
ATOM      5  C   UNL     1      35.402   5.859  -5.173  1.00  0.00     0.041 C 
ATOM      6  O   UNL     1      34.762   4.971  -4.549  1.00  0.00    -0.550 OA
ATOM      7  O   UNL     1      35.663   7.078  -4.560  1.00  0.00    -0.550 OA
ENDBRANCH   4   5
ENDBRANCH   3   4
ENDBRANCH   2   3
ENDBRANCH   1   2
BRANCH   1   8
ATOM      8  C   UNL     1      37.579   1.827  -7.889  1.00  0.00     0.000 C 
BRANCH   8   9
ATOM      9  C   UNL     1      38.550   3.001  -8.092  1.00  0.00     0.006 C 
BRANCH   9  10
ATOM     10  C   UNL     1      39.287   3.391  -6.804  1.00  0.00     0.053 C 
BRANCH  10  11
ATOM     11  C   UNL     1      40.288   2.341  -6.438  1.00  0.00     0.041 C 
ATOM     12  O   UNL     1      41.297   2.146  -7.165  1.00  0.00    -0.550 OA
ATOM     13  O   UNL     1      40.081   1.544  -5.318  1.00  0.00    -0.550 OA
ENDBRANCH  10  11
ENDBRANCH   9  10
ENDBRANCH   8   9
ENDBRANCH   1   8
TORSDOF 8
ENDMDL
MODEL 5
REMARK VINA RESULT:    -3.414      1.007      5.989
REMARK INTER + INTRA:          -5.343
REMARK INTER:                  -4.948
REMARK INTRA:                  -0.394
REMARK UNBOUND:                -0.332
REMARK SMILES O=C([O-])CCCCCCCC(=O)[O-]
REMARK SMILES IDX 7 1 6 2 5 3 4 4 2 5 1 6 3 7 8 8 9 9 10 10 11 11 12 12 13 13
REMARK H PARENT
REMARK Flexibility Score: inf
ROOT
ATOM      1  C   UNL     1      37.645   3.590  -8.015  1.00  0.00     0.000 C 
ENDROOT
BRANCH   1   2
ATOM      2  C   UNL     1      38.671   4.511  -7.335  1.00  0.00     0.000 C 
BRANCH   2   3
ATOM      3  C   UNL     1      39.796   3.733  -6.635  1.00  0.00     0.006 C 
BRANCH   3   4
ATOM      4  C   UNL     1      39.533   2.226  -6.685  1.00  0.00     0.053 C 
BRANCH   4   5
ATOM      5  C   UNL     1      40.471   1.498  -5.775  1.00  0.00     0.041 C 
ATOM      6  O   UNL     1      40.156   0.371  -5.311  1.00  0.00    -0.550 OA
ATOM      7  O   UNL     1      41.716   2.041  -5.480  1.00  0.00    -0.550 OA
ENDBRANCH   4   5
ENDBRANCH   3   4
ENDBRANCH   2   3
ENDBRANCH   1   2
BRANCH   1   8
ATOM      8  C   UNL     1      36.368   4.339  -8.435  1.00  0.00     0.000 C 
BRANCH   8   9
ATOM      9  C   UNL     1      35.332   4.417  -7.302  1.00  0.00     0.006 C 
BRANCH   9  10
ATOM     10  C   UNL     1      35.028   5.859  -6.875  1.00  0.00     0.053 C 
BRANCH  10  11
ATOM     11  C   UNL     1      35.362   6.056  -5.430  1.00  0.00     0.041 C 
ATOM     12  O   UNL     1      36.112   7.004  -5.077  1.00  0.00    -0.550 OA
ATOM     13  O   UNL     1      34.885   5.164  -4.478  1.00  0.00    -0.550 OA
ENDBRANCH  10  11
ENDBRANCH   9  10
ENDBRANCH   8   9
ENDBRANCH   1   8
TORSDOF 8
ENDMDL
MODEL 6
REMARK VINA RESULT:    -3.357      2.001      6.188
REMARK INTER + INTRA:          -5.260
REMARK INTER:                  -4.912
REMARK INTRA:                  -0.347
REMARK UNBOUND:                -0.332
REMARK SMILES O=C([O-])CCCCCCCC(=O)[O-]
REMARK SMILES IDX 7 1 6 2 5 3 4 4 2 5 1 6 3 7 8 8 9 9 10 10 11 11 12 12 13 13
REMARK H PARENT
REMARK Flexibility Score: inf
ROOT
ATOM      1  C   UNL     1      36.924   1.715  -8.284  1.00  0.00     0.000 C 
ENDROOT
BRANCH   1   2
ATOM      2  C   UNL     1      37.063   0.328  -7.635  1.00  0.00     0.000 C 
BRANCH   2   3
ATOM      3  C   UNL     1      38.500   0.024  -7.184  1.00  0.00     0.006 C 
BRANCH   3   4
ATOM      4  C   UNL     1      39.341   1.303  -7.136  1.00  0.00     0.053 C 
BRANCH   4   5
ATOM      5  C   UNL     1      40.329   1.240  -6.015  1.00  0.00     0.041 C 
ATOM      6  O   UNL     1      40.193   0.387  -5.098  1.00  0.00    -0.550 OA
ATOM      7  O   UNL     1      41.429   2.089  -6.008  1.00  0.00    -0.550 OA
ENDBRANCH   4   5
ENDBRANCH   3   4
ENDBRANCH   2   3
ENDBRANCH   1   2
BRANCH   1   8
ATOM      8  C   UNL     1      35.625   2.430  -7.874  1.00  0.00     0.000 C 
BRANCH   8   9
ATOM      9  C   UNL     1      35.816   3.947  -7.708  1.00  0.00     0.006 C 
BRANCH   9  10
ATOM     10  C   UNL     1      34.739   4.586  -6.821  1.00  0.00     0.053 C 
BRANCH  10  11
ATOM     11  C   UNL     1      35.372   5.324  -5.683  1.00  0.00     0.041 C 
ATOM     12  O   UNL     1      34.861   5.274  -4.533  1.00  0.00    -0.550 OA
ATOM     13  O   UNL     1      36.499   6.105  -5.903  1.00  0.00    -0.550 OA
ENDBRANCH  10  11
ENDBRANCH   9  10
ENDBRANCH   8   9
ENDBRANCH   1   8
TORSDOF 8
ENDMDL
MODEL 7
REMARK VINA RESULT:    -3.328      9.782     11.231
REMARK INTER + INTRA:          -5.216
REMARK INTER:                  -4.672
REMARK INTRA:                  -0.545
REMARK UNBOUND:                -0.332
REMARK SMILES O=C([O-])CCCCCCCC(=O)[O-]
REMARK SMILES IDX 7 1 6 2 5 3 4 4 2 5 1 6 3 7 8 8 9 9 10 10 11 11 12 12 13 13
REMARK H PARENT
REMARK Flexibility Score: inf
ROOT
ATOM      1  C   UNL     1      34.994   2.646   4.989  1.00  0.00     0.000 C 
ENDROOT
BRANCH   1   2
ATOM      2  C   UNL     1      36.201   3.590   4.869  1.00  0.00     0.000 C 
BRANCH   2   3
ATOM      3  C   UNL     1      35.880   5.026   5.310  1.00  0.00     0.006 C 
BRANCH   3   4
ATOM      4  C   UNL     1      35.680   5.940   4.098  1.00  0.00     0.053 C 
BRANCH   4   5
ATOM      5  C   UNL     1      34.259   6.400   4.015  1.00  0.00     0.041 C 
ATOM      6  O   UNL     1      33.870   7.079   3.028  1.00  0.00    -0.550 OA
ATOM      7  O   UNL     1      33.351   6.037   5.002  1.00  0.00    -0.550 OA
ENDBRANCH   4   5
ENDBRANCH   3   4
ENDBRANCH   2   3
ENDBRANCH   1   2
BRANCH   1   8
ATOM      8  C   UNL     1      34.551   2.079   3.629  1.00  0.00     0.000 C 
BRANCH   8   9
ATOM      9  C   UNL     1      33.570   3.008   2.895  1.00  0.00     0.006 C 
BRANCH   9  10
ATOM     10  C   UNL     1      33.359   2.608   1.429  1.00  0.00     0.053 C 
BRANCH  10  11
ATOM     11  C   UNL     1      31.923   2.773   1.045  1.00  0.00     0.041 C 
ATOM     12  O   UNL     1      31.477   3.908   0.733  1.00  0.00    -0.550 OA
ATOM     13  O   UNL     1      31.065   1.680   1.077  1.00  0.00    -0.550 OA
ENDBRANCH  10  11
ENDBRANCH   9  10
ENDBRANCH   8   9
ENDBRANCH   1   8
TORSDOF 8
ENDMDL
MODEL 8
REMARK VINA RESULT:    -3.296      5.529      9.552
REMARK INTER + INTRA:          -5.170
REMARK INTER:                  -4.836
REMARK INTRA:                  -0.334
REMARK UNBOUND:                -0.332
REMARK SMILES O=C([O-])CCCCCCCC(=O)[O-]
REMARK SMILES IDX 7 1 6 2 5 3 4 4 2 5 1 6 3 7 8 8 9 9 10 10 11 11 12 12 13 13
REMARK H PARENT
REMARK Flexibility Score: inf
ROOT
ATOM      1  C   UNL     1      31.113   6.416  -7.524  1.00  0.00     0.000 C 
ENDROOT
BRANCH   1   2
ATOM      2  C   UNL     1      32.353   7.080  -6.905  1.00  0.00     0.000 C 
BRANCH   2   3
ATOM      3  C   UNL     1      33.656   6.339  -7.243  1.00  0.00     0.006 C 
BRANCH   3   4
ATOM      4  C   UNL     1      33.742   5.010  -6.488  1.00  0.00     0.053 C 
BRANCH   4   5
ATOM      5  C   UNL     1      34.556   5.166  -5.243  1.00  0.00     0.041 C 
ATOM      6  O   UNL     1      34.237   4.543  -4.195  1.00  0.00    -0.550 OA
ATOM      7  O   UNL     1      35.697   5.958  -5.251  1.00  0.00    -0.550 OA
ENDBRANCH   4   5
ENDBRANCH   3   4
ENDBRANCH   2   3
ENDBRANCH   1   2
BRANCH   1   8
ATOM      8  C   UNL     1      29.798   6.958  -6.935  1.00  0.00     0.000 C 
BRANCH   8   9
ATOM      9  C   UNL     1      29.007   7.806  -7.945  1.00  0.00     0.006 C 
BRANCH   9  10
ATOM     10  C   UNL     1      29.578   7.720  -9.367  1.00  0.00     0.053 C 
BRANCH  10  11
ATOM     11  C   UNL     1      28.472   7.607 -10.367  1.00  0.00     0.041 C 
ATOM     12  O   UNL     1      27.980   6.481 -10.643  1.00  0.00    -0.550 OA
ATOM     13  O   UNL     1      28.015   8.740 -11.030  1.00  0.00    -0.550 OA
ENDBRANCH  10  11
ENDBRANCH   9  10
ENDBRANCH   8   9
ENDBRANCH   1   8
TORSDOF 8
ENDMDL
MODEL 9
REMARK VINA RESULT:    -3.257      5.685      7.409
REMARK INTER + INTRA:          -5.112
REMARK INTER:                  -4.656
REMARK INTRA:                  -0.456
REMARK UNBOUND:                -0.332
REMARK SMILES O=C([O-])CCCCCCCC(=O)[O-]
REMARK SMILES IDX 7 1 6 2 5 3 4 4 2 5 1 6 3 7 8 8 9 9 10 10 11 11 12 12 13 13
REMARK H PARENT
REMARK Flexibility Score: inf
ROOT
ATOM      1  C   UNL     1      35.118   5.908  -5.191  1.00  0.00     0.000 C 
ENDROOT
BRANCH   1   2
ATOM      2  C   UNL     1      35.782   7.256  -5.519  1.00  0.00     0.000 C 
BRANCH   2   3
ATOM      3  C   UNL     1      35.712   8.252  -4.351  1.00  0.00     0.006 C 
BRANCH   3   4
ATOM      4  C   UNL     1      34.441   8.041  -3.526  1.00  0.00     0.053 C 
BRANCH   4   5
ATOM      5  C   UNL     1      34.679   8.401  -2.093  1.00  0.00     0.041 C 
ATOM      6  O   UNL     1      33.745   8.306  -1.253  1.00  0.00    -0.550 OA
ATOM      7  O   UNL     1      35.944   8.793  -1.675  1.00  0.00    -0.550 OA
ENDBRANCH   4   5
ENDBRANCH   3   4
ENDBRANCH   2   3
ENDBRANCH   1   2
BRANCH   1   8
ATOM      8  C   UNL     1      34.023   5.528  -6.203  1.00  0.00     0.000 C 
BRANCH   8   9
ATOM      9  C   UNL     1      33.599   6.715  -7.084  1.00  0.00     0.006 C 
BRANCH   9  10
ATOM     10  C   UNL     1      32.363   6.406  -7.939  1.00  0.00     0.053 C 
BRANCH  10  11
ATOM     11  C   UNL     1      31.175   7.159  -7.430  1.00  0.00     0.041 C 
ATOM     12  O   UNL     1      31.159   8.417  -7.467  1.00  0.00    -0.550 OA
ATOM     13  O   UNL     1      30.105   6.472  -6.869  1.00  0.00    -0.550 OA
ENDBRANCH  10  11
ENDBRANCH   9  10
ENDBRANCH   8   9
ENDBRANCH   1   8
TORSDOF 8
ENDMDL
