MODEL 1
REMARK VINA RESULT:    -6.206      0.000      0.000
REMARK INTER + INTRA:          -6.992
REMARK INTER:                  -6.751
REMARK INTRA:                  -0.241
REMARK UNBOUND:                -0.241
REMARK SMILES CC(C)c1cc2c(cc1O)[C@@]1(C)CCCC(C)(C)[C@H]1CC2=O
REMARK SMILES IDX 4 1 9 2 8 3 7 4 6 5 5 6 21 7 22 8 20 9 19 10 11 11 13 12
REMARK SMILES IDX 14 13 15 14 16 15 17 16 18 17 12 18 2 19 1 20 3 21 10 22
REMARK H PARENT 10 23
REMARK Flexibility Score: inf
ROOT
ATOM      1  C   UNL     1       0.840  78.670 -29.155  1.00  0.00    -0.003 A 
ATOM      2  C   UNL     1       0.237  77.927 -28.120  1.00  0.00     0.119 A 
ATOM      3  C   UNL     1       0.837  76.749 -27.662  1.00  0.00     0.051 A 
ATOM      4  C   UNL     1       2.059  76.276 -28.195  1.00  0.00    -0.027 A 
ATOM      5  C   UNL     1       2.604  76.978 -29.291  1.00  0.00     0.022 A 
ATOM      6  C   UNL     1       2.014  78.171 -29.740  1.00  0.00     0.020 A 
ATOM      7  C   UNL     1       3.754  76.424 -30.008  1.00  0.00     0.163 C 
ATOM      8  O   UNL     1       4.390  77.119 -30.850  1.00  0.00    -0.294 OA
ATOM      9  C   UNL     1       4.136  75.006 -29.780  1.00  0.00     0.086 C 
ATOM     10  C   UNL     1       4.152  74.687 -28.262  1.00  0.00     0.013 C 
ATOM     11  C   UNL     1       2.730  75.004 -27.606  1.00  0.00    -0.003 C 
ATOM     12  C   UNL     1       1.753  73.819 -27.850  1.00  0.00     0.012 C 
ATOM     13  C   UNL     1       2.317  72.449 -27.468  1.00  0.00     0.001 C 
ATOM     14  C   UNL     1       3.627  72.154 -28.201  1.00  0.00     0.007 C 
ATOM     15  C   UNL     1       4.723  73.224 -27.964  1.00  0.00    -0.031 C 
ATOM     16  C   UNL     1       5.287  73.110 -26.512  1.00  0.00     0.011 C 
ATOM     17  C   UNL     1       5.917  72.872 -28.898  1.00  0.00     0.011 C 
ATOM     18  C   UNL     1       2.913  75.264 -26.081  1.00  0.00     0.017 C 
ENDROOT
BRANCH   1  19
ATOM     19  C   UNL     1       0.247  79.969 -29.682  1.00  0.00     0.017 C 
ATOM     20  C   UNL     1       1.140  81.174 -29.360  1.00  0.00     0.012 C 
ATOM     21  C   UNL     1      -0.074  79.889 -31.180  1.00  0.00     0.012 C 
ENDBRANCH   1  19
BRANCH   2  22
ATOM     22  O   UNL     1      -0.962  78.352 -27.547  1.00  0.00    -0.508 OA
ATOM     23  H   UNL     1      -1.339  77.918 -26.714  1.00  0.00     0.293 HD
ENDBRANCH   2  22
TORSDOF 2
ENDMDL
MODEL 2
REMARK VINA RESULT:    -6.119      7.791      9.979
REMARK INTER + INTRA:          -6.897
REMARK INTER:                  -6.724
REMARK INTRA:                  -0.173
REMARK UNBOUND:                -0.241
REMARK SMILES CC(C)c1cc2c(cc1O)[C@@]1(C)CCCC(C)(C)[C@H]1CC2=O
REMARK SMILES IDX 4 1 9 2 8 3 7 4 6 5 5 6 21 7 22 8 20 9 19 10 11 11 13 12
REMARK SMILES IDX 14 13 15 14 16 15 17 16 18 17 12 18 2 19 1 20 3 21 10 22
REMARK H PARENT 10 23
REMARK Flexibility Score: inf
ROOT
ATOM      1  C   UNL     1      10.290  77.516 -30.153  1.00  0.00    -0.003 A 
ATOM      2  C   UNL     1      10.091  76.154 -29.856  1.00  0.00     0.119 A 
ATOM      3  C   UNL     1      10.721  75.579 -28.746  1.00  0.00     0.051 A 
ATOM      4  C   UNL     1      11.551  76.334 -27.885  1.00  0.00    -0.027 A 
ATOM      5  C   UNL     1      11.816  77.672 -28.245  1.00  0.00     0.022 A 
ATOM      6  C   UNL     1      11.168  78.255 -29.347  1.00  0.00     0.020 A 
ATOM      7  C   UNL     1      12.821  78.439 -27.507  1.00  0.00     0.163 C 
ATOM      8  O   UNL     1      12.930  79.687 -27.665  1.00  0.00    -0.294 OA
ATOM      9  C   UNL     1      13.759  77.722 -26.604  1.00  0.00     0.086 C 
ATOM     10  C   UNL     1      12.990  76.709 -25.717  1.00  0.00     0.013 C 
ATOM     11  C   UNL     1      12.173  75.676 -26.621  1.00  0.00    -0.003 C 
ATOM     12  C   UNL     1      13.112  74.539 -27.114  1.00  0.00     0.012 C 
ATOM     13  C   UNL     1      13.932  73.875 -26.006  1.00  0.00     0.001 C 
ATOM     14  C   UNL     1      14.772  74.895 -25.237  1.00  0.00     0.007 C 
ATOM     15  C   UNL     1      13.935  76.042 -24.614  1.00  0.00    -0.031 C 
ATOM     16  C   UNL     1      13.114  75.513 -23.395  1.00  0.00     0.011 C 
ATOM     17  C   UNL     1      14.939  77.072 -24.018  1.00  0.00     0.011 C 
ATOM     18  C   UNL     1      10.987  75.094 -25.796  1.00  0.00     0.017 C 
ENDROOT
BRANCH   1  19
ATOM     19  C   UNL     1       9.615  78.202 -31.334  1.00  0.00     0.017 C 
ATOM     20  C   UNL     1       8.125  78.454 -31.070  1.00  0.00     0.012 C 
ATOM     21  C   UNL     1      10.342  79.490 -31.742  1.00  0.00     0.012 C 
ENDBRANCH   1  19
BRANCH   2  22
ATOM     22  O   UNL     1       9.272  75.362 -30.662  1.00  0.00    -0.508 OA
ATOM     23  H   UNL     1       8.614  75.768 -31.317  1.00  0.00     0.293 HD
ENDBRANCH   2  22
TORSDOF 2
ENDMDL
MODEL 3
REMARK VINA RESULT:    -6.083     11.970     13.983
REMARK INTER + INTRA:          -6.857
REMARK INTER:                  -6.616
REMARK INTRA:                  -0.241
REMARK UNBOUND:                -0.241
REMARK SMILES CC(C)c1cc2c(cc1O)[C@@]1(C)CCCC(C)(C)[C@H]1CC2=O
REMARK SMILES IDX 4 1 9 2 8 3 7 4 6 5 5 6 21 7 22 8 20 9 19 10 11 11 13 12
REMARK SMILES IDX 14 13 15 14 16 15 17 16 18 17 12 18 2 19 1 20 3 21 10 22
REMARK H PARENT 10 23
REMARK Flexibility Score: inf
ROOT
ATOM      1  C   UNL     1      12.285  81.249 -19.010  1.00  0.00    -0.003 A 
ATOM      2  C   UNL     1      13.071  80.271 -19.651  1.00  0.00     0.119 A 
ATOM      3  C   UNL     1      12.674  78.930 -19.631  1.00  0.00     0.051 A 
ATOM      4  C   UNL     1      11.481  78.512 -18.995  1.00  0.00    -0.027 A 
ATOM      5  C   UNL     1      10.753  79.485 -18.279  1.00  0.00     0.022 A 
ATOM      6  C   UNL     1      11.139  80.835 -18.314  1.00  0.00     0.020 A 
ATOM      7  C   UNL     1       9.625  79.076 -17.439  1.00  0.00     0.163 C 
ATOM      8  O   UNL     1       8.831  79.932 -16.958  1.00  0.00    -0.294 OA
ATOM      9  C   UNL     1       9.454  77.637 -17.107  1.00  0.00     0.086 C 
ATOM     10  C   UNL     1       9.617  76.765 -18.379  1.00  0.00     0.013 C 
ATOM     11  C   UNL     1      11.038  77.024 -19.060  1.00  0.00    -0.003 C 
ATOM     12  C   UNL     1      12.136  76.190 -18.341  1.00  0.00     0.012 C 
ATOM     13  C   UNL     1      11.792  74.709 -18.174  1.00  0.00     0.001 C 
ATOM     14  C   UNL     1      10.472  74.515 -17.426  1.00  0.00     0.007 C 
ATOM     15  C   UNL     1       9.271  75.230 -18.098  1.00  0.00    -0.031 C 
ATOM     16  C   UNL     1       8.860  74.483 -19.407  1.00  0.00     0.011 C 
ATOM     17  C   UNL     1       8.054  75.080 -17.140  1.00  0.00     0.011 C 
ATOM     18  C   UNL     1      10.961  76.650 -20.570  1.00  0.00     0.017 C 
ENDROOT
BRANCH   1  19
ATOM     19  C   UNL     1      12.654  82.726 -19.014  1.00  0.00     0.017 C 
ATOM     20  C   UNL     1      11.595  83.574 -19.731  1.00  0.00     0.012 C 
ATOM     21  C   UNL     1      12.937  83.253 -17.601  1.00  0.00     0.012 C 
ENDBRANCH   1  19
BRANCH   2  22
ATOM     22  O   UNL     1      14.250  80.626 -20.306  1.00  0.00    -0.508 OA
ATOM     23  H   UNL     1      14.264  80.866 -21.290  1.00  0.00     0.293 HD
ENDBRANCH   2  22
TORSDOF 2
ENDMDL
MODEL 4
REMARK VINA RESULT:    -6.063     11.889     13.105
REMARK INTER + INTRA:          -6.836
REMARK INTER:                  -6.594
REMARK INTRA:                  -0.243
REMARK UNBOUND:                -0.241
REMARK SMILES CC(C)c1cc2c(cc1O)[C@@]1(C)CCCC(C)(C)[C@H]1CC2=O
REMARK SMILES IDX 4 1 9 2 8 3 7 4 6 5 5 6 21 7 22 8 20 9 19 10 11 11 13 12
REMARK SMILES IDX 14 13 15 14 16 15 17 16 18 17 12 18 2 19 1 20 3 21 10 22
REMARK H PARENT 10 23
REMARK Flexibility Score: inf
ROOT
ATOM      1  C   UNL     1       5.290  78.638 -16.619  1.00  0.00    -0.003 A 
ATOM      2  C   UNL     1       6.210  79.702 -16.680  1.00  0.00     0.119 A 
ATOM      3  C   UNL     1       7.538  79.462 -17.050  1.00  0.00     0.051 A 
ATOM      4  C   UNL     1       7.995  78.167 -17.392  1.00  0.00    -0.027 A 
ATOM      5  C   UNL     1       7.089  77.097 -17.239  1.00  0.00     0.022 A 
ATOM      6  C   UNL     1       5.751  77.340 -16.885  1.00  0.00     0.020 A 
ATOM      7  C   UNL     1       7.561  75.719 -17.384  1.00  0.00     0.163 C 
ATOM      8  O   UNL     1       6.745  74.758 -17.461  1.00  0.00    -0.294 OA
ATOM      9  C   UNL     1       9.023  75.449 -17.382  1.00  0.00     0.086 C 
ATOM     10  C   UNL     1       9.758  76.449 -18.312  1.00  0.00     0.013 C 
ATOM     11  C   UNL     1       9.459  77.954 -17.871  1.00  0.00    -0.003 C 
ATOM     12  C   UNL     1      10.387  78.360 -16.691  1.00  0.00     0.012 C 
ATOM     13  C   UNL     1      11.870  78.071 -16.930  1.00  0.00     0.001 C 
ATOM     14  C   UNL     1      12.114  76.595 -17.250  1.00  0.00     0.007 C 
ATOM     15  C   UNL     1      11.307  76.087 -18.472  1.00  0.00    -0.031 C 
ATOM     16  C   UNL     1      11.901  76.669 -19.794  1.00  0.00     0.011 C 
ATOM     17  C   UNL     1      11.532  74.549 -18.563  1.00  0.00     0.011 C 
ATOM     18  C   UNL     1       9.668  78.900 -19.090  1.00  0.00     0.017 C 
ENDROOT
BRANCH   1  19
ATOM     19  C   UNL     1       3.829  78.840 -16.243  1.00  0.00     0.017 C 
ATOM     20  C   UNL     1       2.972  79.204 -17.463  1.00  0.00     0.012 C 
ATOM     21  C   UNL     1       3.256  77.632 -15.491  1.00  0.00     0.012 C 
ENDBRANCH   1  19
BRANCH   2  22
ATOM     22  O   UNL     1       5.813  81.003 -16.367  1.00  0.00    -0.508 OA
ATOM     23  H   UNL     1       5.197  81.534 -16.971  1.00  0.00     0.293 HD
ENDBRANCH   2  22
TORSDOF 2
ENDMDL
MODEL 5
REMARK VINA RESULT:    -6.054      3.355      6.145
REMARK INTER + INTRA:          -6.826
REMARK INTER:                  -6.581
REMARK INTRA:                  -0.245
REMARK UNBOUND:                -0.241
REMARK SMILES CC(C)c1cc2c(cc1O)[C@@]1(C)CCCC(C)(C)[C@H]1CC2=O
REMARK SMILES IDX 4 1 9 2 8 3 7 4 6 5 5 6 21 7 22 8 20 9 19 10 11 11 13 12
REMARK SMILES IDX 14 13 15 14 16 15 17 16 18 17 12 18 2 19 1 20 3 21 10 22
REMARK H PARENT 10 23
REMARK Flexibility Score: inf
ROOT
ATOM      1  C   UNL     1       8.303  75.788 -30.499  1.00  0.00    -0.003 A 
ATOM      2  C   UNL     1       7.326  76.745 -30.833  1.00  0.00     0.119 A 
ATOM      3  C   UNL     1       6.010  76.590 -30.385  1.00  0.00     0.051 A 
ATOM      4  C   UNL     1       5.621  75.495 -29.576  1.00  0.00    -0.027 A 
ATOM      5  C   UNL     1       6.586  74.497 -29.326  1.00  0.00     0.022 A 
ATOM      6  C   UNL     1       7.912  74.662 -29.759  1.00  0.00     0.020 A 
ATOM      7  C   UNL     1       6.188  73.251 -28.668  1.00  0.00     0.163 C 
ATOM      8  O   UNL     1       7.055  72.436 -28.244  1.00  0.00    -0.294 OA
ATOM      9  C   UNL     1       4.744  72.921 -28.552  1.00  0.00     0.086 C 
ATOM     10  C   UNL     1       3.945  74.155 -28.058  1.00  0.00     0.013 C 
ATOM     11  C   UNL     1       4.166  75.398 -29.036  1.00  0.00    -0.003 C 
ATOM     12  C   UNL     1       3.229  75.280 -30.272  1.00  0.00     0.012 C 
ATOM     13  C   UNL     1       1.761  75.021 -29.925  1.00  0.00     0.001 C 
ATOM     14  C   UNL     1       1.596  73.763 -29.071  1.00  0.00     0.007 C 
ATOM     15  C   UNL     1       2.417  73.796 -27.756  1.00  0.00    -0.031 C 
ATOM     16  C   UNL     1       1.778  74.799 -26.744  1.00  0.00     0.011 C 
ATOM     17  C   UNL     1       2.276  72.396 -27.092  1.00  0.00     0.011 C 
ATOM     18  C   UNL     1       3.892  76.721 -28.260  1.00  0.00     0.017 C 
ENDROOT
BRANCH   1  19
ATOM     19  C   UNL     1       9.755  75.914 -30.940  1.00  0.00     0.017 C 
ATOM     20  C   UNL     1      10.587  76.724 -29.937  1.00  0.00     0.012 C 
ATOM     21  C   UNL     1      10.390  74.547 -31.226  1.00  0.00     0.012 C 
ENDBRANCH   1  19
BRANCH   2  22
ATOM     22  O   UNL     1       7.654  77.853 -31.617  1.00  0.00    -0.508 OA
ATOM     23  H   UNL     1       7.010  78.623 -31.751  1.00  0.00     0.293 HD
ENDBRANCH   2  22
TORSDOF 2
ENDMDL
MODEL 6
REMARK VINA RESULT:    -6.052      6.707     10.390
REMARK INTER + INTRA:          -6.824
REMARK INTER:                  -6.581
REMARK INTRA:                  -0.243
REMARK UNBOUND:                -0.241
REMARK SMILES CC(C)c1cc2c(cc1O)[C@@]1(C)CCCC(C)(C)[C@H]1CC2=O
REMARK SMILES IDX 4 1 9 2 8 3 7 4 6 5 5 6 21 7 22 8 20 9 19 10 11 11 13 12
REMARK SMILES IDX 14 13 15 14 16 15 17 16 18 17 12 18 2 19 1 20 3 21 10 22
REMARK H PARENT 10 23
REMARK Flexibility Score: inf
ROOT
ATOM      1  C   UNL     1      12.718  74.809 -27.089  1.00  0.00    -0.003 A 
ATOM      2  C   UNL     1      13.019  76.184 -27.073  1.00  0.00     0.119 A 
ATOM      3  C   UNL     1      12.220  77.085 -27.787  1.00  0.00     0.051 A 
ATOM      4  C   UNL     1      11.090  76.660 -28.523  1.00  0.00    -0.027 A 
ATOM      5  C   UNL     1      10.853  75.271 -28.606  1.00  0.00     0.022 A 
ATOM      6  C   UNL     1      11.643  74.368 -27.875  1.00  0.00     0.020 A 
ATOM      7  C   UNL     1       9.822  74.763 -29.513  1.00  0.00     0.163 C 
ATOM      8  O   UNL     1       9.446  73.559 -29.457  1.00  0.00    -0.294 OA
ATOM      9  C   UNL     1       9.257  75.668 -30.548  1.00  0.00     0.086 C 
ATOM     10  C   UNL     1       8.901  77.044 -29.928  1.00  0.00     0.013 C 
ATOM     11  C   UNL     1      10.185  77.701 -29.240  1.00  0.00    -0.003 C 
ATOM     12  C   UNL     1      11.064  78.405 -30.313  1.00  0.00     0.012 C 
ATOM     13  C   UNL     1      10.296  79.362 -31.226  1.00  0.00     0.001 C 
ATOM     14  C   UNL     1       9.138  78.659 -31.937  1.00  0.00     0.007 C 
ATOM     15  C   UNL     1       8.134  77.987 -30.965  1.00  0.00    -0.031 C 
ATOM     16  C   UNL     1       7.278  79.071 -30.236  1.00  0.00     0.011 C 
ATOM     17  C   UNL     1       7.124  77.182 -31.835  1.00  0.00     0.011 C 
ATOM     18  C   UNL     1       9.725  78.714 -28.151  1.00  0.00     0.017 C 
ENDROOT
BRANCH   1  19
ATOM     19  C   UNL     1      13.537  73.783 -26.317  1.00  0.00     0.017 C 
ATOM     20  C   UNL     1      13.042  73.631 -24.873  1.00  0.00     0.012 C 
ATOM     21  C   UNL     1      13.596  72.431 -27.039  1.00  0.00     0.012 C 
ENDBRANCH   1  19
BRANCH   2  22
ATOM     22  O   UNL     1      14.114  76.664 -26.353  1.00  0.00    -0.508 OA
ATOM     23  H   UNL     1      14.753  77.346 -26.743  1.00  0.00     0.293 HD
ENDBRANCH   2  22
TORSDOF 2
ENDMDL
MODEL 7
REMARK VINA RESULT:    -6.043      5.674      7.148
REMARK INTER + INTRA:          -6.815
REMARK INTER:                  -6.570
REMARK INTRA:                  -0.245
REMARK UNBOUND:                -0.241
REMARK SMILES CC(C)c1cc2c(cc1O)[C@@]1(C)CCCC(C)(C)[C@H]1CC2=O
REMARK SMILES IDX 4 1 9 2 8 3 7 4 6 5 5 6 21 7 22 8 20 9 19 10 11 11 13 12
REMARK SMILES IDX 14 13 15 14 16 15 17 16 18 17 12 18 2 19 1 20 3 21 10 22
REMARK H PARENT 10 23
REMARK Flexibility Score: inf
ROOT
ATOM      1  C   UNL     1       8.463  77.952 -31.574  1.00  0.00    -0.003 A 
ATOM      2  C   UNL     1       7.414  77.013 -31.623  1.00  0.00     0.119 A 
ATOM      3  C   UNL     1       7.494  75.833 -30.876  1.00  0.00     0.051 A 
ATOM      4  C   UNL     1       8.601  75.550 -30.041  1.00  0.00    -0.027 A 
ATOM      5  C   UNL     1       9.685  76.453 -30.072  1.00  0.00     0.022 A 
ATOM      6  C   UNL     1       9.598  77.648 -30.807  1.00  0.00     0.020 A 
ATOM      7  C   UNL     1      10.933  76.113 -29.387  1.00  0.00     0.163 C 
ATOM      8  O   UNL     1      11.837  76.979 -29.219  1.00  0.00    -0.294 OA
ATOM      9  C   UNL     1      11.156  74.714 -28.939  1.00  0.00     0.086 C 
ATOM     10  C   UNL     1       9.895  74.170 -28.217  1.00  0.00     0.013 C 
ATOM     11  C   UNL     1       8.617  74.263 -29.169  1.00  0.00    -0.003 C 
ATOM     12  C   UNL     1       8.587  73.052 -30.144  1.00  0.00     0.012 C 
ATOM     13  C   UNL     1       8.751  71.692 -29.464  1.00  0.00     0.001 C 
ATOM     14  C   UNL     1      10.042  71.622 -28.645  1.00  0.00     0.007 C 
ATOM     15  C   UNL     1      10.152  72.732 -27.568  1.00  0.00    -0.031 C 
ATOM     16  C   UNL     1       9.165  72.445 -26.392  1.00  0.00     0.011 C 
ATOM     17  C   UNL     1      11.575  72.627 -26.946  1.00  0.00     0.011 C 
ATOM     18  C   UNL     1       7.326  74.303 -28.298  1.00  0.00     0.017 C 
ENDROOT
BRANCH   1  19
ATOM     19  C   UNL     1       8.425  79.262 -32.348  1.00  0.00     0.017 C 
ATOM     20  C   UNL     1       8.075  80.449 -31.441  1.00  0.00     0.012 C 
ATOM     21  C   UNL     1       9.725  79.510 -33.125  1.00  0.00     0.012 C 
ENDBRANCH   1  19
BRANCH   2  22
ATOM     22  O   UNL     1       6.291  77.244 -32.418  1.00  0.00    -0.508 OA
ATOM     23  H   UNL     1       5.351  77.116 -32.065  1.00  0.00     0.293 HD
ENDBRANCH   2  22
TORSDOF 2
ENDMDL
MODEL 8
REMARK VINA RESULT:    -6.013      2.858      4.355
REMARK INTER + INTRA:          -6.782
REMARK INTER:                  -6.614
REMARK INTRA:                  -0.168
REMARK UNBOUND:                -0.241
REMARK SMILES CC(C)c1cc2c(cc1O)[C@@]1(C)CCCC(C)(C)[C@H]1CC2=O
REMARK SMILES IDX 4 1 9 2 8 3 7 4 6 5 5 6 21 7 22 8 20 9 19 10 11 11 13 12
REMARK SMILES IDX 14 13 15 14 16 15 17 16 18 17 12 18 2 19 1 20 3 21 10 22
REMARK H PARENT 10 23
REMARK Flexibility Score: inf
ROOT
ATOM      1  C   UNL     1       3.269  77.137 -29.836  1.00  0.00    -0.003 A 
ATOM      2  C   UNL     1       3.181  75.792 -29.430  1.00  0.00     0.119 A 
ATOM      3  C   UNL     1       4.338  75.011 -29.332  1.00  0.00     0.051 A 
ATOM      4  C   UNL     1       5.620  75.539 -29.612  1.00  0.00    -0.027 A 
ATOM      5  C   UNL     1       5.686  76.859 -30.106  1.00  0.00     0.022 A 
ATOM      6  C   UNL     1       4.528  77.649 -30.186  1.00  0.00     0.020 A 
ATOM      7  C   UNL     1       6.959  77.387 -30.600  1.00  0.00     0.163 C 
ATOM      8  O   UNL     1       7.098  78.617 -30.849  1.00  0.00    -0.294 OA
ATOM      9  C   UNL     1       8.080  76.447 -30.864  1.00  0.00     0.086 C 
ATOM     10  C   UNL     1       8.247  75.458 -29.681  1.00  0.00     0.013 C 
ATOM     11  C   UNL     1       6.888  74.660 -29.419  1.00  0.00    -0.003 C 
ATOM     12  C   UNL     1       6.770  73.466 -30.408  1.00  0.00     0.012 C 
ATOM     13  C   UNL     1       8.009  72.571 -30.465  1.00  0.00     0.001 C 
ATOM     14  C   UNL     1       9.266  73.368 -30.819  1.00  0.00     0.007 C 
ATOM     15  C   UNL     1       9.547  74.543 -29.846  1.00  0.00    -0.031 C 
ATOM     16  C   UNL     1      10.048  73.999 -28.471  1.00  0.00     0.011 C 
ATOM     17  C   UNL     1      10.745  75.346 -30.432  1.00  0.00     0.011 C 
ATOM     18  C   UNL     1       6.860  74.161 -27.944  1.00  0.00     0.017 C 
ENDROOT
BRANCH   1  19
ATOM     19  C   UNL     1       2.049  78.042 -29.942  1.00  0.00     0.017 C 
ATOM     20  C   UNL     1       1.529  78.459 -28.560  1.00  0.00     0.012 C 
ATOM     21  C   UNL     1       2.311  79.259 -30.837  1.00  0.00     0.012 C 
ENDBRANCH   1  19
BRANCH   2  22
ATOM     22  O   UNL     1       1.944  75.221 -29.127  1.00  0.00    -0.508 OA
ATOM     23  H   UNL     1       1.131  75.363 -29.714  1.00  0.00     0.293 HD
ENDBRANCH   2  22
TORSDOF 2
ENDMDL
MODEL 9
REMARK VINA RESULT:    -5.970     11.339     13.454
REMARK INTER + INTRA:          -6.735
REMARK INTER:                  -6.562
REMARK INTRA:                  -0.173
REMARK UNBOUND:                -0.241
REMARK SMILES CC(C)c1cc2c(cc1O)[C@@]1(C)CCCC(C)(C)[C@H]1CC2=O
REMARK SMILES IDX 4 1 9 2 8 3 7 4 6 5 5 6 21 7 22 8 20 9 19 10 11 11 13 12
REMARK SMILES IDX 14 13 15 14 16 15 17 16 18 17 12 18 2 19 1 20 3 21 10 22
REMARK H PARENT 10 23
REMARK Flexibility Score: inf
ROOT
ATOM      1  C   UNL     1       9.947  80.061 -17.839  1.00  0.00    -0.003 A 
ATOM      2  C   UNL     1      10.112  78.673 -17.666  1.00  0.00     0.119 A 
ATOM      3  C   UNL     1       8.998  77.856 -17.449  1.00  0.00     0.051 A 
ATOM      4  C   UNL     1       7.684  78.379 -17.414  1.00  0.00    -0.027 A 
ATOM      5  C   UNL     1       7.540  79.780 -17.497  1.00  0.00     0.022 A 
ATOM      6  C   UNL     1       8.656  80.600 -17.734  1.00  0.00     0.020 A 
ATOM      7  C   UNL     1       6.229  80.391 -17.267  1.00  0.00     0.163 C 
ATOM      8  O   UNL     1       6.024  81.607 -17.537  1.00  0.00    -0.294 OA
ATOM      9  C   UNL     1       5.147  79.576 -16.654  1.00  0.00     0.086 C 
ATOM     10  C   UNL     1       5.063  78.186 -17.338  1.00  0.00     0.013 C 
ATOM     11  C   UNL     1       6.466  77.428 -17.246  1.00  0.00    -0.003 C 
ATOM     12  C   UNL     1       6.613  76.742 -15.858  1.00  0.00     0.012 C 
ATOM     13  C   UNL     1       5.417  75.878 -15.453  1.00  0.00     0.001 C 
ATOM     14  C   UNL     1       4.113  76.679 -15.460  1.00  0.00     0.007 C 
ATOM     15  C   UNL     1       3.804  77.344 -16.826  1.00  0.00    -0.031 C 
ATOM     16  C   UNL     1       3.371  76.265 -17.869  1.00  0.00     0.011 C 
ATOM     17  C   UNL     1       2.553  78.247 -16.624  1.00  0.00     0.011 C 
ATOM     18  C   UNL     1       6.561  76.379 -18.393  1.00  0.00     0.017 C 
ENDROOT
BRANCH   1  19
ATOM     19  C   UNL     1      11.119  80.998 -18.098  1.00  0.00     0.017 C 
ATOM     20  C   UNL     1      11.651  80.860 -19.531  1.00  0.00     0.012 C 
ATOM     21  C   UNL     1      10.777  82.455 -17.762  1.00  0.00     0.012 C 
ENDBRANCH   1  19
BRANCH   2  22
ATOM     22  O   UNL     1      11.384  78.099 -17.703  1.00  0.00    -0.508 OA
ATOM     23  H   UNL     1      11.522  77.100 -17.608  1.00  0.00     0.293 HD
ENDBRANCH   2  22
TORSDOF 2
ENDMDL
