MODEL 1
REMARK VINA RESULT:    -5.821      0.000      0.000
REMARK INTER + INTRA:         -10.421
REMARK INTER:                  -8.883
REMARK INTRA:                  -1.538
REMARK UNBOUND:                -1.538
REMARK SMILES OC[C@@H]1O[C@@](CO)(O[C@H]2O[C@@H](CO)[C@@H](O)[C@H](O)[C@@H]2O)[C@@H](O)[C@@H]1O
REMARK SMILES IDX 8 1 9 2 11 3 14 4 10 5 16 6 18 7 12 8 13 9 15 11 17 13 19 15
REMARK SMILES IDX 5 17 20 18 4 19 22 20 3 21 6 22 7 23 21 25 23 27 2 29 1 30
REMARK H PARENT 13 10 15 12 17 14 19 16 7 24 21 26 23 28 1 31
REMARK Flexibility Score: inf
ROOT
ATOM      1  O   UNL     1      20.882   2.727  38.519  1.00  0.00    -0.313 OA
ENDROOT
BRANCH   1   2
ATOM      2  C   UNL     1      21.845   2.551  37.482  1.00  0.00     0.285 C 
ATOM      3  C   UNL     1      22.656   1.175  35.774  1.00  0.00     0.178 C 
ATOM      4  C   UNL     1      22.756   2.335  34.753  1.00  0.00     0.177 C 
ATOM      5  O   UNL     1      21.594   1.400  36.686  1.00  0.00    -0.341 OA
ATOM      6  C   UNL     1      22.993   3.660  35.502  1.00  0.00     0.179 C 
ATOM      7  C   UNL     1      21.936   3.830  36.611  1.00  0.00     0.202 C 
BRANCH   3   8
ATOM      8  C   UNL     1      22.425  -0.169  35.068  1.00  0.00     0.191 C 
BRANCH   8   9
ATOM      9  O   UNL     1      22.981  -0.147  33.781  1.00  0.00    -0.394 OA
ATOM     10  H   UNL     1      23.623   0.611  33.761  1.00  0.00     0.210 HD
ENDBRANCH   8   9
ENDBRANCH   3   8
BRANCH   4  11
ATOM     11  O   UNL     1      21.567   2.436  34.007  1.00  0.00    -0.387 OA
ATOM     12  H   UNL     1      21.686   1.884  33.191  1.00  0.00     0.211 HD
ENDBRANCH   4  11
BRANCH   6  13
ATOM     13  O   UNL     1      24.284   3.674  36.059  1.00  0.00    -0.387 OA
ATOM     14  H   UNL     1      24.174   3.780  37.040  1.00  0.00     0.211 HD
ENDBRANCH   6  13
BRANCH   7  15
ATOM     15  O   UNL     1      22.197   4.971  37.392  1.00  0.00    -0.385 OA
ATOM     16  H   UNL     1      21.661   5.722  37.025  1.00  0.00     0.211 HD
ENDBRANCH   7  15
ENDBRANCH   1   2
BRANCH   1  17
ATOM     17  C   UNL     1      21.363   2.692  39.866  1.00  0.00     0.224 C 
ATOM     18  C   UNL     1      21.141   4.087  40.510  1.00  0.00     0.208 C 
ATOM     19  O   UNL     1      20.686   1.727  40.660  1.00  0.00    -0.337 OA
ATOM     20  C   UNL     1      20.586   3.779  41.884  1.00  0.00     0.180 C 
ATOM     21  C   UNL     1      19.966   2.401  41.667  1.00  0.00     0.179 C 
BRANCH  17  22
ATOM     22  C   UNL     1      22.877   2.361  39.835  1.00  0.00     0.225 C 
BRANCH  22  23
ATOM     23  O   UNL     1      23.605   3.210  40.682  1.00  0.00    -0.391 OA
ATOM     24  H   UNL     1      23.519   4.126  40.312  1.00  0.00     0.210 HD
ENDBRANCH  22  23
ENDBRANCH  17  22
BRANCH  18  25
ATOM     25  O   UNL     1      20.239   4.880  39.771  1.00  0.00    -0.385 OA
ATOM     26  H   UNL     1      20.756   5.391  39.093  1.00  0.00     0.211 HD
ENDBRANCH  18  25
BRANCH  20  27
ATOM     27  O   UNL     1      21.634   3.745  42.819  1.00  0.00    -0.387 OA
ATOM     28  H   UNL     1      21.974   4.674  42.905  1.00  0.00     0.211 HD
ENDBRANCH  20  27
BRANCH  21  29
ATOM     29  C   UNL     1      19.876   1.534  42.931  1.00  0.00     0.191 C 
BRANCH  29  30
ATOM     30  O   UNL     1      20.970   0.662  43.012  1.00  0.00    -0.394 OA
ATOM     31  H   UNL     1      21.764   1.231  43.183  1.00  0.00     0.210 HD
ENDBRANCH  29  30
ENDBRANCH  21  29
ENDBRANCH   1  17
TORSDOF 13
ENDMDL
MODEL 2
REMARK VINA RESULT:    -5.694      1.559      6.144
REMARK INTER + INTRA:         -10.227
REMARK INTER:                  -8.923
REMARK INTRA:                  -1.304
REMARK UNBOUND:                -1.538
REMARK SMILES OC[C@@H]1O[C@@](CO)(O[C@H]2O[C@@H](CO)[C@@H](O)[C@H](O)[C@@H]2O)[C@@H](O)[C@@H]1O
REMARK SMILES IDX 8 1 9 2 11 3 14 4 10 5 16 6 18 7 12 8 13 9 15 11 17 13 19 15
REMARK SMILES IDX 5 17 20 18 4 19 22 20 3 21 6 22 7 23 21 25 23 27 2 29 1 30
REMARK H PARENT 13 10 15 12 17 14 19 16 7 24 21 26 23 28 1 31
REMARK Flexibility Score: inf
ROOT
ATOM      1  O   UNL     1      23.436   2.032  37.693  1.00  0.00    -0.313 OA
ENDROOT
BRANCH   1   2
ATOM      2  C   UNL     1      22.504   2.430  38.696  1.00  0.00     0.285 C 
ATOM      3  C   UNL     1      21.298   1.816  40.603  1.00  0.00     0.178 C 
ATOM      4  C   UNL     1      21.652   3.117  41.365  1.00  0.00     0.177 C 
ATOM      5  O   UNL     1      22.344   1.453  39.717  1.00  0.00    -0.341 OA
ATOM      6  C   UNL     1      21.889   4.256  40.355  1.00  0.00     0.179 C 
ATOM      7  C   UNL     1      22.905   3.805  39.287  1.00  0.00     0.202 C 
BRANCH   3   8
ATOM      8  C   UNL     1      21.048   0.653  41.575  1.00  0.00     0.191 C 
BRANCH   8   9
ATOM      9  O   UNL     1      20.928   1.131  42.888  1.00  0.00    -0.394 OA
ATOM     10  H   UNL     1      20.999   2.121  42.839  1.00  0.00     0.210 HD
ENDBRANCH   8   9
ENDBRANCH   3   8
BRANCH   4  11
ATOM     11  O   UNL     1      22.817   2.935  42.132  1.00  0.00    -0.387 OA
ATOM     12  H   UNL     1      22.528   2.725  43.058  1.00  0.00     0.211 HD
ENDBRANCH   4  11
BRANCH   6  13
ATOM     13  O   UNL     1      20.676   4.619  39.744  1.00  0.00    -0.387 OA
ATOM     14  H   UNL     1      20.779   4.446  38.773  1.00  0.00     0.211 HD
ENDBRANCH   6  13
BRANCH   7  15
ATOM     15  O   UNL     1      23.052   4.778  38.282  1.00  0.00    -0.385 OA
ATOM     16  H   UNL     1      22.404   5.507  38.465  1.00  0.00     0.211 HD
ENDBRANCH   7  15
ENDBRANCH   1   2
BRANCH   1  17
ATOM     17  C   UNL     1      23.046   2.225  36.329  1.00  0.00     0.224 C 
ATOM     18  C   UNL     1      22.434   0.903  35.794  1.00  0.00     0.208 C 
ATOM     19  O   UNL     1      22.074   3.253  36.184  1.00  0.00    -0.337 OA
ATOM     20  C   UNL     1      21.198   1.344  35.040  1.00  0.00     0.180 C 
ATOM     21  C   UNL     1      20.876   2.673  35.719  1.00  0.00     0.179 C 
BRANCH  17  22
ATOM     22  C   UNL     1      24.309   2.592  35.509  1.00  0.00     0.225 C 
BRANCH  22  23
ATOM     23  O   UNL     1      23.977   3.316  34.353  1.00  0.00    -0.391 OA
ATOM     24  H   UNL     1      24.783   3.314  33.774  1.00  0.00     0.210 HD
ENDBRANCH  22  23
ENDBRANCH  17  22
BRANCH  18  25
ATOM     25  O   UNL     1      22.097   0.011  36.832  1.00  0.00    -0.385 OA
ATOM     26  H   UNL     1      21.553   0.502  37.502  1.00  0.00     0.211 HD
ENDBRANCH  18  25
BRANCH  20  27
ATOM     27  O   UNL     1      21.509   1.507  33.679  1.00  0.00    -0.387 OA
ATOM     28  H   UNL     1      20.899   0.911  33.171  1.00  0.00     0.211 HD
ENDBRANCH  20  27
BRANCH  21  29
ATOM     29  C   UNL     1      20.105   3.670  34.842  1.00  0.00     0.191 C 
BRANCH  29  30
ATOM     30  O   UNL     1      20.977   4.347  33.979  1.00  0.00    -0.394 OA
ATOM     31  H   UNL     1      21.780   3.770  33.890  1.00  0.00     0.210 HD
ENDBRANCH  29  30
ENDBRANCH  21  29
ENDBRANCH   1  17
TORSDOF 13
ENDMDL
MODEL 3
REMARK VINA RESULT:    -5.663      1.321      6.397
REMARK INTER + INTRA:         -10.181
REMARK INTER:                  -8.433
REMARK INTRA:                  -1.748
REMARK UNBOUND:                -1.538
REMARK SMILES OC[C@@H]1O[C@@](CO)(O[C@H]2O[C@@H](CO)[C@@H](O)[C@H](O)[C@@H]2O)[C@@H](O)[C@@H]1O
REMARK SMILES IDX 8 1 9 2 11 3 14 4 10 5 16 6 18 7 12 8 13 9 15 11 17 13 19 15
REMARK SMILES IDX 5 17 20 18 4 19 22 20 3 21 6 22 7 23 21 25 23 27 2 29 1 30
REMARK H PARENT 13 10 15 12 17 14 19 16 7 24 21 26 23 28 1 31
REMARK Flexibility Score: inf
ROOT
ATOM      1  O   UNL     1      23.235   2.025  38.036  1.00  0.00    -0.313 OA
ENDROOT
BRANCH   1   2
ATOM      2  C   UNL     1      22.282   2.436  39.013  1.00  0.00     0.285 C 
ATOM      3  C   UNL     1      21.083   1.871  40.940  1.00  0.00     0.178 C 
ATOM      4  C   UNL     1      21.385   3.219  41.641  1.00  0.00     0.177 C 
ATOM      5  O   UNL     1      22.149   1.504  40.079  1.00  0.00    -0.341 OA
ATOM      6  C   UNL     1      21.590   4.316  40.579  1.00  0.00     0.179 C 
ATOM      7  C   UNL     1      22.630   3.851  39.541  1.00  0.00     0.202 C 
BRANCH   3   8
ATOM      8  C   UNL     1      20.867   0.748  41.964  1.00  0.00     0.191 C 
BRANCH   8   9
ATOM      9  O   UNL     1      20.746   1.281  43.256  1.00  0.00    -0.394 OA
ATOM     10  H   UNL     1      20.197   2.104  43.174  1.00  0.00     0.210 HD
ENDBRANCH   8   9
ENDBRANCH   3   8
BRANCH   4  11
ATOM     11  O   UNL     1      22.550   3.115  42.423  1.00  0.00    -0.387 OA
ATOM     12  H   UNL     1      22.461   3.765  43.168  1.00  0.00     0.211 HD
ENDBRANCH   4  11
BRANCH   6  13
ATOM     13  O   UNL     1      20.369   4.606  39.944  1.00  0.00    -0.387 OA
ATOM     14  H   UNL     1      19.737   3.882  40.190  1.00  0.00     0.211 HD
ENDBRANCH   6  13
BRANCH   7  15
ATOM     15  O   UNL     1      22.750   4.781  38.491  1.00  0.00    -0.385 OA
ATOM     16  H   UNL     1      21.873   5.231  38.379  1.00  0.00     0.211 HD
ENDBRANCH   7  15
ENDBRANCH   1   2
BRANCH   1  17
ATOM     17  C   UNL     1      22.738   1.722  36.729  1.00  0.00     0.224 C 
ATOM     18  C   UNL     1      23.243   2.808  35.740  1.00  0.00     0.208 C 
ATOM     19  O   UNL     1      23.183   0.456  36.259  1.00  0.00    -0.337 OA
ATOM     20  C   UNL     1      23.699   2.024  34.529  1.00  0.00     0.180 C 
ATOM     21  C   UNL     1      24.015   0.661  35.139  1.00  0.00     0.179 C 
BRANCH  17  22
ATOM     22  C   UNL     1      21.189   1.736  36.781  1.00  0.00     0.225 C 
BRANCH  22  23
ATOM     23  O   UNL     1      20.634   0.997  35.725  1.00  0.00    -0.391 OA
ATOM     24  H   UNL     1      20.546   0.062  36.045  1.00  0.00     0.210 HD
ENDBRANCH  22  23
ENDBRANCH  17  22
BRANCH  18  25
ATOM     25  O   UNL     1      24.304   3.567  36.275  1.00  0.00    -0.385 OA
ATOM     26  H   UNL     1      24.769   4.025  35.526  1.00  0.00     0.211 HD
ENDBRANCH  18  25
BRANCH  20  27
ATOM     27  O   UNL     1      22.654   1.954  33.591  1.00  0.00    -0.387 OA
ATOM     28  H   UNL     1      22.023   2.689  33.807  1.00  0.00     0.211 HD
ENDBRANCH  20  27
BRANCH  21  29
ATOM     29  C   UNL     1      23.899  -0.519  34.165  1.00  0.00     0.191 C 
BRANCH  29  30
ATOM     30  O   UNL     1      22.568  -0.943  34.056  1.00  0.00    -0.394 OA
ATOM     31  H   UNL     1      22.544  -1.870  34.408  1.00  0.00     0.210 HD
ENDBRANCH  29  30
ENDBRANCH  21  29
ENDBRANCH   1  17
TORSDOF 13
ENDMDL
MODEL 4
REMARK VINA RESULT:    -5.527      1.704      2.923
REMARK INTER + INTRA:          -9.973
REMARK INTER:                  -8.749
REMARK INTRA:                  -1.224
REMARK UNBOUND:                -1.538
REMARK SMILES OC[C@@H]1O[C@@](CO)(O[C@H]2O[C@@H](CO)[C@@H](O)[C@H](O)[C@@H]2O)[C@@H](O)[C@@H]1O
REMARK SMILES IDX 8 1 9 2 11 3 14 4 10 5 16 6 18 7 12 8 13 9 15 11 17 13 19 15
REMARK SMILES IDX 5 17 20 18 4 19 22 20 3 21 6 22 7 23 21 25 23 27 2 29 1 30
REMARK H PARENT 13 10 15 12 17 14 19 16 7 24 21 26 23 28 1 31
REMARK Flexibility Score: inf
ROOT
ATOM      1  O   UNL     1      21.394   2.484  38.200  1.00  0.00    -0.313 OA
ENDROOT
BRANCH   1   2
ATOM      2  C   UNL     1      22.545   2.327  37.372  1.00  0.00     0.285 C 
ATOM      3  C   UNL     1      24.030   0.842  36.344  1.00  0.00     0.178 C 
ATOM      4  C   UNL     1      23.979   1.579  34.984  1.00  0.00     0.177 C 
ATOM      5  O   UNL     1      22.796   0.970  37.031  1.00  0.00    -0.341 OA
ATOM      6  C   UNL     1      23.672   3.070  35.218  1.00  0.00     0.179 C 
ATOM      7  C   UNL     1      22.421   3.213  36.107  1.00  0.00     0.202 C 
BRANCH   3   8
ATOM      8  C   UNL     1      24.339  -0.651  36.157  1.00  0.00     0.191 C 
BRANCH   8   9
ATOM      9  O   UNL     1      25.081  -1.136  37.244  1.00  0.00    -0.394 OA
ATOM     10  H   UNL     1      26.031  -0.911  37.064  1.00  0.00     0.210 HD
ENDBRANCH   8   9
ENDBRANCH   3   8
BRANCH   4  11
ATOM     11  O   UNL     1      22.976   1.028  34.165  1.00  0.00    -0.387 OA
ATOM     12  H   UNL     1      22.269   0.675  34.765  1.00  0.00     0.211 HD
ENDBRANCH   4  11
BRANCH   6  13
ATOM     13  O   UNL     1      24.773   3.699  35.827  1.00  0.00    -0.387 OA
ATOM     14  H   UNL     1      25.330   2.981  36.227  1.00  0.00     0.211 HD
ENDBRANCH   6  13
BRANCH   7  15
ATOM     15  O   UNL     1      22.185   4.560  36.439  1.00  0.00    -0.385 OA
ATOM     16  H   UNL     1      21.345   4.843  35.994  1.00  0.00     0.211 HD
ENDBRANCH   7  15
ENDBRANCH   1   2
BRANCH   1  17
ATOM     17  C   UNL     1      21.554   3.253  39.396  1.00  0.00     0.224 C 
ATOM     18  C   UNL     1      21.639   2.282  40.605  1.00  0.00     0.208 C 
ATOM     19  O   UNL     1      22.737   4.042  39.381  1.00  0.00    -0.337 OA
ATOM     20  C   UNL     1      22.781   2.822  41.437  1.00  0.00     0.180 C 
ATOM     21  C   UNL     1      23.601   3.574  40.392  1.00  0.00     0.179 C 
BRANCH  17  22
ATOM     22  C   UNL     1      20.321   4.179  39.550  1.00  0.00     0.225 C 
BRANCH  22  23
ATOM     23  O   UNL     1      20.152   4.999  38.424  1.00  0.00    -0.391 OA
ATOM     24  H   UNL     1      19.362   5.571  38.603  1.00  0.00     0.210 HD
ENDBRANCH  22  23
ENDBRANCH  17  22
BRANCH  18  25
ATOM     25  O   UNL     1      21.893   0.953  40.206  1.00  0.00    -0.385 OA
ATOM     26  H   UNL     1      21.546   0.344  40.910  1.00  0.00     0.211 HD
ENDBRANCH  18  25
BRANCH  20  27
ATOM     27  O   UNL     1      22.276   3.680  42.429  1.00  0.00    -0.387 OA
ATOM     28  H   UNL     1      21.328   3.862  42.199  1.00  0.00     0.211 HD
ENDBRANCH  20  27
BRANCH  21  29
ATOM     29  C   UNL     1      24.446   4.728  40.949  1.00  0.00     0.191 C 
BRANCH  29  30
ATOM     30  O   UNL     1      23.667   5.883  41.100  1.00  0.00    -0.394 OA
ATOM     31  H   UNL     1      23.075   5.716  41.879  1.00  0.00     0.210 HD
ENDBRANCH  29  30
ENDBRANCH  21  29
ENDBRANCH   1  17
TORSDOF 13
ENDMDL
MODEL 5
REMARK VINA RESULT:    -5.323     16.756     18.217
REMARK INTER + INTRA:          -9.661
REMARK INTER:                  -8.341
REMARK INTRA:                  -1.321
REMARK UNBOUND:                -1.538
REMARK SMILES OC[C@@H]1O[C@@](CO)(O[C@H]2O[C@@H](CO)[C@@H](O)[C@H](O)[C@@H]2O)[C@@H](O)[C@@H]1O
REMARK SMILES IDX 8 1 9 2 11 3 14 4 10 5 16 6 18 7 12 8 13 9 15 11 17 13 19 15
REMARK SMILES IDX 5 17 20 18 4 19 22 20 3 21 6 22 7 23 21 25 23 27 2 29 1 30
REMARK H PARENT 13 10 15 12 17 14 19 16 7 24 21 26 23 28 1 31
REMARK Flexibility Score: inf
ROOT
ATOM      1  O   UNL     1      37.360   6.128  43.468  1.00  0.00    -0.313 OA
ENDROOT
BRANCH   1   2
ATOM      2  C   UNL     1      37.443   7.521  43.759  1.00  0.00     0.285 C 
ATOM      3  C   UNL     1      37.577   9.696  42.908  1.00  0.00     0.178 C 
ATOM      4  C   UNL     1      36.492  10.243  43.868  1.00  0.00     0.177 C 
ATOM      5  O   UNL     1      37.331   8.334  42.597  1.00  0.00    -0.341 OA
ATOM      6  C   UNL     1      36.486   9.412  45.165  1.00  0.00     0.179 C 
ATOM      7  C   UNL     1      36.387   7.912  44.824  1.00  0.00     0.202 C 
BRANCH   3   8
ATOM      8  C   UNL     1      37.621  10.502  41.601  1.00  0.00     0.191 C 
BRANCH   8   9
ATOM      9  O   UNL     1      38.262   9.765  40.595  1.00  0.00    -0.394 OA
ATOM     10  H   UNL     1      39.077   9.371  41.005  1.00  0.00     0.210 HD
ENDBRANCH   8   9
ENDBRANCH   3   8
BRANCH   4  11
ATOM     11  O   UNL     1      35.222  10.165  43.268  1.00  0.00    -0.387 OA
ATOM     12  H   UNL     1      34.829  11.076  43.295  1.00  0.00     0.211 HD
ENDBRANCH   4  11
BRANCH   6  13
ATOM     13  O   UNL     1      37.655   9.663  45.904  1.00  0.00    -0.387 OA
ATOM     14  H   UNL     1      37.371   9.872  46.831  1.00  0.00     0.211 HD
ENDBRANCH   6  13
BRANCH   7  15
ATOM     15  O   UNL     1      36.501   7.119  45.981  1.00  0.00    -0.385 OA
ATOM     16  H   UNL     1      36.239   6.191  45.744  1.00  0.00     0.211 HD
ENDBRANCH   7  15
ENDBRANCH   1   2
BRANCH   1  17
ATOM     17  C   UNL     1      38.536   5.345  43.693  1.00  0.00     0.224 C 
ATOM     18  C   UNL     1      38.201   4.225  44.715  1.00  0.00     0.208 C 
ATOM     19  O   UNL     1      39.014   4.729  42.504  1.00  0.00    -0.337 OA
ATOM     20  C   UNL     1      38.842   2.985  44.131  1.00  0.00     0.180 C 
ATOM     21  C   UNL     1      38.896   3.331  42.646  1.00  0.00     0.179 C 
BRANCH  17  22
ATOM     22  C   UNL     1      39.636   6.272  44.270  1.00  0.00     0.225 C 
BRANCH  22  23
ATOM     23  O   UNL     1      40.124   5.790  45.493  1.00  0.00    -0.391 OA
ATOM     24  H   UNL     1      40.962   5.298  45.293  1.00  0.00     0.210 HD
ENDBRANCH  22  23
ENDBRANCH  17  22
BRANCH  18  25
ATOM     25  O   UNL     1      36.811   4.045  44.873  1.00  0.00    -0.385 OA
ATOM     26  H   UNL     1      36.664   3.308  45.523  1.00  0.00     0.211 HD
ENDBRANCH  18  25
BRANCH  20  27
ATOM     27  O   UNL     1      40.124   2.814  44.681  1.00  0.00    -0.387 OA
ATOM     28  H   UNL     1      40.627   3.652  44.506  1.00  0.00     0.211 HD
ENDBRANCH  20  27
BRANCH  21  29
ATOM     29  C   UNL     1      40.008   2.619  41.863  1.00  0.00     0.191 C 
BRANCH  29  30
ATOM     30  O   UNL     1      40.099   1.274  42.245  1.00  0.00    -0.394 OA
ATOM     31  H   UNL     1      39.294   0.827  41.875  1.00  0.00     0.210 HD
ENDBRANCH  29  30
ENDBRANCH  21  29
ENDBRANCH   1  17
TORSDOF 13
ENDMDL
MODEL 6
REMARK VINA RESULT:    -5.314      1.645      3.319
REMARK INTER + INTRA:          -9.648
REMARK INTER:                  -8.438
REMARK INTRA:                  -1.210
REMARK UNBOUND:                -1.538
REMARK SMILES OC[C@@H]1O[C@@](CO)(O[C@H]2O[C@@H](CO)[C@@H](O)[C@H](O)[C@@H]2O)[C@@H](O)[C@@H]1O
REMARK SMILES IDX 8 1 9 2 11 3 14 4 10 5 16 6 18 7 12 8 13 9 15 11 17 13 19 15
REMARK SMILES IDX 5 17 20 18 4 19 22 20 3 21 6 22 7 23 21 25 23 27 2 29 1 30
REMARK H PARENT 13 10 15 12 17 14 19 16 7 24 21 26 23 28 1 31
REMARK Flexibility Score: inf
ROOT
ATOM      1  O   UNL     1      21.832   1.799  38.105  1.00  0.00    -0.313 OA
ENDROOT
BRANCH   1   2
ATOM      2  C   UNL     1      22.202   2.254  36.806  1.00  0.00     0.285 C 
ATOM      3  C   UNL     1      23.944   2.784  35.338  1.00  0.00     0.178 C 
ATOM      4  C   UNL     1      23.313   2.010  34.154  1.00  0.00     0.177 C 
ATOM      5  O   UNL     1      23.602   2.177  36.573  1.00  0.00    -0.341 OA
ATOM      6  C   UNL     1      21.780   1.988  34.312  1.00  0.00     0.179 C 
ATOM      7  C   UNL     1      21.406   1.485  35.720  1.00  0.00     0.202 C 
BRANCH   3   8
ATOM      8  C   UNL     1      25.474   2.834  35.217  1.00  0.00     0.191 C 
BRANCH   8   9
ATOM      9  O   UNL     1      25.948   4.113  35.544  1.00  0.00    -0.394 OA
ATOM     10  H   UNL     1      25.708   4.271  36.495  1.00  0.00     0.210 HD
ENDBRANCH   8   9
ENDBRANCH   3   8
BRANCH   4  11
ATOM     11  O   UNL     1      23.788   0.686  34.125  1.00  0.00    -0.387 OA
ATOM     12  H   UNL     1      24.396   0.610  33.344  1.00  0.00     0.211 HD
ENDBRANCH   4  11
BRANCH   6  13
ATOM     13  O   UNL     1      21.257   3.277  34.105  1.00  0.00    -0.387 OA
ATOM     14  H   UNL     1      20.678   3.482  34.884  1.00  0.00     0.211 HD
ENDBRANCH   6  13
BRANCH   7  15
ATOM     15  O   UNL     1      20.019   1.569  35.938  1.00  0.00    -0.385 OA
ATOM     16  H   UNL     1      19.730   0.738  36.398  1.00  0.00     0.211 HD
ENDBRANCH   7  15
ENDBRANCH   1   2
BRANCH   1  17
ATOM     17  C   UNL     1      21.731   2.786  39.136  1.00  0.00     0.224 C 
ATOM     18  C   UNL     1      21.432   2.072  40.482  1.00  0.00     0.208 C 
ATOM     19  O   UNL     1      22.931   3.534  39.290  1.00  0.00    -0.337 OA
ATOM     20  C   UNL     1      22.356   2.745  41.473  1.00  0.00     0.180 C 
ATOM     21  C   UNL     1      23.469   3.259  40.564  1.00  0.00     0.179 C 
BRANCH  17  22
ATOM     22  C   UNL     1      20.569   3.747  38.780  1.00  0.00     0.225 C 
BRANCH  22  23
ATOM     23  O   UNL     1      20.575   4.885  39.600  1.00  0.00    -0.391 OA
ATOM     24  H   UNL     1      21.421   4.861  40.117  1.00  0.00     0.210 HD
ENDBRANCH  22  23
ENDBRANCH  17  22
BRANCH  18  25
ATOM     25  O   UNL     1      21.686   0.686  40.420  1.00  0.00    -0.385 OA
ATOM     26  H   UNL     1      20.953   0.213  40.895  1.00  0.00     0.211 HD
ENDBRANCH  18  25
BRANCH  20  27
ATOM     27  O   UNL     1      21.674   3.792  42.117  1.00  0.00    -0.387 OA
ATOM     28  H   UNL     1      21.494   3.491  43.046  1.00  0.00     0.211 HD
ENDBRANCH  20  27
BRANCH  21  29
ATOM     29  C   UNL     1      24.221   4.484  41.102  1.00  0.00     0.191 C 
BRANCH  29  30
ATOM     30  O   UNL     1      23.392   5.614  41.101  1.00  0.00    -0.394 OA
ATOM     31  H   UNL     1      23.889   6.320  40.613  1.00  0.00     0.210 HD
ENDBRANCH  29  30
ENDBRANCH  21  29
ENDBRANCH   1  17
TORSDOF 13
ENDMDL
MODEL 7
REMARK VINA RESULT:    -5.113      1.818      6.040
REMARK INTER + INTRA:          -9.342
REMARK INTER:                  -9.148
REMARK INTRA:                  -0.194
REMARK UNBOUND:                -1.538
REMARK SMILES OC[C@@H]1O[C@@](CO)(O[C@H]2O[C@@H](CO)[C@@H](O)[C@H](O)[C@@H]2O)[C@@H](O)[C@@H]1O
REMARK SMILES IDX 8 1 9 2 11 3 14 4 10 5 16 6 18 7 12 8 13 9 15 11 17 13 19 15
REMARK SMILES IDX 5 17 20 18 4 19 22 20 3 21 6 22 7 23 21 25 23 27 2 29 1 30
REMARK H PARENT 13 10 15 12 17 14 19 16 7 24 21 26 23 28 1 31
REMARK Flexibility Score: inf
ROOT
ATOM      1  O   UNL     1      22.589   1.840  36.788  1.00  0.00    -0.313 OA
ENDROOT
BRANCH   1   2
ATOM      2  C   UNL     1      22.386   2.034  38.186  1.00  0.00     0.285 C 
ATOM      3  C   UNL     1      22.875   3.322  40.076  1.00  0.00     0.178 C 
ATOM      4  C   UNL     1      21.397   3.389  40.533  1.00  0.00     0.177 C 
ATOM      5  O   UNL     1      22.960   3.245  38.662  1.00  0.00    -0.341 OA
ATOM      6  C   UNL     1      20.649   2.136  40.040  1.00  0.00     0.179 C 
ATOM      7  C   UNL     1      20.877   1.953  38.527  1.00  0.00     0.202 C 
BRANCH   3   8
ATOM      8  C   UNL     1      23.660   4.554  40.552  1.00  0.00     0.191 C 
BRANCH   8   9
ATOM      9  O   UNL     1      22.867   5.342  41.398  1.00  0.00    -0.394 OA
ATOM     10  H   UNL     1      22.896   4.915  42.295  1.00  0.00     0.210 HD
ENDBRANCH   8   9
ENDBRANCH   3   8
BRANCH   4  11
ATOM     11  O   UNL     1      20.771   4.533  40.005  1.00  0.00    -0.387 OA
ATOM     12  H   UNL     1      20.636   4.372  39.035  1.00  0.00     0.211 HD
ENDBRANCH   4  11
BRANCH   6  13
ATOM     13  O   UNL     1      21.099   1.001  40.737  1.00  0.00    -0.387 OA
ATOM     14  H   UNL     1      22.058   1.151  40.945  1.00  0.00     0.211 HD
ENDBRANCH   6  13
BRANCH   7  15
ATOM     15  O   UNL     1      20.307   0.750  38.069  1.00  0.00    -0.385 OA
ATOM     16  H   UNL     1      19.324   0.880  38.011  1.00  0.00     0.211 HD
ENDBRANCH   7  15
ENDBRANCH   1   2
BRANCH   1  17
ATOM     17  C   UNL     1      22.401   2.977  35.940  1.00  0.00     0.224 C 
ATOM     18  C   UNL     1      21.385   2.606  34.826  1.00  0.00     0.208 C 
ATOM     19  O   UNL     1      21.892   4.102  36.645  1.00  0.00    -0.337 OA
ATOM     20  C   UNL     1      20.460   3.801  34.754  1.00  0.00     0.180 C 
ATOM     21  C   UNL     1      20.603   4.392  36.154  1.00  0.00     0.179 C 
BRANCH  17  22
ATOM     22  C   UNL     1      23.767   3.344  35.306  1.00  0.00     0.225 C 
BRANCH  22  23
ATOM     23  O   UNL     1      23.961   2.679  34.086  1.00  0.00    -0.391 OA
ATOM     24  H   UNL     1      24.838   2.979  33.733  1.00  0.00     0.210 HD
ENDBRANCH  22  23
ENDBRANCH  17  22
BRANCH  18  25
ATOM     25  O   UNL     1      20.665   1.432  35.129  1.00  0.00    -0.385 OA
ATOM     26  H   UNL     1      19.937   1.331  34.461  1.00  0.00     0.211 HD
ENDBRANCH  18  25
BRANCH  20  27
ATOM     27  O   UNL     1      20.909   4.685  33.758  1.00  0.00    -0.387 OA
ATOM     28  H   UNL     1      21.353   4.135  33.062  1.00  0.00     0.211 HD
ENDBRANCH  20  27
BRANCH  21  29
ATOM     29  C   UNL     1      20.322   5.899  36.244  1.00  0.00     0.191 C 
BRANCH  29  30
ATOM     30  O   UNL     1      21.442   6.582  36.737  1.00  0.00    -0.394 OA
ATOM     31  H   UNL     1      21.214   7.547  36.701  1.00  0.00     0.210 HD
ENDBRANCH  29  30
ENDBRANCH  21  29
ENDBRANCH   1  17
TORSDOF 13
ENDMDL
MODEL 8
REMARK VINA RESULT:    -5.065     11.931     14.139
REMARK INTER + INTRA:          -9.268
REMARK INTER:                  -7.652
REMARK INTRA:                  -1.616
REMARK UNBOUND:                -1.538
REMARK SMILES OC[C@@H]1O[C@@](CO)(O[C@H]2O[C@@H](CO)[C@@H](O)[C@H](O)[C@@H]2O)[C@@H](O)[C@@H]1O
REMARK SMILES IDX 8 1 9 2 11 3 14 4 10 5 16 6 18 7 12 8 13 9 15 11 17 13 19 15
REMARK SMILES IDX 5 17 20 18 4 19 22 20 3 21 6 22 7 23 21 25 23 27 2 29 1 30
REMARK H PARENT 13 10 15 12 17 14 19 16 7 24 21 26 23 28 1 31
REMARK Flexibility Score: inf
ROOT
ATOM      1  O   UNL     1      33.949  -0.300  38.174  1.00  0.00    -0.313 OA
ENDROOT
BRANCH   1   2
ATOM      2  C   UNL     1      33.576   0.338  39.393  1.00  0.00     0.285 C 
ATOM      3  C   UNL     1      33.951   2.114  40.868  1.00  0.00     0.178 C 
ATOM      4  C   UNL     1      32.443   2.433  41.022  1.00  0.00     0.177 C 
ATOM      5  O   UNL     1      34.224   1.591  39.579  1.00  0.00    -0.341 OA
ATOM      6  C   UNL     1      31.621   1.149  40.802  1.00  0.00     0.179 C 
ATOM      7  C   UNL     1      32.036   0.483  39.475  1.00  0.00     0.202 C 
BRANCH   3   8
ATOM      8  C   UNL     1      34.810   3.369  41.085  1.00  0.00     0.191 C 
BRANCH   8   9
ATOM      9  O   UNL     1      34.109   4.314  41.848  1.00  0.00    -0.394 OA
ATOM     10  H   UNL     1      34.293   5.201  41.441  1.00  0.00     0.210 HD
ENDBRANCH   8   9
ENDBRANCH   3   8
BRANCH   4  11
ATOM     11  O   UNL     1      32.048   3.398  40.076  1.00  0.00    -0.387 OA
ATOM     12  H   UNL     1      32.742   3.414  39.367  1.00  0.00     0.211 HD
ENDBRANCH   4  11
BRANCH   6  13
ATOM     13  O   UNL     1      31.822   0.260  41.873  1.00  0.00    -0.387 OA
ATOM     14  H   UNL     1      31.374  -0.591  41.628  1.00  0.00     0.211 HD
ENDBRANCH   6  13
BRANCH   7  15
ATOM     15  O   UNL     1      31.390  -0.756  39.305  1.00  0.00    -0.385 OA
ATOM     16  H   UNL     1      30.580  -0.605  38.750  1.00  0.00     0.211 HD
ENDBRANCH   7  15
ENDBRANCH   1   2
BRANCH   1  17
ATOM     17  C   UNL     1      34.708  -1.508  38.278  1.00  0.00     0.224 C 
ATOM     18  C   UNL     1      35.982  -1.374  37.400  1.00  0.00     0.208 C 
ATOM     19  O   UNL     1      35.118  -1.778  39.612  1.00  0.00    -0.337 OA
ATOM     20  C   UNL     1      37.092  -1.920  38.270  1.00  0.00     0.180 C 
ATOM     21  C   UNL     1      36.525  -1.707  39.671  1.00  0.00     0.179 C 
BRANCH  17  22
ATOM     22  C   UNL     1      33.834  -2.680  37.762  1.00  0.00     0.225 C 
BRANCH  22  23
ATOM     23  O   UNL     1      34.301  -3.915  38.235  1.00  0.00    -0.391 OA
ATOM     24  H   UNL     1      33.569  -4.309  38.777  1.00  0.00     0.210 HD
ENDBRANCH  22  23
ENDBRANCH  17  22
BRANCH  18  25
ATOM     25  O   UNL     1      36.241  -0.037  37.035  1.00  0.00    -0.385 OA
ATOM     26  H   UNL     1      37.152   0.202  37.351  1.00  0.00     0.211 HD
ENDBRANCH  18  25
BRANCH  20  27
ATOM     27  O   UNL     1      37.292  -3.281  37.982  1.00  0.00    -0.387 OA
ATOM     28  H   UNL     1      37.427  -3.743  38.850  1.00  0.00     0.211 HD
ENDBRANCH  20  27
BRANCH  21  29
ATOM     29  C   UNL     1      37.065  -2.674  40.734  1.00  0.00     0.191 C 
BRANCH  29  30
ATOM     30  O   UNL     1      36.473  -3.937  40.601  1.00  0.00    -0.394 OA
ATOM     31  H   UNL     1      35.622  -3.792  40.112  1.00  0.00     0.210 HD
ENDBRANCH  29  30
ENDBRANCH  21  29
ENDBRANCH   1  17
TORSDOF 13
ENDMDL
MODEL 9
REMARK VINA RESULT:    -4.990      1.495      2.157
REMARK INTER + INTRA:          -9.154
REMARK INTER:                  -7.863
REMARK INTRA:                  -1.291
REMARK UNBOUND:                -1.538
REMARK SMILES OC[C@@H]1O[C@@](CO)(O[C@H]2O[C@@H](CO)[C@@H](O)[C@H](O)[C@@H]2O)[C@@H](O)[C@@H]1O
REMARK SMILES IDX 8 1 9 2 11 3 14 4 10 5 16 6 18 7 12 8 13 9 15 11 17 13 19 15
REMARK SMILES IDX 5 17 20 18 4 19 22 20 3 21 6 22 7 23 21 25 23 27 2 29 1 30
REMARK H PARENT 13 10 15 12 17 14 19 16 7 24 21 26 23 28 1 31
REMARK Flexibility Score: inf
ROOT
ATOM      1  O   UNL     1      21.870   2.961  37.583  1.00  0.00    -0.313 OA
ENDROOT
BRANCH   1   2
ATOM      2  C   UNL     1      22.518   2.064  36.685  1.00  0.00     0.285 C 
ATOM      3  C   UNL     1      22.315   0.188  35.303  1.00  0.00     0.178 C 
ATOM      4  C   UNL     1      23.070   0.852  34.125  1.00  0.00     0.177 C 
ATOM      5  O   UNL     1      21.614   1.160  36.062  1.00  0.00    -0.341 OA
ATOM      6  C   UNL     1      24.065   1.893  34.673  1.00  0.00     0.179 C 
ATOM      7  C   UNL     1      23.339   2.855  35.634  1.00  0.00     0.202 C 
BRANCH   3   8
ATOM      8  C   UNL     1      21.314  -0.863  34.800  1.00  0.00     0.191 C 
BRANCH   8   9
ATOM      9  O   UNL     1      21.694  -1.334  33.535  1.00  0.00    -0.394 OA
ATOM     10  H   UNL     1      22.142  -2.209  33.680  1.00  0.00     0.210 HD
ENDBRANCH   8   9
ENDBRANCH   3   8
BRANCH   4  11
ATOM     11  O   UNL     1      22.163   1.495  33.262  1.00  0.00    -0.387 OA
ATOM     12  H   UNL     1      22.658   1.718  32.431  1.00  0.00     0.211 HD
ENDBRANCH   4  11
BRANCH   6  13
ATOM     13  O   UNL     1      25.119   1.246  35.342  1.00  0.00    -0.387 OA
ATOM     14  H   UNL     1      24.933   0.272  35.299  1.00  0.00     0.211 HD
ENDBRANCH   6  13
BRANCH   7  15
ATOM     15  O   UNL     1      24.244   3.742  36.245  1.00  0.00    -0.385 OA
ATOM     16  H   UNL     1      25.079   3.241  36.440  1.00  0.00     0.211 HD
ENDBRANCH   7  15
ENDBRANCH   1   2
BRANCH   1  17
ATOM     17  C   UNL     1      22.069   2.738  38.982  1.00  0.00     0.224 C 
ATOM     18  C   UNL     1      23.092   3.778  39.513  1.00  0.00     0.208 C 
ATOM     19  O   UNL     1      20.868   2.878  39.731  1.00  0.00    -0.337 OA
ATOM     20  C   UNL     1      22.491   4.261  40.814  1.00  0.00     0.180 C 
ATOM     21  C   UNL     1      21.006   3.985  40.594  1.00  0.00     0.179 C 
BRANCH  17  22
ATOM     22  C   UNL     1      22.628   1.304  39.173  1.00  0.00     0.225 C 
BRANCH  22  23
ATOM     23  O   UNL     1      21.690   0.467  39.795  1.00  0.00    -0.391 OA
ATOM     24  H   UNL     1      20.955   0.326  39.144  1.00  0.00     0.210 HD
ENDBRANCH  22  23
ENDBRANCH  17  22
BRANCH  18  25
ATOM     25  O   UNL     1      23.277   4.851  38.617  1.00  0.00    -0.385 OA
ATOM     26  H   UNL     1      23.122   5.699  39.110  1.00  0.00     0.211 HD
ENDBRANCH  18  25
BRANCH  20  27
ATOM     27  O   UNL     1      23.014   3.512  41.882  1.00  0.00    -0.387 OA
ATOM     28  H   UNL     1      22.618   2.604  41.820  1.00  0.00     0.211 HD
ENDBRANCH  20  27
BRANCH  21  29
ATOM     29  C   UNL     1      20.198   3.762  41.880  1.00  0.00     0.191 C 
BRANCH  29  30
ATOM     30  O   UNL     1      20.296   4.876  42.725  1.00  0.00    -0.394 OA
ATOM     31  H   UNL     1      19.602   5.516  42.419  1.00  0.00     0.210 HD
ENDBRANCH  29  30
ENDBRANCH  21  29
ENDBRANCH   1  17
TORSDOF 13
ENDMDL
