MODEL 1
REMARK VINA RESULT:    -3.793      0.000      0.000
REMARK INTER + INTRA:          -5.900
REMARK INTER:                  -5.789
REMARK INTRA:                  -0.111
REMARK UNBOUND:                -0.111
REMARK SMILES CC1=CCC[C@@H](C)C(=O)C[C@H](C(C)C)C(=O)C1
REMARK SMILES IDX 8 1 9 2 6 3 7 4 5 5 4 6 3 7 2 8 1 9 10 11 11 12 15 13 16 14
REMARK SMILES IDX 17 15 12 17 13 18 14 19
REMARK H PARENT
REMARK Flexibility Score: 70.00
ROOT
ATOM      1  C   UNL     1      -3.689  -0.527  10.077  1.00  0.00     0.136 C 
ATOM      2  O   UNL     1      -4.339  -0.720   9.059  1.00  0.00    -0.299 OA
ENDROOT
BRANCH   1   3
ATOM      3  C   UNL     1      -2.973   0.797  10.276  1.00  0.00     0.053 C 
ATOM      4  C   UNL     1      -3.979   1.949  10.422  1.00  0.00     0.016 C 
BRANCH   3   5
ATOM      5  C   UNL     1      -1.996   1.060   9.104  1.00  0.00     0.015 C 
BRANCH   5   6
ATOM      6  C   UNL     1      -0.836   0.047   9.073  1.00  0.00     0.028 C 
BRANCH   6   7
ATOM      7  C   UNL     1      -0.089   0.036  10.381  1.00  0.00    -0.028 C 
ATOM      8  C   UNL     1       0.253  -1.079  11.064  1.00  0.00    -0.070 CG0
ATOM      9  C   UNL     1       1.057  -0.915  12.329  1.00  0.00     0.039 C 
ATOM     10  G   UNL     1      -0.141  -2.481  10.621  1.00  0.00     0.000 G0
ENDBRANCH   6   7
ENDBRANCH   5   6
ENDBRANCH   3   5
ENDBRANCH   1   3
BRANCH   1  11
ATOM     11  C   UNL     1      -3.590  -1.633  11.104  1.00  0.00     0.087 C 
BRANCH  11  12
ATOM     12  C   UNL     1      -2.782  -2.844  10.576  1.00  0.00     0.066 C 
BRANCH  12  13
ATOM     13  C   UNL     1      -1.426  -2.990  11.259  1.00  0.00     0.140 C 
ATOM     14  O   UNL     1      -1.391  -3.453  12.391  1.00  0.00    -0.299 OA
BRANCH  13  15
ATOM     15  C   UNL     1      -0.137  -2.504  10.637  1.00  0.00     0.106 CG0
ATOM     16  G   UNL     1       0.223  -1.092  11.075  1.00  0.00     0.000 G0
ENDBRANCH  13  15
ENDBRANCH  12  13
BRANCH  12  17
ATOM     17  C   UNL     1      -3.624  -4.159  10.532  1.00  0.00    -0.006 C 
ATOM     18  C   UNL     1      -4.641  -4.246   9.382  1.00  0.00     0.008 C 
ATOM     19  C   UNL     1      -4.319  -4.431  11.876  1.00  0.00     0.008 C 
ENDBRANCH  12  17
ENDBRANCH  11  12
ENDBRANCH   1  11
TORSDOF 1
ENDMDL
MODEL 2
REMARK VINA RESULT:    -3.760      6.240      8.346
REMARK INTER + INTRA:          -5.849
REMARK INTER:                  -6.105
REMARK INTRA:                   0.256
REMARK UNBOUND:                -0.111
REMARK SMILES CC1=CCC[C@@H](C)C(=O)C[C@H](C(C)C)C(=O)C1
REMARK SMILES IDX 8 1 9 2 6 3 7 4 5 5 4 6 3 7 2 8 1 9 10 11 11 12 15 13 16 14
REMARK SMILES IDX 17 15 12 17 13 18 14 19
REMARK H PARENT
REMARK Flexibility Score: 70.00
ROOT
ATOM      1  C   UNL     1      -6.510   3.288  16.367  1.00  0.00     0.136 C 
ATOM      2  O   UNL     1      -6.897   2.241  16.868  1.00  0.00    -0.299 OA
ENDROOT
BRANCH   1   3
ATOM      3  C   UNL     1      -7.508   4.389  16.053  1.00  0.00     0.053 C 
ATOM      4  C   UNL     1      -8.417   3.988  14.880  1.00  0.00     0.016 C 
BRANCH   3   5
ATOM      5  C   UNL     1      -6.768   5.715  15.753  1.00  0.00     0.015 C 
BRANCH   5   6
ATOM      6  C   UNL     1      -6.751   6.047  14.250  1.00  0.00     0.028 C 
BRANCH   6   7
ATOM      7  C   UNL     1      -5.573   6.918  13.899  1.00  0.00    -0.028 C 
ATOM      8  C   UNL     1      -4.473   6.497  13.235  1.00  0.00    -0.070 CG0
ATOM      9  C   UNL     1      -3.410   7.515  12.909  1.00  0.00     0.039 C 
ATOM     10  G   UNL     1      -4.258   5.051  12.812  1.00  0.00     0.000 G0
ENDBRANCH   6   7
ENDBRANCH   5   6
ENDBRANCH   3   5
ENDBRANCH   1   3
BRANCH   1  11
ATOM     11  C   UNL     1      -5.041   3.448  16.045  1.00  0.00     0.087 C 
BRANCH  11  12
ATOM     12  C   UNL     1      -4.733   3.116  14.564  1.00  0.00     0.066 C 
BRANCH  12  13
ATOM     13  C   UNL     1      -3.811   4.140  13.910  1.00  0.00     0.140 C 
ATOM     14  O   UNL     1      -2.685   4.283  14.367  1.00  0.00    -0.299 OA
BRANCH  13  15
ATOM     15  C   UNL     1      -4.256   5.047  12.787  1.00  0.00     0.106 CG0
ATOM     16  G   UNL     1      -4.469   6.481  13.248  1.00  0.00     0.000 G0
ENDBRANCH  13  15
ENDBRANCH  12  13
BRANCH  12  17
ATOM     17  C   UNL     1      -4.295   1.631  14.356  1.00  0.00    -0.006 C 
ATOM     18  C   UNL     1      -2.873   1.294  14.836  1.00  0.00     0.008 C 
ATOM     19  C   UNL     1      -4.481   1.185  12.897  1.00  0.00     0.008 C 
ENDBRANCH  12  17
ENDBRANCH  11  12
ENDBRANCH   1  11
TORSDOF 1
ENDMDL
MODEL 3
REMARK VINA RESULT:    -3.599      6.114      8.930
REMARK INTER + INTRA:          -5.604
REMARK INTER:                  -5.339
REMARK INTRA:                  -0.265
REMARK UNBOUND:                -0.111
REMARK SMILES CC1=CCC[C@@H](C)C(=O)C[C@H](C(C)C)C(=O)C1
REMARK SMILES IDX 8 1 9 2 6 3 7 4 5 5 4 6 3 7 2 8 1 9 10 11 11 12 15 13 16 14
REMARK SMILES IDX 17 15 12 17 13 18 14 19
REMARK H PARENT
REMARK Flexibility Score: 70.00
ROOT
ATOM      1  C   UNL     1      -6.825   5.267  15.038  1.00  0.00     0.136 C 
ATOM      2  O   UNL     1      -6.871   5.865  16.105  1.00  0.00    -0.299 OA
ENDROOT
BRANCH   1   3
ATOM      3  C   UNL     1      -7.455   3.891  14.916  1.00  0.00     0.053 C 
ATOM      4  C   UNL     1      -8.976   3.963  15.120  1.00  0.00     0.016 C 
BRANCH   3   5
ATOM      5  C   UNL     1      -6.806   2.913  15.925  1.00  0.00     0.015 C 
BRANCH   5   6
ATOM      6  C   UNL     1      -5.309   2.689  15.642  1.00  0.00     0.028 C 
BRANCH   6   7
ATOM      7  C   UNL     1      -5.094   2.159  14.249  1.00  0.00    -0.028 C 
ATOM      8  C   UNL     1      -4.158   2.614  13.386  1.00  0.00    -0.070 CG0
ATOM      9  C   UNL     1      -4.034   1.929  12.049  1.00  0.00     0.039 C 
ATOM     10  G   UNL     1      -3.235   3.784  13.699  1.00  0.00     0.000 G0
ENDBRANCH   6   7
ENDBRANCH   5   6
ENDBRANCH   3   5
ENDBRANCH   1   3
BRANCH   1  11
ATOM     11  C   UNL     1      -6.110   5.908  13.870  1.00  0.00     0.087 C 
BRANCH  11  12
ATOM     12  C   UNL     1      -4.587   6.037  14.122  1.00  0.00     0.066 C 
BRANCH  12  13
ATOM     13  C   UNL     1      -3.762   5.119  13.226  1.00  0.00     0.140 C 
ATOM     14  O   UNL     1      -3.602   5.439  12.056  1.00  0.00    -0.299 OA
BRANCH  13  15
ATOM     15  C   UNL     1      -3.212   3.792  13.695  1.00  0.00     0.106 CG0
ATOM     16  G   UNL     1      -4.151   2.634  13.390  1.00  0.00     0.000 G0
ENDBRANCH  13  15
ENDBRANCH  12  13
BRANCH  12  17
ATOM     17  C   UNL     1      -4.103   7.522  14.143  1.00  0.00    -0.006 C 
ATOM     18  C   UNL     1      -2.945   7.820  15.111  1.00  0.00     0.008 C 
ATOM     19  C   UNL     1      -5.267   8.493  14.393  1.00  0.00     0.008 C 
ENDBRANCH  12  17
ENDBRANCH  11  12
ENDBRANCH   1  11
TORSDOF 1
ENDMDL
MODEL 4
REMARK VINA RESULT:    -3.596      1.916      3.996
REMARK INTER + INTRA:          -5.599
REMARK INTER:                  -5.495
REMARK INTRA:                  -0.104
REMARK UNBOUND:                -0.111
REMARK SMILES CC1=CCC[C@@H](C)C(=O)C[C@H](C(C)C)C(=O)C1
REMARK SMILES IDX 8 1 9 2 6 3 7 4 5 5 4 6 3 7 2 8 1 9 10 11 11 12 15 13 16 14
REMARK SMILES IDX 17 15 12 17 13 18 14 19
REMARK H PARENT
REMARK Flexibility Score: 70.00
ROOT
ATOM      1  C   UNL     1      -3.589  -2.197  10.323  1.00  0.00     0.136 C 
ATOM      2  O   UNL     1      -3.442  -2.551  11.485  1.00  0.00    -0.299 OA
ENDROOT
BRANCH   1   3
ATOM      3  C   UNL     1      -3.692  -3.239   9.224  1.00  0.00     0.053 C 
ATOM      4  C   UNL     1      -4.650  -4.371   9.627  1.00  0.00     0.016 C 
BRANCH   3   5
ATOM      5  C   UNL     1      -2.289  -3.797   8.880  1.00  0.00     0.015 C 
BRANCH   5   6
ATOM      6  C   UNL     1      -1.442  -2.792   8.078  1.00  0.00     0.028 C 
BRANCH   6   7
ATOM      7  C   UNL     1      -0.180  -2.433   8.817  1.00  0.00    -0.028 C 
ATOM      8  C   UNL     1       0.075  -1.223   9.365  1.00  0.00    -0.070 CG0
ATOM      9  C   UNL     1       1.365  -1.050  10.127  1.00  0.00     0.039 C 
ATOM     10  G   UNL     1      -0.870  -0.037   9.241  1.00  0.00     0.000 G0
ENDBRANCH   6   7
ENDBRANCH   5   6
ENDBRANCH   3   5
ENDBRANCH   1   3
BRANCH   1  11
ATOM     11  C   UNL     1      -3.635  -0.719  10.008  1.00  0.00     0.087 C 
BRANCH  11  12
ATOM     12  C   UNL     1      -2.845   0.120  11.043  1.00  0.00     0.066 C 
BRANCH  12  13
ATOM     13  C   UNL     1      -1.426   0.439  10.584  1.00  0.00     0.140 C 
ATOM     14  O   UNL     1      -0.733   1.155  11.293  1.00  0.00    -0.299 OA
BRANCH  13  15
ATOM     15  C   UNL     1      -0.873  -0.015   9.254  1.00  0.00     0.106 CG0
ATOM     16  G   UNL     1       0.048  -1.219   9.388  1.00  0.00     0.000 G0
ENDBRANCH  13  15
ENDBRANCH  12  13
BRANCH  12  17
ATOM     17  C   UNL     1      -3.649   1.357  11.556  1.00  0.00    -0.006 C 
ATOM     18  C   UNL     1      -4.813   1.033  12.508  1.00  0.00     0.008 C 
ATOM     19  C   UNL     1      -4.143   2.233  10.394  1.00  0.00     0.008 C 
ENDBRANCH  12  17
ENDBRANCH  11  12
ENDBRANCH   1  11
TORSDOF 1
ENDMDL
MODEL 5
REMARK VINA RESULT:    -3.548      2.080      4.390
REMARK INTER + INTRA:          -5.526
REMARK INTER:                  -5.292
REMARK INTRA:                  -0.234
REMARK UNBOUND:                -0.111
REMARK SMILES CC1=CCC[C@@H](C)C(=O)C[C@H](C(C)C)C(=O)C1
REMARK SMILES IDX 8 1 9 2 6 3 7 4 5 5 4 6 3 7 2 8 1 9 10 11 11 12 15 13 16 14
REMARK SMILES IDX 17 15 12 17 13 18 14 19
REMARK H PARENT
REMARK Flexibility Score: 70.00
ROOT
ATOM      1  C   UNL     1      -2.159  -3.199  10.511  1.00  0.00     0.136 C 
ATOM      2  O   UNL     1      -1.368  -3.841   9.834  1.00  0.00    -0.299 OA
ENDROOT
BRANCH   1   3
ATOM      3  C   UNL     1      -3.543  -2.891   9.967  1.00  0.00     0.053 C 
ATOM      4  C   UNL     1      -4.375  -4.175   9.821  1.00  0.00     0.016 C 
BRANCH   3   5
ATOM      5  C   UNL     1      -3.433  -2.145   8.614  1.00  0.00     0.015 C 
BRANCH   5   6
ATOM      6  C   UNL     1      -3.199  -0.635   8.798  1.00  0.00     0.028 C 
BRANCH   6   7
ATOM      7  C   UNL     1      -4.011  -0.095   9.946  1.00  0.00    -0.028 C 
ATOM      8  C   UNL     1      -3.500   0.565  11.009  1.00  0.00    -0.070 CG0
ATOM      9  C   UNL     1      -4.461   1.095  12.043  1.00  0.00     0.039 C 
ATOM     10  G   UNL     1      -2.008   0.790  11.211  1.00  0.00     0.000 G0
ENDBRANCH   6   7
ENDBRANCH   5   6
ENDBRANCH   3   5
ENDBRANCH   1   3
BRANCH   1  11
ATOM     11  C   UNL     1      -1.724  -2.700  11.871  1.00  0.00     0.087 C 
BRANCH  11  12
ATOM     12  C   UNL     1      -0.743  -1.507  11.764  1.00  0.00     0.066 C 
BRANCH  12  13
ATOM     13  C   UNL     1      -1.373  -0.186  12.195  1.00  0.00     0.140 C 
ATOM     14  O   UNL     1      -1.457   0.055  13.391  1.00  0.00    -0.299 OA
BRANCH  13  15
ATOM     15  C   UNL     1      -1.977   0.793  11.215  1.00  0.00     0.106 CG0
ATOM     16  G   UNL     1      -3.467   0.560  11.006  1.00  0.00     0.000 G0
ENDBRANCH  13  15
ENDBRANCH  12  13
BRANCH  12  17
ATOM     17  C   UNL     1       0.643  -1.804  12.421  1.00  0.00    -0.006 C 
ATOM     18  C   UNL     1       1.727  -0.742  12.170  1.00  0.00     0.008 C 
ATOM     19  C   UNL     1       1.165  -3.197  12.036  1.00  0.00     0.008 C 
ENDBRANCH  12  17
ENDBRANCH  11  12
ENDBRANCH   1  11
TORSDOF 1
ENDMDL
MODEL 6
REMARK VINA RESULT:    -3.510      6.092      8.664
REMARK INTER + INTRA:          -5.468
REMARK INTER:                  -5.173
REMARK INTRA:                  -0.296
REMARK UNBOUND:                -0.111
REMARK SMILES CC1=CCC[C@@H](C)C(=O)C[C@H](C(C)C)C(=O)C1
REMARK SMILES IDX 8 1 9 2 6 3 7 4 5 5 4 6 3 7 2 8 1 9 10 11 11 12 15 13 16 14
REMARK SMILES IDX 17 15 12 17 13 18 14 19
REMARK H PARENT
REMARK Flexibility Score: 70.00
ROOT
ATOM      1  C   UNL     1      -5.123   2.986  14.080  1.00  0.00     0.136 C 
ATOM      2  O   UNL     1      -5.637   2.099  13.413  1.00  0.00    -0.299 OA
ENDROOT
BRANCH   1   3
ATOM      3  C   UNL     1      -5.898   3.615  15.225  1.00  0.00     0.053 C 
ATOM      4  C   UNL     1      -6.235   2.571  16.300  1.00  0.00     0.016 C 
BRANCH   3   5
ATOM      5  C   UNL     1      -7.183   4.297  14.692  1.00  0.00     0.015 C 
BRANCH   5   6
ATOM      6  C   UNL     1      -6.895   5.670  14.057  1.00  0.00     0.028 C 
BRANCH   6   7
ATOM      7  C   UNL     1      -6.062   6.528  14.972  1.00  0.00    -0.028 C 
ATOM      8  C   UNL     1      -4.928   7.168  14.609  1.00  0.00    -0.070 CG0
ATOM      9  C   UNL     1      -4.248   8.040  15.635  1.00  0.00     0.039 C 
ATOM     10  G   UNL     1      -4.309   7.045  13.224  1.00  0.00     0.000 G0
ENDBRANCH   6   7
ENDBRANCH   5   6
ENDBRANCH   3   5
ENDBRANCH   1   3
BRANCH   1  11
ATOM     11  C   UNL     1      -3.731   3.458  13.724  1.00  0.00     0.087 C 
BRANCH  11  12
ATOM     12  C   UNL     1      -3.748   4.522  12.600  1.00  0.00     0.066 C 
BRANCH  12  13
ATOM     13  C   UNL     1      -3.332   5.905  13.091  1.00  0.00     0.140 C 
ATOM     14  O   UNL     1      -2.181   6.064  13.473  1.00  0.00    -0.299 OA
BRANCH  13  15
ATOM     15  C   UNL     1      -4.300   7.059  13.211  1.00  0.00     0.106 CG0
ATOM     16  G   UNL     1      -4.911   7.162  14.601  1.00  0.00     0.000 G0
ENDBRANCH  13  15
ENDBRANCH  12  13
BRANCH  12  17
ATOM     17  C   UNL     1      -3.008   4.048  11.308  1.00  0.00    -0.006 C 
ATOM     18  C   UNL     1      -3.923   3.587  10.161  1.00  0.00     0.008 C 
ATOM     19  C   UNL     1      -1.964   2.964  11.621  1.00  0.00     0.008 C 
ENDBRANCH  12  17
ENDBRANCH  11  12
ENDBRANCH   1  11
TORSDOF 1
ENDMDL
MODEL 7
REMARK VINA RESULT:    -3.453      7.129      9.504
REMARK INTER + INTRA:          -5.381
REMARK INTER:                  -5.121
REMARK INTRA:                  -0.260
REMARK UNBOUND:                -0.111
REMARK SMILES CC1=CCC[C@@H](C)C(=O)C[C@H](C(C)C)C(=O)C1
REMARK SMILES IDX 8 1 9 2 6 3 7 4 5 5 4 6 3 7 2 8 1 9 10 11 11 12 15 13 16 14
REMARK SMILES IDX 17 15 12 17 13 18 14 19
REMARK H PARENT
REMARK Flexibility Score: 70.00
ROOT
ATOM      1  C   UNL     1      -4.352   6.561  14.462  1.00  0.00     0.136 C 
ATOM      2  O   UNL     1      -3.365   7.276  14.359  1.00  0.00    -0.299 OA
ENDROOT
BRANCH   1   3
ATOM      3  C   UNL     1      -5.575   7.065  15.208  1.00  0.00     0.053 C 
ATOM      4  C   UNL     1      -5.921   8.502  14.790  1.00  0.00     0.016 C 
BRANCH   3   5
ATOM      5  C   UNL     1      -5.345   6.972  16.737  1.00  0.00     0.015 C 
BRANCH   5   6
ATOM      6  C   UNL     1      -6.238   5.906  17.398  1.00  0.00     0.028 C 
BRANCH   6   7
ATOM      7  C   UNL     1      -7.349   5.479  16.475  1.00  0.00    -0.028 C 
ATOM      8  C   UNL     1      -7.462   4.252  15.920  1.00  0.00    -0.070 CG0
ATOM      9  C   UNL     1      -8.673   3.970  15.066  1.00  0.00     0.039 C 
ATOM     10  G   UNL     1      -6.427   3.152  16.111  1.00  0.00     0.000 G0
ENDBRANCH   6   7
ENDBRANCH   5   6
ENDBRANCH   3   5
ENDBRANCH   1   3
BRANCH   1  11
ATOM     11  C   UNL     1      -4.316   5.173  13.864  1.00  0.00     0.087 C 
BRANCH  11  12
ATOM     12  C   UNL     1      -4.195   4.076  14.951  1.00  0.00     0.066 C 
BRANCH  12  13
ATOM     13  C   UNL     1      -5.394   3.134  14.974  1.00  0.00     0.140 C 
ATOM     14  O   UNL     1      -5.567   2.389  14.020  1.00  0.00    -0.299 OA
BRANCH  13  15
ATOM     15  C   UNL     1      -6.426   3.146  16.078  1.00  0.00     0.106 CG0
ATOM     16  G   UNL     1      -7.444   4.265  15.910  1.00  0.00     0.000 G0
ENDBRANCH  13  15
ENDBRANCH  12  13
BRANCH  12  17
ATOM     17  C   UNL     1      -2.810   3.353  14.927  1.00  0.00    -0.006 C 
ATOM     18  C   UNL     1      -1.897   3.648  16.129  1.00  0.00     0.008 C 
ATOM     19  C   UNL     1      -2.057   3.616  13.613  1.00  0.00     0.008 C 
ENDBRANCH  12  17
ENDBRANCH  11  12
ENDBRANCH   1  11
TORSDOF 1
ENDMDL
MODEL 8
REMARK VINA RESULT:    -3.346      2.148      4.683
REMARK INTER + INTRA:          -5.218
REMARK INTER:                  -4.919
REMARK INTRA:                  -0.298
REMARK UNBOUND:                -0.111
REMARK SMILES CC1=CCC[C@@H](C)C(=O)C[C@H](C(C)C)C(=O)C1
REMARK SMILES IDX 8 1 9 2 6 3 7 4 5 5 4 6 3 7 2 8 1 9 10 11 11 12 15 13 16 14
REMARK SMILES IDX 17 15 12 17 13 18 14 19
REMARK H PARENT
REMARK Flexibility Score: 70.00
ROOT
ATOM      1  C   UNL     1      -1.828  -3.093  10.533  1.00  0.00     0.136 C 
ATOM      2  O   UNL     1      -1.327  -4.127  10.111  1.00  0.00    -0.299 OA
ENDROOT
BRANCH   1   3
ATOM      3  C   UNL     1      -3.337  -2.985  10.665  1.00  0.00     0.053 C 
ATOM      4  C   UNL     1      -3.892  -4.104  11.560  1.00  0.00     0.016 C 
BRANCH   3   5
ATOM      5  C   UNL     1      -4.001  -3.012   9.267  1.00  0.00     0.015 C 
BRANCH   5   6
ATOM      6  C   UNL     1      -3.922  -1.649   8.556  1.00  0.00     0.028 C 
BRANCH   6   7
ATOM      7  C   UNL     1      -4.205  -0.520   9.513  1.00  0.00    -0.028 C 
ATOM      8  C   UNL     1      -3.438   0.584   9.651  1.00  0.00    -0.070 CG0
ATOM      9  C   UNL     1      -3.900   1.650  10.613  1.00  0.00     0.039 C 
ATOM     10  G   UNL     1      -2.137   0.796   8.891  1.00  0.00     0.000 G0
ENDBRANCH   6   7
ENDBRANCH   5   6
ENDBRANCH   3   5
ENDBRANCH   1   3
BRANCH   1  11
ATOM     11  C   UNL     1      -0.925  -1.932  10.885  1.00  0.00     0.087 C 
BRANCH  11  12
ATOM     12  C   UNL     1      -0.477  -1.144   9.629  1.00  0.00     0.066 C 
BRANCH  12  13
ATOM     13  C   UNL     1      -0.926   0.313   9.657  1.00  0.00     0.140 C 
ATOM     14  O   UNL     1      -0.325   1.093  10.384  1.00  0.00    -0.299 OA
BRANCH  13  15
ATOM     15  C   UNL     1      -2.133   0.815   8.899  1.00  0.00     0.106 CG0
ATOM     16  G   UNL     1      -3.434   0.565   9.647  1.00  0.00     0.000 G0
ENDBRANCH  13  15
ENDBRANCH  12  13
BRANCH  12  17
ATOM     17  C   UNL     1       1.036  -1.345   9.298  1.00  0.00    -0.006 C 
ATOM     18  C   UNL     1       1.327  -2.045   7.960  1.00  0.00     0.008 C 
ATOM     19  C   UNL     1       1.775  -2.059  10.441  1.00  0.00     0.008 C 
ENDBRANCH  12  17
ENDBRANCH  11  12
ENDBRANCH   1  11
TORSDOF 1
ENDMDL
MODEL 9
REMARK VINA RESULT:    -3.317      7.652      9.813
REMARK INTER + INTRA:          -5.174
REMARK INTER:                  -4.887
REMARK INTRA:                  -0.286
REMARK UNBOUND:                -0.111
REMARK SMILES CC1=CCC[C@@H](C)C(=O)C[C@H](C(C)C)C(=O)C1
REMARK SMILES IDX 8 1 9 2 6 3 7 4 5 5 4 6 3 7 2 8 1 9 10 11 11 12 15 13 16 14
REMARK SMILES IDX 17 15 12 17 13 18 14 19
REMARK H PARENT
REMARK Flexibility Score: 70.00
ROOT
ATOM      1  C   UNL     1      -6.727   5.733  14.954  1.00  0.00     0.136 C 
ATOM      2  O   UNL     1      -6.717   6.289  16.043  1.00  0.00    -0.299 OA
ENDROOT
BRANCH   1   3
ATOM      3  C   UNL     1      -7.114   4.267  14.859  1.00  0.00     0.053 C 
ATOM      4  C   UNL     1      -8.450   4.003  15.568  1.00  0.00     0.016 C 
BRANCH   3   5
ATOM      5  C   UNL     1      -5.990   3.377  15.444  1.00  0.00     0.015 C 
BRANCH   5   6
ATOM      6  C   UNL     1      -4.834   3.166  14.449  1.00  0.00     0.028 C 
BRANCH   6   7
ATOM      7  C   UNL     1      -3.564   3.803  14.948  1.00  0.00    -0.028 C 
ATOM      8  C   UNL     1      -2.971   4.882  14.389  1.00  0.00    -0.070 CG0
ATOM      9  C   UNL     1      -1.735   5.433  15.053  1.00  0.00     0.039 C 
ATOM     10  G   UNL     1      -3.489   5.556  13.126  1.00  0.00     0.000 G0
ENDBRANCH   6   7
ENDBRANCH   5   6
ENDBRANCH   3   5
ENDBRANCH   1   3
BRANCH   1  11
ATOM     11  C   UNL     1      -6.322   6.517  13.727  1.00  0.00     0.087 C 
BRANCH  11  12
ATOM     12  C   UNL     1      -5.131   7.466  14.011  1.00  0.00     0.066 C 
BRANCH  12  13
ATOM     13  C   UNL     1      -3.843   7.013  13.331  1.00  0.00     0.140 C 
ATOM     14  O   UNL     1      -3.096   7.867  12.874  1.00  0.00    -0.299 OA
BRANCH  13  15
ATOM     15  C   UNL     1      -3.494   5.558  13.119  1.00  0.00     0.106 CG0
ATOM     16  G   UNL     1      -2.988   4.891  14.389  1.00  0.00     0.000 G0
ENDBRANCH  13  15
ENDBRANCH  12  13
BRANCH  12  17
ATOM     17  C   UNL     1      -5.487   8.969  13.779  1.00  0.00    -0.006 C 
ATOM     18  C   UNL     1      -5.409   9.861  15.029  1.00  0.00     0.008 C 
ATOM     19  C   UNL     1      -6.857   9.127  13.100  1.00  0.00     0.008 C 
ENDBRANCH  12  17
ENDBRANCH  11  12
ENDBRANCH   1  11
TORSDOF 1
ENDMDL
