MODEL 1
REMARK VINA RESULT:    -4.573      0.000      0.000
REMARK INTER + INTRA:          -4.706
REMARK INTER:                  -4.706
REMARK INTRA:                   0.000
REMARK UNBOUND:                 0.000
REMARK SMILES O=c1ccc2ccc(O)cc2o1
REMARK SMILES IDX 6 1 7 2 8 3 10 4 11 5 5 6 4 7 3 8 2 9 1 10 12 11 9 12
REMARK H PARENT 9 13
REMARK Flexibility Score: inf
ROOT
ATOM      1  C   UNL     1      17.200 128.625  56.619  1.00  0.00     0.016 A 
ATOM      2  C   UNL     1      18.010 129.585  57.233  1.00  0.00     0.047 A 
ATOM      3  C   UNL     1      18.769 130.473  56.456  1.00  0.00     0.119 A 
ATOM      4  C   UNL     1      18.715 130.398  55.059  1.00  0.00     0.094 A 
ATOM      5  C   UNL     1      17.909 129.440  54.435  1.00  0.00     0.142 A 
ATOM      6  C   UNL     1      17.146 128.547  55.219  1.00  0.00     0.018 A 
ATOM      7  C   UNL     1      16.349 127.601  54.568  1.00  0.00     0.019 A 
ATOM      8  C   UNL     1      16.330 127.566  53.175  1.00  0.00     0.094 A 
ATOM      9  C   UNL     1      17.112 128.482  52.462  1.00  0.00     0.336 A 
ATOM     10  O   UNL     1      17.108 128.466  51.203  1.00  0.00    -0.246 OA
ATOM     11  O   UNL     1      17.861 129.372  53.107  1.00  0.00    -0.423 OA
ENDROOT
BRANCH   3  12
ATOM     12  O   UNL     1      19.577 131.433  57.062  1.00  0.00    -0.508 OA
ATOM     13  H   UNL     1      20.198 131.195  57.826  1.00  0.00     0.293 HD
ENDBRANCH   3  12
TORSDOF 1
ENDMDL
MODEL 2
REMARK VINA RESULT:    -4.510      2.808      4.929
REMARK INTER + INTRA:          -4.642
REMARK INTER:                  -4.642
REMARK INTRA:                   0.000
REMARK UNBOUND:                 0.000
REMARK SMILES O=c1ccc2ccc(O)cc2o1
REMARK SMILES IDX 6 1 7 2 8 3 10 4 11 5 5 6 4 7 3 8 2 9 1 10 12 11 9 12
REMARK H PARENT 9 13
REMARK Flexibility Score: inf
ROOT
ATOM      1  C   UNL     1      18.420 129.249  55.971  1.00  0.00     0.016 A 
ATOM      2  C   UNL     1      18.303 128.662  54.707  1.00  0.00     0.047 A 
ATOM      3  C   UNL     1      17.181 127.884  54.388  1.00  0.00     0.119 A 
ATOM      4  C   UNL     1      16.172 127.692  55.340  1.00  0.00     0.094 A 
ATOM      5  C   UNL     1      16.280 128.274  56.608  1.00  0.00     0.142 A 
ATOM      6  C   UNL     1      17.411 129.057  56.926  1.00  0.00     0.018 A 
ATOM      7  C   UNL     1      17.491 129.626  58.200  1.00  0.00     0.019 A 
ATOM      8  C   UNL     1      16.461 129.405  59.114  1.00  0.00     0.094 A 
ATOM      9  C   UNL     1      15.370 128.618  58.728  1.00  0.00     0.336 A 
ATOM     10  O   UNL     1      14.430 128.407  59.539  1.00  0.00    -0.246 OA
ATOM     11  O   UNL     1      15.319 128.088  57.509  1.00  0.00    -0.423 OA
ENDROOT
BRANCH   3  12
ATOM     12  O   UNL     1      17.059 127.298  53.130  1.00  0.00    -0.508 OA
ATOM     13  H   UNL     1      17.871 127.083  52.565  1.00  0.00     0.293 HD
ENDBRANCH   3  12
TORSDOF 1
ENDMDL
MODEL 3
REMARK VINA RESULT:    -4.509      2.142      4.463
REMARK INTER + INTRA:          -4.641
REMARK INTER:                  -4.641
REMARK INTRA:                   0.000
REMARK UNBOUND:                 0.000
REMARK SMILES O=c1ccc2ccc(O)cc2o1
REMARK SMILES IDX 6 1 7 2 8 3 10 4 11 5 5 6 4 7 3 8 2 9 1 10 12 11 9 12
REMARK H PARENT 9 13
REMARK Flexibility Score: inf
ROOT
ATOM      1  C   UNL     1      15.810 127.865  54.892  1.00  0.00     0.016 A 
ATOM      2  C   UNL     1      16.823 128.081  53.952  1.00  0.00     0.047 A 
ATOM      3  C   UNL     1      18.007 128.735  54.324  1.00  0.00     0.119 A 
ATOM      4  C   UNL     1      18.177 129.175  55.642  1.00  0.00     0.094 A 
ATOM      5  C   UNL     1      17.169 128.964  56.590  1.00  0.00     0.142 A 
ATOM      6  C   UNL     1      15.978 128.306  56.213  1.00  0.00     0.018 A 
ATOM      7  C   UNL     1      14.990 128.109  57.181  1.00  0.00     0.019 A 
ATOM      8  C   UNL     1      15.205 128.566  58.481  1.00  0.00     0.094 A 
ATOM      9  C   UNL     1      16.410 129.210  58.782  1.00  0.00     0.336 A 
ATOM     10  O   UNL     1      16.623 129.630  59.950  1.00  0.00    -0.246 OA
ATOM     11  O   UNL     1      17.334 129.384  57.841  1.00  0.00    -0.423 OA
ENDROOT
BRANCH   3  12
ATOM     12  O   UNL     1      19.019 128.953  53.392  1.00  0.00    -0.508 OA
ATOM     13  H   UNL     1      18.812 129.233  52.441  1.00  0.00     0.293 HD
ENDBRANCH   3  12
TORSDOF 1
ENDMDL
MODEL 4
REMARK VINA RESULT:    -4.456      1.252      4.142
REMARK INTER + INTRA:          -4.587
REMARK INTER:                  -4.587
REMARK INTRA:                   0.000
REMARK UNBOUND:                 0.000
REMARK SMILES O=c1ccc2ccc(O)cc2o1
REMARK SMILES IDX 6 1 7 2 8 3 10 4 11 5 5 6 4 7 3 8 2 9 1 10 12 11 9 12
REMARK H PARENT 9 13
REMARK Flexibility Score: inf
ROOT
ATOM      1  C   UNL     1      16.768 128.129  56.102  1.00  0.00     0.016 A 
ATOM      2  C   UNL     1      16.306 127.475  54.956  1.00  0.00     0.047 A 
ATOM      3  C   UNL     1      16.769 127.857  53.687  1.00  0.00     0.119 A 
ATOM      4  C   UNL     1      17.698 128.897  53.568  1.00  0.00     0.094 A 
ATOM      5  C   UNL     1      18.166 129.558  54.709  1.00  0.00     0.142 A 
ATOM      6  C   UNL     1      17.698 129.172  55.984  1.00  0.00     0.018 A 
ATOM      7  C   UNL     1      18.184 129.850  57.106  1.00  0.00     0.019 A 
ATOM      8  C   UNL     1      19.108 130.880  56.936  1.00  0.00     0.094 A 
ATOM      9  C   UNL     1      19.527 131.208  55.641  1.00  0.00     0.336 A 
ATOM     10  O   UNL     1      20.361 132.136  55.466  1.00  0.00    -0.246 OA
ATOM     11  O   UNL     1      19.049 130.547  54.591  1.00  0.00    -0.423 OA
ENDROOT
BRANCH   3  12
ATOM     12  O   UNL     1      16.312 127.209  52.542  1.00  0.00    -0.508 OA
ATOM     13  H   UNL     1      15.914 127.723  51.766  1.00  0.00     0.293 HD
ENDBRANCH   3  12
TORSDOF 1
ENDMDL
MODEL 5
REMARK VINA RESULT:    -4.389      2.890      3.650
REMARK INTER + INTRA:          -4.517
REMARK INTER:                  -4.517
REMARK INTRA:                   0.000
REMARK UNBOUND:                 0.000
REMARK SMILES O=c1ccc2ccc(O)cc2o1
REMARK SMILES IDX 6 1 7 2 8 3 10 4 11 5 5 6 4 7 3 8 2 9 1 10 12 11 9 12
REMARK H PARENT 9 13
REMARK Flexibility Score: inf
ROOT
ATOM      1  C   UNL     1      14.981 129.855  53.772  1.00  0.00     0.016 A 
ATOM      2  C   UNL     1      15.091 128.977  54.855  1.00  0.00     0.047 A 
ATOM      3  C   UNL     1      15.902 127.836  54.762  1.00  0.00     0.119 A 
ATOM      4  C   UNL     1      16.605 127.574  53.579  1.00  0.00     0.094 A 
ATOM      5  C   UNL     1      16.501 128.447  52.491  1.00  0.00     0.142 A 
ATOM      6  C   UNL     1      15.684 129.594  52.587  1.00  0.00     0.018 A 
ATOM      7  C   UNL     1      15.600 130.448  51.483  1.00  0.00     0.019 A 
ATOM      8  C   UNL     1      16.319 130.144  50.328  1.00  0.00     0.094 A 
ATOM      9  C   UNL     1      17.109 128.989  50.304  1.00  0.00     0.336 A 
ATOM     10  O   UNL     1      17.765 128.698  49.270  1.00  0.00    -0.246 OA
ATOM     11  O   UNL     1      17.171 128.194  51.369  1.00  0.00    -0.423 OA
ENDROOT
BRANCH   3  12
ATOM     12  O   UNL     1      16.016 126.958  55.837  1.00  0.00    -0.508 OA
ATOM     13  H   UNL     1      15.771 127.239  56.779  1.00  0.00     0.293 HD
ENDBRANCH   3  12
TORSDOF 1
ENDMDL
MODEL 6
REMARK VINA RESULT:    -4.382      8.361     10.075
REMARK INTER + INTRA:          -4.510
REMARK INTER:                  -4.510
REMARK INTRA:                   0.000
REMARK UNBOUND:                 0.000
REMARK SMILES O=c1ccc2ccc(O)cc2o1
REMARK SMILES IDX 6 1 7 2 8 3 10 4 11 5 5 6 4 7 3 8 2 9 1 10 12 11 9 12
REMARK H PARENT 9 13
REMARK Flexibility Score: inf
ROOT
ATOM      1  C   UNL     1      15.520 127.187  65.316  1.00  0.00     0.016 A 
ATOM      2  C   UNL     1      14.852 125.977  65.101  1.00  0.00     0.047 A 
ATOM      3  C   UNL     1      15.250 125.124  64.060  1.00  0.00     0.119 A 
ATOM      4  C   UNL     1      16.319 125.485  63.232  1.00  0.00     0.094 A 
ATOM      5  C   UNL     1      16.993 126.694  63.439  1.00  0.00     0.142 A 
ATOM      6  C   UNL     1      16.591 127.551  64.487  1.00  0.00     0.018 A 
ATOM      7  C   UNL     1      17.283 128.751  64.669  1.00  0.00     0.019 A 
ATOM      8  C   UNL     1      18.341 129.067  63.818  1.00  0.00     0.094 A 
ATOM      9  C   UNL     1      18.684 128.169  62.801  1.00  0.00     0.336 A 
ATOM     10  O   UNL     1      19.637 128.436  62.022  1.00  0.00    -0.246 OA
ATOM     11  O   UNL     1      18.009 127.033  62.649  1.00  0.00    -0.423 OA
ENDROOT
BRANCH   3  12
ATOM     12  O   UNL     1      14.589 123.917  63.842  1.00  0.00    -0.508 OA
ATOM     13  H   UNL     1      14.192 123.687  62.939  1.00  0.00     0.293 HD
ENDBRANCH   3  12
TORSDOF 1
ENDMDL
MODEL 7
REMARK VINA RESULT:    -4.287      1.777      2.468
REMARK INTER + INTRA:          -4.412
REMARK INTER:                  -4.412
REMARK INTRA:                   0.000
REMARK UNBOUND:                 0.000
REMARK SMILES O=c1ccc2ccc(O)cc2o1
REMARK SMILES IDX 6 1 7 2 8 3 10 4 11 5 5 6 4 7 3 8 2 9 1 10 12 11 9 12
REMARK H PARENT 9 13
REMARK Flexibility Score: inf
ROOT
ATOM      1  C   UNL     1      16.360 129.316  58.824  1.00  0.00     0.016 A 
ATOM      2  C   UNL     1      17.383 129.971  59.517  1.00  0.00     0.047 A 
ATOM      3  C   UNL     1      18.609 130.234  58.887  1.00  0.00     0.119 A 
ATOM      4  C   UNL     1      18.811 129.839  57.559  1.00  0.00     0.094 A 
ATOM      5  C   UNL     1      17.793 129.183  56.858  1.00  0.00     0.142 A 
ATOM      6  C   UNL     1      16.560 128.919  57.494  1.00  0.00     0.018 A 
ATOM      7  C   UNL     1      15.563 128.262  56.768  1.00  0.00     0.019 A 
ATOM      8  C   UNL     1      15.811 127.888  55.448  1.00  0.00     0.094 A 
ATOM      9  C   UNL     1      17.057 128.183  54.883  1.00  0.00     0.336 A 
ATOM     10  O   UNL     1      17.300 127.854  53.692  1.00  0.00    -0.246 OA
ATOM     11  O   UNL     1      17.989 128.809  55.596  1.00  0.00    -0.423 OA
ENDROOT
BRANCH   3  12
ATOM     12  O   UNL     1      19.632 130.887  59.572  1.00  0.00    -0.508 OA
ATOM     13  H   UNL     1      19.828 130.687  60.545  1.00  0.00     0.293 HD
ENDBRANCH   3  12
TORSDOF 1
ENDMDL
MODEL 8
REMARK VINA RESULT:    -4.080      9.454     10.663
REMARK INTER + INTRA:          -4.199
REMARK INTER:                  -4.199
REMARK INTRA:                   0.000
REMARK UNBOUND:                 0.000
REMARK SMILES O=c1ccc2ccc(O)cc2o1
REMARK SMILES IDX 6 1 7 2 8 3 10 4 11 5 5 6 4 7 3 8 2 9 1 10 12 11 9 12
REMARK H PARENT 9 13
REMARK Flexibility Score: inf
ROOT
ATOM      1  C   UNL     1      17.921 126.518  63.018  1.00  0.00     0.016 A 
ATOM      2  C   UNL     1      16.973 125.490  63.019  1.00  0.00     0.047 A 
ATOM      3  C   UNL     1      15.796 125.612  63.774  1.00  0.00     0.119 A 
ATOM      4  C   UNL     1      15.570 126.768  64.531  1.00  0.00     0.094 A 
ATOM      5  C   UNL     1      16.513 127.802  64.537  1.00  0.00     0.142 A 
ATOM      6  C   UNL     1      17.696 127.676  63.776  1.00  0.00     0.018 A 
ATOM      7  C   UNL     1      18.619 128.726  63.802  1.00  0.00     0.019 A 
ATOM      8  C   UNL     1      18.348 129.856  64.571  1.00  0.00     0.094 A 
ATOM      9  C   UNL     1      17.155 129.911  65.300  1.00  0.00     0.336 A 
ATOM     10  O   UNL     1      16.892 130.924  66.001  1.00  0.00    -0.246 OA
ATOM     11  O   UNL     1      16.293 128.898  65.258  1.00  0.00    -0.423 OA
ENDROOT
BRANCH   3  12
ATOM     12  O   UNL     1      14.848 124.591  63.778  1.00  0.00    -0.508 OA
ATOM     13  H   UNL     1      14.352 124.333  64.623  1.00  0.00     0.293 HD
ENDBRANCH   3  12
TORSDOF 1
ENDMDL
MODEL 9
REMARK VINA RESULT:    -3.991      1.361      4.628
REMARK INTER + INTRA:          -4.107
REMARK INTER:                  -4.107
REMARK INTRA:                   0.000
REMARK UNBOUND:                 0.000
REMARK SMILES O=c1ccc2ccc(O)cc2o1
REMARK SMILES IDX 6 1 7 2 8 3 10 4 11 5 5 6 4 7 3 8 2 9 1 10 12 11 9 12
REMARK H PARENT 9 13
REMARK Flexibility Score: inf
ROOT
ATOM      1  C   UNL     1      17.601 128.698  56.164  1.00  0.00     0.016 A 
ATOM      2  C   UNL     1      17.770 128.374  54.814  1.00  0.00     0.047 A 
ATOM      3  C   UNL     1      18.340 129.301  53.929  1.00  0.00     0.119 A 
ATOM      4  C   UNL     1      18.742 130.558  54.398  1.00  0.00     0.094 A 
ATOM      5  C   UNL     1      18.576 130.892  55.747  1.00  0.00     0.142 A 
ATOM      6  C   UNL     1      18.002 129.957  56.636  1.00  0.00     0.018 A 
ATOM      7  C   UNL     1      17.850 130.319  57.977  1.00  0.00     0.019 A 
ATOM      8  C   UNL     1      18.265 131.582  58.396  1.00  0.00     0.094 A 
ATOM      9  C   UNL     1      18.826 132.457  57.459  1.00  0.00     0.336 A 
ATOM     10  O   UNL     1      19.207 133.602  57.818  1.00  0.00    -0.246 OA
ATOM     11  O   UNL     1      18.959 132.087  56.188  1.00  0.00    -0.423 OA
ENDROOT
BRANCH   3  12
ATOM     12  O   UNL     1      18.511 128.983  52.584  1.00  0.00    -0.508 OA
ATOM     13  H   UNL     1      19.105 129.539  51.980  1.00  0.00     0.293 HD
ENDBRANCH   3  12
TORSDOF 1
ENDMDL
