MODEL 1
REMARK VINA RESULT:    -6.033      0.000      0.000
REMARK INTER + INTRA:          -6.033
REMARK INTER:                  -6.033
REMARK INTRA:                   0.000
REMARK UNBOUND:                 0.000
REMARK SMILES O=c1ccc2ccc3occc3c2o1
REMARK SMILES IDX 6 1 7 2 8 3 12 4 11 5 10 6 9 7 13 8 5 9 4 10 3 11 2 12 1 13
REMARK SMILES IDX 14 14
REMARK H PARENT
REMARK Flexibility Score: inf
ROOT
ATOM      1  C   UNL     1       7.202 -10.133  44.347  1.00  0.00     0.016 A 
ATOM      2  C   UNL     1       6.330 -11.101  43.814  1.00  0.00     0.048 A 
ATOM      3  C   UNL     1       6.138 -11.120  42.433  1.00  0.00     0.137 A 
ATOM      4  C   UNL     1       6.767 -10.233  41.602  1.00  0.00     0.064 A 
ATOM      5  C   UNL     1       6.360 -10.526  40.321  1.00  0.00     0.054 A 
ATOM      6  C   UNL     1       5.488 -11.600  40.469  1.00  0.00     0.196 A 
ATOM      7  O   UNL     1       5.376 -11.933  41.742  1.00  0.00    -0.464 OA
ATOM      8  C   UNL     1       7.636  -9.260  42.091  1.00  0.00     0.149 A 
ATOM      9  C   UNL     1       7.856  -9.211  43.492  1.00  0.00     0.018 A 
ATOM     10  C   UNL     1       8.726  -8.237  43.989  1.00  0.00     0.019 A 
ATOM     11  C   UNL     1       9.345  -7.355  43.101  1.00  0.00     0.094 A 
ATOM     12  C   UNL     1       9.077  -7.466  41.730  1.00  0.00     0.336 A 
ATOM     13  O   UNL     1       9.626  -6.677  40.918  1.00  0.00    -0.246 OA
ATOM     14  O   UNL     1       8.245  -8.400  41.278  1.00  0.00    -0.422 OA
ENDROOT
TORSDOF 0
ENDMDL
MODEL 2
REMARK VINA RESULT:    -5.621      1.525      4.287
REMARK INTER + INTRA:          -5.621
REMARK INTER:                  -5.621
REMARK INTRA:                   0.000
REMARK UNBOUND:                 0.000
REMARK SMILES O=c1ccc2ccc3occc3c2o1
REMARK SMILES IDX 6 1 7 2 8 3 12 4 11 5 10 6 9 7 13 8 5 9 4 10 3 11 2 12 1 13
REMARK SMILES IDX 14 14
REMARK H PARENT
REMARK Flexibility Score: inf
ROOT
ATOM      1  C   UNL     1       7.900  -9.062  44.276  1.00  0.00     0.016 A 
ATOM      2  C   UNL     1       8.271  -7.706  44.362  1.00  0.00     0.048 A 
ATOM      3  C   UNL     1       8.185  -6.929  43.207  1.00  0.00     0.137 A 
ATOM      4  C   UNL     1       7.756  -7.449  42.015  1.00  0.00     0.064 A 
ATOM      5  C   UNL     1       7.792  -6.426  41.096  1.00  0.00     0.054 A 
ATOM      6  C   UNL     1       8.253  -5.327  41.814  1.00  0.00     0.196 A 
ATOM      7  O   UNL     1       8.478  -5.659  43.072  1.00  0.00    -0.464 OA
ATOM      8  C   UNL     1       7.382  -8.786  41.890  1.00  0.00     0.149 A 
ATOM      9  C   UNL     1       7.457  -9.605  43.045  1.00  0.00     0.018 A 
ATOM     10  C   UNL     1       7.083 -10.947  42.927  1.00  0.00     0.019 A 
ATOM     11  C   UNL     1       6.652 -11.430  41.690  1.00  0.00     0.094 A 
ATOM     12  C   UNL     1       6.605 -10.558  40.594  1.00  0.00     0.336 A 
ATOM     13  O   UNL     1       6.220 -10.980  39.473  1.00  0.00    -0.246 OA
ATOM     14  O   UNL     1       6.966  -9.285  40.729  1.00  0.00    -0.422 OA
ENDROOT
TORSDOF 0
ENDMDL
MODEL 3
REMARK VINA RESULT:    -5.537      8.731     10.655
REMARK INTER + INTRA:          -5.537
REMARK INTER:                  -5.537
REMARK INTRA:                   0.000
REMARK UNBOUND:                 0.000
REMARK SMILES O=c1ccc2ccc3occc3c2o1
REMARK SMILES IDX 6 1 7 2 8 3 12 4 11 5 10 6 9 7 13 8 5 9 4 10 3 11 2 12 1 13
REMARK SMILES IDX 14 14
REMARK H PARENT
REMARK Flexibility Score: inf
ROOT
ATOM      1  C   UNL     1       6.550  -0.895  37.864  1.00  0.00     0.016 A 
ATOM      2  C   UNL     1       5.784   0.108  37.242  1.00  0.00     0.048 A 
ATOM      3  C   UNL     1       5.557   0.004  35.871  1.00  0.00     0.137 A 
ATOM      4  C   UNL     1       6.055  -1.035  35.131  1.00  0.00     0.064 A 
ATOM      5  C   UNL     1       5.649  -0.833  33.832  1.00  0.00     0.054 A 
ATOM      6  C   UNL     1       4.914   0.346  33.876  1.00  0.00     0.196 A 
ATOM      7  O   UNL     1       4.875   0.823  35.107  1.00  0.00    -0.464 OA
ATOM      8  C   UNL     1       6.818  -2.047  35.711  1.00  0.00     0.149 A 
ATOM      9  C   UNL     1       7.069  -1.973  37.105  1.00  0.00     0.018 A 
ATOM     10  C   UNL     1       7.834  -2.984  37.691  1.00  0.00     0.019 A 
ATOM     11  C   UNL     1       8.320  -4.024  36.895  1.00  0.00     0.094 A 
ATOM     12  C   UNL     1       8.030  -4.028  35.525  1.00  0.00     0.336 A 
ATOM     13  O   UNL     1       8.461  -4.957  34.795  1.00  0.00    -0.246 OA
ATOM     14  O   UNL     1       7.300  -3.055  34.987  1.00  0.00    -0.422 OA
ENDROOT
TORSDOF 0
ENDMDL
MODEL 4
REMARK VINA RESULT:    -5.357      3.757      7.094
REMARK INTER + INTRA:          -5.357
REMARK INTER:                  -5.357
REMARK INTRA:                   0.000
REMARK UNBOUND:                 0.000
REMARK SMILES O=c1ccc2ccc3occc3c2o1
REMARK SMILES IDX 6 1 7 2 8 3 12 4 11 5 10 6 9 7 13 8 5 9 4 10 3 11 2 12 1 13
REMARK SMILES IDX 14 14
REMARK H PARENT
REMARK Flexibility Score: inf
ROOT
ATOM      1  C   UNL     1       7.873  -3.317  42.980  1.00  0.00     0.016 A 
ATOM      2  C   UNL     1       8.810  -2.272  43.083  1.00  0.00     0.048 A 
ATOM      3  C   UNL     1      10.124  -2.530  42.695  1.00  0.00     0.137 A 
ATOM      4  C   UNL     1      10.514  -3.756  42.226  1.00  0.00     0.064 A 
ATOM      5  C   UNL     1      11.856  -3.667  41.939  1.00  0.00     0.054 A 
ATOM      6  C   UNL     1      12.196  -2.357  42.263  1.00  0.00     0.196 A 
ATOM      7  O   UNL     1      11.141  -1.703  42.711  1.00  0.00    -0.464 OA
ATOM      8  C   UNL     1       9.616  -4.815  42.111  1.00  0.00     0.149 A 
ATOM      9  C   UNL     1       8.270  -4.588  42.496  1.00  0.00     0.018 A 
ATOM     10  C   UNL     1       7.365  -5.647  42.382  1.00  0.00     0.019 A 
ATOM     11  C   UNL     1       7.809  -6.879  41.898  1.00  0.00     0.094 A 
ATOM     12  C   UNL     1       9.156  -7.025  41.538  1.00  0.00     0.336 A 
ATOM     13  O   UNL     1       9.571  -8.129  41.101  1.00  0.00    -0.246 OA
ATOM     14  O   UNL     1      10.000  -6.005  41.654  1.00  0.00    -0.422 OA
ENDROOT
TORSDOF 0
ENDMDL
MODEL 5
REMARK VINA RESULT:    -5.284      1.507      4.174
REMARK INTER + INTRA:          -5.284
REMARK INTER:                  -5.284
REMARK INTRA:                   0.000
REMARK UNBOUND:                 0.000
REMARK SMILES O=c1ccc2ccc3occc3c2o1
REMARK SMILES IDX 6 1 7 2 8 3 12 4 11 5 10 6 9 7 13 8 5 9 4 10 3 11 2 12 1 13
REMARK SMILES IDX 14 14
REMARK H PARENT
REMARK Flexibility Score: inf
ROOT
ATOM      1  C   UNL     1       6.949 -10.870  44.109  1.00  0.00     0.016 A 
ATOM      2  C   UNL     1       7.526  -9.675  44.579  1.00  0.00     0.048 A 
ATOM      3  C   UNL     1       8.021  -8.773  43.638  1.00  0.00     0.137 A 
ATOM      4  C   UNL     1       7.959  -9.021  42.293  1.00  0.00     0.064 A 
ATOM      5  C   UNL     1       8.529  -7.942  41.659  1.00  0.00     0.054 A 
ATOM      6  C   UNL     1       8.908  -7.091  42.691  1.00  0.00     0.196 A 
ATOM      7  O   UNL     1       8.591  -7.614  43.862  1.00  0.00    -0.464 OA
ATOM      8  C   UNL     1       7.396 -10.193  41.790  1.00  0.00     0.149 A 
ATOM      9  C   UNL     1       6.882 -11.133  42.719  1.00  0.00     0.018 A 
ATOM     10  C   UNL     1       6.316 -12.310  42.221  1.00  0.00     0.019 A 
ATOM     11  C   UNL     1       6.275 -12.519  40.841  1.00  0.00     0.094 A 
ATOM     12  C   UNL     1       6.803 -11.542  39.986  1.00  0.00     0.336 A 
ATOM     13  O   UNL     1       6.773 -11.717  38.741  1.00  0.00    -0.246 OA
ATOM     14  O   UNL     1       7.337 -10.430  40.482  1.00  0.00    -0.422 OA
ENDROOT
TORSDOF 0
ENDMDL
MODEL 6
REMARK VINA RESULT:    -5.264      5.166      7.252
REMARK INTER + INTRA:          -5.264
REMARK INTER:                  -5.264
REMARK INTRA:                   0.000
REMARK UNBOUND:                 0.000
REMARK SMILES O=c1ccc2ccc3occc3c2o1
REMARK SMILES IDX 6 1 7 2 8 3 12 4 11 5 10 6 9 7 13 8 5 9 4 10 3 11 2 12 1 13
REMARK SMILES IDX 14 14
REMARK H PARENT
REMARK Flexibility Score: inf
ROOT
ATOM      1  C   UNL     1       8.172  -2.295  39.962  1.00  0.00     0.016 A 
ATOM      2  C   UNL     1       7.879  -3.658  39.766  1.00  0.00     0.048 A 
ATOM      3  C   UNL     1       7.859  -4.491  40.884  1.00  0.00     0.137 A 
ATOM      4  C   UNL     1       8.116  -4.019  42.143  1.00  0.00     0.064 A 
ATOM      5  C   UNL     1       8.016  -5.090  43.001  1.00  0.00     0.054 A 
ATOM      6  C   UNL     1       7.698  -6.166  42.179  1.00  0.00     0.196 A 
ATOM      7  O   UNL     1       7.610  -5.777  40.920  1.00  0.00    -0.464 OA
ATOM      8  C   UNL     1       8.411  -2.677  42.377  1.00  0.00     0.149 A 
ATOM      9  C   UNL     1       8.439  -1.801  41.262  1.00  0.00     0.018 A 
ATOM     10  C   UNL     1       8.734  -0.454  41.490  1.00  0.00     0.019 A 
ATOM     11  C   UNL     1       8.988  -0.020  42.793  1.00  0.00     0.094 A 
ATOM     12  C   UNL     1       8.942  -0.947  43.842  1.00  0.00     0.336 A 
ATOM     13  O   UNL     1       9.169  -0.570  45.021  1.00  0.00    -0.246 OA
ATOM     14  O   UNL     1       8.659  -2.224  43.603  1.00  0.00    -0.422 OA
ENDROOT
TORSDOF 0
ENDMDL
MODEL 7
REMARK VINA RESULT:    -5.217     14.182     15.414
REMARK INTER + INTRA:          -5.217
REMARK INTER:                  -5.217
REMARK INTRA:                   0.000
REMARK UNBOUND:                 0.000
REMARK SMILES O=c1ccc2ccc3occc3c2o1
REMARK SMILES IDX 6 1 7 2 8 3 12 4 11 5 10 6 9 7 13 8 5 9 4 10 3 11 2 12 1 13
REMARK SMILES IDX 14 14
REMARK H PARENT
REMARK Flexibility Score: inf
ROOT
ATOM      1  C   UNL     1      21.640 -14.299  46.489  1.00  0.00     0.016 A 
ATOM      2  C   UNL     1      20.408 -14.089  45.841  1.00  0.00     0.048 A 
ATOM      3  C   UNL     1      20.151 -12.822  45.318  1.00  0.00     0.137 A 
ATOM      4  C   UNL     1      21.054 -11.799  45.421  1.00  0.00     0.064 A 
ATOM      5  C   UNL     1      20.491 -10.704  44.808  1.00  0.00     0.054 A 
ATOM      6  C   UNL     1      19.251 -11.152  44.364  1.00  0.00     0.196 A 
ATOM      7  O   UNL     1      19.077 -12.421  44.683  1.00  0.00    -0.464 OA
ATOM      8  C   UNL     1      22.283 -11.967  46.056  1.00  0.00     0.149 A 
ATOM      9  C   UNL     1      22.579 -13.244  46.600  1.00  0.00     0.018 A 
ATOM     10  C   UNL     1      23.810 -13.419  47.238  1.00  0.00     0.019 A 
ATOM     11  C   UNL     1      24.698 -12.345  47.318  1.00  0.00     0.094 A 
ATOM     12  C   UNL     1      24.334 -11.114  46.756  1.00  0.00     0.336 A 
ATOM     13  O   UNL     1      25.124 -10.137  46.821  1.00  0.00    -0.246 OA
ATOM     14  O   UNL     1      23.158 -10.969  46.153  1.00  0.00    -0.422 OA
ENDROOT
TORSDOF 0
ENDMDL
MODEL 8
REMARK VINA RESULT:    -5.204      7.472      9.468
REMARK INTER + INTRA:          -5.204
REMARK INTER:                  -5.204
REMARK INTRA:                   0.000
REMARK UNBOUND:                 0.000
REMARK SMILES O=c1ccc2ccc3occc3c2o1
REMARK SMILES IDX 6 1 7 2 8 3 12 4 11 5 10 6 9 7 13 8 5 9 4 10 3 11 2 12 1 13
REMARK SMILES IDX 14 14
REMARK H PARENT
REMARK Flexibility Score: inf
ROOT
ATOM      1  C   UNL     1       7.531  -3.808  36.368  1.00  0.00     0.016 A 
ATOM      2  C   UNL     1       6.811  -3.133  35.364  1.00  0.00     0.048 A 
ATOM      3  C   UNL     1       6.294  -1.873  35.664  1.00  0.00     0.137 A 
ATOM      4  C   UNL     1       6.469  -1.291  36.891  1.00  0.00     0.064 A 
ATOM      5  C   UNL     1       5.840  -0.069  36.848  1.00  0.00     0.054 A 
ATOM      6  C   UNL     1       5.313   0.008  35.563  1.00  0.00     0.196 A 
ATOM      7  O   UNL     1       5.601  -1.085  34.879  1.00  0.00    -0.464 OA
ATOM      8  C   UNL     1       7.175  -1.929  37.910  1.00  0.00     0.149 A 
ATOM      9  C   UNL     1       7.715  -3.212  37.640  1.00  0.00     0.018 A 
ATOM     10  C   UNL     1       8.424  -3.856  38.658  1.00  0.00     0.019 A 
ATOM     11  C   UNL     1       8.576  -3.222  39.893  1.00  0.00     0.094 A 
ATOM     12  C   UNL     1       8.013  -1.953  40.083  1.00  0.00     0.336 A 
ATOM     13  O   UNL     1       8.141  -1.370  41.190  1.00  0.00    -0.246 OA
ATOM     14  O   UNL     1       7.342  -1.358  39.101  1.00  0.00    -0.422 OA
ENDROOT
TORSDOF 0
ENDMDL
MODEL 9
REMARK VINA RESULT:    -5.104      4.550      6.919
REMARK INTER + INTRA:          -5.104
REMARK INTER:                  -5.104
REMARK INTRA:                   0.000
REMARK UNBOUND:                 0.000
REMARK SMILES O=c1ccc2ccc3occc3c2o1
REMARK SMILES IDX 6 1 7 2 8 3 12 4 11 5 10 6 9 7 13 8 5 9 4 10 3 11 2 12 1 13
REMARK SMILES IDX 14 14
REMARK H PARENT
REMARK Flexibility Score: inf
ROOT
ATOM      1  C   UNL     1       8.602  -2.066  41.767  1.00  0.00     0.016 A 
ATOM      2  C   UNL     1       9.055  -3.035  42.682  1.00  0.00     0.048 A 
ATOM      3  C   UNL     1       9.097  -4.364  42.260  1.00  0.00     0.137 A 
ATOM      4  C   UNL     1       8.715  -4.737  40.999  1.00  0.00     0.064 A 
ATOM      5  C   UNL     1       8.880  -6.100  40.917  1.00  0.00     0.054 A 
ATOM      6  C   UNL     1       9.364  -6.469  42.167  1.00  0.00     0.196 A 
ATOM      7  O   UNL     1       9.484  -5.411  42.948  1.00  0.00    -0.464 OA
ATOM      8  C   UNL     1       8.260  -3.806  40.066  1.00  0.00     0.149 A 
ATOM      9  C   UNL     1       8.204  -2.445  40.462  1.00  0.00     0.018 A 
ATOM     10  C   UNL     1       7.748  -1.507  39.531  1.00  0.00     0.019 A 
ATOM     11  C   UNL     1       7.369  -1.935  38.257  1.00  0.00     0.094 A 
ATOM     12  C   UNL     1       7.454  -3.298  37.941  1.00  0.00     0.336 A 
ATOM     13  O   UNL     1       7.115  -3.698  36.798  1.00  0.00    -0.246 OA
ATOM     14  O   UNL     1       7.890  -4.174  38.842  1.00  0.00    -0.422 OA
ENDROOT
TORSDOF 0
ENDMDL
