MODEL 1
REMARK VINA RESULT:    -2.635      0.000      0.000
REMARK INTER + INTRA:          -3.009
REMARK INTER:                  -2.943
REMARK INTRA:                  -0.066
REMARK UNBOUND:                -0.066
REMARK SMILES CCCC(=O)[O-]
REMARK SMILES IDX 3 1 4 2 5 3 6 4 2 5 1 6
REMARK H PARENT
REMARK Flexibility Score: inf
ROOT
ATOM      1  C   UNL     1      -8.072   5.769  52.104  1.00  0.00     0.052 C 
ENDROOT
BRANCH   1   2
ATOM      2  C   UNL     1      -9.553   5.815  51.885  1.00  0.00     0.041 C 
ATOM      3  O   UNL     1     -10.342   5.563  52.834  1.00  0.00    -0.550 OA
ATOM      4  O   UNL     1     -10.062   6.100  50.625  1.00  0.00    -0.550 OA
ENDBRANCH   1   2
BRANCH   1   5
ATOM      5  C   UNL     1      -7.362   4.941  51.025  1.00  0.00     0.003 C 
ATOM      6  C   UNL     1      -7.740   3.460  51.086  1.00  0.00     0.004 C 
ENDBRANCH   1   5
TORSDOF 2
ENDMDL
MODEL 2
REMARK VINA RESULT:    -2.606      2.436      2.800
REMARK INTER + INTRA:          -2.976
REMARK INTER:                  -2.961
REMARK INTRA:                  -0.015
REMARK UNBOUND:                -0.066
REMARK SMILES CCCC(=O)[O-]
REMARK SMILES IDX 3 1 4 2 5 3 6 4 2 5 1 6
REMARK H PARENT
REMARK Flexibility Score: inf
ROOT
ATOM      1  C   UNL     1      -7.609   4.614  52.759  1.00  0.00     0.052 C 
ENDROOT
BRANCH   1   2
ATOM      2  C   UNL     1      -7.729   5.119  51.353  1.00  0.00     0.041 C 
ATOM      3  O   UNL     1      -6.771   4.983  50.547  1.00  0.00    -0.550 OA
ATOM      4  O   UNL     1      -8.884   5.772  50.945  1.00  0.00    -0.550 OA
ENDBRANCH   1   2
BRANCH   1   5
ATOM      5  C   UNL     1      -6.317   3.814  52.968  1.00  0.00     0.003 C 
ATOM      6  C   UNL     1      -5.826   3.870  54.415  1.00  0.00     0.004 C 
ENDBRANCH   1   5
TORSDOF 2
ENDMDL
MODEL 3
REMARK VINA RESULT:    -2.598      0.417      1.350
REMARK INTER + INTRA:          -2.967
REMARK INTER:                  -2.897
REMARK INTRA:                  -0.070
REMARK UNBOUND:                -0.066
REMARK SMILES CCCC(=O)[O-]
REMARK SMILES IDX 3 1 4 2 5 3 6 4 2 5 1 6
REMARK H PARENT
REMARK Flexibility Score: inf
ROOT
ATOM      1  C   UNL     1      -8.381   5.776  52.003  1.00  0.00     0.052 C 
ENDROOT
BRANCH   1   2
ATOM      2  C   UNL     1      -9.821   5.611  51.623  1.00  0.00     0.041 C 
ATOM      3  O   UNL     1     -10.262   6.136  50.567  1.00  0.00    -0.550 OA
ATOM      4  O   UNL     1     -10.684   4.907  52.453  1.00  0.00    -0.550 OA
ENDBRANCH   1   2
BRANCH   1   5
ATOM      5  C   UNL     1      -7.451   5.011  51.055  1.00  0.00     0.003 C 
ATOM      6  C   UNL     1      -7.724   3.507  51.059  1.00  0.00     0.004 C 
ENDBRANCH   1   5
TORSDOF 2
ENDMDL
MODEL 4
REMARK VINA RESULT:    -2.596      2.450      2.739
REMARK INTER + INTRA:          -2.965
REMARK INTER:                  -2.951
REMARK INTRA:                  -0.014
REMARK UNBOUND:                -0.066
REMARK SMILES CCCC(=O)[O-]
REMARK SMILES IDX 3 1 4 2 5 3 6 4 2 5 1 6
REMARK H PARENT
REMARK Flexibility Score: inf
ROOT
ATOM      1  C   UNL     1      -7.637   4.681  52.796  1.00  0.00     0.052 C 
ENDROOT
BRANCH   1   2
ATOM      2  C   UNL     1      -7.744   5.194  51.392  1.00  0.00     0.041 C 
ATOM      3  O   UNL     1      -8.807   5.739  50.996  1.00  0.00    -0.550 OA
ATOM      4  O   UNL     1      -6.682   5.036  50.511  1.00  0.00    -0.550 OA
ENDBRANCH   1   2
BRANCH   1   5
ATOM      5  C   UNL     1      -6.396   3.801  52.988  1.00  0.00     0.003 C 
ATOM      6  C   UNL     1      -5.847   3.874  54.413  1.00  0.00     0.004 C 
ENDBRANCH   1   5
TORSDOF 2
ENDMDL
MODEL 5
REMARK VINA RESULT:    -2.529     12.599     13.299
REMARK INTER + INTRA:          -2.891
REMARK INTER:                  -2.854
REMARK INTRA:                  -0.037
REMARK UNBOUND:                -0.066
REMARK SMILES CCCC(=O)[O-]
REMARK SMILES IDX 3 1 4 2 5 3 6 4 2 5 1 6
REMARK H PARENT
REMARK Flexibility Score: inf
ROOT
ATOM      1  C   UNL     1       2.779  -0.610  53.218  1.00  0.00     0.052 C 
ENDROOT
BRANCH   1   2
ATOM      2  C   UNL     1       2.628   0.611  54.073  1.00  0.00     0.041 C 
ATOM      3  O   UNL     1       2.084   1.647  53.608  1.00  0.00    -0.550 OA
ATOM      4  O   UNL     1       3.120   0.617  55.371  1.00  0.00    -0.550 OA
ENDBRANCH   1   2
BRANCH   1   5
ATOM      5  C   UNL     1       2.321  -1.877  53.949  1.00  0.00     0.003 C 
ATOM      6  C   UNL     1       3.494  -2.770  54.355  1.00  0.00     0.004 C 
ENDBRANCH   1   5
TORSDOF 2
ENDMDL
MODEL 6
REMARK VINA RESULT:    -2.500      2.289      3.055
REMARK INTER + INTRA:          -2.858
REMARK INTER:                  -2.786
REMARK INTRA:                  -0.072
REMARK UNBOUND:                -0.066
REMARK SMILES CCCC(=O)[O-]
REMARK SMILES IDX 3 1 4 2 5 3 6 4 2 5 1 6
REMARK H PARENT
REMARK Flexibility Score: inf
ROOT
ATOM      1  C   UNL     1      -8.419   5.763  52.008  1.00  0.00     0.052 C 
ENDROOT
BRANCH   1   2
ATOM      2  C   UNL     1      -7.341   4.833  51.542  1.00  0.00     0.041 C 
ATOM      3  O   UNL     1      -6.753   5.043  50.449  1.00  0.00    -0.550 OA
ATOM      4  O   UNL     1      -7.011   3.715  52.297  1.00  0.00    -0.550 OA
ENDBRANCH   1   2
BRANCH   1   5
ATOM      5  C   UNL     1      -9.599   5.804  51.029  1.00  0.00     0.003 C 
ATOM      6  C   UNL     1     -10.292   4.447  50.897  1.00  0.00     0.004 C 
ENDBRANCH   1   5
TORSDOF 2
ENDMDL
MODEL 7
REMARK VINA RESULT:    -2.464     12.702     13.415
REMARK INTER + INTRA:          -2.817
REMARK INTER:                  -2.807
REMARK INTRA:                  -0.010
REMARK UNBOUND:                -0.066
REMARK SMILES CCCC(=O)[O-]
REMARK SMILES IDX 3 1 4 2 5 3 6 4 2 5 1 6
REMARK H PARENT
REMARK Flexibility Score: inf
ROOT
ATOM      1  C   UNL     1       1.945  -0.765  53.269  1.00  0.00     0.052 C 
ENDROOT
BRANCH   1   2
ATOM      2  C   UNL     1       2.290  -2.162  53.686  1.00  0.00     0.041 C 
ATOM      3  O   UNL     1       3.454  -2.437  54.078  1.00  0.00    -0.550 OA
ATOM      4  O   UNL     1       1.336  -3.168  53.607  1.00  0.00    -0.550 OA
ENDBRANCH   1   2
BRANCH   1   5
ATOM      5  C   UNL     1       2.913   0.263  53.866  1.00  0.00     0.003 C 
ATOM      6  C   UNL     1       2.270   1.641  54.029  1.00  0.00     0.004 C 
ENDBRANCH   1   5
TORSDOF 2
ENDMDL
MODEL 8
REMARK VINA RESULT:    -2.458     16.751     17.455
REMARK INTER + INTRA:          -2.810
REMARK INTER:                  -2.773
REMARK INTRA:                  -0.037
REMARK UNBOUND:                -0.066
REMARK SMILES CCCC(=O)[O-]
REMARK SMILES IDX 3 1 4 2 5 3 6 4 2 5 1 6
REMARK H PARENT
REMARK Flexibility Score: inf
ROOT
ATOM      1  C   UNL     1       0.003  -4.436  63.847  1.00  0.00     0.052 C 
ENDROOT
BRANCH   1   2
ATOM      2  C   UNL     1      -0.881  -3.510  63.070  1.00  0.00     0.041 C 
ATOM      3  O   UNL     1      -0.389  -2.519  62.470  1.00  0.00    -0.550 OA
ATOM      4  O   UNL     1      -2.253  -3.723  63.037  1.00  0.00    -0.550 OA
ENDBRANCH   1   2
BRANCH   1   5
ATOM      5  C   UNL     1       0.853  -3.681  64.876  1.00  0.00     0.003 C 
ATOM      6  C   UNL     1       2.331  -3.630  64.485  1.00  0.00     0.004 C 
ENDBRANCH   1   5
TORSDOF 2
ENDMDL
MODEL 9
REMARK VINA RESULT:    -2.360     12.440     12.918
REMARK INTER + INTRA:          -2.702
REMARK INTER:                  -2.657
REMARK INTRA:                  -0.044
REMARK UNBOUND:                -0.066
REMARK SMILES CCCC(=O)[O-]
REMARK SMILES IDX 3 1 4 2 5 3 6 4 2 5 1 6
REMARK H PARENT
REMARK Flexibility Score: inf
ROOT
ATOM      1  C   UNL     1       1.202   2.426  59.938  1.00  0.00     0.052 C 
ENDROOT
BRANCH   1   2
ATOM      2  C   UNL     1       0.662   1.617  58.798  1.00  0.00     0.041 C 
ATOM      3  O   UNL     1       0.083   0.521  59.018  1.00  0.00    -0.550 OA
ATOM      4  O   UNL     1       0.831   2.057  57.492  1.00  0.00    -0.550 OA
ENDBRANCH   1   2
BRANCH   1   5
ATOM      5  C   UNL     1       0.318   2.313  61.186  1.00  0.00     0.003 C 
ATOM      6  C   UNL     1      -0.842   3.310  61.169  1.00  0.00     0.004 C 
ENDBRANCH   1   5
TORSDOF 2
ENDMDL
