MODEL 1
REMARK VINA RESULT:    40.223      0.000      0.000
REMARK INTER + INTRA:          47.014
REMARK INTER:                  47.278
REMARK INTRA:                  -0.263
REMARK UNBOUND:                -0.263
REMARK SMILES O=c1cc(-c2ccc(O)c(O)c2)oc2cc(O)cc(O)c12
REMARK SMILES IDX 4 1 3 2 2 3 1 4 21 5 19 6 18 7 16 8 15 9 14 10 13 11 5 12
REMARK SMILES IDX 6 13 7 14 8 15 12 16 10 17 9 18 11 20 20 22 17 24
REMARK H PARENT 9 19 11 21 20 23 17 25
REMARK Flexibility Score: inf
ROOT
ATOM      1  C   UNL     1      10.151  13.420   4.723  1.00  0.00     0.138 A 
ATOM      2  C   UNL     1       9.971  14.471   3.811  1.00  0.00     0.100 A 
ATOM      3  C   UNL     1      10.430  14.333   2.501  1.00  0.00     0.197 A 
ATOM      4  O   UNL     1      10.310  15.316   1.724  1.00  0.00    -0.289 OA
ATOM      5  C   UNL     1      11.043  13.125   2.094  1.00  0.00     0.107 A 
ATOM      6  C   UNL     1      11.513  12.857   0.773  1.00  0.00     0.134 A 
ATOM      7  C   UNL     1      12.210  11.670   0.516  1.00  0.00     0.093 A 
ATOM      8  C   UNL     1      12.401  10.715   1.514  1.00  0.00     0.123 A 
ATOM      9  C   UNL     1      11.898  10.943   2.796  1.00  0.00     0.094 A 
ATOM     10  C   UNL     1      11.229  12.133   3.093  1.00  0.00     0.146 A 
ATOM     11  O   UNL     1      10.779  12.318   4.329  1.00  0.00    -0.456 OA
ENDROOT
BRANCH   1  12
ATOM     12  C   UNL     1       9.681  13.513   6.128  1.00  0.00     0.021 A 
ATOM     13  C   UNL     1      10.499  14.035   7.149  1.00  0.00     0.016 A 
ATOM     14  C   UNL     1      10.027  14.120   8.461  1.00  0.00     0.051 A 
ATOM     15  C   UNL     1       8.730  13.696   8.776  1.00  0.00     0.157 A 
ATOM     16  C   UNL     1       8.375  13.104   6.451  1.00  0.00     0.062 A 
ATOM     17  C   UNL     1       7.900  13.187   7.763  1.00  0.00     0.158 A 
BRANCH  15  18
ATOM     18  O   UNL     1       8.263  13.782  10.087  1.00  0.00    -0.504 OA
ATOM     19  H   UNL     1       8.602  13.162  10.812  1.00  0.00     0.293 HD
ENDBRANCH  15  18
BRANCH  17  20
ATOM     20  O   UNL     1       6.602  12.761   8.044  1.00  0.00    -0.504 OA
ATOM     21  H   UNL     1       6.024  13.215   8.740  1.00  0.00     0.293 HD
ENDBRANCH  17  20
ENDBRANCH   1  12
BRANCH   6  22
ATOM     22  O   UNL     1      11.303  13.706  -0.319  1.00  0.00    -0.507 OA
ATOM     23  H   UNL     1      10.607  14.435  -0.356  1.00  0.00     0.293 HD
ENDBRANCH   6  22
BRANCH   8  24
ATOM     24  O   UNL     1      13.085   9.538   1.218  1.00  0.00    -0.508 OA
ATOM     25  H   UNL     1      14.095   9.519   1.137  1.00  0.00     0.293 HD
ENDBRANCH   8  24
TORSDOF 5
ENDMDL
MODEL 2
REMARK VINA RESULT:    40.333      2.970      4.224
REMARK INTER + INTRA:          47.143
REMARK INTER:                  47.424
REMARK INTRA:                  -0.280
REMARK UNBOUND:                -0.263
REMARK SMILES O=c1cc(-c2ccc(O)c(O)c2)oc2cc(O)cc(O)c12
REMARK SMILES IDX 4 1 3 2 2 3 1 4 21 5 19 6 18 7 16 8 15 9 14 10 13 11 5 12
REMARK SMILES IDX 6 13 7 14 8 15 12 16 10 17 9 18 11 20 20 22 17 24
REMARK H PARENT 9 19 11 21 20 23 17 25
REMARK Flexibility Score: inf
ROOT
ATOM      1  C   UNL     1      11.924  13.051   4.722  1.00  0.00     0.138 A 
ATOM      2  C   UNL     1      11.604  11.775   4.238  1.00  0.00     0.100 A 
ATOM      3  C   UNL     1      11.095  11.634   2.947  1.00  0.00     0.197 A 
ATOM      4  O   UNL     1      10.758  10.484   2.563  1.00  0.00    -0.289 OA
ATOM      5  C   UNL     1      10.936  12.775   2.126  1.00  0.00     0.107 A 
ATOM      6  C   UNL     1      10.464  12.748   0.779  1.00  0.00     0.134 A 
ATOM      7  C   UNL     1      10.237  13.954   0.103  1.00  0.00     0.093 A 
ATOM      8  C   UNL     1      10.521  15.180   0.701  1.00  0.00     0.123 A 
ATOM      9  C   UNL     1      11.034  15.217   1.998  1.00  0.00     0.094 A 
ATOM     10  C   UNL     1      11.239  14.034   2.712  1.00  0.00     0.146 A 
ATOM     11  O   UNL     1      11.714  14.112   3.950  1.00  0.00    -0.456 OA
ENDROOT
BRANCH   1  12
ATOM     12  C   UNL     1      12.470  13.257   6.087  1.00  0.00     0.021 A 
ATOM     13  C   UNL     1      12.068  14.342   6.890  1.00  0.00     0.016 A 
ATOM     14  C   UNL     1      12.591  14.505   8.175  1.00  0.00     0.051 A 
ATOM     15  C   UNL     1      13.514  13.585   8.686  1.00  0.00     0.157 A 
ATOM     16  C   UNL     1      13.387  12.330   6.614  1.00  0.00     0.062 A 
ATOM     17  C   UNL     1      13.913  12.491   7.900  1.00  0.00     0.158 A 
BRANCH  15  18
ATOM     18  O   UNL     1      14.034  13.752   9.969  1.00  0.00    -0.504 OA
ATOM     19  H   UNL     1      14.807  14.381  10.150  1.00  0.00     0.293 HD
ENDBRANCH  15  18
BRANCH  17  20
ATOM     20  O   UNL     1      14.828  11.555   8.381  1.00  0.00    -0.504 OA
ATOM     21  H   UNL     1      15.823  11.641   8.218  1.00  0.00     0.293 HD
ENDBRANCH  17  20
ENDBRANCH   1  12
BRANCH   6  22
ATOM     22  O   UNL     1      10.229  11.574   0.057  1.00  0.00    -0.507 OA
ATOM     23  H   UNL     1      10.781  11.258  -0.726  1.00  0.00     0.293 HD
ENDBRANCH   6  22
BRANCH   8  24
ATOM     24  O   UNL     1      10.297  16.359  -0.007  1.00  0.00    -0.508 OA
ATOM     25  H   UNL     1      10.335  16.384  -1.020  1.00  0.00     0.293 HD
ENDBRANCH   8  24
TORSDOF 5
ENDMDL
MODEL 3
REMARK VINA RESULT:    40.608      3.079      6.635
REMARK INTER + INTRA:          47.466
REMARK INTER:                  47.747
REMARK INTRA:                  -0.281
REMARK UNBOUND:                -0.263
REMARK SMILES O=c1cc(-c2ccc(O)c(O)c2)oc2cc(O)cc(O)c12
REMARK SMILES IDX 4 1 3 2 2 3 1 4 21 5 19 6 18 7 16 8 15 9 14 10 13 11 5 12
REMARK SMILES IDX 6 13 7 14 8 15 12 16 10 17 9 18 11 20 20 22 17 24
REMARK H PARENT 9 19 11 21 20 23 17 25
REMARK Flexibility Score: inf
ROOT
ATOM      1  C   UNL     1      11.792  13.360   4.878  1.00  0.00     0.138 A 
ATOM      2  C   UNL     1      11.207  14.306   5.731  1.00  0.00     0.100 A 
ATOM      3  C   UNL     1      11.692  14.456   7.031  1.00  0.00     0.197 A 
ATOM      4  O   UNL     1      11.107  15.270   7.793  1.00  0.00    -0.289 OA
ATOM      5  C   UNL     1      12.788  13.675   7.467  1.00  0.00     0.107 A 
ATOM      6  C   UNL     1      13.392  13.770   8.757  1.00  0.00     0.134 A 
ATOM      7  C   UNL     1      14.396  12.863   9.117  1.00  0.00     0.093 A 
ATOM      8  C   UNL     1      14.861  11.906   8.216  1.00  0.00     0.123 A 
ATOM      9  C   UNL     1      14.315  11.839   6.933  1.00  0.00     0.094 A 
ATOM     10  C   UNL     1      13.287  12.706   6.555  1.00  0.00     0.146 A 
ATOM     11  O   UNL     1      12.784  12.601   5.330  1.00  0.00    -0.456 OA
ENDROOT
BRANCH   1  12
ATOM     12  C   UNL     1      11.316  13.160   3.486  1.00  0.00     0.021 A 
ATOM     13  C   UNL     1      11.220  11.878   2.912  1.00  0.00     0.016 A 
ATOM     14  C   UNL     1      10.759  11.720   1.603  1.00  0.00     0.051 A 
ATOM     15  C   UNL     1      10.377  12.835   0.847  1.00  0.00     0.157 A 
ATOM     16  C   UNL     1      10.917  14.274   2.724  1.00  0.00     0.062 A 
ATOM     17  C   UNL     1      10.456  14.118   1.413  1.00  0.00     0.158 A 
BRANCH  15  18
ATOM     18  O   UNL     1       9.919  12.673  -0.460  1.00  0.00    -0.504 OA
ATOM     19  H   UNL     1      10.172  11.864  -1.014  1.00  0.00     0.293 HD
ENDBRANCH  15  18
BRANCH  17  20
ATOM     20  O   UNL     1      10.079  15.248   0.688  1.00  0.00    -0.504 OA
ATOM     21  H   UNL     1       9.453  15.196  -0.106  1.00  0.00     0.293 HD
ENDBRANCH  17  20
ENDBRANCH   1  12
BRANCH   6  22
ATOM     22  O   UNL     1      13.062  14.744   9.704  1.00  0.00    -0.507 OA
ATOM     23  H   UNL     1      13.682  15.473  10.021  1.00  0.00     0.293 HD
ENDBRANCH   6  22
BRANCH   8  24
ATOM     24  O   UNL     1      15.872  11.030   8.604  1.00  0.00    -0.508 OA
ATOM     25  H   UNL     1      16.737  11.366   9.010  1.00  0.00     0.293 HD
ENDBRANCH   8  24
TORSDOF 5
ENDMDL
MODEL 4
REMARK VINA RESULT:    41.726      2.719      3.226
REMARK INTER + INTRA:          48.780
REMARK INTER:                  49.095
REMARK INTRA:                  -0.314
REMARK UNBOUND:                -0.263
REMARK SMILES O=c1cc(-c2ccc(O)c(O)c2)oc2cc(O)cc(O)c12
REMARK SMILES IDX 4 1 3 2 2 3 1 4 21 5 19 6 18 7 16 8 15 9 14 10 13 11 5 12
REMARK SMILES IDX 6 13 7 14 8 15 12 16 10 17 9 18 11 20 20 22 17 24
REMARK H PARENT 9 19 11 21 20 23 17 25
REMARK Flexibility Score: inf
ROOT
ATOM      1  C   UNL     1      11.823  13.501   4.831  1.00  0.00     0.138 A 
ATOM      2  C   UNL     1      11.146  14.591   4.267  1.00  0.00     0.100 A 
ATOM      3  C   UNL     1      10.651  14.497   2.965  1.00  0.00     0.197 A 
ATOM      4  O   UNL     1      10.102  15.513   2.464  1.00  0.00    -0.289 OA
ATOM      5  C   UNL     1      10.808  13.293   2.239  1.00  0.00     0.107 A 
ATOM      6  C   UNL     1      10.309  13.069   0.920  1.00  0.00     0.134 A 
ATOM      7  C   UNL     1      10.628  11.878   0.255  1.00  0.00     0.093 A 
ATOM      8  C   UNL     1      11.373  10.880   0.881  1.00  0.00     0.123 A 
ATOM      9  C   UNL     1      11.820  11.066   2.190  1.00  0.00     0.094 A 
ATOM     10  C   UNL     1      11.549  12.257   2.868  1.00  0.00     0.146 A 
ATOM     11  O   UNL     1      12.005  12.402   4.107  1.00  0.00    -0.456 OA
ENDROOT
BRANCH   1  12
ATOM     12  C   UNL     1      12.369  13.547   6.211  1.00  0.00     0.021 A 
ATOM     13  C   UNL     1      11.934  14.505   7.147  1.00  0.00     0.016 A 
ATOM     14  C   UNL     1      12.458  14.518   8.443  1.00  0.00     0.051 A 
ATOM     15  C   UNL     1      13.415  13.572   8.829  1.00  0.00     0.157 A 
ATOM     16  C   UNL     1      13.320  12.592   6.613  1.00  0.00     0.062 A 
ATOM     17  C   UNL     1      13.846  12.604   7.908  1.00  0.00     0.158 A 
BRANCH  15  18
ATOM     18  O   UNL     1      13.936  13.590  10.123  1.00  0.00    -0.504 OA
ATOM     19  H   UNL     1      14.844  13.991  10.323  1.00  0.00     0.293 HD
ENDBRANCH  15  18
BRANCH  17  20
ATOM     20  O   UNL     1      14.795  11.646   8.264  1.00  0.00    -0.504 OA
ATOM     21  H   UNL     1      14.980  11.402   9.229  1.00  0.00     0.293 HD
ENDBRANCH  17  20
ENDBRANCH   1  12
BRANCH   6  22
ATOM     22  O   UNL     1       9.484  13.965   0.234  1.00  0.00    -0.507 OA
ATOM     23  H   UNL     1       9.305  14.916   0.517  1.00  0.00     0.293 HD
ENDBRANCH   6  22
BRANCH   8  24
ATOM     24  O   UNL     1      11.658   9.701   0.195  1.00  0.00    -0.508 OA
ATOM     25  H   UNL     1      12.534   9.573  -0.298  1.00  0.00     0.293 HD
ENDBRANCH   8  24
TORSDOF 5
ENDMDL
MODEL 5
REMARK VINA RESULT:    41.847      1.195      2.731
REMARK INTER + INTRA:          48.923
REMARK INTER:                  49.186
REMARK INTRA:                  -0.263
REMARK UNBOUND:                -0.263
REMARK SMILES O=c1cc(-c2ccc(O)c(O)c2)oc2cc(O)cc(O)c12
REMARK SMILES IDX 4 1 3 2 2 3 1 4 21 5 19 6 18 7 16 8 15 9 14 10 13 11 5 12
REMARK SMILES IDX 6 13 7 14 8 15 12 16 10 17 9 18 11 20 20 22 17 24
REMARK H PARENT 9 19 11 21 20 23 17 25
REMARK Flexibility Score: inf
ROOT
ATOM      1  C   UNL     1      10.177  13.095   4.854  1.00  0.00     0.138 A 
ATOM      2  C   UNL     1      10.772  11.891   4.450  1.00  0.00     0.100 A 
ATOM      3  C   UNL     1      11.216  11.749   3.135  1.00  0.00     0.197 A 
ATOM      4  O   UNL     1      11.690  10.636   2.786  1.00  0.00    -0.289 OA
ATOM      5  C   UNL     1      11.092  12.828   2.230  1.00  0.00     0.107 A 
ATOM      6  C   UNL     1      11.547  12.811   0.876  1.00  0.00     0.134 A 
ATOM      7  C   UNL     1      11.263  13.898   0.040  1.00  0.00     0.093 A 
ATOM      8  C   UNL     1      10.598  15.024   0.521  1.00  0.00     0.123 A 
ATOM      9  C   UNL     1      10.197  15.075   1.857  1.00  0.00     0.094 A 
ATOM     10  C   UNL     1      10.434  13.993   2.708  1.00  0.00     0.146 A 
ATOM     11  O   UNL     1      10.023  14.074   3.969  1.00  0.00    -0.456 OA
ENDROOT
BRANCH   1  12
ATOM     12  C   UNL     1       9.688  13.301   6.240  1.00  0.00     0.021 A 
ATOM     13  C   UNL     1      10.516  13.837   7.246  1.00  0.00     0.016 A 
ATOM     14  C   UNL     1      10.025  14.029   8.540  1.00  0.00     0.051 A 
ATOM     15  C   UNL     1       8.701  13.699   8.851  1.00  0.00     0.157 A 
ATOM     16  C   UNL     1       8.355  12.985   6.559  1.00  0.00     0.062 A 
ATOM     17  C   UNL     1       7.862  13.174   7.854  1.00  0.00     0.158 A 
BRANCH  15  18
ATOM     18  O   UNL     1       8.216  13.891  10.144  1.00  0.00    -0.504 OA
ATOM     19  H   UNL     1       8.120  14.817  10.543  1.00  0.00     0.293 HD
ENDBRANCH  15  18
BRANCH  17  20
ATOM     20  O   UNL     1       6.537  12.839   8.131  1.00  0.00    -0.504 OA
ATOM     21  H   UNL     1       6.291  12.031   8.690  1.00  0.00     0.293 HD
ENDBRANCH  17  20
ENDBRANCH   1  12
BRANCH   6  22
ATOM     22  O   UNL     1      12.294  11.771   0.317  1.00  0.00    -0.507 OA
ATOM     23  H   UNL     1      12.215  10.799   0.577  1.00  0.00     0.293 HD
ENDBRANCH   6  22
BRANCH   8  24
ATOM     24  O   UNL     1      10.347  16.094  -0.337  1.00  0.00    -0.508 OA
ATOM     25  H   UNL     1      10.924  16.927  -0.328  1.00  0.00     0.293 HD
ENDBRANCH   8  24
TORSDOF 5
ENDMDL
