MODEL 1
REMARK VINA RESULT:    -3.805      0.000      0.000
REMARK INTER + INTRA:          -8.127
REMARK INTER:                  -6.475
REMARK INTRA:                  -1.652
REMARK UNBOUND:                -1.652
REMARK SMILES CCCCCCCCCCCCCC(=O)[O-]
REMARK SMILES IDX 8 1 9 2 10 3 11 4 12 5 13 6 14 7 15 8 16 9 7 10 6 11 5 12
REMARK SMILES IDX 4 13 3 14 2 15 1 16
REMARK H PARENT
REMARK Flexibility Score: inf
ROOT
ATOM      1  C   UNL     1      45.698   9.402  22.557  1.00  0.00     0.000 C 
ENDROOT
BRANCH   1   2
ATOM      2  C   UNL     1      45.711   8.230  21.559  1.00  0.00     0.000 C 
BRANCH   2   3
ATOM      3  C   UNL     1      47.083   8.040  20.891  1.00  0.00     0.000 C 
BRANCH   3   4
ATOM      4  C   UNL     1      47.845   6.821  21.435  1.00  0.00     0.000 C 
BRANCH   4   5
ATOM      5  C   UNL     1      49.319   6.865  21.014  1.00  0.00     0.006 C 
BRANCH   5   6
ATOM      6  C   UNL     1      49.697   8.250  20.479  1.00  0.00     0.053 C 
BRANCH   6   7
ATOM      7  C   UNL     1      50.482   8.126  19.212  1.00  0.00     0.041 C 
ATOM      8  O   UNL     1      51.565   7.485  19.198  1.00  0.00    -0.550 OA
ATOM      9  O   UNL     1      50.041   8.760  18.057  1.00  0.00    -0.550 OA
ENDBRANCH   6   7
ENDBRANCH   5   6
ENDBRANCH   4   5
ENDBRANCH   3   4
ENDBRANCH   2   3
ENDBRANCH   1   2
BRANCH   1  10
ATOM     10  C   UNL     1      46.998  10.222  22.521  1.00  0.00     0.000 C 
BRANCH  10  11
ATOM     11  C   UNL     1      47.649  10.366  23.906  1.00  0.00    -0.000 C 
BRANCH  11  12
ATOM     12  C   UNL     1      48.129   9.004  24.430  1.00  0.00    -0.000 C 
BRANCH  12  13
ATOM     13  C   UNL     1      49.631   8.765  24.196  1.00  0.00    -0.000 C 
BRANCH  13  14
ATOM     14  C   UNL     1      50.156   7.400  24.680  1.00  0.00    -0.000 C 
BRANCH  14  15
ATOM     15  C   UNL     1      49.479   6.924  25.972  1.00  0.00    -0.003 C 
ATOM     16  C   UNL     1      50.030   5.571  26.414  1.00  0.00     0.004 C 
ENDBRANCH  14  15
ENDBRANCH  13  14
ENDBRANCH  12  13
ENDBRANCH  11  12
ENDBRANCH  10  11
ENDBRANCH   1  10
TORSDOF 12
ENDMDL
MODEL 2
REMARK VINA RESULT:    -3.749      3.120      4.905
REMARK INTER + INTRA:          -8.032
REMARK INTER:                  -6.654
REMARK INTRA:                  -1.378
REMARK UNBOUND:                -1.652
REMARK SMILES CCCCCCCCCCCCCC(=O)[O-]
REMARK SMILES IDX 8 1 9 2 10 3 11 4 12 5 13 6 14 7 15 8 16 9 7 10 6 11 5 12
REMARK SMILES IDX 4 13 3 14 2 15 1 16
REMARK H PARENT
REMARK Flexibility Score: inf
ROOT
ATOM      1  C   UNL     1      49.229   4.307  24.914  1.00  0.00     0.000 C 
ENDROOT
BRANCH   1   2
ATOM      2  C   UNL     1      48.386   4.294  23.626  1.00  0.00     0.000 C 
BRANCH   2   3
ATOM      3  C   UNL     1      49.185   3.815  22.403  1.00  0.00     0.000 C 
BRANCH   3   4
ATOM      4  C   UNL     1      50.457   3.043  22.790  1.00  0.00     0.000 C 
BRANCH   4   5
ATOM      5  C   UNL     1      51.134   2.449  21.549  1.00  0.00     0.006 C 
BRANCH   5   6
ATOM      6  C   UNL     1      50.622   3.118  20.270  1.00  0.00     0.053 C 
BRANCH   6   7
ATOM      7  C   UNL     1      51.719   3.221  19.257  1.00  0.00     0.041 C 
ATOM      8  O   UNL     1      51.897   4.295  18.625  1.00  0.00    -0.550 OA
ATOM      9  O   UNL     1      52.512   2.116  18.978  1.00  0.00    -0.550 OA
ENDBRANCH   6   7
ENDBRANCH   5   6
ENDBRANCH   4   5
ENDBRANCH   3   4
ENDBRANCH   2   3
ENDBRANCH   1   2
BRANCH   1  10
ATOM     10  C   UNL     1      49.465   5.729  25.449  1.00  0.00     0.000 C 
BRANCH  10  11
ATOM     11  C   UNL     1      50.268   6.605  24.475  1.00  0.00    -0.000 C 
BRANCH  11  12
ATOM     12  C   UNL     1      50.015   8.096  24.742  1.00  0.00    -0.000 C 
BRANCH  12  13
ATOM     13  C   UNL     1      49.098   8.748  23.691  1.00  0.00    -0.000 C 
BRANCH  13  14
ATOM     14  C   UNL     1      48.545   7.786  22.624  1.00  0.00    -0.000 C 
BRANCH  14  15
ATOM     15  C   UNL     1      48.962   8.171  21.198  1.00  0.00    -0.003 C 
ATOM     16  C   UNL     1      49.941   7.153  20.618  1.00  0.00     0.004 C 
ENDBRANCH  14  15
ENDBRANCH  13  14
ENDBRANCH  12  13
ENDBRANCH  11  12
ENDBRANCH  10  11
ENDBRANCH   1  10
TORSDOF 12
ENDMDL
MODEL 3
REMARK VINA RESULT:    -3.738      2.979      5.347
REMARK INTER + INTRA:          -8.013
REMARK INTER:                  -7.022
REMARK INTRA:                  -0.991
REMARK UNBOUND:                -1.652
REMARK SMILES CCCCCCCCCCCCCC(=O)[O-]
REMARK SMILES IDX 8 1 9 2 10 3 11 4 12 5 13 6 14 7 15 8 16 9 7 10 6 11 5 12
REMARK SMILES IDX 4 13 3 14 2 15 1 16
REMARK H PARENT
REMARK Flexibility Score: inf
ROOT
ATOM      1  C   UNL     1      48.860   5.461  24.382  1.00  0.00     0.000 C 
ENDROOT
BRANCH   1   2
ATOM      2  C   UNL     1      49.920   6.483  24.831  1.00  0.00     0.000 C 
BRANCH   2   3
ATOM      3  C   UNL     1      50.031   7.678  23.871  1.00  0.00     0.000 C 
BRANCH   3   4
ATOM      4  C   UNL     1      49.013   7.614  22.721  1.00  0.00     0.000 C 
BRANCH   4   5
ATOM      5  C   UNL     1      49.719   7.425  21.374  1.00  0.00     0.006 C 
BRANCH   5   6
ATOM      6  C   UNL     1      49.180   8.407  20.328  1.00  0.00     0.053 C 
BRANCH   6   7
ATOM      7  C   UNL     1      50.188   8.621  19.243  1.00  0.00     0.041 C 
ATOM      8  O   UNL     1      51.215   7.896  19.180  1.00  0.00    -0.550 OA
ATOM      9  O   UNL     1      50.016   9.654  18.331  1.00  0.00    -0.550 OA
ENDBRANCH   6   7
ENDBRANCH   5   6
ENDBRANCH   4   5
ENDBRANCH   3   4
ENDBRANCH   2   3
ENDBRANCH   1   2
BRANCH   1  10
ATOM     10  C   UNL     1      49.470   4.093  24.033  1.00  0.00     0.000 C 
BRANCH  10  11
ATOM     11  C   UNL     1      50.006   4.030  22.594  1.00  0.00    -0.000 C 
BRANCH  11  12
ATOM     12  C   UNL     1      49.434   2.815  21.849  1.00  0.00    -0.000 C 
BRANCH  12  13
ATOM     13  C   UNL     1      50.054   2.619  20.454  1.00  0.00    -0.000 C 
BRANCH  13  14
ATOM     14  C   UNL     1      51.547   2.239  20.453  1.00  0.00    -0.000 C 
BRANCH  14  15
ATOM     15  C   UNL     1      52.284   2.713  19.193  1.00  0.00    -0.003 C 
ATOM     16  C   UNL     1      51.846   4.120  18.797  1.00  0.00     0.004 C 
ENDBRANCH  14  15
ENDBRANCH  13  14
ENDBRANCH  12  13
ENDBRANCH  11  12
ENDBRANCH  10  11
ENDBRANCH   1  10
TORSDOF 12
ENDMDL
MODEL 4
REMARK VINA RESULT:    -3.703      3.540      5.664
REMARK INTER + INTRA:          -7.952
REMARK INTER:                  -6.828
REMARK INTRA:                  -1.124
REMARK UNBOUND:                -1.652
REMARK SMILES CCCCCCCCCCCCCC(=O)[O-]
REMARK SMILES IDX 8 1 9 2 10 3 11 4 12 5 13 6 14 7 15 8 16 9 7 10 6 11 5 12
REMARK SMILES IDX 4 13 3 14 2 15 1 16
REMARK H PARENT
REMARK Flexibility Score: inf
ROOT
ATOM      1  C   UNL     1      48.290   3.885  21.539  1.00  0.00     0.000 C 
ENDROOT
BRANCH   1   2
ATOM      2  C   UNL     1      49.187   5.109  21.799  1.00  0.00     0.000 C 
BRANCH   2   3
ATOM      3  C   UNL     1      48.414   6.289  22.410  1.00  0.00     0.000 C 
BRANCH   3   4
ATOM      4  C   UNL     1      48.274   7.473  21.441  1.00  0.00     0.000 C 
BRANCH   4   5
ATOM      5  C   UNL     1      49.640   7.890  20.885  1.00  0.00     0.006 C 
BRANCH   5   6
ATOM      6  C   UNL     1      49.483   8.751  19.628  1.00  0.00     0.053 C 
BRANCH   6   7
ATOM      7  C   UNL     1      50.303   8.194  18.506  1.00  0.00     0.041 C 
ATOM      8  O   UNL     1      49.934   8.352  17.313  1.00  0.00    -0.550 OA
ATOM      9  O   UNL     1      51.449   7.459  18.782  1.00  0.00    -0.550 OA
ENDBRANCH   6   7
ENDBRANCH   5   6
ENDBRANCH   4   5
ENDBRANCH   3   4
ENDBRANCH   2   3
ENDBRANCH   1   2
BRANCH   1  10
ATOM     10  C   UNL     1      48.805   2.617  22.238  1.00  0.00     0.000 C 
BRANCH  10  11
ATOM     11  C   UNL     1      50.042   2.880  23.112  1.00  0.00    -0.000 C 
BRANCH  11  12
ATOM     12  C   UNL     1      51.152   1.862  22.811  1.00  0.00    -0.000 C 
BRANCH  12  13
ATOM     13  C   UNL     1      51.365   1.633  21.304  1.00  0.00    -0.000 C 
BRANCH  13  14
ATOM     14  C   UNL     1      52.725   2.109  20.760  1.00  0.00    -0.000 C 
BRANCH  14  15
ATOM     15  C   UNL     1      52.655   2.574  19.299  1.00  0.00    -0.003 C 
ATOM     16  C   UNL     1      51.552   3.612  19.105  1.00  0.00     0.004 C 
ENDBRANCH  14  15
ENDBRANCH  13  14
ENDBRANCH  12  13
ENDBRANCH  11  12
ENDBRANCH  10  11
ENDBRANCH   1  10
TORSDOF 12
ENDMDL
MODEL 5
REMARK VINA RESULT:    -3.689      1.426      3.222
REMARK INTER + INTRA:          -7.930
REMARK INTER:                  -5.976
REMARK INTRA:                  -1.954
REMARK UNBOUND:                -1.652
REMARK SMILES CCCCCCCCCCCCCC(=O)[O-]
REMARK SMILES IDX 8 1 9 2 10 3 11 4 12 5 13 6 14 7 15 8 16 9 7 10 6 11 5 12
REMARK SMILES IDX 4 13 3 14 2 15 1 16
REMARK H PARENT
REMARK Flexibility Score: inf
ROOT
ATOM      1  C   UNL     1      47.008   5.102  23.605  1.00  0.00     0.000 C 
ENDROOT
BRANCH   1   2
ATOM      2  C   UNL     1      46.570   5.758  22.283  1.00  0.00     0.000 C 
BRANCH   2   3
ATOM      3  C   UNL     1      47.716   6.515  21.593  1.00  0.00     0.000 C 
BRANCH   3   4
ATOM      4  C   UNL     1      47.214   7.631  20.663  1.00  0.00     0.000 C 
BRANCH   4   5
ATOM      5  C   UNL     1      48.384   8.466  20.129  1.00  0.00     0.006 C 
BRANCH   5   6
ATOM      6  C   UNL     1      49.727   7.820  20.483  1.00  0.00     0.053 C 
BRANCH   6   7
ATOM      7  C   UNL     1      50.749   8.125  19.434  1.00  0.00     0.041 C 
ATOM      8  O   UNL     1      50.740   9.240  18.847  1.00  0.00    -0.550 OA
ATOM      9  O   UNL     1      51.680   7.161  19.069  1.00  0.00    -0.550 OA
ENDBRANCH   6   7
ENDBRANCH   5   6
ENDBRANCH   4   5
ENDBRANCH   3   4
ENDBRANCH   2   3
ENDBRANCH   1   2
BRANCH   1  10
ATOM     10  C   UNL     1      48.528   4.880  23.678  1.00  0.00     0.000 C 
BRANCH  10  11
ATOM     11  C   UNL     1      49.089   5.069  25.096  1.00  0.00    -0.000 C 
BRANCH  11  12
ATOM     12  C   UNL     1      50.397   5.874  25.064  1.00  0.00    -0.000 C 
BRANCH  12  13
ATOM     13  C   UNL     1      50.299   7.147  24.204  1.00  0.00    -0.000 C 
BRANCH  13  14
ATOM     14  C   UNL     1      49.550   8.321  24.862  1.00  0.00    -0.000 C 
BRANCH  14  15
ATOM     15  C   UNL     1      48.682   9.107  23.869  1.00  0.00    -0.003 C 
ATOM     16  C   UNL     1      47.209   9.050  24.264  1.00  0.00     0.004 C 
ENDBRANCH  14  15
ENDBRANCH  13  14
ENDBRANCH  12  13
ENDBRANCH  11  12
ENDBRANCH  10  11
ENDBRANCH   1  10
TORSDOF 12
ENDMDL
MODEL 6
REMARK VINA RESULT:    -3.682      2.723      5.071
REMARK INTER + INTRA:          -7.917
REMARK INTER:                  -6.366
REMARK INTRA:                  -1.550
REMARK UNBOUND:                -1.652
REMARK SMILES CCCCCCCCCCCCCC(=O)[O-]
REMARK SMILES IDX 8 1 9 2 10 3 11 4 12 5 13 6 14 7 15 8 16 9 7 10 6 11 5 12
REMARK SMILES IDX 4 13 3 14 2 15 1 16
REMARK H PARENT
REMARK Flexibility Score: inf
ROOT
ATOM      1  C   UNL     1      45.428  11.341  21.623  1.00  0.00     0.000 C 
ENDROOT
BRANCH   1   2
ATOM      2  C   UNL     1      45.333  11.609  23.136  1.00  0.00     0.000 C 
BRANCH   2   3
ATOM      3  C   UNL     1      46.668  11.375  23.861  1.00  0.00     0.000 C 
BRANCH   3   4
ATOM      4  C   UNL     1      46.806   9.944  24.405  1.00  0.00     0.000 C 
BRANCH   4   5
ATOM      5  C   UNL     1      48.234   9.421  24.214  1.00  0.00     0.006 C 
BRANCH   5   6
ATOM      6  C   UNL     1      48.273   7.891  24.286  1.00  0.00     0.053 C 
BRANCH   6   7
ATOM      7  C   UNL     1      49.372   7.437  25.195  1.00  0.00     0.041 C 
ATOM      8  O   UNL     1      49.227   7.500  26.444  1.00  0.00    -0.550 OA
ATOM      9  O   UNL     1      50.574   6.990  24.662  1.00  0.00    -0.550 OA
ENDBRANCH   6   7
ENDBRANCH   5   6
ENDBRANCH   4   5
ENDBRANCH   3   4
ENDBRANCH   2   3
ENDBRANCH   1   2
BRANCH   1  10
ATOM     10  C   UNL     1      46.795  11.733  21.039  1.00  0.00     0.000 C 
BRANCH  10  11
ATOM     11  C   UNL     1      47.430  10.610  20.205  1.00  0.00    -0.000 C 
BRANCH  11  12
ATOM     12  C   UNL     1      46.865   9.240  20.610  1.00  0.00    -0.000 C 
BRANCH  12  13
ATOM     13  C   UNL     1      47.837   8.080  20.326  1.00  0.00    -0.000 C 
BRANCH  13  14
ATOM     14  C   UNL     1      49.240   8.242  20.942  1.00  0.00    -0.000 C 
BRANCH  14  15
ATOM     15  C   UNL     1      50.367   7.895  19.960  1.00  0.00    -0.003 C 
ATOM     16  C   UNL     1      50.394   8.873  18.788  1.00  0.00     0.004 C 
ENDBRANCH  14  15
ENDBRANCH  13  14
ENDBRANCH  12  13
ENDBRANCH  11  12
ENDBRANCH  10  11
ENDBRANCH   1  10
TORSDOF 12
ENDMDL
MODEL 7
REMARK VINA RESULT:    -3.681      6.944      8.696
REMARK INTER + INTRA:          -7.916
REMARK INTER:                  -6.606
REMARK INTRA:                  -1.309
REMARK UNBOUND:                -1.652
REMARK SMILES CCCCCCCCCCCCCC(=O)[O-]
REMARK SMILES IDX 8 1 9 2 10 3 11 4 12 5 13 6 14 7 15 8 16 9 7 10 6 11 5 12
REMARK SMILES IDX 4 13 3 14 2 15 1 16
REMARK H PARENT
REMARK Flexibility Score: inf
ROOT
ATOM      1  C   UNL     1      47.287   1.180  20.197  1.00  0.00     0.000 C 
ENDROOT
BRANCH   1   2
ATOM      2  C   UNL     1      47.018   0.439  21.519  1.00  0.00     0.000 C 
BRANCH   2   3
ATOM      3  C   UNL     1      48.082  -0.628  21.825  1.00  0.00     0.000 C 
BRANCH   3   4
ATOM      4  C   UNL     1      47.716  -1.502  23.035  1.00  0.00     0.000 C 
BRANCH   4   5
ATOM      5  C   UNL     1      48.793  -2.563  23.288  1.00  0.00     0.006 C 
BRANCH   5   6
ATOM      6  C   UNL     1      49.830  -2.575  22.161  1.00  0.00     0.053 C 
BRANCH   6   7
ATOM      7  C   UNL     1      51.164  -2.130  22.672  1.00  0.00     0.041 C 
ATOM      8  O   UNL     1      51.589  -2.549  23.781  1.00  0.00    -0.550 OA
ATOM      9  O   UNL     1      51.917  -1.216  21.946  1.00  0.00    -0.550 OA
ENDBRANCH   6   7
ENDBRANCH   5   6
ENDBRANCH   4   5
ENDBRANCH   3   4
ENDBRANCH   2   3
ENDBRANCH   1   2
BRANCH   1  10
ATOM     10  C   UNL     1      47.194   2.707  20.348  1.00  0.00     0.000 C 
BRANCH  10  11
ATOM     11  C   UNL     1      47.596   3.193  21.749  1.00  0.00    -0.000 C 
BRANCH  11  12
ATOM     12  C   UNL     1      48.977   3.865  21.721  1.00  0.00    -0.000 C 
BRANCH  12  13
ATOM     13  C   UNL     1      50.101   2.953  22.246  1.00  0.00    -0.000 C 
BRANCH  13  14
ATOM     14  C   UNL     1      50.843   2.146  21.164  1.00  0.00    -0.000 C 
BRANCH  14  15
ATOM     15  C   UNL     1      50.911   2.876  19.816  1.00  0.00    -0.003 C 
ATOM     16  C   UNL     1      52.309   2.783  19.211  1.00  0.00     0.004 C 
ENDBRANCH  14  15
ENDBRANCH  13  14
ENDBRANCH  12  13
ENDBRANCH  11  12
ENDBRANCH  10  11
ENDBRANCH   1  10
TORSDOF 12
ENDMDL
MODEL 8
REMARK VINA RESULT:    -3.680      1.980      4.346
REMARK INTER + INTRA:          -7.913
REMARK INTER:                  -6.039
REMARK INTRA:                  -1.874
REMARK UNBOUND:                -1.652
REMARK SMILES CCCCCCCCCCCCCC(=O)[O-]
REMARK SMILES IDX 8 1 9 2 10 3 11 4 12 5 13 6 14 7 15 8 16 9 7 10 6 11 5 12
REMARK SMILES IDX 4 13 3 14 2 15 1 16
REMARK H PARENT
REMARK Flexibility Score: inf
ROOT
ATOM      1  C   UNL     1      50.264   5.916  25.400  1.00  0.00     0.000 C 
ENDROOT
BRANCH   1   2
ATOM      2  C   UNL     1      50.196   7.418  25.072  1.00  0.00     0.000 C 
BRANCH   2   3
ATOM      3  C   UNL     1      49.784   7.686  23.615  1.00  0.00     0.000 C 
BRANCH   3   4
ATOM      4  C   UNL     1      49.023   6.508  22.987  1.00  0.00     0.000 C 
BRANCH   4   5
ATOM      5  C   UNL     1      48.289   6.947  21.715  1.00  0.00     0.006 C 
BRANCH   5   6
ATOM      6  C   UNL     1      48.299   8.472  21.572  1.00  0.00     0.053 C 
BRANCH   6   7
ATOM      7  C   UNL     1      47.794   8.875  20.223  1.00  0.00     0.041 C 
ATOM      8  O   UNL     1      48.523   9.553  19.451  1.00  0.00    -0.550 OA
ATOM      9  O   UNL     1      46.502   8.545  19.837  1.00  0.00    -0.550 OA
ENDBRANCH   6   7
ENDBRANCH   5   6
ENDBRANCH   4   5
ENDBRANCH   3   4
ENDBRANCH   2   3
ENDBRANCH   1   2
BRANCH   1  10
ATOM     10  C   UNL     1      49.793   5.603  26.829  1.00  0.00     0.000 C 
BRANCH  10  11
ATOM     11  C   UNL     1      49.556   6.868  27.669  1.00  0.00    -0.000 C 
BRANCH  11  12
ATOM     12  C   UNL     1      48.089   6.965  28.112  1.00  0.00    -0.000 C 
BRANCH  12  13
ATOM     13  C   UNL     1      47.271   7.959  27.268  1.00  0.00    -0.000 C 
BRANCH  13  14
ATOM     14  C   UNL     1      46.528   7.339  26.070  1.00  0.00    -0.000 C 
BRANCH  14  15
ATOM     15  C   UNL     1      46.345   8.322  24.906  1.00  0.00    -0.003 C 
ATOM     16  C   UNL     1      47.021   9.658  25.204  1.00  0.00     0.004 C 
ENDBRANCH  14  15
ENDBRANCH  13  14
ENDBRANCH  12  13
ENDBRANCH  11  12
ENDBRANCH  10  11
ENDBRANCH   1  10
TORSDOF 12
ENDMDL
MODEL 9
REMARK VINA RESULT:    -3.627      3.112      5.752
REMARK INTER + INTRA:          -7.824
REMARK INTER:                  -5.721
REMARK INTRA:                  -2.103
REMARK UNBOUND:                -1.652
REMARK SMILES CCCCCCCCCCCCCC(=O)[O-]
REMARK SMILES IDX 8 1 9 2 10 3 11 4 12 5 13 6 14 7 15 8 16 9 7 10 6 11 5 12
REMARK SMILES IDX 4 13 3 14 2 15 1 16
REMARK H PARENT
REMARK Flexibility Score: inf
ROOT
ATOM      1  C   UNL     1      49.644   5.372  23.884  1.00  0.00     0.000 C 
ENDROOT
BRANCH   1   2
ATOM      2  C   UNL     1      50.389   6.409  24.744  1.00  0.00     0.000 C 
BRANCH   2   3
ATOM      3  C   UNL     1      49.481   7.568  25.187  1.00  0.00     0.000 C 
BRANCH   3   4
ATOM      4  C   UNL     1      49.622   8.809  24.291  1.00  0.00     0.000 C 
BRANCH   4   5
ATOM      5  C   UNL     1      48.251   9.424  23.988  1.00  0.00     0.006 C 
BRANCH   5   6
ATOM      6  C   UNL     1      47.210   8.982  25.021  1.00  0.00     0.053 C 
BRANCH   6   7
ATOM      7  C   UNL     1      45.827   9.274  24.530  1.00  0.00     0.041 C 
ATOM      8  O   UNL     1      45.178  10.244  25.003  1.00  0.00    -0.550 OA
ATOM      9  O   UNL     1      45.237   8.446  23.584  1.00  0.00    -0.550 OA
ENDBRANCH   6   7
ENDBRANCH   5   6
ENDBRANCH   4   5
ENDBRANCH   3   4
ENDBRANCH   2   3
ENDBRANCH   1   2
BRANCH   1  10
ATOM     10  C   UNL     1      48.141   5.316  24.197  1.00  0.00     0.000 C 
BRANCH  10  11
ATOM     11  C   UNL     1      47.265   5.587  22.964  1.00  0.00    -0.000 C 
BRANCH  11  12
ATOM     12  C   UNL     1      48.117   6.079  21.784  1.00  0.00    -0.000 C 
BRANCH  12  13
ATOM     13  C   UNL     1      47.490   7.277  21.047  1.00  0.00    -0.000 C 
BRANCH  13  14
ATOM     14  C   UNL     1      48.500   8.257  20.423  1.00  0.00    -0.000 C 
BRANCH  14  15
ATOM     15  C   UNL     1      49.959   7.867  20.697  1.00  0.00    -0.003 C 
ATOM     16  C   UNL     1      50.786   7.901  19.414  1.00  0.00     0.004 C 
ENDBRANCH  14  15
ENDBRANCH  13  14
ENDBRANCH  12  13
ENDBRANCH  11  12
ENDBRANCH  10  11
ENDBRANCH   1  10
TORSDOF 12
ENDMDL
