MODEL 1
REMARK VINA RESULT:    16.230      0.000      0.000
REMARK INTER + INTRA:          24.602
REMARK INTER:                  23.821
REMARK INTRA:                   0.781
REMARK UNBOUND:                 0.781
REMARK SMILES O=c1c(O[C@@H]2O[C@H](CO)[C@H](O)[C@@H](O)[C@H]2O)c(-c2ccc(O)c(O)c2)oc2cc(O)cc(O)c12
REMARK SMILES IDX 4 1 3 2 16 3 25 4 2 5 26 6 1 7 33 8 27 9 31 10 28 11 30 12
REMARK SMILES IDX 17 13 18 14 19 15 20 16 24 17 22 18 21 19 23 21 32 23 29 25
REMARK SMILES IDX 5 27 14 28 6 29 12 30 7 31 10 32 15 33 13 35 8 37 9 38 11 40
REMARK H PARENT 21 20 23 22 32 24 29 26 15 34 13 36 9 39 11 41
REMARK Flexibility Score: inf
ROOT
ATOM      1  O   UNL     1       0.970  -2.533  -0.721  1.00  0.00    -0.454 OA
ENDROOT
BRANCH   1   2
ATOM      2  C   UNL     1       0.333  -3.619  -0.103  1.00  0.00     0.214 A 
ATOM      3  C   UNL     1      -0.940  -3.448   0.480  1.00  0.00     0.180 A 
ATOM      4  O   UNL     1      -1.537  -4.468   1.090  1.00  0.00    -0.452 OA
ATOM      5  C   UNL     1       0.996  -4.843   0.101  1.00  0.00     0.239 A 
ATOM      6  C   UNL     1      -0.981  -5.668   1.217  1.00  0.00     0.146 A 
ATOM      7  O   UNL     1       2.205  -4.956  -0.228  1.00  0.00    -0.285 OA
ATOM      8  C   UNL     1       0.324  -5.908   0.733  1.00  0.00     0.111 A 
ATOM      9  C   UNL     1      -1.689  -6.678   1.872  1.00  0.00     0.094 A 
ATOM     10  C   UNL     1       0.904  -7.184   0.928  1.00  0.00     0.134 A 
ATOM     11  C   UNL     1      -1.108  -7.930   2.075  1.00  0.00     0.123 A 
ATOM     12  C   UNL     1       0.185  -8.179   1.605  1.00  0.00     0.093 A 
BRANCH   3  13
ATOM     13  C   UNL     1      -1.606  -2.132   0.531  1.00  0.00     0.025 A 
ATOM     14  C   UNL     1      -3.000  -2.077   0.431  1.00  0.00     0.016 A 
ATOM     15  C   UNL     1      -3.663  -0.849   0.463  1.00  0.00     0.051 A 
ATOM     16  C   UNL     1      -2.945   0.345   0.580  1.00  0.00     0.157 A 
ATOM     17  C   UNL     1      -0.878  -0.938   0.626  1.00  0.00     0.062 A 
ATOM     18  C   UNL     1      -1.534   0.301   0.661  1.00  0.00     0.158 A 
BRANCH  16  19
ATOM     19  O   UNL     1      -3.667   1.542   0.603  1.00  0.00    -0.504 OA
ATOM     20  H   UNL     1      -3.735   2.146   1.409  1.00  0.00     0.293 HD
ENDBRANCH  16  19
BRANCH  18  21
ATOM     21  O   UNL     1      -0.746   1.449   0.773  1.00  0.00    -0.504 OA
ATOM     22  H   UNL     1      -1.080   2.382   0.583  1.00  0.00     0.293 HD
ENDBRANCH  18  21
ENDBRANCH   3  13
BRANCH  10  23
ATOM     23  O   UNL     1       2.184  -7.471   0.449  1.00  0.00    -0.507 OA
ATOM     24  H   UNL     1       2.895  -7.888   1.044  1.00  0.00     0.293 HD
ENDBRANCH  10  23
BRANCH  11  25
ATOM     25  O   UNL     1      -1.820  -8.915   2.756  1.00  0.00    -0.508 OA
ATOM     26  H   UNL     1      -1.817  -8.968   3.767  1.00  0.00     0.293 HD
ENDBRANCH  11  25
ENDBRANCH   1   2
BRANCH   1  27
ATOM     27  C   UNL     1       1.763  -1.500  -0.104  1.00  0.00     0.339 C 
ATOM     28  C   UNL     1       3.266  -1.856   0.100  1.00  0.00     0.214 C 
ATOM     29  O   UNL     1       1.452  -0.192  -0.584  1.00  0.00    -0.332 OA
ATOM     30  C   UNL     1       4.198  -1.221  -0.945  1.00  0.00     0.180 C 
ATOM     31  C   UNL     1       2.357   0.416  -1.501  1.00  0.00     0.179 C 
ATOM     32  C   UNL     1       3.847   0.250  -1.129  1.00  0.00     0.177 C 
BRANCH  28  33
ATOM     33  O   UNL     1       3.686  -1.515   1.403  1.00  0.00    -0.384 OA
ATOM     34  H   UNL     1       3.100  -0.789   1.736  1.00  0.00     0.211 HD
ENDBRANCH  28  33
BRANCH  30  35
ATOM     35  O   UNL     1       5.535  -1.329  -0.528  1.00  0.00    -0.387 OA
ATOM     36  H   UNL     1       6.077  -0.772  -1.144  1.00  0.00     0.211 HD
ENDBRANCH  30  35
BRANCH  31  37
ATOM     37  C   UNL     1       2.009   0.063  -2.964  1.00  0.00     0.191 C 
BRANCH  37  38
ATOM     38  O   UNL     1       0.891   0.788  -3.407  1.00  0.00    -0.394 OA
ATOM     39  H   UNL     1       1.233   1.534  -3.967  1.00  0.00     0.210 HD
ENDBRANCH  37  38
ENDBRANCH  31  37
BRANCH  32  40
ATOM     40  O   UNL     1       4.677   0.808  -2.117  1.00  0.00    -0.387 OA
ATOM     41  H   UNL     1       5.486   1.153  -1.654  1.00  0.00     0.211 HD
ENDBRANCH  32  40
ENDBRANCH   1  27
TORSDOF 12
ENDMDL
MODEL 2
REMARK VINA RESULT:    16.664      2.953      4.922
REMARK INTER + INTRA:          25.239
REMARK INTER:                  24.940
REMARK INTRA:                   0.299
REMARK UNBOUND:                 0.781
REMARK SMILES O=c1c(O[C@@H]2O[C@H](CO)[C@H](O)[C@@H](O)[C@H]2O)c(-c2ccc(O)c(O)c2)oc2cc(O)cc(O)c12
REMARK SMILES IDX 4 1 3 2 16 3 25 4 2 5 26 6 1 7 33 8 27 9 31 10 28 11 30 12
REMARK SMILES IDX 17 13 18 14 19 15 20 16 24 17 22 18 21 19 23 21 32 23 29 25
REMARK SMILES IDX 5 27 14 28 6 29 12 30 7 31 10 32 15 33 13 35 8 37 9 38 11 40
REMARK H PARENT 21 20 23 22 32 24 29 26 15 34 13 36 9 39 11 41
REMARK Flexibility Score: inf
ROOT
ATOM      1  O   UNL     1       1.039   0.440  -0.237  1.00  0.00    -0.454 OA
ENDROOT
BRANCH   1   2
ATOM      2  C   UNL     1      -0.302   0.143   0.051  1.00  0.00     0.214 A 
ATOM      3  C   UNL     1      -1.164   1.161   0.509  1.00  0.00     0.180 A 
ATOM      4  O   UNL     1      -2.428   0.878   0.808  1.00  0.00    -0.452 OA
ATOM      5  C   UNL     1      -0.778  -1.181   0.053  1.00  0.00     0.239 A 
ATOM      6  C   UNL     1      -2.941  -0.345   0.730  1.00  0.00     0.146 A 
ATOM      7  O   UNL     1       0.023  -2.129  -0.154  1.00  0.00    -0.285 OA
ATOM      8  C   UNL     1      -2.130  -1.439   0.356  1.00  0.00     0.111 A 
ATOM      9  C   UNL     1      -4.283  -0.541   1.062  1.00  0.00     0.094 A 
ATOM     10  C   UNL     1      -2.696  -2.736   0.329  1.00  0.00     0.134 A 
ATOM     11  C   UNL     1      -4.833  -1.823   1.048  1.00  0.00     0.123 A 
ATOM     12  C   UNL     1      -4.040  -2.915   0.684  1.00  0.00     0.093 A 
BRANCH   3  13
ATOM     13  C   UNL     1      -0.685   2.531   0.774  1.00  0.00     0.025 A 
ATOM     14  C   UNL     1      -1.138   3.574  -0.042  1.00  0.00     0.016 A 
ATOM     15  C   UNL     1      -0.697   4.881   0.171  1.00  0.00     0.051 A 
ATOM     16  C   UNL     1       0.216   5.167   1.191  1.00  0.00     0.157 A 
ATOM     17  C   UNL     1       0.248   2.808   1.783  1.00  0.00     0.062 A 
ATOM     18  C   UNL     1       0.696   4.117   2.007  1.00  0.00     0.158 A 
BRANCH  16  19
ATOM     19  O   UNL     1       0.622   6.495   1.350  1.00  0.00    -0.504 OA
ATOM     20  H   UNL     1       1.569   6.817   1.208  1.00  0.00     0.293 HD
ENDBRANCH  16  19
BRANCH  18  21
ATOM     21  O   UNL     1       1.613   4.321   3.041  1.00  0.00    -0.504 OA
ATOM     22  H   UNL     1       1.613   3.800   3.905  1.00  0.00     0.293 HD
ENDBRANCH  18  21
ENDBRANCH   3  13
BRANCH  10  23
ATOM     23  O   UNL     1      -1.935  -3.843  -0.054  1.00  0.00    -0.507 OA
ATOM     24  H   UNL     1      -1.006  -4.007   0.324  1.00  0.00     0.293 HD
ENDBRANCH  10  23
BRANCH  11  25
ATOM     25  O   UNL     1      -6.167  -2.002   1.411  1.00  0.00    -0.508 OA
ATOM     26  H   UNL     1      -6.826  -1.233   1.403  1.00  0.00     0.293 HD
ENDBRANCH  11  25
ENDBRANCH   1   2
BRANCH   1  27
ATOM     27  C   UNL     1       1.942  -0.279  -1.100  1.00  0.00     0.339 C 
ATOM     28  C   UNL     1       3.143   0.555  -1.638  1.00  0.00     0.214 C 
ATOM     29  O   UNL     1       2.209  -1.608  -0.652  1.00  0.00    -0.332 OA
ATOM     30  C   UNL     1       4.463   0.285  -0.899  1.00  0.00     0.180 C 
ATOM     31  C   UNL     1       3.463  -1.864  -0.027  1.00  0.00     0.179 C 
ATOM     32  C   UNL     1       4.672  -1.216  -0.739  1.00  0.00     0.177 C 
BRANCH  28  33
ATOM     33  O   UNL     1       3.308   0.354  -3.025  1.00  0.00    -0.384 OA
ATOM     34  H   UNL     1       2.437   0.064  -3.400  1.00  0.00     0.211 HD
ENDBRANCH  28  33
BRANCH  30  35
ATOM     35  O   UNL     1       5.540   0.826  -1.621  1.00  0.00    -0.387 OA
ATOM     36  H   UNL     1       6.208   0.101  -1.735  1.00  0.00     0.211 HD
ENDBRANCH  30  35
BRANCH  31  37
ATOM     37  C   UNL     1       3.401  -1.624   1.497  1.00  0.00     0.191 C 
BRANCH  37  38
ATOM     38  O   UNL     1       2.074  -1.489   1.934  1.00  0.00    -0.394 OA
ATOM     39  H   UNL     1       1.947  -0.535   2.184  1.00  0.00     0.210 HD
ENDBRANCH  37  38
ENDBRANCH  31  37
BRANCH  32  40
ATOM     40  O   UNL     1       5.859  -1.449  -0.025  1.00  0.00    -0.387 OA
ATOM     41  H   UNL     1       5.605  -1.913   0.816  1.00  0.00     0.211 HD
ENDBRANCH  32  40
ENDBRANCH   1  27
TORSDOF 12
ENDMDL
MODEL 3
REMARK VINA RESULT:    16.910      2.018      6.464
REMARK INTER + INTRA:          25.600
REMARK INTER:                  23.612
REMARK INTRA:                   1.987
REMARK UNBOUND:                 0.781
REMARK SMILES O=c1c(O[C@@H]2O[C@H](CO)[C@H](O)[C@@H](O)[C@H]2O)c(-c2ccc(O)c(O)c2)oc2cc(O)cc(O)c12
REMARK SMILES IDX 4 1 3 2 16 3 25 4 2 5 26 6 1 7 33 8 27 9 31 10 28 11 30 12
REMARK SMILES IDX 17 13 18 14 19 15 20 16 24 17 22 18 21 19 23 21 32 23 29 25
REMARK SMILES IDX 5 27 14 28 6 29 12 30 7 31 10 32 15 33 13 35 8 37 9 38 11 40
REMARK H PARENT 21 20 23 22 32 24 29 26 15 34 13 36 9 39 11 41
REMARK Flexibility Score: inf
ROOT
ATOM      1  O   UNL     1       0.298  -0.299  -1.924  1.00  0.00    -0.454 OA
ENDROOT
BRANCH   1   2
ATOM      2  C   UNL     1       1.547  -0.749  -1.471  1.00  0.00     0.214 A 
ATOM      3  C   UNL     1       1.617  -1.788  -0.520  1.00  0.00     0.180 A 
ATOM      4  O   UNL     1       2.798  -2.200  -0.068  1.00  0.00    -0.452 OA
ATOM      5  C   UNL     1       2.738  -0.083  -1.814  1.00  0.00     0.239 A 
ATOM      6  C   UNL     1       3.952  -1.658  -0.444  1.00  0.00     0.146 A 
ATOM      7  O   UNL     1       2.684   0.972  -2.498  1.00  0.00    -0.285 OA
ATOM      8  C   UNL     1       3.973  -0.561  -1.333  1.00  0.00     0.111 A 
ATOM      9  C   UNL     1       5.142  -2.164   0.084  1.00  0.00     0.094 A 
ATOM     10  C   UNL     1       5.216   0.021  -1.674  1.00  0.00     0.134 A 
ATOM     11  C   UNL     1       6.364  -1.577  -0.244  1.00  0.00     0.123 A 
ATOM     12  C   UNL     1       6.399  -0.487  -1.119  1.00  0.00     0.093 A 
BRANCH   3  13
ATOM     13  C   UNL     1       0.406  -2.379   0.083  1.00  0.00     0.025 A 
ATOM     14  C   UNL     1      -0.644  -1.533   0.455  1.00  0.00     0.016 A 
ATOM     15  C   UNL     1      -1.799  -2.055   1.039  1.00  0.00     0.051 A 
ATOM     16  C   UNL     1      -1.920  -3.428   1.275  1.00  0.00     0.157 A 
ATOM     17  C   UNL     1       0.301  -3.753   0.337  1.00  0.00     0.062 A 
ATOM     18  C   UNL     1      -0.855  -4.289   0.921  1.00  0.00     0.158 A 
BRANCH  16  19
ATOM     19  O   UNL     1      -3.100  -3.888   1.866  1.00  0.00    -0.504 OA
ATOM     20  H   UNL     1      -3.739  -4.534   1.425  1.00  0.00     0.293 HD
ENDBRANCH  16  19
BRANCH  18  21
ATOM     21  O   UNL     1      -0.898  -5.669   1.130  1.00  0.00    -0.504 OA
ATOM     22  H   UNL     1      -1.623  -6.138   1.653  1.00  0.00     0.293 HD
ENDBRANCH  18  21
ENDBRANCH   3  13
BRANCH  10  23
ATOM     23  O   UNL     1       5.284   1.096  -2.564  1.00  0.00    -0.507 OA
ATOM     24  H   UNL     1       4.519   1.759  -2.659  1.00  0.00     0.293 HD
ENDBRANCH  10  23
BRANCH  11  25
ATOM     25  O   UNL     1       7.538  -2.077   0.316  1.00  0.00    -0.508 OA
ATOM     26  H   UNL     1       7.561  -2.972   0.789  1.00  0.00     0.293 HD
ENDBRANCH  11  25
ENDBRANCH   1   2
BRANCH   1  27
ATOM     27  C   UNL     1      -0.362   0.945  -1.617  1.00  0.00     0.339 C 
ATOM     28  C   UNL     1      -1.908   0.846  -1.444  1.00  0.00     0.214 C 
ATOM     29  O   UNL     1       0.358   1.748  -0.682  1.00  0.00    -0.332 OA
ATOM     30  C   UNL     1      -2.365   0.845   0.024  1.00  0.00     0.180 C 
ATOM     31  C   UNL     1      -0.113   1.794   0.661  1.00  0.00     0.179 C 
ATOM     32  C   UNL     1      -1.645   1.945   0.794  1.00  0.00     0.177 C 
BRANCH  28  33
ATOM     33  O   UNL     1      -2.557   1.875  -2.159  1.00  0.00    -0.384 OA
ATOM     34  H   UNL     1      -2.284   2.742  -1.766  1.00  0.00     0.211 HD
ENDBRANCH  28  33
BRANCH  30  35
ATOM     35  O   UNL     1      -3.751   1.061   0.098  1.00  0.00    -0.387 OA
ATOM     36  H   UNL     1      -4.073   1.205  -0.829  1.00  0.00     0.211 HD
ENDBRANCH  30  35
BRANCH  31  37
ATOM     37  C   UNL     1       0.506   0.670   1.521  1.00  0.00     0.191 C 
BRANCH  37  38
ATOM     38  O   UNL     1       0.368   0.948   2.891  1.00  0.00    -0.394 OA
ATOM     39  H   UNL     1      -0.457   1.491   2.995  1.00  0.00     0.210 HD
ENDBRANCH  37  38
ENDBRANCH  31  37
BRANCH  32  40
ATOM     40  O   UNL     1      -2.039   1.906   2.142  1.00  0.00    -0.387 OA
ATOM     41  H   UNL     1      -2.738   1.204   2.220  1.00  0.00     0.211 HD
ENDBRANCH  32  40
ENDBRANCH   1  27
TORSDOF 12
ENDMDL
MODEL 4
REMARK VINA RESULT:    16.994      1.588      4.498
REMARK INTER + INTRA:          25.722
REMARK INTER:                  26.062
REMARK INTRA:                  -0.340
REMARK UNBOUND:                 0.781
REMARK SMILES O=c1c(O[C@@H]2O[C@H](CO)[C@H](O)[C@@H](O)[C@H]2O)c(-c2ccc(O)c(O)c2)oc2cc(O)cc(O)c12
REMARK SMILES IDX 4 1 3 2 16 3 25 4 2 5 26 6 1 7 33 8 27 9 31 10 28 11 30 12
REMARK SMILES IDX 17 13 18 14 19 15 20 16 24 17 22 18 21 19 23 21 32 23 29 25
REMARK SMILES IDX 5 27 14 28 6 29 12 30 7 31 10 32 15 33 13 35 8 37 9 38 11 40
REMARK H PARENT 21 20 23 22 32 24 29 26 15 34 13 36 9 39 11 41
REMARK Flexibility Score: inf
ROOT
ATOM      1  O   UNL     1      -1.336  -1.730   0.236  1.00  0.00    -0.454 OA
ENDROOT
BRANCH   1   2
ATOM      2  C   UNL     1      -0.764  -2.984   0.495  1.00  0.00     0.214 A 
ATOM      3  C   UNL     1       0.592  -3.216   0.187  1.00  0.00     0.180 A 
ATOM      4  O   UNL     1       1.132  -4.411   0.406  1.00  0.00    -0.452 OA
ATOM      5  C   UNL     1      -1.547  -4.080   0.904  1.00  0.00     0.239 A 
ATOM      6  C   UNL     1       0.446  -5.444   0.883  1.00  0.00     0.146 A 
ATOM      7  O   UNL     1      -2.796  -3.952   0.990  1.00  0.00    -0.285 OA
ATOM      8  C   UNL     1      -0.937  -5.326   1.146  1.00  0.00     0.111 A 
ATOM      9  C   UNL     1       1.103  -6.660   1.083  1.00  0.00     0.094 A 
ATOM     10  C   UNL     1      -1.646  -6.460   1.609  1.00  0.00     0.134 A 
ATOM     11  C   UNL     1       0.396  -7.779   1.525  1.00  0.00     0.123 A 
ATOM     12  C   UNL     1      -0.974  -7.678   1.785  1.00  0.00     0.093 A 
BRANCH   3  13
ATOM     13  C   UNL     1       1.428  -2.196  -0.477  1.00  0.00     0.025 A 
ATOM     14  C   UNL     1       2.796  -2.150  -0.185  1.00  0.00     0.016 A 
ATOM     15  C   UNL     1       3.614  -1.191  -0.785  1.00  0.00     0.051 A 
ATOM     16  C   UNL     1       3.079  -0.253  -1.673  1.00  0.00     0.157 A 
ATOM     17  C   UNL     1       0.881  -1.244  -1.349  1.00  0.00     0.062 A 
ATOM     18  C   UNL     1       1.694  -0.279  -1.958  1.00  0.00     0.158 A 
BRANCH  16  19
ATOM     19  O   UNL     1       3.951   0.683  -2.237  1.00  0.00    -0.504 OA
ATOM     20  H   UNL     1       3.660   1.419  -2.865  1.00  0.00     0.293 HD
ENDBRANCH  16  19
BRANCH  18  21
ATOM     21  O   UNL     1       1.085   0.628  -2.829  1.00  0.00    -0.504 OA
ATOM     22  H   UNL     1       0.655   0.366  -3.704  1.00  0.00     0.293 HD
ENDBRANCH  18  21
ENDBRANCH   3  13
BRANCH  10  23
ATOM     23  O   UNL     1      -3.010  -6.383   1.899  1.00  0.00    -0.507 OA
ATOM     24  H   UNL     1      -3.567  -5.575   1.632  1.00  0.00     0.293 HD
ENDBRANCH  10  23
BRANCH  11  25
ATOM     25  O   UNL     1       1.063  -8.991   1.691  1.00  0.00    -0.508 OA
ATOM     26  H   UNL     1       1.127  -9.442   2.596  1.00  0.00     0.293 HD
ENDBRANCH  11  25
ENDBRANCH   1   2
BRANCH   1  27
ATOM     27  C   UNL     1      -1.484  -0.618   1.142  1.00  0.00     0.339 C 
ATOM     28  C   UNL     1      -0.218   0.278   1.298  1.00  0.00     0.214 C 
ATOM     29  O   UNL     1      -2.747   0.037   1.025  1.00  0.00    -0.332 OA
ATOM     30  C   UNL     1      -0.289   1.590   0.502  1.00  0.00     0.180 C 
ATOM     31  C   UNL     1      -2.792   1.287   0.343  1.00  0.00     0.179 C 
ATOM     32  C   UNL     1      -1.644   2.254   0.712  1.00  0.00     0.177 C 
BRANCH  28  33
ATOM     33  O   UNL     1       0.039   0.543   2.659  1.00  0.00    -0.384 OA
ATOM     34  H   UNL     1       0.613   1.349   2.713  1.00  0.00     0.211 HD
ENDBRANCH  28  33
BRANCH  30  35
ATOM     35  O   UNL     1       0.724   2.467   0.924  1.00  0.00    -0.387 OA
ATOM     36  H   UNL     1       1.477   1.907   1.248  1.00  0.00     0.211 HD
ENDBRANCH  30  35
BRANCH  31  37
ATOM     37  C   UNL     1      -3.023   1.102  -1.173  1.00  0.00     0.191 C 
BRANCH  37  38
ATOM     38  O   UNL     1      -1.866   1.421  -1.903  1.00  0.00    -0.394 OA
ATOM     39  H   UNL     1      -1.742   2.404  -1.834  1.00  0.00     0.210 HD
ENDBRANCH  37  38
ENDBRANCH  31  37
BRANCH  32  40
ATOM     40  O   UNL     1      -1.713   3.430  -0.054  1.00  0.00    -0.387 OA
ATOM     41  H   UNL     1      -2.321   3.244  -0.817  1.00  0.00     0.211 HD
ENDBRANCH  32  40
ENDBRANCH   1  27
TORSDOF 12
ENDMDL
MODEL 5
REMARK VINA RESULT:    17.557      1.525      4.938
REMARK INTER + INTRA:          26.549
REMARK INTER:                  26.857
REMARK INTRA:                  -0.308
REMARK UNBOUND:                 0.781
REMARK SMILES O=c1c(O[C@@H]2O[C@H](CO)[C@H](O)[C@@H](O)[C@H]2O)c(-c2ccc(O)c(O)c2)oc2cc(O)cc(O)c12
REMARK SMILES IDX 4 1 3 2 16 3 25 4 2 5 26 6 1 7 33 8 27 9 31 10 28 11 30 12
REMARK SMILES IDX 17 13 18 14 19 15 20 16 24 17 22 18 21 19 23 21 32 23 29 25
REMARK SMILES IDX 5 27 14 28 6 29 12 30 7 31 10 32 15 33 13 35 8 37 9 38 11 40
REMARK H PARENT 21 20 23 22 32 24 29 26 15 34 13 36 9 39 11 41
REMARK Flexibility Score: inf
ROOT
ATOM      1  O   UNL     1      -0.842  -1.310   0.093  1.00  0.00    -0.454 OA
ENDROOT
BRANCH   1   2
ATOM      2  C   UNL     1      -0.379  -2.604   0.369  1.00  0.00     0.214 A 
ATOM      3  C   UNL     1       0.977  -2.928   0.152  1.00  0.00     0.180 A 
ATOM      4  O   UNL     1       1.414  -4.160   0.388  1.00  0.00    -0.452 OA
ATOM      5  C   UNL     1      -1.263  -3.646   0.706  1.00  0.00     0.239 A 
ATOM      6  C   UNL     1       0.626  -5.148   0.800  1.00  0.00     0.146 A 
ATOM      7  O   UNL     1      -2.503  -3.432   0.707  1.00  0.00    -0.285 OA
ATOM      8  C   UNL     1      -0.760  -4.935   0.969  1.00  0.00     0.111 A 
ATOM      9  C   UNL     1       1.181  -6.410   1.025  1.00  0.00     0.094 A 
ATOM     10  C   UNL     1      -1.578  -6.022   1.363  1.00  0.00     0.134 A 
ATOM     11  C   UNL     1       0.368  -7.481   1.399  1.00  0.00     0.123 A 
ATOM     12  C   UNL     1      -1.006  -7.285   1.565  1.00  0.00     0.093 A 
BRANCH   3  13
ATOM     13  C   UNL     1       1.926  -1.962  -0.436  1.00  0.00     0.025 A 
ATOM     14  C   UNL     1       1.439  -0.984  -1.310  1.00  0.00     0.016 A 
ATOM     15  C   UNL     1       2.309  -0.062  -1.894  1.00  0.00     0.051 A 
ATOM     16  C   UNL     1       3.680  -0.109  -1.627  1.00  0.00     0.157 A 
ATOM     17  C   UNL     1       3.303  -2.029  -0.182  1.00  0.00     0.062 A 
ATOM     18  C   UNL     1       4.185  -1.107  -0.761  1.00  0.00     0.158 A 
BRANCH  16  19
ATOM     19  O   UNL     1       4.499   0.839  -2.246  1.00  0.00    -0.504 OA
ATOM     20  H   UNL     1       5.287   0.608  -2.835  1.00  0.00     0.293 HD
ENDBRANCH  16  19
BRANCH  18  21
ATOM     21  O   UNL     1       5.542  -1.223  -0.451  1.00  0.00    -0.504 OA
ATOM     22  H   UNL     1       5.926  -1.061   0.469  1.00  0.00     0.293 HD
ENDBRANCH  18  21
ENDBRANCH   3  13
BRANCH  10  23
ATOM     23  O   UNL     1      -2.950  -5.851   1.560  1.00  0.00    -0.507 OA
ATOM     24  H   UNL     1      -3.629  -6.491   1.158  1.00  0.00     0.293 HD
ENDBRANCH  10  23
BRANCH  11  25
ATOM     25  O   UNL     1       0.936  -8.739   1.591  1.00  0.00    -0.508 OA
ATOM     26  H   UNL     1       0.556  -9.395   2.262  1.00  0.00     0.293 HD
ENDBRANCH  11  25
ENDBRANCH   1   2
BRANCH   1  27
ATOM     27  C   UNL     1      -1.387  -0.345   1.015  1.00  0.00     0.339 C 
ATOM     28  C   UNL     1      -0.513   0.927   1.231  1.00  0.00     0.214 C 
ATOM     29  O   UNL     1      -2.795  -0.163   0.869  1.00  0.00    -0.332 OA
ATOM     30  C   UNL     1      -1.014   2.158   0.460  1.00  0.00     0.180 C 
ATOM     31  C   UNL     1      -3.253   1.015   0.212  1.00  0.00     0.179 C 
ATOM     32  C   UNL     1      -2.520   2.307   0.639  1.00  0.00     0.177 C 
BRANCH  28  33
ATOM     33  O   UNL     1      -0.397   1.223   2.606  1.00  0.00    -0.384 OA
ATOM     34  H   UNL     1       0.535   1.032   2.884  1.00  0.00     0.211 HD
ENDBRANCH  28  33
BRANCH  30  35
ATOM     35  O   UNL     1      -0.377   3.317   0.934  1.00  0.00    -0.387 OA
ATOM     36  H   UNL     1      -1.035   3.803   1.494  1.00  0.00     0.211 HD
ENDBRANCH  30  35
BRANCH  31  37
ATOM     37  C   UNL     1      -3.369   0.808  -1.314  1.00  0.00     0.191 C 
BRANCH  37  38
ATOM     38  O   UNL     1      -2.346   1.487  -1.996  1.00  0.00    -0.394 OA
ATOM     39  H   UNL     1      -2.599   2.448  -2.015  1.00  0.00     0.210 HD
ENDBRANCH  37  38
ENDBRANCH  31  37
BRANCH  32  40
ATOM     40  O   UNL     1      -2.973   3.410  -0.105  1.00  0.00    -0.387 OA
ATOM     41  H   UNL     1      -3.846   3.682   0.283  1.00  0.00     0.211 HD
ENDBRANCH  32  40
ENDBRANCH   1  27
TORSDOF 12
ENDMDL
MODEL 6
REMARK VINA RESULT:    17.891      1.559      2.520
REMARK INTER + INTRA:          27.038
REMARK INTER:                  25.773
REMARK INTRA:                   1.265
REMARK UNBOUND:                 0.781
REMARK SMILES O=c1c(O[C@@H]2O[C@H](CO)[C@H](O)[C@@H](O)[C@H]2O)c(-c2ccc(O)c(O)c2)oc2cc(O)cc(O)c12
REMARK SMILES IDX 4 1 3 2 16 3 25 4 2 5 26 6 1 7 33 8 27 9 31 10 28 11 30 12
REMARK SMILES IDX 17 13 18 14 19 15 20 16 24 17 22 18 21 19 23 21 32 23 29 25
REMARK SMILES IDX 5 27 14 28 6 29 12 30 7 31 10 32 15 33 13 35 8 37 9 38 11 40
REMARK H PARENT 21 20 23 22 32 24 29 26 15 34 13 36 9 39 11 41
REMARK Flexibility Score: inf
ROOT
ATOM      1  O   UNL     1      -0.366  -3.106   0.041  1.00  0.00    -0.454 OA
ENDROOT
BRANCH   1   2
ATOM      2  C   UNL     1      -0.673  -4.345   0.624  1.00  0.00     0.214 A 
ATOM      3  C   UNL     1      -1.928  -4.542   1.236  1.00  0.00     0.180 A 
ATOM      4  O   UNL     1      -2.214  -5.706   1.812  1.00  0.00    -0.452 OA
ATOM      5  C   UNL     1       0.298  -5.353   0.762  1.00  0.00     0.239 A 
ATOM      6  C   UNL     1      -1.354  -6.717   1.877  1.00  0.00     0.146 A 
ATOM      7  O   UNL     1       1.484  -5.127   0.407  1.00  0.00    -0.285 OA
ATOM      8  C   UNL     1      -0.047  -6.582   1.360  1.00  0.00     0.111 A 
ATOM      9  C   UNL     1      -1.749  -7.903   2.500  1.00  0.00     0.094 A 
ATOM     10  C   UNL     1       0.857  -7.663   1.489  1.00  0.00     0.134 A 
ATOM     11  C   UNL     1      -0.849  -8.960   2.639  1.00  0.00     0.123 A 
ATOM     12  C   UNL     1       0.449  -8.838   2.136  1.00  0.00     0.093 A 
BRANCH   3  13
ATOM     13  C   UNL     1      -2.919  -3.455   1.355  1.00  0.00     0.025 A 
ATOM     14  C   UNL     1      -3.952  -3.582   2.290  1.00  0.00     0.016 A 
ATOM     15  C   UNL     1      -4.914  -2.579   2.423  1.00  0.00     0.051 A 
ATOM     16  C   UNL     1      -4.870  -1.440   1.614  1.00  0.00     0.157 A 
ATOM     17  C   UNL     1      -2.882  -2.325   0.526  1.00  0.00     0.062 A 
ATOM     18  C   UNL     1      -3.842  -1.311   0.651  1.00  0.00     0.158 A 
BRANCH  16  19
ATOM     19  O   UNL     1      -5.864  -0.473   1.792  1.00  0.00    -0.504 OA
ATOM     20  H   UNL     1      -5.754   0.352   2.364  1.00  0.00     0.293 HD
ENDBRANCH  16  19
BRANCH  18  21
ATOM     21  O   UNL     1      -3.734  -0.207  -0.197  1.00  0.00    -0.504 OA
ATOM     22  H   UNL     1      -4.485   0.445  -0.372  1.00  0.00     0.293 HD
ENDBRANCH  18  21
ENDBRANCH   3  13
BRANCH  10  23
ATOM     23  O   UNL     1       2.153  -7.578   0.976  1.00  0.00    -0.507 OA
ATOM     24  H   UNL     1       2.699  -8.410   0.766  1.00  0.00     0.293 HD
ENDBRANCH  10  23
BRANCH  11  25
ATOM     25  O   UNL     1      -1.253 -10.125   3.289  1.00  0.00    -0.508 OA
ATOM     26  H   UNL     1      -0.589 -10.723   3.766  1.00  0.00     0.293 HD
ENDBRANCH  11  25
ENDBRANCH   1   2
BRANCH   1  27
ATOM     27  C   UNL     1       0.710  -2.208   0.378  1.00  0.00     0.339 C 
ATOM     28  C   UNL     1       1.604  -1.771  -0.821  1.00  0.00     0.214 C 
ATOM     29  O   UNL     1       0.331  -1.205   1.320  1.00  0.00    -0.332 OA
ATOM     30  C   UNL     1       1.288  -0.361  -1.344  1.00  0.00     0.180 C 
ATOM     31  C   UNL     1       0.105   0.115   0.836  1.00  0.00     0.179 C 
ATOM     32  C   UNL     1       1.161   0.611  -0.178  1.00  0.00     0.177 C 
BRANCH  28  33
ATOM     33  O   UNL     1       2.971  -1.876  -0.488  1.00  0.00    -0.384 OA
ATOM     34  H   UNL     1       3.475  -1.237  -1.053  1.00  0.00     0.211 HD
ENDBRANCH  28  33
BRANCH  30  35
ATOM     35  O   UNL     1       2.312   0.077  -2.201  1.00  0.00    -0.387 OA
ATOM     36  H   UNL     1       1.920   0.771  -2.791  1.00  0.00     0.211 HD
ENDBRANCH  30  35
BRANCH  31  37
ATOM     37  C   UNL     1      -1.361   0.320   0.397  1.00  0.00     0.191 C 
BRANCH  37  38
ATOM     38  O   UNL     1      -1.772   1.646   0.608  1.00  0.00    -0.394 OA
ATOM     39  H   UNL     1      -0.951   2.205   0.621  1.00  0.00     0.210 HD
ENDBRANCH  37  38
ENDBRANCH  31  37
BRANCH  32  40
ATOM     40  O   UNL     1       0.831   1.886  -0.665  1.00  0.00    -0.387 OA
ATOM     41  H   UNL     1       0.790   1.816  -1.655  1.00  0.00     0.211 HD
ENDBRANCH  32  40
ENDBRANCH   1  27
TORSDOF 12
ENDMDL
MODEL 7
REMARK VINA RESULT:    18.140      1.632      6.465
REMARK INTER + INTRA:          27.405
REMARK INTER:                  26.359
REMARK INTRA:                   1.046
REMARK UNBOUND:                 0.781
REMARK SMILES O=c1c(O[C@@H]2O[C@H](CO)[C@H](O)[C@@H](O)[C@H]2O)c(-c2ccc(O)c(O)c2)oc2cc(O)cc(O)c12
REMARK SMILES IDX 4 1 3 2 16 3 25 4 2 5 26 6 1 7 33 8 27 9 31 10 28 11 30 12
REMARK SMILES IDX 17 13 18 14 19 15 20 16 24 17 22 18 21 19 23 21 32 23 29 25
REMARK SMILES IDX 5 27 14 28 6 29 12 30 7 31 10 32 15 33 13 35 8 37 9 38 11 40
REMARK H PARENT 21 20 23 22 32 24 29 26 15 34 13 36 9 39 11 41
REMARK Flexibility Score: inf
ROOT
ATOM      1  O   UNL     1      -0.376  -1.064  -0.558  1.00  0.00    -0.454 OA
ENDROOT
BRANCH   1   2
ATOM      2  C   UNL     1       0.993  -1.368  -0.554  1.00  0.00     0.214 A 
ATOM      3  C   UNL     1       1.428  -2.647  -0.148  1.00  0.00     0.180 A 
ATOM      4  O   UNL     1       2.726  -2.932  -0.117  1.00  0.00    -0.452 OA
ATOM      5  C   UNL     1       1.967  -0.381  -0.787  1.00  0.00     0.239 A 
ATOM      6  C   UNL     1       3.673  -2.052  -0.424  1.00  0.00     0.146 A 
ATOM      7  O   UNL     1       1.612   0.815  -0.950  1.00  0.00    -0.285 OA
ATOM      8  C   UNL     1       3.334  -0.725  -0.766  1.00  0.00     0.111 A 
ATOM      9  C   UNL     1       5.011  -2.448  -0.366  1.00  0.00     0.094 A 
ATOM     10  C   UNL     1       4.370   0.199  -1.041  1.00  0.00     0.134 A 
ATOM     11  C   UNL     1       6.030  -1.530  -0.623  1.00  0.00     0.123 A 
ATOM     12  C   UNL     1       5.708  -0.211  -0.958  1.00  0.00     0.093 A 
BRANCH   3  13
ATOM     13  C   UNL     1       0.487  -3.670   0.352  1.00  0.00     0.025 A 
ATOM     14  C   UNL     1      -0.837  -3.300   0.609  1.00  0.00     0.016 A 
ATOM     15  C   UNL     1      -1.751  -4.237   1.094  1.00  0.00     0.051 A 
ATOM     16  C   UNL     1      -1.355  -5.555   1.343  1.00  0.00     0.157 A 
ATOM     17  C   UNL     1       0.897  -4.983   0.621  1.00  0.00     0.062 A 
ATOM     18  C   UNL     1      -0.013  -5.933   1.106  1.00  0.00     0.158 A 
BRANCH  16  19
ATOM     19  O   UNL     1      -2.316  -6.445   1.832  1.00  0.00    -0.504 OA
ATOM     20  H   UNL     1      -2.218  -6.967   2.690  1.00  0.00     0.293 HD
ENDBRANCH  16  19
BRANCH  18  21
ATOM     21  O   UNL     1       0.460  -7.227   1.336  1.00  0.00    -0.504 OA
ATOM     22  H   UNL     1      -0.135  -8.038   1.418  1.00  0.00     0.293 HD
ENDBRANCH  18  21
ENDBRANCH   3  13
BRANCH  10  23
ATOM     23  O   UNL     1       4.079   1.517  -1.401  1.00  0.00    -0.507 OA
ATOM     24  H   UNL     1       4.335   1.890  -2.312  1.00  0.00     0.293 HD
ENDBRANCH  10  23
BRANCH  11  25
ATOM     25  O   UNL     1       7.360  -1.936  -0.532  1.00  0.00    -0.508 OA
ATOM     26  H   UNL     1       7.824  -2.033   0.363  1.00  0.00     0.293 HD
ENDBRANCH  11  25
ENDBRANCH   1   2
BRANCH   1  27
ATOM     27  C   UNL     1      -1.155  -0.457   0.493  1.00  0.00     0.339 C 
ATOM     28  C   UNL     1      -0.511   0.802   1.146  1.00  0.00     0.214 C 
ATOM     29  O   UNL     1      -2.551  -0.410   0.201  1.00  0.00    -0.332 OA
ATOM     30  C   UNL     1      -1.109   2.128   0.651  1.00  0.00     0.180 C 
ATOM     31  C   UNL     1      -3.110   0.839  -0.193  1.00  0.00     0.179 C 
ATOM     32  C   UNL     1      -2.630   2.044   0.647  1.00  0.00     0.177 C 
BRANCH  28  33
ATOM     33  O   UNL     1      -0.585   0.726   2.553  1.00  0.00    -0.384 OA
ATOM     34  H   UNL     1      -0.009   1.438   2.931  1.00  0.00     0.211 HD
ENDBRANCH  28  33
BRANCH  30  35
ATOM     35  O   UNL     1      -0.707   3.182   1.488  1.00  0.00    -0.387 OA
ATOM     36  H   UNL     1      -1.513   3.729   1.675  1.00  0.00     0.211 HD
ENDBRANCH  30  35
BRANCH  31  37
ATOM     37  C   UNL     1      -3.033   1.042  -1.722  1.00  0.00     0.191 C 
BRANCH  37  38
ATOM     38  O   UNL     1      -1.739   1.417  -2.118  1.00  0.00    -0.394 OA
ATOM     39  H   UNL     1      -1.427   0.736  -2.771  1.00  0.00     0.210 HD
ENDBRANCH  37  38
ENDBRANCH  31  37
BRANCH  32  40
ATOM     40  O   UNL     1      -3.164   3.246   0.152  1.00  0.00    -0.387 OA
ATOM     41  H   UNL     1      -4.147   3.119   0.081  1.00  0.00     0.211 HD
ENDBRANCH  32  40
ENDBRANCH   1  27
TORSDOF 12
ENDMDL
MODEL 8
REMARK VINA RESULT:    18.182      1.448      5.184
REMARK INTER + INTRA:          27.466
REMARK INTER:                  27.316
REMARK INTRA:                   0.149
REMARK UNBOUND:                 0.781
REMARK SMILES O=c1c(O[C@@H]2O[C@H](CO)[C@H](O)[C@@H](O)[C@H]2O)c(-c2ccc(O)c(O)c2)oc2cc(O)cc(O)c12
REMARK SMILES IDX 4 1 3 2 16 3 25 4 2 5 26 6 1 7 33 8 27 9 31 10 28 11 30 12
REMARK SMILES IDX 17 13 18 14 19 15 20 16 24 17 22 18 21 19 23 21 32 23 29 25
REMARK SMILES IDX 5 27 14 28 6 29 12 30 7 31 10 32 15 33 13 35 8 37 9 38 11 40
REMARK H PARENT 21 20 23 22 32 24 29 26 15 34 13 36 9 39 11 41
REMARK Flexibility Score: inf
ROOT
ATOM      1  O   UNL     1      -1.026  -1.973   1.084  1.00  0.00    -0.454 OA
ENDROOT
BRANCH   1   2
ATOM      2  C   UNL     1      -0.535  -3.287   1.060  1.00  0.00     0.214 A 
ATOM      3  C   UNL     1       0.728  -3.554   0.493  1.00  0.00     0.180 A 
ATOM      4  O   UNL     1       1.186  -4.801   0.444  1.00  0.00    -0.452 OA
ATOM      5  C   UNL     1      -1.337  -4.379   1.439  1.00  0.00     0.239 A 
ATOM      6  C   UNL     1       0.496  -5.849   0.882  1.00  0.00     0.146 A 
ATOM      7  O   UNL     1      -2.539  -4.187   1.756  1.00  0.00    -0.285 OA
ATOM      8  C   UNL     1      -0.809  -5.685   1.393  1.00  0.00     0.111 A 
ATOM      9  C   UNL     1       1.066  -7.121   0.791  1.00  0.00     0.094 A 
ATOM     10  C   UNL     1      -1.534  -6.829   1.806  1.00  0.00     0.134 A 
ATOM     11  C   UNL     1       0.342  -8.248   1.185  1.00  0.00     0.123 A 
ATOM     12  C   UNL     1      -0.953  -8.099   1.689  1.00  0.00     0.093 A 
BRANCH   3  13
ATOM     13  C   UNL     1       1.533  -2.500  -0.154  1.00  0.00     0.025 A 
ATOM     14  C   UNL     1       2.913  -2.467   0.078  1.00  0.00     0.016 A 
ATOM     15  C   UNL     1       3.704  -1.478  -0.507  1.00  0.00     0.051 A 
ATOM     16  C   UNL     1       3.131  -0.495  -1.321  1.00  0.00     0.157 A 
ATOM     17  C   UNL     1       0.949  -1.505  -0.949  1.00  0.00     0.062 A 
ATOM     18  C   UNL     1       1.734  -0.508  -1.543  1.00  0.00     0.158 A 
BRANCH  16  19
ATOM     19  O   UNL     1       3.977   0.470  -1.874  1.00  0.00    -0.504 OA
ATOM     20  H   UNL     1       3.679   1.165  -2.544  1.00  0.00     0.293 HD
ENDBRANCH  16  19
BRANCH  18  21
ATOM     21  O   UNL     1       1.087   0.442  -2.338  1.00  0.00    -0.504 OA
ATOM     22  H   UNL     1       0.968   1.409  -2.075  1.00  0.00     0.293 HD
ENDBRANCH  18  21
ENDBRANCH   3  13
BRANCH  10  23
ATOM     23  O   UNL     1      -2.821  -6.710   2.336  1.00  0.00    -0.507 OA
ATOM     24  H   UNL     1      -3.287  -5.809   2.405  1.00  0.00     0.293 HD
ENDBRANCH  10  23
BRANCH  11  25
ATOM     25  O   UNL     1       0.916  -9.511   1.061  1.00  0.00    -0.508 OA
ATOM     26  H   UNL     1       0.355 -10.332   0.868  1.00  0.00     0.293 HD
ENDBRANCH  11  25
ENDBRANCH   1   2
BRANCH   1  27
ATOM     27  C   UNL     1      -1.915  -1.339   0.142  1.00  0.00     0.339 C 
ATOM     28  C   UNL     1      -3.387  -1.182   0.628  1.00  0.00     0.214 C 
ATOM     29  O   UNL     1      -1.319  -0.232  -0.534  1.00  0.00    -0.332 OA
ATOM     30  C   UNL     1      -3.729   0.237   1.109  1.00  0.00     0.180 C 
ATOM     31  C   UNL     1      -1.693   1.080  -0.126  1.00  0.00     0.179 C 
ATOM     32  C   UNL     1      -3.209   1.265   0.112  1.00  0.00     0.177 C 
BRANCH  28  33
ATOM     33  O   UNL     1      -4.290  -1.590  -0.377  1.00  0.00    -0.384 OA
ATOM     34  H   UNL     1      -4.231  -2.575  -0.462  1.00  0.00     0.211 HD
ENDBRANCH  28  33
BRANCH  30  35
ATOM     35  O   UNL     1      -5.121   0.381   1.237  1.00  0.00    -0.387 OA
ATOM     36  H   UNL     1      -5.539  -0.248   0.594  1.00  0.00     0.211 HD
ENDBRANCH  30  35
BRANCH  31  37
ATOM     37  C   UNL     1      -0.790   1.603   1.012  1.00  0.00     0.191 C 
BRANCH  37  38
ATOM     38  O   UNL     1      -0.739   3.007   1.013  1.00  0.00    -0.394 OA
ATOM     39  H   UNL     1       0.220   3.262   0.980  1.00  0.00     0.210 HD
ENDBRANCH  37  38
ENDBRANCH  31  37
BRANCH  32  40
ATOM     40  O   UNL     1      -3.490   2.559   0.583  1.00  0.00    -0.387 OA
ATOM     41  H   UNL     1      -2.998   3.193  -0.002  1.00  0.00     0.211 HD
ENDBRANCH  32  40
ENDBRANCH   1  27
TORSDOF 12
ENDMDL
MODEL 9
REMARK VINA RESULT:    18.494      1.523      3.051
REMARK INTER + INTRA:          27.925
REMARK INTER:                  23.808
REMARK INTRA:                   4.117
REMARK UNBOUND:                 0.781
REMARK SMILES O=c1c(O[C@@H]2O[C@H](CO)[C@H](O)[C@@H](O)[C@H]2O)c(-c2ccc(O)c(O)c2)oc2cc(O)cc(O)c12
REMARK SMILES IDX 4 1 3 2 16 3 25 4 2 5 26 6 1 7 33 8 27 9 31 10 28 11 30 12
REMARK SMILES IDX 17 13 18 14 19 15 20 16 24 17 22 18 21 19 23 21 32 23 29 25
REMARK SMILES IDX 5 27 14 28 6 29 12 30 7 31 10 32 15 33 13 35 8 37 9 38 11 40
REMARK H PARENT 21 20 23 22 32 24 29 26 15 34 13 36 9 39 11 41
REMARK Flexibility Score: inf
ROOT
ATOM      1  O   UNL     1       0.387  -3.055  -0.980  1.00  0.00    -0.454 OA
ENDROOT
BRANCH   1   2
ATOM      2  C   UNL     1      -0.042  -4.135  -0.195  1.00  0.00     0.214 A 
ATOM      3  C   UNL     1      -1.249  -4.043   0.528  1.00  0.00     0.180 A 
ATOM      4  O   UNL     1      -1.645  -5.054   1.295  1.00  0.00    -0.452 OA
ATOM      5  C   UNL     1       0.781  -5.255   0.027  1.00  0.00     0.239 A 
ATOM      6  C   UNL     1      -0.941  -6.170   1.453  1.00  0.00     0.146 A 
ATOM      7  O   UNL     1       1.948  -5.271  -0.442  1.00  0.00    -0.285 OA
ATOM      8  C   UNL     1       0.317  -6.317   0.829  1.00  0.00     0.111 A 
ATOM      9  C   UNL     1      -1.444  -7.179   2.277  1.00  0.00     0.094 A 
ATOM     10  C   UNL     1       1.062  -7.498   1.058  1.00  0.00     0.134 A 
ATOM     11  C   UNL     1      -0.699  -8.335   2.511  1.00  0.00     0.123 A 
ATOM     12  C   UNL     1       0.550  -8.491   1.904  1.00  0.00     0.093 A 
BRANCH   3  13
ATOM     13  C   UNL     1      -2.054  -2.807   0.550  1.00  0.00     0.025 A 
ATOM     14  C   UNL     1      -1.417  -1.582   0.325  1.00  0.00     0.016 A 
ATOM     15  C   UNL     1      -2.144  -0.391   0.350  1.00  0.00     0.051 A 
ATOM     16  C   UNL     1      -3.517  -0.401   0.615  1.00  0.00     0.157 A 
ATOM     17  C   UNL     1      -3.426  -2.822   0.839  1.00  0.00     0.062 A 
ATOM     18  C   UNL     1      -4.167  -1.632   0.865  1.00  0.00     0.158 A 
BRANCH  16  19
ATOM     19  O   UNL     1      -4.188   0.825   0.631  1.00  0.00    -0.504 OA
ATOM     20  H   UNL     1      -4.811   1.138  -0.101  1.00  0.00     0.293 HD
ENDBRANCH  16  19
BRANCH  18  21
ATOM     21  O   UNL     1      -5.533  -1.724   1.143  1.00  0.00    -0.504 OA
ATOM     22  H   UNL     1      -6.258  -1.606   0.451  1.00  0.00     0.293 HD
ENDBRANCH  18  21
ENDBRANCH   3  13
BRANCH  10  23
ATOM     23  O   UNL     1       2.303  -7.693   0.445  1.00  0.00    -0.507 OA
ATOM     24  H   UNL     1       2.692  -8.623   0.315  1.00  0.00     0.293 HD
ENDBRANCH  10  23
BRANCH  11  25
ATOM     25  O   UNL     1      -1.206  -9.318   3.360  1.00  0.00    -0.508 OA
ATOM     26  H   UNL     1      -1.529 -10.210   3.005  1.00  0.00     0.293 HD
ENDBRANCH  11  25
ENDBRANCH   1   2
BRANCH   1  27
ATOM     27  C   UNL     1       1.375  -2.057  -0.655  1.00  0.00     0.339 C 
ATOM     28  C   UNL     1       0.962  -0.590  -0.981  1.00  0.00     0.214 C 
ATOM     29  O   UNL     1       2.028  -2.298   0.590  1.00  0.00    -0.332 OA
ATOM     30  C   UNL     1       0.507   0.211   0.249  1.00  0.00     0.180 C 
ATOM     31  C   UNL     1       1.647  -1.505   1.710  1.00  0.00     0.179 C 
ATOM     32  C   UNL     1       1.485  -0.000   1.398  1.00  0.00     0.177 C 
BRANCH  28  33
ATOM     33  O   UNL     1       2.006   0.086  -1.647  1.00  0.00    -0.384 OA
ATOM     34  H   UNL     1       1.636   0.485  -2.475  1.00  0.00     0.211 HD
ENDBRANCH  28  33
BRANCH  30  35
ATOM     35  O   UNL     1       0.447   1.580  -0.060  1.00  0.00    -0.387 OA
ATOM     36  H   UNL     1       0.145   2.050   0.759  1.00  0.00     0.211 HD
ENDBRANCH  30  35
BRANCH  31  37
ATOM     37  C   UNL     1       0.471  -2.139   2.484  1.00  0.00     0.191 C 
BRANCH  37  38
ATOM     38  O   UNL     1       0.631  -1.975   3.870  1.00  0.00    -0.394 OA
ATOM     39  H   UNL     1       1.606  -1.886   4.040  1.00  0.00     0.210 HD
ENDBRANCH  37  38
ENDBRANCH  31  37
BRANCH  32  40
ATOM     40  O   UNL     1       1.036   0.702   2.530  1.00  0.00    -0.387 OA
ATOM     41  H   UNL     1       1.042   1.666   2.293  1.00  0.00     0.211 HD
ENDBRANCH  32  40
ENDBRANCH   1  27
TORSDOF 12
ENDMDL
