MODEL 1
REMARK VINA RESULT:    -6.940      0.000      0.000
REMARK INTER + INTRA:         -10.408
REMARK INTER:                  -9.577
REMARK INTRA:                  -0.831
REMARK UNBOUND:                -0.831
REMARK SMILES C[C@@H]1OC(=O)[C@@H](C)[C@@H]1C[C@@H](O)[C@@](C)(O)[C@H]1CC[C@]2(O)C3=CC(=O)[C@H]4C[C@H](O)[C@@H](O)C[C@]4(C)[C@H]3CC[C@]12C
REMARK SMILES IDX 12 1 13 2 10 3 9 4 8 5 7 6 6 7 4 8 2 9 3 10 5 11 1 12 11 13
REMARK SMILES IDX 15 15 16 16 36 17 17 18 18 19 35 20 37 21 20 22 34 23 33 24
REMARK SMILES IDX 21 25 31 26 22 27 24 28 30 29 32 30 23 31 25 32 28 33 26 34
REMARK SMILES IDX 19 35 29 37 27 39 14 41
REMARK H PARENT 11 14 19 36 29 38 27 40 14 42
REMARK Flexibility Score: inf
ROOT
ATOM      1  C   UNL     1       7.041  28.914  16.379  1.00  0.00     0.091 C 
ATOM      2  C   UNL     1       7.587  30.326  16.079  1.00  0.00     0.045 C 
ENDROOT
BRANCH   1   3
ATOM      3  C   UNL     1       5.582  28.728  15.763  1.00  0.00     0.146 C 
BRANCH   3   4
ATOM      4  C   UNL     1       4.598  27.953  16.687  1.00  0.00     0.043 C 
BRANCH   4   5
ATOM      5  C   UNL     1       3.783  26.865  15.933  1.00  0.00     0.046 C 
ATOM      6  C   UNL     1       4.628  24.476  15.522  1.00  0.00     0.020 C 
ATOM      7  C   UNL     1       4.021  25.450  16.538  1.00  0.00     0.103 C 
ATOM      8  C   UNL     1       2.663  25.026  16.940  1.00  0.00     0.309 C 
ATOM      9  C   UNL     1       2.226  27.064  15.946  1.00  0.00     0.177 C 
ATOM     10  O   UNL     1       1.693  25.952  16.643  1.00  0.00    -0.462 OA
ATOM     11  O   UNL     1       2.407  23.953  17.546  1.00  0.00    -0.252 OA
ATOM     12  C   UNL     1       1.696  28.361  16.569  1.00  0.00     0.053 C 
ENDBRANCH   4   5
ENDBRANCH   3   4
BRANCH   3  13
ATOM     13  O   UNL     1       5.008  29.955  15.370  1.00  0.00    -0.390 OA
ATOM     14  H   UNL     1       5.734  30.553  15.048  1.00  0.00     0.211 HD
ENDBRANCH   3  13
ENDBRANCH   1   3
BRANCH   1  15
ATOM     15  C   UNL     1       8.094  27.809  15.914  1.00  0.00     0.032 C 
ATOM     16  C   UNL     1       7.691  26.367  16.296  1.00  0.00     0.010 C 
ATOM     17  C   UNL     1       8.661  27.735  14.442  1.00  0.00     0.006 C 
ATOM     18  C   UNL     1       8.099  25.474  15.142  1.00  0.00     0.041 C 
ATOM     19  C   UNL     1       9.180  26.241  14.350  1.00  0.00     0.092 C 
ATOM     20  C   UNL     1       9.782  28.815  14.208  1.00  0.00     0.011 C 
ATOM     21  C   UNL     1       7.564  27.963  13.361  1.00  0.00     0.015 C 
ATOM     22  C   UNL     1      10.604  26.064  14.930  1.00  0.00    -0.031 C 
ATOM     23  C   UNL     1      11.115  28.227  13.778  1.00  0.00     0.009 C 
ATOM     24  C   UNL     1      11.596  27.224  14.843  1.00  0.00     0.025 C 
ATOM     25  C   UNL     1      11.036  24.861  15.374  1.00  0.00     0.050 C 
ATOM     26  C   UNL     1      13.084  26.757  14.618  1.00  0.00    -0.013 C 
ATOM     27  C   UNL     1      12.417  24.641  15.832  1.00  0.00     0.159 C 
ATOM     28  C   UNL     1      13.431  25.754  15.760  1.00  0.00     0.070 C 
ATOM     29  C   UNL     1      14.060  27.986  14.710  1.00  0.00     0.042 C 
ATOM     30  C   UNL     1      13.228  26.077  13.220  1.00  0.00     0.013 C 
ATOM     31  O   UNL     1      12.724  23.532  16.348  1.00  0.00    -0.295 OA
ATOM     32  C   UNL     1      14.884  25.225  15.665  1.00  0.00     0.047 C 
ATOM     33  C   UNL     1      15.382  27.730  15.477  1.00  0.00     0.143 C 
ATOM     34  C   UNL     1      15.914  26.301  15.244  1.00  0.00     0.143 C 
BRANCH  19  35
ATOM     35  O   UNL     1       9.197  25.795  13.012  1.00  0.00    -0.385 OA
ATOM     36  H   UNL     1      10.059  25.324  12.864  1.00  0.00     0.211 HD
ENDBRANCH  19  35
BRANCH  33  37
ATOM     37  O   UNL     1      16.332  28.679  15.065  1.00  0.00    -0.390 OA
ATOM     38  H   UNL     1      16.095  29.541  15.501  1.00  0.00     0.211 HD
ENDBRANCH  33  37
BRANCH  34  39
ATOM     39  O   UNL     1      17.101  26.102  15.974  1.00  0.00    -0.390 OA
ATOM     40  H   UNL     1      17.610  25.384  15.516  1.00  0.00     0.211 HD
ENDBRANCH  34  39
ENDBRANCH   1  15
BRANCH   1  41
ATOM     41  O   UNL     1       6.968  28.872  17.790  1.00  0.00    -0.387 OA
ATOM     42  H   UNL     1       6.188  29.400  18.101  1.00  0.00     0.211 HD
ENDBRANCH   1  41
TORSDOF 9
ENDMDL
MODEL 2
REMARK VINA RESULT:    -6.298      1.022      1.983
REMARK INTER + INTRA:          -9.522
REMARK INTER:                  -9.461
REMARK INTRA:                  -0.061
REMARK UNBOUND:                -0.831
REMARK SMILES C[C@@H]1OC(=O)[C@@H](C)[C@@H]1C[C@@H](O)[C@@](C)(O)[C@H]1CC[C@]2(O)C3=CC(=O)[C@H]4C[C@H](O)[C@@H](O)C[C@]4(C)[C@H]3CC[C@]12C
REMARK SMILES IDX 12 1 13 2 10 3 9 4 8 5 7 6 6 7 4 8 2 9 3 10 5 11 1 12 11 13
REMARK SMILES IDX 15 15 16 16 36 17 17 18 18 19 35 20 37 21 20 22 34 23 33 24
REMARK SMILES IDX 21 25 31 26 22 27 24 28 30 29 32 30 23 31 25 32 28 33 26 34
REMARK SMILES IDX 19 35 29 37 27 39 14 41
REMARK H PARENT 11 14 19 36 29 38 27 40 14 42
REMARK Flexibility Score: inf
ROOT
ATOM      1  C   UNL     1       7.396  29.210  16.526  1.00  0.00     0.091 C 
ATOM      2  C   UNL     1       8.208  30.397  17.084  1.00  0.00     0.045 C 
ENDROOT
BRANCH   1   3
ATOM      3  C   UNL     1       6.348  29.705  15.431  1.00  0.00     0.146 C 
BRANCH   3   4
ATOM      4  C   UNL     1       5.176  28.711  15.180  1.00  0.00     0.043 C 
BRANCH   4   5
ATOM      5  C   UNL     1       3.995  28.900  16.173  1.00  0.00     0.046 C 
ATOM      6  C   UNL     1       2.423  30.929  16.152  1.00  0.00     0.020 C 
ATOM      7  C   UNL     1       2.779  29.595  15.490  1.00  0.00     0.103 C 
ATOM      8  C   UNL     1       1.692  28.606  15.658  1.00  0.00     0.309 C 
ATOM      9  C   UNL     1       3.421  27.576  16.792  1.00  0.00     0.177 C 
ATOM     10  O   UNL     1       2.082  27.480  16.342  1.00  0.00    -0.462 OA
ATOM     11  O   UNL     1       0.535  28.739  15.181  1.00  0.00    -0.252 OA
ATOM     12  C   UNL     1       4.166  26.277  16.465  1.00  0.00     0.053 C 
ENDBRANCH   4   5
ENDBRANCH   3   4
BRANCH   3  13
ATOM     13  O   UNL     1       5.839  30.987  15.720  1.00  0.00    -0.390 OA
ATOM     14  H   UNL     1       5.013  31.126  15.185  1.00  0.00     0.211 HD
ENDBRANCH   3  13
ENDBRANCH   1   3
BRANCH   1  15
ATOM     15  C   UNL     1       8.382  28.062  16.018  1.00  0.00     0.032 C 
ATOM     16  C   UNL     1       7.868  26.633  16.300  1.00  0.00     0.010 C 
ATOM     17  C   UNL     1       8.983  28.038  14.557  1.00  0.00     0.006 C 
ATOM     18  C   UNL     1       8.245  25.784  15.102  1.00  0.00     0.041 C 
ATOM     19  C   UNL     1       9.399  26.518  14.385  1.00  0.00     0.092 C 
ATOM     20  C   UNL     1      10.183  29.046  14.418  1.00  0.00     0.011 C 
ATOM     21  C   UNL     1       7.935  28.408  13.468  1.00  0.00     0.015 C 
ATOM     22  C   UNL     1      10.790  26.205  14.986  1.00  0.00    -0.031 C 
ATOM     23  C   UNL     1      11.483  28.393  13.984  1.00  0.00     0.009 C 
ATOM     24  C   UNL     1      11.862  27.295  14.995  1.00  0.00     0.025 C 
ATOM     25  C   UNL     1      11.125  24.950  15.363  1.00  0.00     0.050 C 
ATOM     26  C   UNL     1      13.320  26.737  14.776  1.00  0.00    -0.013 C 
ATOM     27  C   UNL     1      12.474  24.604  15.840  1.00  0.00     0.159 C 
ATOM     28  C   UNL     1      13.565  25.644  15.861  1.00  0.00     0.070 C 
ATOM     29  C   UNL     1      14.376  27.885  14.967  1.00  0.00     0.042 C 
ATOM     30  C   UNL     1      13.455  26.135  13.342  1.00  0.00     0.013 C 
ATOM     31  O   UNL     1      12.688  23.447  16.292  1.00  0.00    -0.295 OA
ATOM     32  C   UNL     1      14.979  25.019  15.767  1.00  0.00     0.047 C 
ATOM     33  C   UNL     1      15.656  27.489  15.748  1.00  0.00     0.143 C 
ATOM     34  C   UNL     1      16.093  26.042  15.438  1.00  0.00     0.143 C 
BRANCH  19  35
ATOM     35  O   UNL     1       9.422  26.155  13.022  1.00  0.00    -0.385 OA
ATOM     36  H   UNL     1       8.682  25.509  12.872  1.00  0.00     0.211 HD
ENDBRANCH  19  35
BRANCH  33  37
ATOM     37  O   UNL     1      16.681  28.391  15.418  1.00  0.00    -0.390 OA
ATOM     38  H   UNL     1      16.785  28.370  14.429  1.00  0.00     0.211 HD
ENDBRANCH  33  37
BRANCH  34  39
ATOM     39  O   UNL     1      17.242  25.716  16.182  1.00  0.00    -0.390 OA
ATOM     40  H   UNL     1      18.009  25.719  15.552  1.00  0.00     0.211 HD
ENDBRANCH  34  39
ENDBRANCH   1  15
BRANCH   1  41
ATOM     41  O   UNL     1       6.703  28.713  17.654  1.00  0.00    -0.387 OA
ATOM     42  H   UNL     1       7.160  29.008  18.484  1.00  0.00     0.211 HD
ENDBRANCH   1  41
TORSDOF 9
ENDMDL
MODEL 3
REMARK VINA RESULT:    -5.916      1.829      9.769
REMARK INTER + INTRA:          -8.995
REMARK INTER:                  -8.134
REMARK INTRA:                  -0.861
REMARK UNBOUND:                -0.831
REMARK SMILES C[C@@H]1OC(=O)[C@@H](C)[C@@H]1C[C@@H](O)[C@@](C)(O)[C@H]1CC[C@]2(O)C3=CC(=O)[C@H]4C[C@H](O)[C@@H](O)C[C@]4(C)[C@H]3CC[C@]12C
REMARK SMILES IDX 12 1 13 2 10 3 9 4 8 5 7 6 6 7 4 8 2 9 3 10 5 11 1 12 11 13
REMARK SMILES IDX 15 15 16 16 36 17 17 18 18 19 35 20 37 21 20 22 34 23 33 24
REMARK SMILES IDX 21 25 31 26 22 27 24 28 30 29 32 30 23 31 25 32 28 33 26 34
REMARK SMILES IDX 19 35 29 37 27 39 14 41
REMARK H PARENT 11 14 19 36 29 38 27 40 14 42
REMARK Flexibility Score: inf
ROOT
ATOM      1  C   UNL     1      13.363  24.906  15.634  1.00  0.00     0.091 C 
ATOM      2  C   UNL     1      12.630  23.651  16.153  1.00  0.00     0.045 C 
ENDROOT
BRANCH   1   3
ATOM      3  C   UNL     1      14.182  24.574  14.307  1.00  0.00     0.146 C 
BRANCH   3   4
ATOM      4  C   UNL     1      15.728  24.642  14.482  1.00  0.00     0.043 C 
BRANCH   4   5
ATOM      5  C   UNL     1      16.399  25.698  13.559  1.00  0.00     0.046 C 
ATOM      6  C   UNL     1      15.361  27.980  13.009  1.00  0.00     0.020 C 
ATOM      7  C   UNL     1      16.118  27.148  14.050  1.00  0.00     0.103 C 
ATOM      8  C   UNL     1      17.473  27.690  14.286  1.00  0.00     0.309 C 
ATOM      9  C   UNL     1      17.962  25.594  13.448  1.00  0.00     0.177 C 
ATOM     10  O   UNL     1      18.475  26.798  13.988  1.00  0.00    -0.462 OA
ATOM     11  O   UNL     1      17.706  28.831  14.766  1.00  0.00    -0.252 OA
ATOM     12  C   UNL     1      18.630  24.399  14.137  1.00  0.00     0.053 C 
ENDBRANCH   4   5
ENDBRANCH   3   4
BRANCH   3  13
ATOM     13  O   UNL     1      13.815  23.332  13.749  1.00  0.00    -0.390 OA
ATOM     14  H   UNL     1      13.464  22.752  14.475  1.00  0.00     0.211 HD
ENDBRANCH   3  13
ENDBRANCH   1   3
BRANCH   1  15
ATOM     15  C   UNL     1      12.338  26.119  15.486  1.00  0.00     0.032 C 
ATOM     16  C   UNL     1      12.946  27.493  15.844  1.00  0.00     0.010 C 
ATOM     17  C   UNL     1      11.464  26.345  14.189  1.00  0.00     0.006 C 
ATOM     18  C   UNL     1      12.372  28.499  14.866  1.00  0.00     0.041 C 
ATOM     19  C   UNL     1      11.076  27.877  14.302  1.00  0.00     0.092 C 
ATOM     20  C   UNL     1      10.226  25.374  14.160  1.00  0.00     0.011 C 
ATOM     21  C   UNL     1      12.266  26.116  12.875  1.00  0.00     0.015 C 
ATOM     22  C   UNL     1       9.840  28.118  15.203  1.00  0.00    -0.031 C 
ATOM     23  C   UNL     1       8.890  26.091  14.081  1.00  0.00     0.009 C 
ATOM     24  C   UNL     1       8.753  27.046  15.281  1.00  0.00     0.025 C 
ATOM     25  C   UNL     1       9.629  29.313  15.800  1.00  0.00     0.050 C 
ATOM     26  C   UNL     1       7.301  27.640  15.431  1.00  0.00    -0.013 C 
ATOM     27  C   UNL     1       8.412  29.603  16.575  1.00  0.00     0.159 C 
ATOM     28  C   UNL     1       7.311  28.578  16.676  1.00  0.00     0.070 C 
ATOM     29  C   UNL     1       6.263  26.485  15.675  1.00  0.00     0.042 C 
ATOM     30  C   UNL     1       6.909  28.431  14.143  1.00  0.00     0.013 C 
ATOM     31  O   UNL     1       8.331  30.690  17.207  1.00  0.00    -0.295 OA
ATOM     32  C   UNL     1       5.928  29.222  16.947  1.00  0.00     0.047 C 
ATOM     33  C   UNL     1       5.176  26.783  16.739  1.00  0.00     0.143 C 
ATOM     34  C   UNL     1       4.736  28.261  16.714  1.00  0.00     0.143 C 
BRANCH  19  35
ATOM     35  O   UNL     1      10.800  28.421  13.031  1.00  0.00    -0.385 OA
ATOM     36  H   UNL     1      11.644  28.401  12.507  1.00  0.00     0.211 HD
ENDBRANCH  19  35
BRANCH  33  37
ATOM     37  O   UNL     1       4.075  25.941  16.504  1.00  0.00    -0.390 OA
ATOM     38  H   UNL     1       4.178  25.149  17.097  1.00  0.00     0.211 HD
ENDBRANCH  33  37
BRANCH  34  39
ATOM     39  O   UNL     1       3.767  28.494  17.707  1.00  0.00    -0.390 OA
ATOM     40  H   UNL     1       4.081  29.265  18.247  1.00  0.00     0.211 HD
ENDBRANCH  34  39
ENDBRANCH   1  15
BRANCH   1  41
ATOM     41  O   UNL     1      14.262  25.227  16.677  1.00  0.00    -0.387 OA
ATOM     42  H   UNL     1      14.440  26.202  16.678  1.00  0.00     0.211 HD
ENDBRANCH   1  41
TORSDOF 9
ENDMDL
MODEL 4
REMARK VINA RESULT:    -5.891      9.599     15.060
REMARK INTER + INTRA:          -8.961
REMARK INTER:                  -8.031
REMARK INTRA:                  -0.930
REMARK UNBOUND:                -0.831
REMARK SMILES C[C@@H]1OC(=O)[C@@H](C)[C@@H]1C[C@@H](O)[C@@](C)(O)[C@H]1CC[C@]2(O)C3=CC(=O)[C@H]4C[C@H](O)[C@@H](O)C[C@]4(C)[C@H]3CC[C@]12C
REMARK SMILES IDX 12 1 13 2 10 3 9 4 8 5 7 6 6 7 4 8 2 9 3 10 5 11 1 12 11 13
REMARK SMILES IDX 15 15 16 16 36 17 17 18 18 19 35 20 37 21 20 22 34 23 33 24
REMARK SMILES IDX 21 25 31 26 22 27 24 28 30 29 32 30 23 31 25 32 28 33 26 34
REMARK SMILES IDX 19 35 29 37 27 39 14 41
REMARK H PARENT 11 14 19 36 29 38 27 40 14 42
REMARK Flexibility Score: inf
ROOT
ATOM      1  C   UNL     1      13.842  13.399  15.674  1.00  0.00     0.091 C 
ATOM      2  C   UNL     1      13.019  12.095  15.695  1.00  0.00     0.045 C 
ENDROOT
BRANCH   1   3
ATOM      3  C   UNL     1      15.075  13.274  14.671  1.00  0.00     0.146 C 
BRANCH   3   4
ATOM      4  C   UNL     1      16.461  13.522  15.336  1.00  0.00     0.043 C 
BRANCH   4   5
ATOM      5  C   UNL     1      17.351  14.515  14.538  1.00  0.00     0.046 C 
ATOM      6  C   UNL     1      16.564  16.831  13.760  1.00  0.00     0.020 C 
ATOM      7  C   UNL     1      17.064  15.992  14.940  1.00  0.00     0.103 C 
ATOM      8  C   UNL     1      18.380  16.469  15.418  1.00  0.00     0.309 C 
ATOM      9  C   UNL     1      18.899  14.328  14.726  1.00  0.00     0.177 C 
ATOM     10  O   UNL     1      19.368  15.520  15.331  1.00  0.00    -0.462 OA
ATOM     11  O   UNL     1      18.581  17.610  15.911  1.00  0.00    -0.252 OA
ATOM     12  C   UNL     1      19.358  13.120  15.550  1.00  0.00     0.053 C 
ENDBRANCH   4   5
ENDBRANCH   3   4
BRANCH   3  13
ATOM     13  O   UNL     1      15.083  12.043  13.985  1.00  0.00    -0.390 OA
ATOM     14  H   UNL     1      16.023  11.819  13.751  1.00  0.00     0.211 HD
ENDBRANCH   3  13
ENDBRANCH   1   3
BRANCH   1  15
ATOM     15  C   UNL     1      12.888  14.646  15.389  1.00  0.00     0.032 C 
ATOM     16  C   UNL     1      13.364  15.957  16.053  1.00  0.00     0.010 C 
ATOM     17  C   UNL     1      12.403  15.035  13.936  1.00  0.00     0.006 C 
ATOM     18  C   UNL     1      13.074  17.078  15.075  1.00  0.00     0.041 C 
ATOM     19  C   UNL     1      11.987  16.554  14.111  1.00  0.00     0.092 C 
ATOM     20  C   UNL     1      11.229  14.103  13.459  1.00  0.00     0.011 C 
ATOM     21  C   UNL     1      13.537  14.934  12.875  1.00  0.00     0.015 C 
ATOM     22  C   UNL     1      10.550  16.723  14.659  1.00  0.00    -0.031 C 
ATOM     23  C   UNL     1       9.961  14.856  13.098  1.00  0.00     0.009 C 
ATOM     24  C   UNL     1       9.491  15.675  14.315  1.00  0.00     0.025 C 
ATOM     25  C   UNL     1      10.174  17.849  15.306  1.00  0.00     0.050 C 
ATOM     26  C   UNL     1       8.050  16.283  14.126  1.00  0.00    -0.013 C 
ATOM     27  C   UNL     1       8.788  18.080  15.745  1.00  0.00     0.159 C 
ATOM     28  C   UNL     1       7.710  17.077  15.424  1.00  0.00     0.070 C 
ATOM     29  C   UNL     1       6.993  15.133  13.945  1.00  0.00     0.042 C 
ATOM     30  C   UNL     1       8.022  17.221  12.878  1.00  0.00     0.013 C 
ATOM     31  O   UNL     1       8.527  19.092  16.450  1.00  0.00    -0.295 OA
ATOM     32  C   UNL     1       6.301  17.720  15.376  1.00  0.00     0.047 C 
ATOM     33  C   UNL     1       5.653  15.337  14.696  1.00  0.00     0.143 C 
ATOM     34  C   UNL     1       5.226  16.820  14.719  1.00  0.00     0.143 C 
BRANCH  19  35
ATOM     35  O   UNL     1      12.068  17.242  12.882  1.00  0.00    -0.385 OA
ATOM     36  H   UNL     1      12.875  16.911  12.406  1.00  0.00     0.211 HD
ENDBRANCH  19  35
BRANCH  33  37
ATOM     37  O   UNL     1       4.666  14.554  14.074  1.00  0.00    -0.390 OA
ATOM     38  H   UNL     1       5.110  13.726  13.747  1.00  0.00     0.211 HD
ENDBRANCH  33  37
BRANCH  34  39
ATOM     39  O   UNL     1       4.019  16.964  15.427  1.00  0.00    -0.390 OA
ATOM     40  H   UNL     1       3.616  16.060  15.506  1.00  0.00     0.211 HD
ENDBRANCH  34  39
ENDBRANCH   1  15
BRANCH   1  41
ATOM     41  O   UNL     1      14.320  13.518  17.000  1.00  0.00    -0.387 OA
ATOM     42  H   UNL     1      14.591  12.627  17.339  1.00  0.00     0.211 HD
ENDBRANCH   1  41
TORSDOF 9
ENDMDL
MODEL 5
REMARK VINA RESULT:    -5.486      3.131      8.720
REMARK INTER + INTRA:          -8.402
REMARK INTER:                  -6.857
REMARK INTRA:                  -1.544
REMARK UNBOUND:                -0.831
REMARK SMILES C[C@@H]1OC(=O)[C@@H](C)[C@@H]1C[C@@H](O)[C@@](C)(O)[C@H]1CC[C@]2(O)C3=CC(=O)[C@H]4C[C@H](O)[C@@H](O)C[C@]4(C)[C@H]3CC[C@]12C
REMARK SMILES IDX 12 1 13 2 10 3 9 4 8 5 7 6 6 7 4 8 2 9 3 10 5 11 1 12 11 13
REMARK SMILES IDX 15 15 16 16 36 17 17 18 18 19 35 20 37 21 20 22 34 23 33 24
REMARK SMILES IDX 21 25 31 26 22 27 24 28 30 29 32 30 23 31 25 32 28 33 26 34
REMARK SMILES IDX 19 35 29 37 27 39 14 41
REMARK H PARENT 11 14 19 36 29 38 27 40 14 42
REMARK Flexibility Score: inf
ROOT
ATOM      1  C   UNL     1       6.103  29.805  16.310  1.00  0.00     0.091 C 
ATOM      2  C   UNL     1       5.861  31.125  17.071  1.00  0.00     0.045 C 
ENDROOT
BRANCH   1   3
ATOM      3  C   UNL     1       7.328  29.003  16.942  1.00  0.00     0.146 C 
BRANCH   3   4
ATOM      4  C   UNL     1       8.199  28.248  15.896  1.00  0.00     0.043 C 
BRANCH   4   5
ATOM      5  C   UNL     1       8.120  26.702  16.039  1.00  0.00     0.046 C 
ATOM      6  C   UNL     1       5.937  25.416  16.448  1.00  0.00     0.020 C 
ATOM      7  C   UNL     1       6.810  26.136  15.416  1.00  0.00     0.103 C 
ATOM      8  C   UNL     1       7.308  25.197  14.387  1.00  0.00     0.309 C 
ATOM      9  C   UNL     1       9.284  25.904  15.351  1.00  0.00     0.177 C 
ATOM     10  O   UNL     1       8.679  25.118  14.340  1.00  0.00    -0.462 OA
ATOM     11  O   UNL     1       6.568  24.567  13.587  1.00  0.00    -0.252 OA
ATOM     12  C   UNL     1      10.427  26.727  14.745  1.00  0.00     0.053 C 
ENDBRANCH   4   5
ENDBRANCH   3   4
BRANCH   3  13
ATOM     13  O   UNL     1       8.145  29.823  17.747  1.00  0.00    -0.390 OA
ATOM     14  H   UNL     1       8.118  30.748  17.383  1.00  0.00     0.211 HD
ENDBRANCH   3  13
ENDBRANCH   1   3
BRANCH   1  15
ATOM     15  C   UNL     1       4.748  28.967  16.220  1.00  0.00     0.032 C 
ATOM     16  C   UNL     1       3.765  29.249  17.379  1.00  0.00     0.010 C 
ATOM     17  C   UNL     1       3.875  28.895  14.906  1.00  0.00     0.006 C 
ATOM     18  C   UNL     1       2.370  29.238  16.787  1.00  0.00     0.041 C 
ATOM     19  C   UNL     1       2.458  28.452  15.461  1.00  0.00     0.092 C 
ATOM     20  C   UNL     1       4.494  27.890  13.865  1.00  0.00     0.011 C 
ATOM     21  C   UNL     1       3.738  30.273  14.196  1.00  0.00     0.015 C 
ATOM     22  C   UNL     1       2.340  26.920  15.649  1.00  0.00    -0.031 C 
ATOM     23  C   UNL     1       3.552  26.769  13.463  1.00  0.00     0.009 C 
ATOM     24  C   UNL     1       3.122  25.991  14.720  1.00  0.00     0.025 C 
ATOM     25  C   UNL     1       1.448  26.387  16.515  1.00  0.00     0.050 C 
ATOM     26  C   UNL     1       2.355  24.656  14.384  1.00  0.00    -0.013 C 
ATOM     27  C   UNL     1       1.242  24.934  16.638  1.00  0.00     0.159 C 
ATOM     28  C   UNL     1       1.986  23.980  15.739  1.00  0.00     0.070 C 
ATOM     29  C   UNL     1       3.285  23.685  13.570  1.00  0.00     0.042 C 
ATOM     30  C   UNL     1       1.071  24.970  13.553  1.00  0.00     0.013 C 
ATOM     31  O   UNL     1       0.486  24.496  17.546  1.00  0.00    -0.295 OA
ATOM     32  C   UNL     1       1.235  22.639  15.550  1.00  0.00     0.047 C 
ATOM     33  C   UNL     1       3.207  22.192  13.979  1.00  0.00     0.143 C 
ATOM     34  C   UNL     1       1.776  21.779  14.381  1.00  0.00     0.143 C 
BRANCH  19  35
ATOM     35  O   UNL     1       1.426  28.864  14.593  1.00  0.00    -0.385 OA
ATOM     36  H   UNL     1       0.789  29.412  15.123  1.00  0.00     0.211 HD
ENDBRANCH  19  35
BRANCH  33  37
ATOM     37  O   UNL     1       3.658  21.407  12.904  1.00  0.00    -0.390 OA
ATOM     38  H   UNL     1       2.856  20.997  12.482  1.00  0.00     0.211 HD
ENDBRANCH  33  37
BRANCH  34  39
ATOM     39  O   UNL     1       1.754  20.426  14.766  1.00  0.00    -0.390 OA
ATOM     40  H   UNL     1       2.043  20.387  15.715  1.00  0.00     0.211 HD
ENDBRANCH  34  39
ENDBRANCH   1  15
BRANCH   1  41
ATOM     41  O   UNL     1       6.437  30.225  15.002  1.00  0.00    -0.387 OA
ATOM     42  H   UNL     1       5.688  30.024  14.384  1.00  0.00     0.211 HD
ENDBRANCH   1  41
TORSDOF 9
ENDMDL
MODEL 6
REMARK VINA RESULT:    -5.387      2.198      7.892
REMARK INTER + INTRA:          -8.265
REMARK INTER:                  -7.284
REMARK INTRA:                  -0.980
REMARK UNBOUND:                -0.831
REMARK SMILES C[C@@H]1OC(=O)[C@@H](C)[C@@H]1C[C@@H](O)[C@@](C)(O)[C@H]1CC[C@]2(O)C3=CC(=O)[C@H]4C[C@H](O)[C@@H](O)C[C@]4(C)[C@H]3CC[C@]12C
REMARK SMILES IDX 12 1 13 2 10 3 9 4 8 5 7 6 6 7 4 8 2 9 3 10 5 11 1 12 11 13
REMARK SMILES IDX 15 15 16 16 36 17 17 18 18 19 35 20 37 21 20 22 34 23 33 24
REMARK SMILES IDX 21 25 31 26 22 27 24 28 30 29 32 30 23 31 25 32 28 33 26 34
REMARK SMILES IDX 19 35 29 37 27 39 14 41
REMARK H PARENT 11 14 19 36 29 38 27 40 14 42
REMARK Flexibility Score: inf
ROOT
ATOM      1  C   UNL     1       9.413  30.088  15.123  1.00  0.00     0.091 C 
ATOM      2  C   UNL     1       9.682  30.861  16.431  1.00  0.00     0.045 C 
ENDROOT
BRANCH   1   3
ATOM      3  C   UNL     1      10.691  29.234  14.698  1.00  0.00     0.146 C 
BRANCH   3   4
ATOM      4  C   UNL     1      10.600  27.726  15.076  1.00  0.00     0.043 C 
BRANCH   4   5
ATOM      5  C   UNL     1      11.787  26.888  14.526  1.00  0.00     0.046 C 
ATOM      6  C   UNL     1      14.212  27.727  14.444  1.00  0.00     0.020 C 
ATOM      7  C   UNL     1      13.097  27.156  15.326  1.00  0.00     0.103 C 
ATOM      8  C   UNL     1      13.454  25.817  15.841  1.00  0.00     0.309 C 
ATOM      9  C   UNL     1      11.587  25.331  14.572  1.00  0.00     0.177 C 
ATOM     10  O   UNL     1      12.581  24.831  15.448  1.00  0.00    -0.462 OA
ATOM     11  O   UNL     1      14.424  25.591  16.611  1.00  0.00    -0.252 OA
ATOM     12  C   UNL     1      10.211  24.820  15.015  1.00  0.00     0.053 C 
ENDBRANCH   4   5
ENDBRANCH   3   4
BRANCH   3  13
ATOM     13  O   UNL     1      10.993  29.369  13.328  1.00  0.00    -0.390 OA
ATOM     14  H   UNL     1      10.251  29.865  12.890  1.00  0.00     0.211 HD
ENDBRANCH   3  13
ENDBRANCH   1   3
BRANCH   1  15
ATOM     15  C   UNL     1       8.070  29.237  15.254  1.00  0.00     0.032 C 
ATOM     16  C   UNL     1       7.199  29.636  16.467  1.00  0.00     0.010 C 
ATOM     17  C   UNL     1       7.076  29.020  14.046  1.00  0.00     0.006 C 
ATOM     18  C   UNL     1       5.754  29.553  16.018  1.00  0.00     0.041 C 
ATOM     19  C   UNL     1       5.727  28.630  14.780  1.00  0.00     0.092 C 
ATOM     20  C   UNL     1       7.609  27.914  13.062  1.00  0.00     0.011 C 
ATOM     21  C   UNL     1       6.849  30.314  13.212  1.00  0.00     0.015 C 
ATOM     22  C   UNL     1       5.653  27.126  15.140  1.00  0.00    -0.031 C 
ATOM     23  C   UNL     1       6.651  26.750  12.875  1.00  0.00     0.009 C 
ATOM     24  C   UNL     1       6.357  26.108  14.243  1.00  0.00     0.025 C 
ATOM     25  C   UNL     1       4.856  26.683  16.140  1.00  0.00     0.050 C 
ATOM     26  C   UNL     1       5.583  24.740  14.125  1.00  0.00    -0.013 C 
ATOM     27  C   UNL     1       4.687  25.251  16.435  1.00  0.00     0.159 C 
ATOM     28  C   UNL     1       5.358  24.210  15.574  1.00  0.00     0.070 C 
ATOM     29  C   UNL     1       6.447  23.693  13.332  1.00  0.00     0.042 C 
ATOM     30  C   UNL     1       4.220  24.955  13.395  1.00  0.00     0.013 C 
ATOM     31  O   UNL     1       4.030  24.907  17.454  1.00  0.00    -0.295 OA
ATOM     32  C   UNL     1       4.614  22.852  15.602  1.00  0.00     0.047 C 
ATOM     33  C   UNL     1       6.433  22.252  13.903  1.00  0.00     0.143 C 
ATOM     34  C   UNL     1       5.054  21.876  14.484  1.00  0.00     0.143 C 
BRANCH  19  35
ATOM     35  O   UNL     1       4.609  28.940  13.978  1.00  0.00    -0.385 OA
ATOM     36  H   UNL     1       3.794  28.710  14.497  1.00  0.00     0.211 HD
ENDBRANCH  19  35
BRANCH  33  37
ATOM     37  O   UNL     1       6.792  21.360  12.878  1.00  0.00    -0.390 OA
ATOM     38  H   UNL     1       7.701  21.017  13.091  1.00  0.00     0.211 HD
ENDBRANCH  33  37
BRANCH  34  39
ATOM     39  O   UNL     1       5.091  20.571  15.010  1.00  0.00    -0.390 OA
ATOM     40  H   UNL     1       5.925  20.146  14.679  1.00  0.00     0.211 HD
ENDBRANCH  34  39
ENDBRANCH   1  15
BRANCH   1  41
ATOM     41  O   UNL     1       9.186  31.107  14.169  1.00  0.00    -0.387 OA
ATOM     42  H   UNL     1       8.527  31.757  14.524  1.00  0.00     0.211 HD
ENDBRANCH   1  41
TORSDOF 9
ENDMDL
MODEL 7
REMARK VINA RESULT:    -4.965      2.117      9.460
REMARK INTER + INTRA:          -7.683
REMARK INTER:                  -7.458
REMARK INTRA:                  -0.225
REMARK UNBOUND:                -0.831
REMARK SMILES C[C@@H]1OC(=O)[C@@H](C)[C@@H]1C[C@@H](O)[C@@](C)(O)[C@H]1CC[C@]2(O)C3=CC(=O)[C@H]4C[C@H](O)[C@@H](O)C[C@]4(C)[C@H]3CC[C@]12C
REMARK SMILES IDX 12 1 13 2 10 3 9 4 8 5 7 6 6 7 4 8 2 9 3 10 5 11 1 12 11 13
REMARK SMILES IDX 15 15 16 16 36 17 17 18 18 19 35 20 37 21 20 22 34 23 33 24
REMARK SMILES IDX 21 25 31 26 22 27 24 28 30 29 32 30 23 31 25 32 28 33 26 34
REMARK SMILES IDX 19 35 29 37 27 39 14 41
REMARK H PARENT 11 14 19 36 29 38 27 40 14 42
REMARK Flexibility Score: inf
ROOT
ATOM      1  C   UNL     1       8.984  27.178  14.479  1.00  0.00     0.091 C 
ATOM      2  C   UNL     1       9.710  28.343  15.183  1.00  0.00     0.045 C 
ENDROOT
BRANCH   1   3
ATOM      3  C   UNL     1       9.920  25.888  14.409  1.00  0.00     0.146 C 
BRANCH   3   4
ATOM      4  C   UNL     1      11.438  26.212  14.285  1.00  0.00     0.043 C 
BRANCH   4   5
ATOM      5  C   UNL     1      12.259  25.768  15.527  1.00  0.00     0.046 C 
ATOM      6  C   UNL     1      12.532  23.322  16.259  1.00  0.00     0.020 C 
ATOM      7  C   UNL     1      12.983  24.411  15.279  1.00  0.00     0.103 C 
ATOM      8  C   UNL     1      14.408  24.752  15.476  1.00  0.00     0.309 C 
ATOM      9  C   UNL     1      13.388  26.762  15.976  1.00  0.00     0.177 C 
ATOM     10  O   UNL     1      14.612  26.067  15.818  1.00  0.00    -0.462 OA
ATOM     11  O   UNL     1      15.359  23.946  15.298  1.00  0.00    -0.252 OA
ATOM     12  C   UNL     1      13.464  28.105  15.240  1.00  0.00     0.053 C 
ENDBRANCH   4   5
ENDBRANCH   3   4
BRANCH   3  13
ATOM     13  O   UNL     1       9.702  25.011  15.491  1.00  0.00    -0.390 OA
ATOM     14  H   UNL     1       9.614  24.087  15.134  1.00  0.00     0.211 HD
ENDBRANCH   3  13
ENDBRANCH   1   3
BRANCH   1  15
ATOM     15  C   UNL     1       7.565  26.922  15.161  1.00  0.00     0.032 C 
ATOM     16  C   UNL     1       7.547  27.201  16.681  1.00  0.00     0.010 C 
ATOM     17  C   UNL     1       6.221  27.519  14.585  1.00  0.00     0.006 C 
ATOM     18  C   UNL     1       6.209  27.837  16.997  1.00  0.00     0.041 C 
ATOM     19  C   UNL     1       5.256  27.463  15.841  1.00  0.00     0.092 C 
ATOM     20  C   UNL     1       5.710  26.687  13.351  1.00  0.00     0.011 C 
ATOM     21  C   UNL     1       6.368  28.997  14.120  1.00  0.00     0.015 C 
ATOM     22  C   UNL     1       4.589  26.078  16.023  1.00  0.00    -0.031 C 
ATOM     23  C   UNL     1       4.314  26.118  13.535  1.00  0.00     0.009 C 
ATOM     24  C   UNL     1       4.289  25.226  14.790  1.00  0.00     0.025 C 
ATOM     25  C   UNL     1       4.130  25.674  17.229  1.00  0.00     0.050 C 
ATOM     26  C   UNL     1       2.961  24.387  14.919  1.00  0.00    -0.013 C 
ATOM     27  C   UNL     1       3.399  24.409  17.411  1.00  0.00     0.159 C 
ATOM     28  C   UNL     1       3.075  23.539  16.223  1.00  0.00     0.070 C 
ATOM     29  C   UNL     1       2.810  23.414  13.694  1.00  0.00     0.042 C 
ATOM     30  C   UNL     1       1.727  25.341  14.985  1.00  0.00     0.013 C 
ATOM     31  O   UNL     1       3.105  24.031  18.576  1.00  0.00    -0.295 OA
ATOM     32  C   UNL     1       1.831  22.649  16.464  1.00  0.00     0.047 C 
ATOM     33  C   UNL     1       2.301  21.990  14.034  1.00  0.00     0.143 C 
ATOM     34  C   UNL     1       1.262  22.008  15.175  1.00  0.00     0.143 C 
BRANCH  19  35
ATOM     35  O   UNL     1       4.234  28.428  15.734  1.00  0.00    -0.385 OA
ATOM     36  H   UNL     1       3.789  28.493  16.620  1.00  0.00     0.211 HD
ENDBRANCH  19  35
BRANCH  33  37
ATOM     37  O   UNL     1       1.745  21.423  12.875  1.00  0.00    -0.390 OA
ATOM     38  H   UNL     1       2.482  20.963  12.390  1.00  0.00     0.211 HD
ENDBRANCH  33  37
BRANCH  34  39
ATOM     39  O   UNL     1       0.843  20.697  15.467  1.00  0.00    -0.390 OA
ATOM     40  H   UNL     1       0.461  20.710  16.383  1.00  0.00     0.211 HD
ENDBRANCH  34  39
ENDBRANCH   1  15
BRANCH   1  41
ATOM     41  O   UNL     1       8.752  27.665  13.172  1.00  0.00    -0.387 OA
ATOM     42  H   UNL     1       7.822  28.001  13.101  1.00  0.00     0.211 HD
ENDBRANCH   1  41
TORSDOF 9
ENDMDL
MODEL 8
REMARK VINA RESULT:    -4.778      1.473      9.603
REMARK INTER + INTRA:          -7.425
REMARK INTER:                  -7.855
REMARK INTRA:                   0.431
REMARK UNBOUND:                -0.831
REMARK SMILES C[C@@H]1OC(=O)[C@@H](C)[C@@H]1C[C@@H](O)[C@@](C)(O)[C@H]1CC[C@]2(O)C3=CC(=O)[C@H]4C[C@H](O)[C@@H](O)C[C@]4(C)[C@H]3CC[C@]12C
REMARK SMILES IDX 12 1 13 2 10 3 9 4 8 5 7 6 6 7 4 8 2 9 3 10 5 11 1 12 11 13
REMARK SMILES IDX 15 15 16 16 36 17 17 18 18 19 35 20 37 21 20 22 34 23 33 24
REMARK SMILES IDX 21 25 31 26 22 27 24 28 30 29 32 30 23 31 25 32 28 33 26 34
REMARK SMILES IDX 19 35 29 37 27 39 14 41
REMARK H PARENT 11 14 19 36 29 38 27 40 14 42
REMARK Flexibility Score: inf
ROOT
ATOM      1  C   UNL     1      12.736  24.877  15.679  1.00  0.00     0.091 C 
ATOM      2  C   UNL     1      12.392  23.525  16.338  1.00  0.00     0.045 C 
ENDROOT
BRANCH   1   3
ATOM      3  C   UNL     1      13.576  24.656  14.341  1.00  0.00     0.146 C 
BRANCH   3   4
ATOM      4  C   UNL     1      14.298  25.937  13.827  1.00  0.00     0.043 C 
BRANCH   4   5
ATOM      5  C   UNL     1      15.318  26.512  14.849  1.00  0.00     0.046 C 
ATOM      6  C   UNL     1      17.376  25.228  15.689  1.00  0.00     0.020 C 
ATOM      7  C   UNL     1      16.768  26.036  14.539  1.00  0.00     0.103 C 
ATOM      8  C   UNL     1      17.499  27.306  14.332  1.00  0.00     0.309 C 
ATOM      9  C   UNL     1      15.400  28.079  14.906  1.00  0.00     0.177 C 
ATOM     10  O   UNL     1      16.712  28.420  14.497  1.00  0.00    -0.462 OA
ATOM     11  O   UNL     1      18.706  27.378  13.984  1.00  0.00    -0.252 OA
ATOM     12  C   UNL     1      14.383  28.858  14.064  1.00  0.00     0.053 C 
ENDBRANCH   4   5
ENDBRANCH   3   4
BRANCH   3  13
ATOM     13  O   UNL     1      14.499  23.597  14.458  1.00  0.00    -0.390 OA
ATOM     14  H   UNL     1      15.360  23.884  14.054  1.00  0.00     0.211 HD
ENDBRANCH   3  13
ENDBRANCH   1   3
BRANCH   1  15
ATOM     15  C   UNL     1      11.413  25.747  15.487  1.00  0.00     0.032 C 
ATOM     16  C   UNL     1      11.587  27.234  15.868  1.00  0.00     0.010 C 
ATOM     17  C   UNL     1      10.564  25.727  14.155  1.00  0.00     0.006 C 
ATOM     18  C   UNL     1      10.789  28.043  14.865  1.00  0.00     0.041 C 
ATOM     19  C   UNL     1       9.748  27.082  14.249  1.00  0.00     0.092 C 
ATOM     20  C   UNL     1       9.659  24.442  14.076  1.00  0.00     0.011 C 
ATOM     21  C   UNL     1      11.449  25.751  12.875  1.00  0.00     0.015 C 
ATOM     22  C   UNL     1       8.461  26.949  15.098  1.00  0.00    -0.031 C 
ATOM     23  C   UNL     1       8.177  24.747  13.941  1.00  0.00     0.009 C 
ATOM     24  C   UNL     1       7.725  25.610  15.133  1.00  0.00     0.025 C 
ATOM     25  C   UNL     1       7.892  28.028  15.683  1.00  0.00     0.050 C 
ATOM     26  C   UNL     1       6.158  25.762  15.221  1.00  0.00    -0.013 C 
ATOM     27  C   UNL     1       6.613  27.949  16.407  1.00  0.00     0.159 C 
ATOM     28  C   UNL     1       5.849  26.651  16.464  1.00  0.00     0.070 C 
ATOM     29  C   UNL     1       5.486  24.355  15.425  1.00  0.00     0.042 C 
ATOM     30  C   UNL     1       5.608  26.421  13.917  1.00  0.00     0.013 C 
ATOM     31  O   UNL     1       6.199  28.960  17.034  1.00  0.00    -0.295 OA
ATOM     32  C   UNL     1       4.330  26.868  16.677  1.00  0.00     0.047 C 
ATOM     33  C   UNL     1       4.317  24.318  16.442  1.00  0.00     0.143 C 
ATOM     34  C   UNL     1       3.474  25.609  16.397  1.00  0.00     0.143 C 
BRANCH  19  35
ATOM     35  O   UNL     1       9.379  27.538  12.967  1.00  0.00    -0.385 OA
ATOM     36  H   UNL     1       9.930  27.044  12.303  1.00  0.00     0.211 HD
ENDBRANCH  19  35
BRANCH  33  37
ATOM     37  O   UNL     1       3.514  23.199  16.163  1.00  0.00    -0.390 OA
ATOM     38  H   UNL     1       3.156  23.316  15.243  1.00  0.00     0.211 HD
ENDBRANCH  33  37
BRANCH  34  39
ATOM     39  O   UNL     1       2.440  25.544  17.349  1.00  0.00    -0.390 OA
ATOM     40  H   UNL     1       1.795  26.267  17.130  1.00  0.00     0.211 HD
ENDBRANCH  34  39
ENDBRANCH   1  15
BRANCH   1  41
ATOM     41  O   UNL     1      13.543  25.527  16.642  1.00  0.00    -0.387 OA
ATOM     42  H   UNL     1      14.387  25.023  16.767  1.00  0.00     0.211 HD
ENDBRANCH   1  41
TORSDOF 9
ENDMDL
MODEL 9
REMARK VINA RESULT:    -4.523      4.192      9.402
REMARK INTER + INTRA:          -7.073
REMARK INTER:                  -5.852
REMARK INTRA:                  -1.222
REMARK UNBOUND:                -0.831
REMARK SMILES C[C@@H]1OC(=O)[C@@H](C)[C@@H]1C[C@@H](O)[C@@](C)(O)[C@H]1CC[C@]2(O)C3=CC(=O)[C@H]4C[C@H](O)[C@@H](O)C[C@]4(C)[C@H]3CC[C@]12C
REMARK SMILES IDX 12 1 13 2 10 3 9 4 8 5 7 6 6 7 4 8 2 9 3 10 5 11 1 12 11 13
REMARK SMILES IDX 15 15 16 16 36 17 17 18 18 19 35 20 37 21 20 22 34 23 33 24
REMARK SMILES IDX 21 25 31 26 22 27 24 28 30 29 32 30 23 31 25 32 28 33 26 34
REMARK SMILES IDX 19 35 29 37 27 39 14 41
REMARK H PARENT 11 14 19 36 29 38 27 40 14 42
REMARK Flexibility Score: inf
ROOT
ATOM      1  C   UNL     1       7.005  26.429  15.472  1.00  0.00     0.091 C 
ATOM      2  C   UNL     1       7.769  25.335  14.697  1.00  0.00     0.045 C 
ENDROOT
BRANCH   1   3
ATOM      3  C   UNL     1       7.307  27.871  14.861  1.00  0.00     0.146 C 
BRANCH   3   4
ATOM      4  C   UNL     1       7.560  28.972  15.932  1.00  0.00     0.043 C 
BRANCH   4   5
ATOM      5  C   UNL     1       6.795  30.293  15.639  1.00  0.00     0.046 C 
ATOM      6  C   UNL     1       6.232  31.125  13.277  1.00  0.00     0.020 C 
ATOM      7  C   UNL     1       5.861  30.151  14.401  1.00  0.00     0.103 C 
ATOM      8  C   UNL     1       4.524  30.456  14.955  1.00  0.00     0.309 C 
ATOM      9  C   UNL     1       5.868  30.802  16.800  1.00  0.00     0.177 C 
ATOM     10  O   UNL     1       4.547  30.770  16.292  1.00  0.00    -0.462 OA
ATOM     11  O   UNL     1       3.453  30.385  14.296  1.00  0.00    -0.252 OA
ATOM     12  C   UNL     1       5.926  30.031  18.124  1.00  0.00     0.053 C 
ENDBRANCH   4   5
ENDBRANCH   3   4
BRANCH   3  13
ATOM     13  O   UNL     1       8.369  27.846  13.934  1.00  0.00    -0.390 OA
ATOM     14  H   UNL     1       8.375  26.960  13.485  1.00  0.00     0.211 HD
ENDBRANCH   3  13
ENDBRANCH   1   3
BRANCH   1  15
ATOM     15  C   UNL     1       5.454  26.063  15.551  1.00  0.00     0.032 C 
ATOM     16  C   UNL     1       4.678  26.872  16.615  1.00  0.00     0.010 C 
ATOM     17  C   UNL     1       4.524  26.003  14.275  1.00  0.00     0.006 C 
ATOM     18  C   UNL     1       3.316  27.181  16.028  1.00  0.00     0.041 C 
ATOM     19  C   UNL     1       3.076  26.153  14.901  1.00  0.00     0.092 C 
ATOM     20  C   UNL     1       4.738  24.664  13.477  1.00  0.00     0.011 C 
ATOM     21  C   UNL     1       4.779  27.178  13.287  1.00  0.00     0.015 C 
ATOM     22  C   UNL     1       2.500  24.810  15.410  1.00  0.00    -0.031 C 
ATOM     23  C   UNL     1       3.472  23.841  13.316  1.00  0.00     0.009 C 
ATOM     24  C   UNL     1       2.898  23.512  14.707  1.00  0.00     0.025 C 
ATOM     25  C   UNL     1       1.539  24.775  16.362  1.00  0.00     0.050 C 
ATOM     26  C   UNL     1       1.736  22.449  14.656  1.00  0.00    -0.013 C 
ATOM     27  C   UNL     1       0.901  23.520  16.790  1.00  0.00     0.159 C 
ATOM     28  C   UNL     1       1.257  22.217  16.122  1.00  0.00     0.070 C 
ATOM     29  C   UNL     1       2.268  21.089  14.076  1.00  0.00     0.042 C 
ATOM     30  C   UNL     1       0.565  22.975  13.767  1.00  0.00     0.013 C 
ATOM     31  O   UNL     1       0.102  23.538  17.765  1.00  0.00    -0.295 OA
ATOM     32  C   UNL     1       0.117  21.173  16.217  1.00  0.00     0.047 C 
ATOM     33  C   UNL     1       1.755  19.814  14.793  1.00  0.00     0.143 C 
ATOM     34  C   UNL     1       0.294  19.966  15.262  1.00  0.00     0.143 C 
BRANCH  19  35
ATOM     35  O   UNL     1       2.173  26.684  13.956  1.00  0.00    -0.385 OA
ATOM     36  H   UNL     1       2.668  27.347  13.408  1.00  0.00     0.211 HD
ENDBRANCH  19  35
BRANCH  33  37
ATOM     37  O   UNL     1       1.875  18.724  13.913  1.00  0.00    -0.390 OA
ATOM     38  H   UNL     1       1.002  18.248  13.914  1.00  0.00     0.211 HD
ENDBRANCH  33  37
BRANCH  34  39
ATOM     39  O   UNL     1      -0.125  18.798  15.926  1.00  0.00    -0.390 OA
ATOM     40  H   UNL     1       0.328  18.033  15.486  1.00  0.00     0.211 HD
ENDBRANCH  34  39
ENDBRANCH   1  15
BRANCH   1  41
ATOM     41  O   UNL     1       7.533  26.349  16.781  1.00  0.00    -0.387 OA
ATOM     42  H   UNL     1       7.437  25.424  17.125  1.00  0.00     0.211 HD
ENDBRANCH   1  41
TORSDOF 9
ENDMDL
