MODEL 1
REMARK VINA RESULT:    -5.955      0.000      0.000
REMARK INTER + INTRA:          -6.130
REMARK INTER:                  -6.130
REMARK INTRA:                   0.000
REMARK UNBOUND:                 0.000
REMARK SMILES Oc1ccc2[nH]ccc2c1
REMARK SMILES IDX 3 1 4 2 5 3 9 4 8 5 7 6 6 7 10 8 2 9 1 11
REMARK H PARENT 6 10 1 12
REMARK Flexibility Score: inf
ROOT
ATOM      1  C   UNL     1      31.095  22.771   8.622  1.00  0.00     0.048 A 
ATOM      2  C   UNL     1      32.122  22.105   7.928  1.00  0.00     0.030 A 
ATOM      3  C   UNL     1      31.756  21.258   6.883  1.00  0.00     0.046 A 
ATOM      4  C   UNL     1      30.447  21.070   6.534  1.00  0.00     0.003 A 
ATOM      5  C   UNL     1      30.425  20.185   5.478  1.00  0.00     0.028 A 
ATOM      6  C   UNL     1      31.760  19.875   5.236  1.00  0.00     0.083 A 
ATOM      7  N   UNL     1      32.569  20.532   6.097  1.00  0.00    -0.361 N 
ATOM      8  C   UNL     1      29.406  21.714   7.200  1.00  0.00     0.056 A 
ATOM      9  C   UNL     1      29.741  22.578   8.264  1.00  0.00     0.116 A 
ATOM     10  H   UNL     1      33.611  20.483   6.139  1.00  0.00     0.166 HD
ENDROOT
BRANCH   9  11
ATOM     11  O   UNL     1      28.744  23.250   8.968  1.00  0.00    -0.508 OA
ATOM     12  H   UNL     1      27.910  22.772   9.289  1.00  0.00     0.293 HD
ENDBRANCH   9  11
TORSDOF 1
ENDMDL
MODEL 2
REMARK VINA RESULT:    -5.758      2.548      3.279
REMARK INTER + INTRA:          -5.926
REMARK INTER:                  -5.926
REMARK INTRA:                   0.000
REMARK UNBOUND:                 0.000
REMARK SMILES Oc1ccc2[nH]ccc2c1
REMARK SMILES IDX 3 1 4 2 5 3 9 4 8 5 7 6 6 7 10 8 2 9 1 11
REMARK H PARENT 6 10 1 12
REMARK Flexibility Score: inf
ROOT
ATOM      1  C   UNL     1      32.001  22.054   8.327  1.00  0.00     0.048 A 
ATOM      2  C   UNL     1      30.681  22.439   8.628  1.00  0.00     0.030 A 
ATOM      3  C   UNL     1      29.691  22.152   7.689  1.00  0.00     0.046 A 
ATOM      4  C   UNL     1      29.978  21.520   6.510  1.00  0.00     0.003 A 
ATOM      5  C   UNL     1      28.797  21.387   5.814  1.00  0.00     0.028 A 
ATOM      6  C   UNL     1      27.828  21.963   6.631  1.00  0.00     0.083 A 
ATOM      7  N   UNL     1      28.380  22.429   7.774  1.00  0.00    -0.361 N 
ATOM      8  C   UNL     1      31.274  21.126   6.182  1.00  0.00     0.056 A 
ATOM      9  C   UNL     1      32.301  21.401   7.110  1.00  0.00     0.116 A 
ATOM     10  H   UNL     1      27.884  22.905   8.561  1.00  0.00     0.166 HD
ENDROOT
BRANCH   9  11
ATOM     11  O   UNL     1      33.616  21.032   6.837  1.00  0.00    -0.508 OA
ATOM     12  H   UNL     1      34.169  20.512   7.509  1.00  0.00     0.293 HD
ENDBRANCH   9  11
TORSDOF 1
ENDMDL
MODEL 3
REMARK VINA RESULT:    -5.674      1.219      2.526
REMARK INTER + INTRA:          -5.840
REMARK INTER:                  -5.840
REMARK INTRA:                   0.000
REMARK UNBOUND:                 0.000
REMARK SMILES Oc1ccc2[nH]ccc2c1
REMARK SMILES IDX 3 1 4 2 5 3 9 4 8 5 7 6 6 7 10 8 2 9 1 11
REMARK H PARENT 6 10 1 12
REMARK Flexibility Score: inf
ROOT
ATOM      1  C   UNL     1      29.165  20.646   5.777  1.00  0.00     0.048 A 
ATOM      2  C   UNL     1      30.499  20.364   5.425  1.00  0.00     0.030 A 
ATOM      3  C   UNL     1      31.509  20.936   6.197  1.00  0.00     0.046 A 
ATOM      4  C   UNL     1      31.229  21.746   7.264  1.00  0.00     0.003 A 
ATOM      5  C   UNL     1      32.431  22.142   7.807  1.00  0.00     0.028 A 
ATOM      6  C   UNL     1      33.404  21.534   7.019  1.00  0.00     0.083 A 
ATOM      7  N   UNL     1      32.835  20.799   6.037  1.00  0.00    -0.361 N 
ATOM      8  C   UNL     1      29.920  22.045   7.638  1.00  0.00     0.056 A 
ATOM      9  C   UNL     1      28.873  21.483   6.878  1.00  0.00     0.116 A 
ATOM     10  H   UNL     1      33.330  20.240   5.306  1.00  0.00     0.166 HD
ENDROOT
BRANCH   9  11
ATOM     11  O   UNL     1      27.544  21.746   7.205  1.00  0.00    -0.508 OA
ATOM     12  H   UNL     1      27.083  22.596   6.901  1.00  0.00     0.293 HD
ENDBRANCH   9  11
TORSDOF 1
ENDMDL
MODEL 4
REMARK VINA RESULT:    -5.642      1.446      1.917
REMARK INTER + INTRA:          -5.807
REMARK INTER:                  -5.807
REMARK INTRA:                   0.000
REMARK UNBOUND:                 0.000
REMARK SMILES Oc1ccc2[nH]ccc2c1
REMARK SMILES IDX 3 1 4 2 5 3 9 4 8 5 7 6 6 7 10 8 2 9 1 11
REMARK H PARENT 6 10 1 12
REMARK Flexibility Score: inf
ROOT
ATOM      1  C   UNL     1      29.277  22.120   8.557  1.00  0.00     0.048 A 
ATOM      2  C   UNL     1      30.637  22.475   8.634  1.00  0.00     0.030 A 
ATOM      3  C   UNL     1      31.510  21.909   7.708  1.00  0.00     0.046 A 
ATOM      4  C   UNL     1      31.075  21.034   6.749  1.00  0.00     0.003 A 
ATOM      5  C   UNL     1      32.171  20.662   6.002  1.00  0.00     0.028 A 
ATOM      6  C   UNL     1      33.243  21.350   6.563  1.00  0.00     0.083 A 
ATOM      7  N   UNL     1      32.834  22.109   7.605  1.00  0.00    -0.361 N 
ATOM      8  C   UNL     1      29.736  20.662   6.645  1.00  0.00     0.056 A 
ATOM      9  C   UNL     1      28.825  21.217   7.568  1.00  0.00     0.116 A 
ATOM     10  H   UNL     1      33.429  22.725   8.203  1.00  0.00     0.166 HD
ENDROOT
BRANCH   9  11
ATOM     11  O   UNL     1      27.473  20.882   7.513  1.00  0.00    -0.508 OA
ATOM     12  H   UNL     1      27.037  20.586   6.648  1.00  0.00     0.293 HD
ENDBRANCH   9  11
TORSDOF 1
ENDMDL
MODEL 5
REMARK VINA RESULT:    -5.485      2.405      3.644
REMARK INTER + INTRA:          -5.646
REMARK INTER:                  -5.646
REMARK INTRA:                   0.000
REMARK UNBOUND:                 0.000
REMARK SMILES Oc1ccc2[nH]ccc2c1
REMARK SMILES IDX 3 1 4 2 5 3 9 4 8 5 7 6 6 7 10 8 2 9 1 11
REMARK H PARENT 6 10 1 12
REMARK Flexibility Score: inf
ROOT
ATOM      1  C   UNL     1      32.513  20.677   6.148  1.00  0.00     0.048 A 
ATOM      2  C   UNL     1      31.147  20.657   5.810  1.00  0.00     0.030 A 
ATOM      3  C   UNL     1      30.282  21.454   6.557  1.00  0.00     0.046 A 
ATOM      4  C   UNL     1      30.730  22.235   7.587  1.00  0.00     0.003 A 
ATOM      5  C   UNL     1      29.639  22.891   8.114  1.00  0.00     0.028 A 
ATOM      6  C   UNL     1      28.555  22.461   7.354  1.00  0.00     0.083 A 
ATOM      7  N   UNL     1      28.953  21.583   6.405  1.00  0.00    -0.361 N 
ATOM      8  C   UNL     1      32.076  22.278   7.947  1.00  0.00     0.056 A 
ATOM      9  C   UNL     1      32.980  21.483   7.212  1.00  0.00     0.116 A 
ATOM     10  H   UNL     1      28.349  21.106   5.699  1.00  0.00     0.166 HD
ENDROOT
BRANCH   9  11
ATOM     11  O   UNL     1      34.338  21.484   7.526  1.00  0.00    -0.508 OA
ATOM     12  H   UNL     1      34.843  22.348   7.682  1.00  0.00     0.293 HD
ENDBRANCH   9  11
TORSDOF 1
ENDMDL
MODEL 6
REMARK VINA RESULT:    -5.412      1.546      2.227
REMARK INTER + INTRA:          -5.570
REMARK INTER:                  -5.570
REMARK INTRA:                   0.000
REMARK UNBOUND:                 0.000
REMARK SMILES Oc1ccc2[nH]ccc2c1
REMARK SMILES IDX 3 1 4 2 5 3 9 4 8 5 7 6 6 7 10 8 2 9 1 11
REMARK H PARENT 6 10 1 12
REMARK Flexibility Score: inf
ROOT
ATOM      1  C   UNL     1      29.896  23.457   7.856  1.00  0.00     0.048 A 
ATOM      2  C   UNL     1      29.335  22.426   7.079  1.00  0.00     0.030 A 
ATOM      3  C   UNL     1      30.207  21.522   6.475  1.00  0.00     0.046 A 
ATOM      4  C   UNL     1      31.564  21.621   6.622  1.00  0.00     0.003 A 
ATOM      5  C   UNL     1      32.132  20.589   5.908  1.00  0.00     0.028 A 
ATOM      6  C   UNL     1      31.060  19.899   5.350  1.00  0.00     0.083 A 
ATOM      7  N   UNL     1      29.887  20.473   5.699  1.00  0.00    -0.361 N 
ATOM      8  C   UNL     1      32.150  22.629   7.384  1.00  0.00     0.056 A 
ATOM      9  C   UNL     1      31.297  23.563   8.010  1.00  0.00     0.116 A 
ATOM     10  H   UNL     1      28.929  20.162   5.421  1.00  0.00     0.166 HD
ENDROOT
BRANCH   9  11
ATOM     11  O   UNL     1      31.826  24.593   8.784  1.00  0.00    -0.508 OA
ATOM     12  H   UNL     1      31.227  25.273   9.238  1.00  0.00     0.293 HD
ENDBRANCH   9  11
TORSDOF 1
ENDMDL
MODEL 7
REMARK VINA RESULT:    -5.381      2.046      3.342
REMARK INTER + INTRA:          -5.538
REMARK INTER:                  -5.538
REMARK INTRA:                   0.000
REMARK UNBOUND:                 0.000
REMARK SMILES Oc1ccc2[nH]ccc2c1
REMARK SMILES IDX 3 1 4 2 5 3 9 4 8 5 7 6 6 7 10 8 2 9 1 11
REMARK H PARENT 6 10 1 12
REMARK Flexibility Score: inf
ROOT
ATOM      1  C   UNL     1      30.895  20.057   5.128  1.00  0.00     0.048 A 
ATOM      2  C   UNL     1      31.897  20.470   6.026  1.00  0.00     0.030 A 
ATOM      3  C   UNL     1      31.508  21.222   7.133  1.00  0.00     0.046 A 
ATOM      4  C   UNL     1      30.199  21.555   7.353  1.00  0.00     0.003 A 
ATOM      5  C   UNL     1      30.150  22.291   8.516  1.00  0.00     0.028 A 
ATOM      6  C   UNL     1      31.469  22.367   8.953  1.00  0.00     0.083 A 
ATOM      7  N   UNL     1      32.294  21.713   8.105  1.00  0.00    -0.361 N 
ATOM      8  C   UNL     1      29.183  21.163   6.484  1.00  0.00     0.056 A 
ATOM      9  C   UNL     1      29.542  20.401   5.352  1.00  0.00     0.116 A 
ATOM     10  H   UNL     1      33.330  21.612   8.191  1.00  0.00     0.166 HD
ENDROOT
BRANCH   9  11
ATOM     11  O   UNL     1      28.570  19.979   4.447  1.00  0.00    -0.508 OA
ATOM     12  H   UNL     1      27.681  20.459   4.364  1.00  0.00     0.293 HD
ENDBRANCH   9  11
TORSDOF 1
ENDMDL
MODEL 8
REMARK VINA RESULT:    -5.208      6.740      7.799
REMARK INTER + INTRA:          -5.360
REMARK INTER:                  -5.360
REMARK INTRA:                   0.000
REMARK UNBOUND:                 0.000
REMARK SMILES Oc1ccc2[nH]ccc2c1
REMARK SMILES IDX 3 1 4 2 5 3 9 4 8 5 7 6 6 7 10 8 2 9 1 11
REMARK H PARENT 6 10 1 12
REMARK Flexibility Score: inf
ROOT
ATOM      1  C   UNL     1      26.106  22.680   4.470  1.00  0.00     0.048 A 
ATOM      2  C   UNL     1      26.162  23.607   3.411  1.00  0.00     0.030 A 
ATOM      3  C   UNL     1      25.091  24.486   3.261  1.00  0.00     0.046 A 
ATOM      4  C   UNL     1      24.014  24.460   4.106  1.00  0.00     0.003 A 
ATOM      5  C   UNL     1      23.141  25.443   3.692  1.00  0.00     0.028 A 
ATOM      6  C   UNL     1      23.752  26.029   2.587  1.00  0.00     0.083 A 
ATOM      7  N   UNL     1      24.941  25.440   2.328  1.00  0.00    -0.361 N 
ATOM      8  C   UNL     1      23.928  23.556   5.163  1.00  0.00     0.056 A 
ATOM      9  C   UNL     1      24.996  22.651   5.344  1.00  0.00     0.116 A 
ATOM     10  H   UNL     1      25.606  25.682   1.559  1.00  0.00     0.166 HD
ENDROOT
BRANCH   9  11
ATOM     11  O   UNL     1      24.966  21.723   6.383  1.00  0.00    -0.508 OA
ATOM     12  H   UNL     1      25.792  21.523   6.936  1.00  0.00     0.293 HD
ENDBRANCH   9  11
TORSDOF 1
ENDMDL
MODEL 9
REMARK VINA RESULT:    -5.196      6.728      7.896
REMARK INTER + INTRA:          -5.348
REMARK INTER:                  -5.348
REMARK INTRA:                   0.000
REMARK UNBOUND:                 0.000
REMARK SMILES Oc1ccc2[nH]ccc2c1
REMARK SMILES IDX 3 1 4 2 5 3 9 4 8 5 7 6 6 7 10 8 2 9 1 11
REMARK H PARENT 6 10 1 12
REMARK Flexibility Score: inf
ROOT
ATOM      1  C   UNL     1      25.157  21.970   5.115  1.00  0.00     0.048 A 
ATOM      2  C   UNL     1      24.045  22.815   5.291  1.00  0.00     0.030 A 
ATOM      3  C   UNL     1      23.962  23.954   4.491  1.00  0.00     0.046 A 
ATOM      4  C   UNL     1      24.922  24.253   3.563  1.00  0.00     0.003 A 
ATOM      5  C   UNL     1      24.549  25.428   2.948  1.00  0.00     0.028 A 
ATOM      6  C   UNL     1      23.349  25.790   3.553  1.00  0.00     0.083 A 
ATOM      7  N   UNL     1      22.996  24.887   4.495  1.00  0.00    -0.361 N 
ATOM      8  C   UNL     1      26.034  23.438   3.364  1.00  0.00     0.056 A 
ATOM      9  C   UNL     1      26.150  22.277   4.157  1.00  0.00     0.116 A 
ATOM     10  H   UNL     1      22.144  24.911   5.100  1.00  0.00     0.166 HD
ENDROOT
BRANCH   9  11
ATOM     11  O   UNL     1      27.240  21.423   4.004  1.00  0.00    -0.508 OA
ATOM     12  H   UNL     1      28.071  21.518   4.576  1.00  0.00     0.293 HD
ENDBRANCH   9  11
TORSDOF 1
ENDMDL
