MODEL 1
REMARK VINA RESULT:    -5.957      0.000      0.000
REMARK INTER + INTRA:         -11.203
REMARK INTER:                  -9.091
REMARK INTRA:                  -2.113
REMARK UNBOUND:                -2.113
REMARK SMILES CC(=O)CCC=C(C)CCC=C(C)CCC=C(C)C
REMARK SMILES IDX 10 1 11 2 12 3 13 4 14 5 15 6 16 7 18 8 17 9 19 10 9 11 7 12
REMARK SMILES IDX 6 13 8 14 5 15 4 16 2 17 3 18 1 19
REMARK H PARENT
REMARK Flexibility Score: inf
ROOT
ATOM      1  C   UNL     1      -9.891 -18.753  30.891  1.00  0.00     0.032 C 
ENDROOT
BRANCH   1   2
ATOM      2  C   UNL     1     -11.160 -19.046  30.127  1.00  0.00    -0.028 C 
ATOM      3  C   UNL     1     -12.183 -19.795  30.597  1.00  0.00    -0.077 C 
ATOM      4  C   UNL     1     -12.120 -20.481  31.940  1.00  0.00     0.039 C 
BRANCH   3   5
ATOM      5  C   UNL     1     -13.421 -19.967  29.739  1.00  0.00     0.034 C 
BRANCH   5   6
ATOM      6  C   UNL     1     -13.249 -19.339  28.350  1.00  0.00     0.032 C 
BRANCH   6   7
ATOM      7  C   UNL     1     -13.615 -17.873  28.348  1.00  0.00    -0.028 C 
ATOM      8  C   UNL     1     -11.729 -17.228  26.831  1.00  0.00     0.039 C 
ATOM      9  C   UNL     1     -12.917 -16.910  27.704  1.00  0.00    -0.080 C 
ATOM     10  C   UNL     1     -13.361 -15.473  27.801  1.00  0.00     0.039 C 
ENDBRANCH   6   7
ENDBRANCH   5   6
ENDBRANCH   3   5
ENDBRANCH   1   2
BRANCH   1  11
ATOM     11  C   UNL     1     -10.000 -17.455  31.706  1.00  0.00     0.034 C 
BRANCH  11  12
ATOM     12  C   UNL     1     -10.860 -16.417  31.005  1.00  0.00    -0.077 C 
ATOM     13  C   UNL     1     -12.132 -16.144  31.375  1.00  0.00    -0.028 C 
ATOM     14  C   UNL     1     -10.262 -15.627  29.869  1.00  0.00     0.039 C 
BRANCH  13  15
ATOM     15  C   UNL     1     -12.895 -16.879  32.449  1.00  0.00     0.035 C 
BRANCH  15  16
ATOM     16  C   UNL     1     -14.362 -16.439  32.467  1.00  0.00     0.079 C 
BRANCH  16  17
ATOM     17  C   UNL     1     -14.470 -14.940  32.371  1.00  0.00     0.130 C 
ATOM     18  O   UNL     1     -14.311 -14.260  33.373  1.00  0.00    -0.300 OA
ATOM     19  C   UNL     1     -14.781 -14.261  31.069  1.00  0.00     0.087 C 
ENDBRANCH  16  17
ENDBRANCH  15  16
ENDBRANCH  13  15
ENDBRANCH  11  12
ENDBRANCH   1  11
TORSDOF 9
ENDMDL
MODEL 2
REMARK VINA RESULT:    -5.776      2.845      3.755
REMARK INTER + INTRA:         -10.928
REMARK INTER:                  -9.822
REMARK INTRA:                  -1.106
REMARK UNBOUND:                -2.113
REMARK SMILES CC(=O)CCC=C(C)CCC=C(C)CCC=C(C)C
REMARK SMILES IDX 10 1 11 2 12 3 13 4 14 5 15 6 16 7 18 8 17 9 19 10 9 11 7 12
REMARK SMILES IDX 6 13 8 14 5 15 4 16 2 17 3 18 1 19
REMARK H PARENT
REMARK Flexibility Score: inf
ROOT
ATOM      1  C   UNL     1     -13.570 -17.414  32.432  1.00  0.00     0.032 C 
ENDROOT
BRANCH   1   2
ATOM      2  C   UNL     1     -13.226 -17.885  31.039  1.00  0.00    -0.028 C 
ATOM      3  C   UNL     1     -12.648 -19.073  30.751  1.00  0.00    -0.077 C 
ATOM      4  C   UNL     1     -12.223 -20.038  31.833  1.00  0.00     0.039 C 
BRANCH   3   5
ATOM      5  C   UNL     1     -12.402 -19.438  29.301  1.00  0.00     0.034 C 
BRANCH   5   6
ATOM      6  C   UNL     1     -11.676 -18.319  28.542  1.00  0.00     0.032 C 
BRANCH   6   7
ATOM      7  C   UNL     1     -12.559 -17.689  27.491  1.00  0.00    -0.028 C 
ATOM      8  C   UNL     1     -12.637 -15.467  28.645  1.00  0.00     0.039 C 
ATOM      9  C   UNL     1     -13.031 -16.422  27.546  1.00  0.00    -0.080 C 
ATOM     10  C   UNL     1     -13.932 -15.912  26.452  1.00  0.00     0.039 C 
ENDBRANCH   6   7
ENDBRANCH   5   6
ENDBRANCH   3   5
ENDBRANCH   1   2
BRANCH   1  11
ATOM     11  C   UNL     1     -12.870 -16.091  32.778  1.00  0.00     0.034 C 
BRANCH  11  12
ATOM     12  C   UNL     1     -13.862 -15.013  33.180  1.00  0.00    -0.077 C 
ATOM     13  C   UNL     1     -13.629 -14.138  34.186  1.00  0.00    -0.028 C 
ATOM     14  C   UNL     1     -15.148 -14.885  32.405  1.00  0.00     0.039 C 
BRANCH  13  15
ATOM     15  C   UNL     1     -12.424 -14.164  35.092  1.00  0.00     0.035 C 
BRANCH  15  16
ATOM     16  C   UNL     1     -12.512 -13.051  36.141  1.00  0.00     0.079 C 
BRANCH  16  17
ATOM     17  C   UNL     1     -11.167 -12.404  36.343  1.00  0.00     0.130 C 
ATOM     18  O   UNL     1     -11.051 -11.499  37.155  1.00  0.00    -0.300 OA
ATOM     19  C   UNL     1      -9.964 -12.838  35.558  1.00  0.00     0.087 C 
ENDBRANCH  16  17
ENDBRANCH  15  16
ENDBRANCH  13  15
ENDBRANCH  11  12
ENDBRANCH   1  11
TORSDOF 9
ENDMDL
MODEL 3
REMARK VINA RESULT:    -5.638      2.817      4.222
REMARK INTER + INTRA:         -10.718
REMARK INTER:                  -9.260
REMARK INTRA:                  -1.458
REMARK UNBOUND:                -2.113
REMARK SMILES CC(=O)CCC=C(C)CCC=C(C)CCC=C(C)C
REMARK SMILES IDX 10 1 11 2 12 3 13 4 14 5 15 6 16 7 18 8 17 9 19 10 9 11 7 12
REMARK SMILES IDX 6 13 8 14 5 15 4 16 2 17 3 18 1 19
REMARK H PARENT
REMARK Flexibility Score: inf
ROOT
ATOM      1  C   UNL     1     -13.014 -15.534  31.551  1.00  0.00     0.032 C 
ENDROOT
BRANCH   1   2
ATOM      2  C   UNL     1     -13.230 -16.059  30.152  1.00  0.00    -0.028 C 
ATOM      3  C   UNL     1     -12.318 -15.988  29.156  1.00  0.00    -0.077 C 
ATOM      4  C   UNL     1     -10.986 -15.300  29.340  1.00  0.00     0.039 C 
BRANCH   3   5
ATOM      5  C   UNL     1     -12.651 -16.600  27.810  1.00  0.00     0.034 C 
BRANCH   5   6
ATOM      6  C   UNL     1     -12.052 -18.004  27.654  1.00  0.00     0.032 C 
BRANCH   6   7
ATOM      7  C   UNL     1     -11.948 -18.721  28.980  1.00  0.00    -0.028 C 
ATOM      8  C   UNL     1     -14.004 -20.097  28.592  1.00  0.00     0.039 C 
ATOM      9  C   UNL     1     -12.841 -19.632  29.431  1.00  0.00    -0.080 C 
ATOM     10  C   UNL     1     -12.649 -20.258  30.788  1.00  0.00     0.039 C 
ENDBRANCH   6   7
ENDBRANCH   5   6
ENDBRANCH   3   5
ENDBRANCH   1   2
BRANCH   1  11
ATOM     11  C   UNL     1     -12.523 -16.634  32.505  1.00  0.00     0.034 C 
BRANCH  11  12
ATOM     12  C   UNL     1     -11.030 -16.534  32.765  1.00  0.00    -0.077 C 
ATOM     13  C   UNL     1     -10.495 -15.675  33.662  1.00  0.00    -0.028 C 
ATOM     14  C   UNL     1     -10.101 -17.457  32.019  1.00  0.00     0.039 C 
BRANCH  13  15
ATOM     15  C   UNL     1     -11.275 -14.650  34.446  1.00  0.00     0.035 C 
BRANCH  15  16
ATOM     16  C   UNL     1     -10.363 -13.913  35.432  1.00  0.00     0.079 C 
BRANCH  16  17
ATOM     17  C   UNL     1     -11.176 -13.210  36.486  1.00  0.00     0.130 C 
ATOM     18  O   UNL     1     -11.742 -13.866  37.347  1.00  0.00    -0.300 OA
ATOM     19  C   UNL     1     -11.319 -11.716  36.496  1.00  0.00     0.087 C 
ENDBRANCH  16  17
ENDBRANCH  15  16
ENDBRANCH  13  15
ENDBRANCH  11  12
ENDBRANCH   1  11
TORSDOF 9
ENDMDL
MODEL 4
REMARK VINA RESULT:    -5.605      1.090      2.827
REMARK INTER + INTRA:         -10.668
REMARK INTER:                  -9.167
REMARK INTRA:                  -1.500
REMARK UNBOUND:                -2.113
REMARK SMILES CC(=O)CCC=C(C)CCC=C(C)CCC=C(C)C
REMARK SMILES IDX 10 1 11 2 12 3 13 4 14 5 15 6 16 7 18 8 17 9 19 10 9 11 7 12
REMARK SMILES IDX 6 13 8 14 5 15 4 16 2 17 3 18 1 19
REMARK H PARENT
REMARK Flexibility Score: inf
ROOT
ATOM      1  C   UNL     1     -10.602 -18.879  32.084  1.00  0.00     0.032 C 
ENDROOT
BRANCH   1   2
ATOM      2  C   UNL     1     -10.367 -17.866  30.989  1.00  0.00    -0.028 C 
ATOM      3  C   UNL     1     -10.203 -16.539  31.194  1.00  0.00    -0.077 C 
ATOM      4  C   UNL     1     -10.307 -15.924  32.569  1.00  0.00     0.039 C 
BRANCH   3   5
ATOM      5  C   UNL     1      -9.926 -15.642  30.004  1.00  0.00     0.034 C 
BRANCH   5   6
ATOM      6  C   UNL     1     -10.172 -16.362  28.672  1.00  0.00     0.032 C 
BRANCH   6   7
ATOM      7  C   UNL     1     -11.620 -16.279  28.247  1.00  0.00    -0.028 C 
ATOM      8  C   UNL     1     -11.205 -17.338  26.016  1.00  0.00     0.039 C 
ATOM      9  C   UNL     1     -12.089 -16.675  27.042  1.00  0.00    -0.080 C 
ATOM     10  C   UNL     1     -13.552 -16.512  26.719  1.00  0.00     0.039 C 
ENDBRANCH   6   7
ENDBRANCH   5   6
ENDBRANCH   3   5
ENDBRANCH   1   2
BRANCH   1  11
ATOM     11  C   UNL     1     -11.897 -19.675  31.859  1.00  0.00     0.034 C 
BRANCH  11  12
ATOM     12  C   UNL     1     -12.845 -18.959  30.914  1.00  0.00    -0.077 C 
ATOM     13  C   UNL     1     -13.572 -17.878  31.280  1.00  0.00    -0.028 C 
ATOM     14  C   UNL     1     -12.957 -19.446  29.492  1.00  0.00     0.039 C 
BRANCH  13  15
ATOM     15  C   UNL     1     -13.618 -17.301  32.672  1.00  0.00     0.035 C 
BRANCH  15  16
ATOM     16  C   UNL     1     -14.864 -16.429  32.855  1.00  0.00     0.079 C 
BRANCH  16  17
ATOM     17  C   UNL     1     -14.531 -14.975  32.649  1.00  0.00     0.130 C 
ATOM     18  O   UNL     1     -14.127 -14.311  33.591  1.00  0.00    -0.300 OA
ATOM     19  C   UNL     1     -14.697 -14.316  31.310  1.00  0.00     0.087 C 
ENDBRANCH  16  17
ENDBRANCH  15  16
ENDBRANCH  13  15
ENDBRANCH  11  12
ENDBRANCH   1  11
TORSDOF 9
ENDMDL
MODEL 5
REMARK VINA RESULT:    -5.598      1.933      5.473
REMARK INTER + INTRA:         -10.655
REMARK INTER:                  -9.218
REMARK INTRA:                  -1.437
REMARK UNBOUND:                -2.113
REMARK SMILES CC(=O)CCC=C(C)CCC=C(C)CCC=C(C)C
REMARK SMILES IDX 10 1 11 2 12 3 13 4 14 5 15 6 16 7 18 8 17 9 19 10 9 11 7 12
REMARK SMILES IDX 6 13 8 14 5 15 4 16 2 17 3 18 1 19
REMARK H PARENT
REMARK Flexibility Score: inf
ROOT
ATOM      1  C   UNL     1     -13.036 -15.081  28.203  1.00  0.00     0.032 C 
ENDROOT
BRANCH   1   2
ATOM      2  C   UNL     1     -12.648 -15.701  29.524  1.00  0.00    -0.028 C 
ATOM      3  C   UNL     1     -11.378 -15.815  29.975  1.00  0.00    -0.077 C 
ATOM      4  C   UNL     1     -10.194 -15.378  29.147  1.00  0.00     0.039 C 
BRANCH   3   5
ATOM      5  C   UNL     1     -11.137 -16.417  31.345  1.00  0.00     0.034 C 
BRANCH   5   6
ATOM      6  C   UNL     1     -12.440 -16.577  32.140  1.00  0.00     0.032 C 
BRANCH   6   7
ATOM      7  C   UNL     1     -12.538 -15.573  33.265  1.00  0.00    -0.028 C 
ATOM      8  C   UNL     1     -14.897 -14.935  32.719  1.00  0.00     0.039 C 
ATOM      9  C   UNL     1     -13.621 -14.800  33.510  1.00  0.00    -0.080 C 
ATOM     10  C   UNL     1     -13.590 -13.809  34.644  1.00  0.00     0.039 C 
ENDBRANCH   6   7
ENDBRANCH   5   6
ENDBRANCH   3   5
ENDBRANCH   1   2
BRANCH   1  11
ATOM     11  C   UNL     1     -13.506 -16.137  27.191  1.00  0.00     0.034 C 
BRANCH  11  12
ATOM     12  C   UNL     1     -12.452 -17.204  26.956  1.00  0.00    -0.077 C 
ATOM     13  C   UNL     1     -12.462 -18.401  27.587  1.00  0.00    -0.028 C 
ATOM     14  C   UNL     1     -11.363 -16.938  25.947  1.00  0.00     0.039 C 
BRANCH  13  15
ATOM     15  C   UNL     1     -13.443 -18.802  28.659  1.00  0.00     0.035 C 
BRANCH  15  16
ATOM     16  C   UNL     1     -13.019 -20.120  29.314  1.00  0.00     0.079 C 
BRANCH  16  17
ATOM     17  C   UNL     1     -12.057 -19.867  30.445  1.00  0.00     0.130 C 
ATOM     18  O   UNL     1     -10.973 -19.356  30.210  1.00  0.00    -0.300 OA
ATOM     19  C   UNL     1     -12.395 -20.242  31.858  1.00  0.00     0.087 C 
ENDBRANCH  16  17
ENDBRANCH  15  16
ENDBRANCH  13  15
ENDBRANCH  11  12
ENDBRANCH   1  11
TORSDOF 9
ENDMDL
MODEL 6
REMARK VINA RESULT:    -5.526      3.064      6.153
REMARK INTER + INTRA:         -10.546
REMARK INTER:                  -9.151
REMARK INTRA:                  -1.395
REMARK UNBOUND:                -2.113
REMARK SMILES CC(=O)CCC=C(C)CCC=C(C)CCC=C(C)C
REMARK SMILES IDX 10 1 11 2 12 3 13 4 14 5 15 6 16 7 18 8 17 9 19 10 9 11 7 12
REMARK SMILES IDX 6 13 8 14 5 15 4 16 2 17 3 18 1 19
REMARK H PARENT
REMARK Flexibility Score: inf
ROOT
ATOM      1  C   UNL     1     -13.175 -17.363  31.440  1.00  0.00     0.032 C 
ENDROOT
BRANCH   1   2
ATOM      2  C   UNL     1     -13.417 -16.358  32.541  1.00  0.00    -0.028 C 
ATOM      3  C   UNL     1     -13.996 -15.149  32.363  1.00  0.00    -0.077 C 
ATOM      4  C   UNL     1     -14.407 -14.654  30.997  1.00  0.00     0.039 C 
BRANCH   3   5
ATOM      5  C   UNL     1     -14.221 -14.258  33.568  1.00  0.00     0.034 C 
BRANCH   5   6
ATOM      6  C   UNL     1     -13.179 -14.504  34.667  1.00  0.00     0.032 C 
BRANCH   6   7
ATOM      7  C   UNL     1     -12.922 -13.261  35.486  1.00  0.00    -0.028 C 
ATOM      8  C   UNL     1     -10.461 -13.687  35.675  1.00  0.00     0.039 C 
ATOM      9  C   UNL     1     -11.714 -12.905  35.979  1.00  0.00    -0.080 C 
ATOM     10  C   UNL     1     -11.585 -11.656  36.812  1.00  0.00     0.039 C 
ENDBRANCH   6   7
ENDBRANCH   5   6
ENDBRANCH   3   5
ENDBRANCH   1   2
BRANCH   1  11
ATOM     11  C   UNL     1     -11.711 -17.829  31.402  1.00  0.00     0.034 C 
BRANCH  11  12
ATOM     12  C   UNL     1     -10.743 -16.661  31.485  1.00  0.00    -0.077 C 
ATOM     13  C   UNL     1     -10.296 -15.997  30.394  1.00  0.00    -0.028 C 
ATOM     14  C   UNL     1     -10.286 -16.193  32.843  1.00  0.00     0.039 C 
BRANCH  13  15
ATOM     15  C   UNL     1     -10.611 -16.371  28.968  1.00  0.00     0.035 C 
BRANCH  15  16
ATOM     16  C   UNL     1     -11.954 -15.776  28.536  1.00  0.00     0.079 C 
BRANCH  16  17
ATOM     17  C   UNL     1     -12.689 -16.724  27.626  1.00  0.00     0.130 C 
ATOM     18  O   UNL     1     -12.472 -17.923  27.705  1.00  0.00    -0.300 OA
ATOM     19  C   UNL     1     -13.678 -16.227  26.612  1.00  0.00     0.087 C 
ENDBRANCH  16  17
ENDBRANCH  15  16
ENDBRANCH  13  15
ENDBRANCH  11  12
ENDBRANCH   1  11
TORSDOF 9
ENDMDL
MODEL 7
REMARK VINA RESULT:    -5.526      2.410      5.825
REMARK INTER + INTRA:         -10.546
REMARK INTER:                  -9.298
REMARK INTRA:                  -1.248
REMARK UNBOUND:                -2.113
REMARK SMILES CC(=O)CCC=C(C)CCC=C(C)CCC=C(C)C
REMARK SMILES IDX 10 1 11 2 12 3 13 4 14 5 15 6 16 7 18 8 17 9 19 10 9 11 7 12
REMARK SMILES IDX 6 13 8 14 5 15 4 16 2 17 3 18 1 19
REMARK H PARENT
REMARK Flexibility Score: inf
ROOT
ATOM      1  C   UNL     1     -13.084 -15.731  29.273  1.00  0.00     0.032 C 
ENDROOT
BRANCH   1   2
ATOM      2  C   UNL     1     -13.434 -15.552  30.732  1.00  0.00    -0.028 C 
ATOM      3  C   UNL     1     -14.382 -14.706  31.195  1.00  0.00    -0.077 C 
ATOM      4  C   UNL     1     -15.153 -13.790  30.276  1.00  0.00     0.039 C 
BRANCH   3   5
ATOM      5  C   UNL     1     -14.664 -14.664  32.684  1.00  0.00     0.034 C 
BRANCH   5   6
ATOM      6  C   UNL     1     -13.406 -14.950  33.515  1.00  0.00     0.032 C 
BRANCH   6   7
ATOM      7  C   UNL     1     -13.325 -14.063  34.735  1.00  0.00    -0.028 C 
ATOM      8  C   UNL     1     -10.845 -14.324  34.971  1.00  0.00     0.039 C 
ATOM      9  C   UNL     1     -12.188 -13.807  35.422  1.00  0.00    -0.080 C 
ATOM     10  C   UNL     1     -12.236 -12.930  36.647  1.00  0.00     0.039 C 
ENDBRANCH   6   7
ENDBRANCH   5   6
ENDBRANCH   3   5
ENDBRANCH   1   2
BRANCH   1  11
ATOM     11  C   UNL     1     -11.565 -15.701  29.042  1.00  0.00     0.034 C 
BRANCH  11  12
ATOM     12  C   UNL     1     -11.042 -17.035  28.540  1.00  0.00    -0.077 C 
ATOM     13  C   UNL     1     -10.629 -18.022  29.368  1.00  0.00    -0.028 C 
ATOM     14  C   UNL     1     -11.014 -17.290  27.054  1.00  0.00     0.039 C 
BRANCH  13  15
ATOM     15  C   UNL     1     -10.540 -17.909  30.869  1.00  0.00     0.035 C 
BRANCH  15  16
ATOM     16  C   UNL     1     -11.157 -19.139  31.541  1.00  0.00     0.079 C 
BRANCH  16  17
ATOM     17  C   UNL     1     -12.648 -19.166  31.336  1.00  0.00     0.130 C 
ATOM     18  O   UNL     1     -13.372 -18.538  32.093  1.00  0.00    -0.300 OA
ATOM     19  C   UNL     1     -13.270 -19.961  30.225  1.00  0.00     0.087 C 
ENDBRANCH  16  17
ENDBRANCH  15  16
ENDBRANCH  13  15
ENDBRANCH  11  12
ENDBRANCH   1  11
TORSDOF 9
ENDMDL
MODEL 8
REMARK VINA RESULT:    -5.506      2.953      3.401
REMARK INTER + INTRA:         -10.516
REMARK INTER:                  -9.587
REMARK INTRA:                  -0.929
REMARK UNBOUND:                -2.113
REMARK SMILES CC(=O)CCC=C(C)CCC=C(C)CCC=C(C)C
REMARK SMILES IDX 10 1 11 2 12 3 13 4 14 5 15 6 16 7 18 8 17 9 19 10 9 11 7 12
REMARK SMILES IDX 6 13 8 14 5 15 4 16 2 17 3 18 1 19
REMARK H PARENT
REMARK Flexibility Score: inf
ROOT
ATOM      1  C   UNL     1     -13.011 -17.448  32.457  1.00  0.00     0.032 C 
ENDROOT
BRANCH   1   2
ATOM      2  C   UNL     1     -13.198 -17.979  31.056  1.00  0.00    -0.028 C 
ATOM      3  C   UNL     1     -12.855 -19.224  30.654  1.00  0.00    -0.077 C 
ATOM      4  C   UNL     1     -12.175 -20.203  31.580  1.00  0.00     0.039 C 
BRANCH   3   5
ATOM      5  C   UNL     1     -13.146 -19.641  29.226  1.00  0.00     0.034 C 
BRANCH   5   6
ATOM      6  C   UNL     1     -12.455 -18.723  28.208  1.00  0.00     0.032 C 
BRANCH   6   7
ATOM      7  C   UNL     1     -13.127 -17.373  28.123  1.00  0.00    -0.028 C 
ATOM      8  C   UNL     1     -11.055 -16.112  28.747  1.00  0.00     0.039 C 
ATOM      9  C   UNL     1     -12.521 -16.196  28.403  1.00  0.00    -0.080 C 
ATOM     10  C   UNL     1     -13.303 -14.912  28.315  1.00  0.00     0.039 C 
ENDBRANCH   6   7
ENDBRANCH   5   6
ENDBRANCH   3   5
ENDBRANCH   1   2
BRANCH   1  11
ATOM     11  C   UNL     1     -12.313 -16.079  32.462  1.00  0.00     0.034 C 
BRANCH  11  12
ATOM     12  C   UNL     1     -10.862 -16.185  32.897  1.00  0.00    -0.077 C 
ATOM     13  C   UNL     1     -10.337 -15.440  33.897  1.00  0.00    -0.028 C 
ATOM     14  C   UNL     1      -9.970 -17.189  32.211  1.00  0.00     0.039 C 
BRANCH  13  15
ATOM     15  C   UNL     1     -11.074 -14.356  34.643  1.00  0.00     0.035 C 
BRANCH  15  16
ATOM     16  C   UNL     1     -10.270 -13.897  35.863  1.00  0.00     0.079 C 
BRANCH  16  17
ATOM     17  C   UNL     1     -11.161 -13.198  36.856  1.00  0.00     0.130 C 
ATOM     18  O   UNL     1     -11.749 -13.853  37.702  1.00  0.00    -0.300 OA
ATOM     19  C   UNL     1     -11.354 -11.710  36.820  1.00  0.00     0.087 C 
ENDBRANCH  16  17
ENDBRANCH  15  16
ENDBRANCH  13  15
ENDBRANCH  11  12
ENDBRANCH   1  11
TORSDOF 9
ENDMDL
MODEL 9
REMARK VINA RESULT:    -5.358      3.398      6.299
REMARK INTER + INTRA:         -10.290
REMARK INTER:                  -8.840
REMARK INTRA:                  -1.450
REMARK UNBOUND:                -2.113
REMARK SMILES CC(=O)CCC=C(C)CCC=C(C)CCC=C(C)C
REMARK SMILES IDX 10 1 11 2 12 3 13 4 14 5 15 6 16 7 18 8 17 9 19 10 9 11 7 12
REMARK SMILES IDX 6 13 8 14 5 15 4 16 2 17 3 18 1 19
REMARK H PARENT
REMARK Flexibility Score: inf
ROOT
ATOM      1  C   UNL     1     -13.159 -17.425  32.296  1.00  0.00     0.032 C 
ENDROOT
BRANCH   1   2
ATOM      2  C   UNL     1     -12.220 -16.287  32.619  1.00  0.00    -0.028 C 
ATOM      3  C   UNL     1     -10.902 -16.431  32.885  1.00  0.00    -0.077 C 
ATOM      4  C   UNL     1     -10.244 -17.789  32.950  1.00  0.00     0.039 C 
BRANCH   3   5
ATOM      5  C   UNL     1     -10.065 -15.194  33.145  1.00  0.00     0.034 C 
BRANCH   5   6
ATOM      6  C   UNL     1      -9.876 -14.934  34.646  1.00  0.00     0.032 C 
BRANCH   6   7
ATOM      7  C   UNL     1      -9.887 -13.457  34.965  1.00  0.00    -0.028 C 
ATOM      8  C   UNL     1     -11.612 -13.684  36.766  1.00  0.00     0.039 C 
ATOM      9  C   UNL     1     -10.691 -12.878  35.886  1.00  0.00    -0.080 C 
ATOM     10  C   UNL     1     -10.635 -11.387  36.095  1.00  0.00     0.039 C 
ENDBRANCH   6   7
ENDBRANCH   5   6
ENDBRANCH   3   5
ENDBRANCH   1   2
BRANCH   1  11
ATOM     11  C   UNL     1     -13.254 -17.677  30.784  1.00  0.00     0.034 C 
BRANCH  11  12
ATOM     12  C   UNL     1     -12.392 -18.849  30.350  1.00  0.00    -0.077 C 
ATOM     13  C   UNL     1     -11.396 -18.734  29.441  1.00  0.00    -0.028 C 
ATOM     14  C   UNL     1     -12.628 -20.197  30.983  1.00  0.00     0.039 C 
BRANCH  13  15
ATOM     15  C   UNL     1     -11.068 -17.477  28.676  1.00  0.00     0.035 C 
BRANCH  15  16
ATOM     16  C   UNL     1     -11.760 -17.478  27.310  1.00  0.00     0.079 C 
BRANCH  16  17
ATOM     17  C   UNL     1     -12.856 -16.446  27.267  1.00  0.00     0.130 C 
ATOM     18  O   UNL     1     -13.674 -16.475  26.361  1.00  0.00    -0.300 OA
ATOM     19  C   UNL     1     -12.959 -15.371  28.310  1.00  0.00     0.087 C 
ENDBRANCH  16  17
ENDBRANCH  15  16
ENDBRANCH  13  15
ENDBRANCH  11  12
ENDBRANCH   1  11
TORSDOF 9
ENDMDL
