MODEL 1
REMARK VINA RESULT:    -4.399      0.000      0.000
REMARK INTER + INTRA:          -6.911
REMARK INTER:                  -6.200
REMARK INTRA:                  -0.711
REMARK UNBOUND:                -0.711
REMARK SMILES CCCCCCCCC(=O)[O-]
REMARK SMILES IDX 6 1 7 2 8 3 9 4 10 5 11 6 5 7 4 8 3 9 2 10 1 11
REMARK H PARENT
REMARK Flexibility Score: inf
ROOT
ATOM      1  C   UNL     1      10.433   6.004 -10.252  1.00  0.00     0.000 C 
ENDROOT
BRANCH   1   2
ATOM      2  C   UNL     1       9.391   5.846 -11.368  1.00  0.00     0.006 C 
BRANCH   2   3
ATOM      3  C   UNL     1       9.335   7.074 -12.287  1.00  0.00     0.053 C 
BRANCH   3   4
ATOM      4  C   UNL     1       7.940   7.606 -12.421  1.00  0.00     0.041 C 
ATOM      5  O   UNL     1       7.737   8.848 -12.456  1.00  0.00    -0.550 OA
ATOM      6  O   UNL     1       6.863   6.729 -12.473  1.00  0.00    -0.550 OA
ENDBRANCH   3   4
ENDBRANCH   2   3
ENDBRANCH   1   2
BRANCH   1   7
ATOM      7  C   UNL     1      11.562   6.948 -10.682  1.00  0.00     0.000 C 
BRANCH   7   8
ATOM      8  C   UNL     1      12.919   6.228 -10.664  1.00  0.00    -0.000 C 
BRANCH   8   9
ATOM      9  C   UNL     1      13.520   6.063 -12.068  1.00  0.00    -0.000 C 
BRANCH   9  10
ATOM     10  C   UNL     1      12.818   4.969 -12.887  1.00  0.00    -0.003 C 
ATOM     11  C   UNL     1      12.214   5.543 -14.166  1.00  0.00     0.004 C 
ENDBRANCH   9  10
ENDBRANCH   8   9
ENDBRANCH   7   8
ENDBRANCH   1   7
TORSDOF 7
ENDMDL
MODEL 2
REMARK VINA RESULT:    -4.322      2.348      3.799
REMARK INTER + INTRA:          -6.802
REMARK INTER:                  -6.141
REMARK INTRA:                  -0.661
REMARK UNBOUND:                -0.711
REMARK SMILES CCCCCCCCC(=O)[O-]
REMARK SMILES IDX 6 1 7 2 8 3 9 4 10 5 11 6 5 7 4 8 3 9 2 10 1 11
REMARK H PARENT
REMARK Flexibility Score: inf
ROOT
ATOM      1  C   UNL     1      12.901   5.218 -13.117  1.00  0.00     0.000 C 
ENDROOT
BRANCH   1   2
ATOM      2  C   UNL     1      12.357   6.054 -11.950  1.00  0.00     0.006 C 
BRANCH   2   3
ATOM      3  C   UNL     1      10.895   6.467 -12.163  1.00  0.00     0.053 C 
BRANCH   3   4
ATOM      4  C   UNL     1      10.015   5.999 -11.043  1.00  0.00     0.041 C 
ATOM      5  O   UNL     1       8.837   5.625 -11.278  1.00  0.00    -0.550 OA
ATOM      6  O   UNL     1      10.487   6.010  -9.736  1.00  0.00    -0.550 OA
ENDBRANCH   3   4
ENDBRANCH   2   3
ENDBRANCH   1   2
BRANCH   1   7
ATOM      7  C   UNL     1      11.806   4.948 -14.157  1.00  0.00     0.000 C 
BRANCH   7   8
ATOM      8  C   UNL     1      12.218   5.475 -15.540  1.00  0.00    -0.000 C 
BRANCH   8   9
ATOM      9  C   UNL     1      11.767   6.924 -15.779  1.00  0.00    -0.000 C 
BRANCH   9  10
ATOM     10  C   UNL     1      12.918   7.835 -16.231  1.00  0.00    -0.003 C 
ATOM     11  C   UNL     1      13.683   8.387 -15.031  1.00  0.00     0.004 C 
ENDBRANCH   9  10
ENDBRANCH   8   9
ENDBRANCH   7   8
ENDBRANCH   1   7
TORSDOF 7
ENDMDL
MODEL 3
REMARK VINA RESULT:    -4.287      1.921      3.298
REMARK INTER + INTRA:          -6.752
REMARK INTER:                  -5.986
REMARK INTRA:                  -0.766
REMARK UNBOUND:                -0.711
REMARK SMILES CCCCCCCCC(=O)[O-]
REMARK SMILES IDX 6 1 7 2 8 3 9 4 10 5 11 6 5 7 4 8 3 9 2 10 1 11
REMARK H PARENT
REMARK Flexibility Score: inf
ROOT
ATOM      1  C   UNL     1      13.259   5.252 -12.591  1.00  0.00     0.000 C 
ENDROOT
BRANCH   1   2
ATOM      2  C   UNL     1      12.216   5.110 -13.709  1.00  0.00     0.006 C 
BRANCH   2   3
ATOM      3  C   UNL     1      10.779   5.205 -13.178  1.00  0.00     0.053 C 
BRANCH   3   4
ATOM      4  C   UNL     1      10.111   6.477 -13.601  1.00  0.00     0.041 C 
ATOM      5  O   UNL     1       9.459   6.522 -14.677  1.00  0.00    -0.550 OA
ATOM      6  O   UNL     1      10.238   7.622 -12.824  1.00  0.00    -0.550 OA
ENDBRANCH   3   4
ENDBRANCH   2   3
ENDBRANCH   1   2
BRANCH   1   7
ATOM      7  C   UNL     1      13.668   6.719 -12.403  1.00  0.00     0.000 C 
BRANCH   7   8
ATOM      8  C   UNL     1      13.233   7.239 -11.025  1.00  0.00    -0.000 C 
BRANCH   8   9
ATOM      9  C   UNL     1      13.687   6.324  -9.877  1.00  0.00    -0.000 C 
BRANCH   9  10
ATOM     10  C   UNL     1      12.523   5.879  -8.979  1.00  0.00    -0.003 C 
ATOM     11  C   UNL     1      11.179   6.252  -9.598  1.00  0.00     0.004 C 
ENDBRANCH   9  10
ENDBRANCH   8   9
ENDBRANCH   7   8
ENDBRANCH   1   7
TORSDOF 7
ENDMDL
MODEL 4
REMARK VINA RESULT:    -4.285      4.452      6.106
REMARK INTER + INTRA:          -6.750
REMARK INTER:                  -6.139
REMARK INTRA:                  -0.611
REMARK UNBOUND:                -0.711
REMARK SMILES CCCCCCCCC(=O)[O-]
REMARK SMILES IDX 6 1 7 2 8 3 9 4 10 5 11 6 5 7 4 8 3 9 2 10 1 11
REMARK H PARENT
REMARK Flexibility Score: inf
ROOT
ATOM      1  C   UNL     1      10.732   5.452 -15.111  1.00  0.00     0.000 C 
ENDROOT
BRANCH   1   2
ATOM      2  C   UNL     1      12.105   6.008 -15.517  1.00  0.00     0.006 C 
BRANCH   2   3
ATOM      3  C   UNL     1      12.561   7.152 -14.601  1.00  0.00     0.053 C 
BRANCH   3   4
ATOM      4  C   UNL     1      13.389   8.159 -15.340  1.00  0.00     0.041 C 
ATOM      5  O   UNL     1      13.334   8.226 -16.595  1.00  0.00    -0.550 OA
ATOM      6  O   UNL     1      14.248   9.001 -14.642  1.00  0.00    -0.550 OA
ENDBRANCH   3   4
ENDBRANCH   2   3
ENDBRANCH   1   2
BRANCH   1   7
ATOM      7  C   UNL     1       9.623   6.018 -16.005  1.00  0.00     0.000 C 
BRANCH   7   8
ATOM      8  C   UNL     1       8.850   7.133 -15.285  1.00  0.00    -0.000 C 
BRANCH   8   9
ATOM      9  C   UNL     1       8.763   8.424 -16.114  1.00  0.00    -0.000 C 
BRANCH   9  10
ATOM     10  C   UNL     1       9.851   8.506 -17.195  1.00  0.00    -0.003 C 
ATOM     11  C   UNL     1       9.234   8.618 -18.587  1.00  0.00     0.004 C 
ENDBRANCH   9  10
ENDBRANCH   8   9
ENDBRANCH   7   8
ENDBRANCH   1   7
TORSDOF 7
ENDMDL
MODEL 5
REMARK VINA RESULT:    -4.261      3.710      4.476
REMARK INTER + INTRA:          -6.716
REMARK INTER:                  -6.021
REMARK INTRA:                  -0.694
REMARK UNBOUND:                -0.711
REMARK SMILES CCCCCCCCC(=O)[O-]
REMARK SMILES IDX 6 1 7 2 8 3 9 4 10 5 11 6 5 7 4 8 3 9 2 10 1 11
REMARK H PARENT
REMARK Flexibility Score: inf
ROOT
ATOM      1  C   UNL     1       9.930   5.959 -15.890  1.00  0.00     0.000 C 
ENDROOT
BRANCH   1   2
ATOM      2  C   UNL     1       8.859   6.780 -15.157  1.00  0.00     0.006 C 
BRANCH   2   3
ATOM      3  C   UNL     1       8.960   8.279 -15.473  1.00  0.00     0.053 C 
BRANCH   3   4
ATOM      4  C   UNL     1       8.142   8.652 -16.672  1.00  0.00     0.041 C 
ATOM      5  O   UNL     1       8.651   8.612 -17.822  1.00  0.00    -0.550 OA
ATOM      6  O   UNL     1       6.828   9.076 -16.514  1.00  0.00    -0.550 OA
ENDBRANCH   3   4
ENDBRANCH   2   3
ENDBRANCH   1   2
BRANCH   1   7
ATOM      7  C   UNL     1      10.900   5.309 -14.895  1.00  0.00     0.000 C 
BRANCH   7   8
ATOM      8  C   UNL     1      12.349   5.729 -15.186  1.00  0.00    -0.000 C 
BRANCH   8   9
ATOM      9  C   UNL     1      12.580   7.234 -14.987  1.00  0.00    -0.000 C 
BRANCH   9  10
ATOM     10  C   UNL     1      13.255   7.894 -16.199  1.00  0.00    -0.003 C 
ATOM     11  C   UNL     1      12.239   8.660 -17.043  1.00  0.00     0.004 C 
ENDBRANCH   9  10
ENDBRANCH   8   9
ENDBRANCH   7   8
ENDBRANCH   1   7
TORSDOF 7
ENDMDL
MODEL 6
REMARK VINA RESULT:    -4.237      2.270      4.167
REMARK INTER + INTRA:          -6.682
REMARK INTER:                  -5.978
REMARK INTRA:                  -0.705
REMARK UNBOUND:                -0.711
REMARK SMILES CCCCCCCCC(=O)[O-]
REMARK SMILES IDX 6 1 7 2 8 3 9 4 10 5 11 6 5 7 4 8 3 9 2 10 1 11
REMARK H PARENT
REMARK Flexibility Score: inf
ROOT
ATOM      1  C   UNL     1      12.908   6.188 -10.666  1.00  0.00     0.000 C 
ENDROOT
BRANCH   1   2
ATOM      2  C   UNL     1      13.454   6.150 -12.101  1.00  0.00     0.006 C 
BRANCH   2   3
ATOM      3  C   UNL     1      13.045   4.870 -12.844  1.00  0.00     0.053 C 
BRANCH   3   4
ATOM      4  C   UNL     1      12.021   5.144 -13.903  1.00  0.00     0.041 C 
ATOM      5  O   UNL     1      11.993   6.261 -14.483  1.00  0.00    -0.550 OA
ATOM      6  O   UNL     1      11.075   4.177 -14.224  1.00  0.00    -0.550 OA
ENDBRANCH   3   4
ENDBRANCH   2   3
ENDBRANCH   1   2
BRANCH   1   7
ATOM      7  C   UNL     1      11.581   6.953 -10.602  1.00  0.00     0.000 C 
BRANCH   7   8
ATOM      8  C   UNL     1      10.430   6.026 -10.181  1.00  0.00    -0.000 C 
BRANCH   8   9
ATOM      9  C   UNL     1       9.406   5.806 -11.305  1.00  0.00    -0.000 C 
BRANCH   9  10
ATOM     10  C   UNL     1       9.253   7.034 -12.214  1.00  0.00    -0.003 C 
ATOM     11  C   UNL     1       7.782   7.372 -12.437  1.00  0.00     0.004 C 
ENDBRANCH   9  10
ENDBRANCH   8   9
ENDBRANCH   7   8
ENDBRANCH   1   7
TORSDOF 7
ENDMDL
MODEL 7
REMARK VINA RESULT:    -4.235      4.568      6.131
REMARK INTER + INTRA:          -6.679
REMARK INTER:                  -6.169
REMARK INTRA:                  -0.510
REMARK UNBOUND:                -0.711
REMARK SMILES CCCCCCCCC(=O)[O-]
REMARK SMILES IDX 6 1 7 2 8 3 9 4 10 5 11 6 5 7 4 8 3 9 2 10 1 11
REMARK H PARENT
REMARK Flexibility Score: inf
ROOT
ATOM      1  C   UNL     1      12.542   7.098 -15.197  1.00  0.00     0.000 C 
ENDROOT
BRANCH   1   2
ATOM      2  C   UNL     1      13.158   7.480 -13.843  1.00  0.00     0.006 C 
BRANCH   2   3
ATOM      3  C   UNL     1      12.608   8.810 -13.310  1.00  0.00     0.053 C 
BRANCH   3   4
ATOM      4  C   UNL     1      13.704   9.786 -13.010  1.00  0.00     0.041 C 
ATOM      5  O   UNL     1      13.643  10.512 -11.983  1.00  0.00    -0.550 OA
ATOM      6  O   UNL     1      14.777   9.918 -13.884  1.00  0.00    -0.550 OA
ENDBRANCH   3   4
ENDBRANCH   2   3
ENDBRANCH   1   2
BRANCH   1   7
ATOM      7  C   UNL     1      12.916   8.118 -16.280  1.00  0.00     0.000 C 
BRANCH   7   8
ATOM      8  C   UNL     1      11.662   8.656 -16.986  1.00  0.00    -0.000 C 
BRANCH   8   9
ATOM      9  C   UNL     1      10.366   8.305 -16.238  1.00  0.00    -0.000 C 
BRANCH   9  10
ATOM     10  C   UNL     1       9.123   8.393 -17.137  1.00  0.00    -0.003 C 
ATOM     11  C   UNL     1       9.511   8.705 -18.580  1.00  0.00     0.004 C 
ENDBRANCH   9  10
ENDBRANCH   8   9
ENDBRANCH   7   8
ENDBRANCH   1   7
TORSDOF 7
ENDMDL
MODEL 8
REMARK VINA RESULT:    -4.231      1.625      2.128
REMARK INTER + INTRA:          -6.674
REMARK INTER:                  -6.110
REMARK INTRA:                  -0.564
REMARK UNBOUND:                -0.711
REMARK SMILES CCCCCCCCC(=O)[O-]
REMARK SMILES IDX 6 1 7 2 8 3 9 4 10 5 11 6 5 7 4 8 3 9 2 10 1 11
REMARK H PARENT
REMARK Flexibility Score: inf
ROOT
ATOM      1  C   UNL     1      10.894   6.142  -9.525  1.00  0.00     0.000 C 
ENDROOT
BRANCH   1   2
ATOM      2  C   UNL     1      10.647   6.033 -11.037  1.00  0.00     0.006 C 
BRANCH   2   3
ATOM      3  C   UNL     1       9.152   6.005 -11.381  1.00  0.00     0.053 C 
BRANCH   3   4
ATOM      4  C   UNL     1       8.794   7.046 -12.396  1.00  0.00     0.041 C 
ATOM      5  O   UNL     1       9.578   7.298 -13.348  1.00  0.00    -0.550 OA
ATOM      6  O   UNL     1       7.609   7.763 -12.271  1.00  0.00    -0.550 OA
ENDBRANCH   3   4
ENDBRANCH   2   3
ENDBRANCH   1   2
BRANCH   1   7
ATOM      7  C   UNL     1      12.392   6.064  -9.205  1.00  0.00     0.000 C 
BRANCH   7   8
ATOM      8  C   UNL     1      13.229   6.041 -10.492  1.00  0.00    -0.000 C 
BRANCH   8   9
ATOM      9  C   UNL     1      14.041   7.329 -10.693  1.00  0.00    -0.000 C 
BRANCH   9  10
ATOM     10  C   UNL     1      13.732   8.021 -12.030  1.00  0.00    -0.003 C 
ATOM     11  C   UNL     1      12.599   9.032 -11.875  1.00  0.00     0.004 C 
ENDBRANCH   9  10
ENDBRANCH   8   9
ENDBRANCH   7   8
ENDBRANCH   1   7
TORSDOF 7
ENDMDL
MODEL 9
REMARK VINA RESULT:    -4.209      3.388      4.636
REMARK INTER + INTRA:          -6.642
REMARK INTER:                  -6.284
REMARK INTRA:                  -0.358
REMARK UNBOUND:                -0.711
REMARK SMILES CCCCCCCCC(=O)[O-]
REMARK SMILES IDX 6 1 7 2 8 3 9 4 10 5 11 6 5 7 4 8 3 9 2 10 1 11
REMARK H PARENT
REMARK Flexibility Score: inf
ROOT
ATOM      1  C   UNL     1      10.162   6.582 -13.349  1.00  0.00     0.000 C 
ENDROOT
BRANCH   1   2
ATOM      2  C   UNL     1      11.379   7.386 -13.829  1.00  0.00     0.006 C 
BRANCH   2   3
ATOM      3  C   UNL     1      11.692   7.137 -15.310  1.00  0.00     0.053 C 
BRANCH   3   4
ATOM      4  C   UNL     1      12.681   8.127 -15.845  1.00  0.00     0.041 C 
ATOM      5  O   UNL     1      12.544   8.595 -17.006  1.00  0.00    -0.550 OA
ATOM      6  O   UNL     1      13.773   8.507 -15.073  1.00  0.00    -0.550 OA
ENDBRANCH   3   4
ENDBRANCH   2   3
ENDBRANCH   1   2
BRANCH   1   7
ATOM      7  C   UNL     1      10.564   5.566 -12.271  1.00  0.00     0.000 C 
BRANCH   7   8
ATOM      8  C   UNL     1       9.853   5.864 -10.942  1.00  0.00    -0.000 C 
BRANCH   8   9
ATOM      9  C   UNL     1      10.826   6.291  -9.833  1.00  0.00    -0.000 C 
BRANCH   9  10
ATOM     10  C   UNL     1      12.297   6.106 -10.234  1.00  0.00    -0.003 C 
ATOM     11  C   UNL     1      13.154   5.743  -9.024  1.00  0.00     0.004 C 
ENDBRANCH   9  10
ENDBRANCH   8   9
ENDBRANCH   7   8
ENDBRANCH   1   7
TORSDOF 7
ENDMDL
