MODEL 1
REMARK VINA RESULT:    -4.485      0.000      0.000
REMARK INTER + INTRA:          -5.431
REMARK INTER:                  -5.272
REMARK INTRA:                  -0.160
REMARK UNBOUND:                -0.160
REMARK SMILES COc1ccc(C=CC(=O)[O-])cc1
REMARK SMILES IDX 6 1 5 2 12 3 4 4 13 5 3 6 7 7 8 8 9 9 10 10 11 11 2 12 1 13
REMARK H PARENT
REMARK Flexibility Score: inf
ROOT
ATOM      1  C   UNL     1       3.670   7.193 -14.252  1.00  0.00    -0.025 A 
ATOM      2  C   UNL     1       3.763   7.029 -12.856  1.00  0.00     0.012 A 
ATOM      3  C   UNL     1       4.002   6.110 -15.083  1.00  0.00     0.012 A 
ATOM      4  C   UNL     1       4.155   5.803 -12.310  1.00  0.00     0.047 A 
ATOM      5  C   UNL     1       4.392   4.885 -14.536  1.00  0.00     0.047 A 
ATOM      6  C   UNL     1       4.470   4.718 -13.149  1.00  0.00     0.118 A 
ENDROOT
BRANCH   1   7
ATOM      7  C   UNL     1       3.271   8.475 -14.882  1.00  0.00     0.010 C 
ATOM      8  C   UNL     1       2.898   9.561 -14.190  1.00  0.00     0.025 C 
BRANCH   8   9
ATOM      9  C   UNL     1       2.497  10.815 -14.850  1.00  0.00     0.064 C 
ATOM     10  O   UNL     1       1.409  10.902 -15.479  1.00  0.00    -0.545 OA
ATOM     11  O   UNL     1       3.335  11.920 -14.780  1.00  0.00    -0.545 OA
ENDBRANCH   8   9
ENDBRANCH   1   7
BRANCH   6  12
ATOM     12  O   UNL     1       4.865   3.468 -12.650  1.00  0.00    -0.497 OA
ATOM     13  C   UNL     1       4.009   2.334 -12.553  1.00  0.00     0.278 C 
ENDBRANCH   6  12
TORSDOF 3
ENDMDL
MODEL 2
REMARK VINA RESULT:    -4.473      9.712     14.926
REMARK INTER + INTRA:          -5.416
REMARK INTER:                  -5.240
REMARK INTRA:                  -0.176
REMARK UNBOUND:                -0.160
REMARK SMILES COc1ccc(C=CC(=O)[O-])cc1
REMARK SMILES IDX 6 1 5 2 12 3 4 4 13 5 3 6 7 7 8 8 9 9 10 10 11 11 2 12 1 13
REMARK H PARENT
REMARK Flexibility Score: inf
ROOT
ATOM      1  C   UNL     1       7.173  -3.744  -6.427  1.00  0.00    -0.025 A 
ATOM      2  C   UNL     1       6.724  -2.612  -5.718  1.00  0.00     0.012 A 
ATOM      3  C   UNL     1       7.169  -3.706  -7.831  1.00  0.00     0.012 A 
ATOM      4  C   UNL     1       6.307  -1.466  -6.401  1.00  0.00     0.047 A 
ATOM      5  C   UNL     1       6.753  -2.559  -8.512  1.00  0.00     0.047 A 
ATOM      6  C   UNL     1       6.321  -1.431  -7.808  1.00  0.00     0.118 A 
ENDROOT
BRANCH   1   7
ATOM      7  C   UNL     1       7.614  -4.988  -5.751  1.00  0.00     0.010 C 
ATOM      8  C   UNL     1       8.175  -6.025  -6.390  1.00  0.00     0.025 C 
BRANCH   8   9
ATOM      9  C   UNL     1       8.590  -7.251  -5.687  1.00  0.00     0.064 C 
ATOM     10  O   UNL     1       7.857  -7.781  -4.811  1.00  0.00    -0.545 OA
ATOM     11  O   UNL     1       9.814  -7.832  -5.995  1.00  0.00    -0.545 OA
ENDBRANCH   8   9
ENDBRANCH   1   7
BRANCH   6  12
ATOM     12  O   UNL     1       5.916  -0.304  -8.538  1.00  0.00    -0.497 OA
ATOM     13  C   UNL     1       4.885   0.590  -8.130  1.00  0.00     0.278 C 
ENDBRANCH   6  12
TORSDOF 3
ENDMDL
MODEL 3
REMARK VINA RESULT:    -4.459      0.195      1.356
REMARK INTER + INTRA:          -5.401
REMARK INTER:                  -5.229
REMARK INTRA:                  -0.172
REMARK UNBOUND:                -0.160
REMARK SMILES COc1ccc(C=CC(=O)[O-])cc1
REMARK SMILES IDX 6 1 5 2 12 3 4 4 13 5 3 6 7 7 8 8 9 9 10 10 11 11 2 12 1 13
REMARK H PARENT
REMARK Flexibility Score: inf
ROOT
ATOM      1  C   UNL     1       3.681   7.247 -14.398  1.00  0.00    -0.025 A 
ATOM      2  C   UNL     1       3.998   6.128 -15.194  1.00  0.00     0.012 A 
ATOM      3  C   UNL     1       3.716   7.114 -13.000  1.00  0.00     0.012 A 
ATOM      4  C   UNL     1       4.366   4.917 -14.600  1.00  0.00     0.047 A 
ATOM      5  C   UNL     1       4.085   5.903 -12.409  1.00  0.00     0.047 A 
ATOM      6  C   UNL     1       4.415   4.796 -13.199  1.00  0.00     0.118 A 
ENDROOT
BRANCH   1   7
ATOM      7  C   UNL     1       3.273   8.550 -14.977  1.00  0.00     0.010 C 
ATOM      8  C   UNL     1       2.980   9.633 -14.243  1.00  0.00     0.025 C 
BRANCH   8   9
ATOM      9  C   UNL     1       2.567  10.908 -14.853  1.00  0.00     0.064 C 
ATOM     10  O   UNL     1       1.550  10.978 -15.594  1.00  0.00    -0.545 OA
ATOM     11  O   UNL     1       3.313  12.054 -14.609  1.00  0.00    -0.545 OA
ENDBRANCH   8   9
ENDBRANCH   1   7
BRANCH   6  12
ATOM     12  O   UNL     1       4.780   3.604 -12.557  1.00  0.00    -0.497 OA
ATOM     13  C   UNL     1       3.865   2.581 -12.180  1.00  0.00     0.278 C 
ENDBRANCH   6  12
TORSDOF 3
ENDMDL
MODEL 4
REMARK VINA RESULT:    -4.433      1.393      6.425
REMARK INTER + INTRA:          -5.370
REMARK INTER:                  -5.213
REMARK INTRA:                  -0.157
REMARK UNBOUND:                -0.160
REMARK SMILES COc1ccc(C=CC(=O)[O-])cc1
REMARK SMILES IDX 6 1 5 2 12 3 4 4 13 5 3 6 7 7 8 8 9 9 10 10 11 11 2 12 1 13
REMARK H PARENT
REMARK Flexibility Score: inf
ROOT
ATOM      1  C   UNL     1       4.200   5.548 -13.392  1.00  0.00    -0.025 A 
ATOM      2  C   UNL     1       3.858   6.588 -12.505  1.00  0.00     0.012 A 
ATOM      3  C   UNL     1       4.142   5.792 -14.774  1.00  0.00     0.012 A 
ATOM      4  C   UNL     1       3.490   7.845 -12.993  1.00  0.00     0.047 A 
ATOM      5  C   UNL     1       3.776   7.050 -15.260  1.00  0.00     0.047 A 
ATOM      6  C   UNL     1       3.450   8.087 -14.379  1.00  0.00     0.118 A 
ENDROOT
BRANCH   1   7
ATOM      7  C   UNL     1       4.585   4.193 -12.926  1.00  0.00     0.010 C 
ATOM      8  C   UNL     1       3.713   3.296 -12.444  1.00  0.00     0.025 C 
BRANCH   8   9
ATOM      9  C   UNL     1       4.133   1.963 -11.978  1.00  0.00     0.064 C 
ATOM     10  O   UNL     1       4.060   1.644 -10.762  1.00  0.00    -0.545 OA
ATOM     11  O   UNL     1       4.621   1.043 -12.897  1.00  0.00    -0.545 OA
ENDBRANCH   8   9
ENDBRANCH   1   7
BRANCH   6  12
ATOM     12  O   UNL     1       3.091   9.331 -14.918  1.00  0.00    -0.497 OA
ATOM     13  C   UNL     1       2.788  10.486 -14.141  1.00  0.00     0.278 C 
ENDBRANCH   6  12
TORSDOF 3
ENDMDL
MODEL 5
REMARK VINA RESULT:    -4.373      9.823     13.288
REMARK INTER + INTRA:          -5.300
REMARK INTER:                  -5.126
REMARK INTRA:                  -0.174
REMARK UNBOUND:                -0.160
REMARK SMILES COc1ccc(C=CC(=O)[O-])cc1
REMARK SMILES IDX 6 1 5 2 12 3 4 4 13 5 3 6 7 7 8 8 9 9 10 10 11 11 2 12 1 13
REMARK H PARENT
REMARK Flexibility Score: inf
ROOT
ATOM      1  C   UNL     1       7.151  -3.614  -7.075  1.00  0.00    -0.025 A 
ATOM      2  C   UNL     1       7.467  -4.201  -5.834  1.00  0.00     0.012 A 
ATOM      3  C   UNL     1       7.437  -4.325  -8.251  1.00  0.00     0.012 A 
ATOM      4  C   UNL     1       8.032  -5.479  -5.777  1.00  0.00     0.047 A 
ATOM      5  C   UNL     1       8.000  -5.602  -8.192  1.00  0.00     0.047 A 
ATOM      6  C   UNL     1       8.300  -6.192  -6.960  1.00  0.00     0.118 A 
ENDROOT
BRANCH   1   7
ATOM      7  C   UNL     1       6.562  -2.257  -7.190  1.00  0.00     0.010 C 
ATOM      8  C   UNL     1       6.295  -1.657  -8.360  1.00  0.00     0.025 C 
BRANCH   8   9
ATOM      9  C   UNL     1       5.721  -0.303  -8.436  1.00  0.00     0.064 C 
ATOM     10  O   UNL     1       5.980   0.566  -7.562  1.00  0.00    -0.545 OA
ATOM     11  O   UNL     1       4.875   0.020  -9.489  1.00  0.00    -0.545 OA
ENDBRANCH   8   9
ENDBRANCH   1   7
BRANCH   6  12
ATOM     12  O   UNL     1       8.863  -7.476  -6.955  1.00  0.00    -0.497 OA
ATOM     13  C   UNL     1      10.206  -7.764  -6.577  1.00  0.00     0.278 C 
ENDBRANCH   6  12
TORSDOF 3
ENDMDL
MODEL 6
REMARK VINA RESULT:    -4.262      8.826     12.089
REMARK INTER + INTRA:          -5.169
REMARK INTER:                  -5.004
REMARK INTRA:                  -0.165
REMARK UNBOUND:                -0.160
REMARK SMILES COc1ccc(C=CC(=O)[O-])cc1
REMARK SMILES IDX 6 1 5 2 12 3 4 4 13 5 3 6 7 7 8 8 9 9 10 10 11 11 2 12 1 13
REMARK H PARENT
REMARK Flexibility Score: inf
ROOT
ATOM      1  C   UNL     1       6.715  -2.345  -7.693  1.00  0.00    -0.025 A 
ATOM      2  C   UNL     1       7.094  -3.444  -8.488  1.00  0.00     0.012 A 
ATOM      3  C   UNL     1       6.752  -2.477  -6.295  1.00  0.00     0.012 A 
ATOM      4  C   UNL     1       7.522  -4.635  -7.894  1.00  0.00     0.047 A 
ATOM      5  C   UNL     1       7.182  -3.667  -5.703  1.00  0.00     0.047 A 
ATOM      6  C   UNL     1       7.572  -4.754  -6.493  1.00  0.00     0.118 A 
ENDROOT
BRANCH   1   7
ATOM      7  C   UNL     1       6.241  -1.064  -8.273  1.00  0.00     0.010 C 
ATOM      8  C   UNL     1       5.042  -0.524  -8.009  1.00  0.00     0.025 C 
BRANCH   8   9
ATOM      9  C   UNL     1       4.601   0.744  -8.614  1.00  0.00     0.064 C 
ATOM     10  O   UNL     1       4.342   0.826  -9.844  1.00  0.00    -0.545 OA
ATOM     11  O   UNL     1       4.471   1.871  -7.813  1.00  0.00    -0.545 OA
ENDBRANCH   8   9
ENDBRANCH   1   7
BRANCH   6  12
ATOM     12  O   UNL     1       7.997  -5.926  -5.851  1.00  0.00    -0.497 OA
ATOM     13  C   UNL     1       8.874  -6.888  -6.429  1.00  0.00     0.278 C 
ENDBRANCH   6  12
TORSDOF 3
ENDMDL
MODEL 7
REMARK VINA RESULT:    -4.183      3.433      4.229
REMARK INTER + INTRA:          -5.076
REMARK INTER:                  -4.905
REMARK INTRA:                  -0.171
REMARK UNBOUND:                -0.160
REMARK SMILES COc1ccc(C=CC(=O)[O-])cc1
REMARK SMILES IDX 6 1 5 2 12 3 4 4 13 5 3 6 7 7 8 8 9 9 10 10 11 11 2 12 1 13
REMARK H PARENT
REMARK Flexibility Score: inf
ROOT
ATOM      1  C   UNL     1       3.652   7.628 -11.372  1.00  0.00    -0.025 A 
ATOM      2  C   UNL     1       4.231   6.357 -11.183  1.00  0.00     0.012 A 
ATOM      3  C   UNL     1       3.335   8.039 -12.677  1.00  0.00     0.012 A 
ATOM      4  C   UNL     1       4.462   5.513 -12.274  1.00  0.00     0.047 A 
ATOM      5  C   UNL     1       3.566   7.194 -13.766  1.00  0.00     0.047 A 
ATOM      6  C   UNL     1       4.127   5.926 -13.577  1.00  0.00     0.118 A 
ENDROOT
BRANCH   1   7
ATOM      7  C   UNL     1       3.397   8.565 -10.251  1.00  0.00     0.010 C 
ATOM      8  C   UNL     1       4.084   9.700 -10.057  1.00  0.00     0.025 C 
BRANCH   8   9
ATOM      9  C   UNL     1       3.811  10.601  -8.924  1.00  0.00     0.064 C 
ATOM     10  O   UNL     1       3.141  10.215  -7.930  1.00  0.00    -0.545 OA
ATOM     11  O   UNL     1       4.300  11.900  -8.954  1.00  0.00    -0.545 OA
ENDBRANCH   8   9
ENDBRANCH   1   7
BRANCH   6  12
ATOM     12  O   UNL     1       4.337   5.116 -14.702  1.00  0.00    -0.497 OA
ATOM     13  C   UNL     1       4.179   5.552 -16.048  1.00  0.00     0.278 C 
ENDBRANCH   6  12
TORSDOF 3
ENDMDL
MODEL 8
REMARK VINA RESULT:    -4.113     11.652     13.938
REMARK INTER + INTRA:          -4.993
REMARK INTER:                  -4.834
REMARK INTRA:                  -0.160
REMARK UNBOUND:                -0.160
REMARK SMILES COc1ccc(C=CC(=O)[O-])cc1
REMARK SMILES IDX 6 1 5 2 12 3 4 4 13 5 3 6 7 7 8 8 9 9 10 10 11 11 2 12 1 13
REMARK H PARENT
REMARK Flexibility Score: inf
ROOT
ATOM      1  C   UNL     1       7.615  -4.088  -9.598  1.00  0.00    -0.025 A 
ATOM      2  C   UNL     1       7.551  -4.608  -8.290  1.00  0.00     0.012 A 
ATOM      3  C   UNL     1       7.197  -2.765  -9.820  1.00  0.00     0.012 A 
ATOM      4  C   UNL     1       7.104  -3.812  -7.231  1.00  0.00     0.047 A 
ATOM      5  C   UNL     1       6.752  -1.971  -8.760  1.00  0.00     0.047 A 
ATOM      6  C   UNL     1       6.702  -2.483  -7.459  1.00  0.00     0.118 A 
ENDROOT
BRANCH   1   7
ATOM      7  C   UNL     1       8.070  -4.893 -10.757  1.00  0.00     0.010 C 
ATOM      8  C   UNL     1       9.291  -5.439 -10.853  1.00  0.00     0.025 C 
BRANCH   8   9
ATOM      9  C   UNL     1       9.713  -6.223 -12.026  1.00  0.00     0.064 C 
ATOM     10  O   UNL     1       8.979  -6.317 -13.045  1.00  0.00    -0.545 OA
ATOM     11  O   UNL     1      10.941  -6.871 -12.006  1.00  0.00    -0.545 OA
ENDBRANCH   8   9
ENDBRANCH   1   7
BRANCH   6  12
ATOM     12  O   UNL     1       6.249  -1.645  -6.430  1.00  0.00    -0.497 OA
ATOM     13  C   UNL     1       6.450  -1.895  -5.042  1.00  0.00     0.278 C 
ENDBRANCH   6  12
TORSDOF 3
ENDMDL
MODEL 9
REMARK VINA RESULT:    -4.017      1.152      6.209
REMARK INTER + INTRA:          -4.881
REMARK INTER:                  -4.708
REMARK INTRA:                  -0.173
REMARK UNBOUND:                -0.160
REMARK SMILES COc1ccc(C=CC(=O)[O-])cc1
REMARK SMILES IDX 6 1 5 2 12 3 4 4 13 5 3 6 7 7 8 8 9 9 10 10 11 11 2 12 1 13
REMARK H PARENT
REMARK Flexibility Score: inf
ROOT
ATOM      1  C   UNL     1       3.494   7.841 -13.184  1.00  0.00    -0.025 A 
ATOM      2  C   UNL     1       3.147   8.991 -12.447  1.00  0.00     0.012 A 
ATOM      3  C   UNL     1       3.447   7.898 -14.586  1.00  0.00     0.012 A 
ATOM      4  C   UNL     1       2.786  10.172 -13.103  1.00  0.00     0.047 A 
ATOM      5  C   UNL     1       3.088   9.079 -15.240  1.00  0.00     0.047 A 
ATOM      6  C   UNL     1       2.757  10.225 -14.509  1.00  0.00     0.118 A 
ENDROOT
BRANCH   1   7
ATOM      7  C   UNL     1       3.872   6.561 -12.536  1.00  0.00     0.010 C 
ATOM      8  C   UNL     1       3.904   5.383 -13.176  1.00  0.00     0.025 C 
BRANCH   8   9
ATOM      9  C   UNL     1       4.273   4.129 -12.498  1.00  0.00     0.064 C 
ATOM     10  O   UNL     1       3.698   3.768 -11.437  1.00  0.00    -0.545 OA
ATOM     11  O   UNL     1       5.275   3.332 -13.036  1.00  0.00    -0.545 OA
ENDBRANCH   8   9
ENDBRANCH   1   7
BRANCH   6  12
ATOM     12  O   UNL     1       2.405  11.386 -15.212  1.00  0.00    -0.497 OA
ATOM     13  C   UNL     1       1.206  11.537 -15.966  1.00  0.00     0.278 C 
ENDBRANCH   6  12
TORSDOF 3
ENDMDL
