MODEL 1
REMARK VINA RESULT:    -6.992      0.000      0.000
REMARK INTER + INTRA:          -7.912
REMARK INTER:                  -7.809
REMARK INTRA:                  -0.103
REMARK UNBOUND:                -0.103
REMARK SMILES CC1(C)CC[C@]2(CO)CC=C3[C@](C)(CC[C@H]4[C@@]5(C)CC[C@H](O)C(C)(C)[C@@H]5CC[C@@]34C)[C@H]2C1
REMARK SMILES IDX 1 1 2 2 4 3 5 4 6 5 9 6 10 7 11 8 29 9 28 10 27 11 26 12
REMARK SMILES IDX 23 13 21 14 20 15 19 16 17 17 16 18 15 19 14 20 12 21 31 22
REMARK SMILES IDX 32 23 13 24 18 25 24 26 25 27 30 28 3 29 7 30 8 31 22 33
REMARK H PARENT 8 32 22 34
REMARK Flexibility Score: inf
ROOT
ATOM      1  C   UNL     1     111.867 117.370 131.125  1.00  0.00     0.011 C 
ATOM      2  C   UNL     1     112.655 116.817 129.916  1.00  0.00    -0.035 C 
ATOM      3  C   UNL     1     111.639 116.362 128.837  1.00  0.00     0.007 C 
ATOM      4  C   UNL     1     112.303 116.016 127.495  1.00  0.00     0.010 C 
ATOM      5  C   UNL     1     113.156 117.185 126.912  1.00  0.00     0.001 C 
ATOM      6  C   UNL     1     113.922 116.628 125.694  1.00  0.00     0.037 C 
ATOM      7  C   UNL     1     115.043 117.514 125.230  1.00  0.00    -0.026 C 
ATOM      8  C   UNL     1     115.729 118.391 126.017  1.00  0.00    -0.062 C 
ATOM      9  C   UNL     1     116.993 119.099 125.429  1.00  0.00    -0.008 C 
ATOM     10  C   UNL     1     117.983 118.003 124.931  1.00  0.00     0.012 C 
ATOM     11  C   UNL     1     119.346 118.529 124.460  1.00  0.00     0.006 C 
ATOM     12  C   UNL     1     120.063 119.336 125.568  1.00  0.00     0.003 C 
ATOM     13  C   UNL     1     121.590 119.654 125.281  1.00  0.00    -0.006 C 
ATOM     14  C   UNL     1     122.201 120.381 126.522  1.00  0.00     0.120 C 
ATOM     15  C   UNL     1     121.387 121.606 126.965  1.00  0.00     0.033 C 
ATOM     16  C   UNL     1     119.924 121.235 127.258  1.00  0.00     0.010 C 
ATOM     17  C   UNL     1     119.185 120.549 126.056  1.00  0.00    -0.025 C 
ATOM     18  C   UNL     1     117.741 120.007 126.506  1.00  0.00     0.005 C 
ATOM     19  C   UNL     1     117.770 119.347 127.923  1.00  0.00     0.006 C 
ATOM     20  C   UNL     1     116.584 118.450 128.306  1.00  0.00     0.012 C 
ATOM     21  C   UNL     1     115.296 118.654 127.471  1.00  0.00    -0.008 C 
ATOM     22  C   UNL     1     114.218 117.603 127.981  1.00  0.00     0.008 C 
ATOM     23  C   UNL     1     113.563 117.948 129.357  1.00  0.00     0.011 C 
ATOM     24  C   UNL     1     114.772 120.118 127.630  1.00  0.00     0.016 C 
ATOM     25  C   UNL     1     118.995 121.653 124.956  1.00  0.00     0.012 C 
ATOM     26  C   UNL     1     121.817 120.483 123.990  1.00  0.00     0.014 C 
ATOM     27  C   UNL     1     122.374 118.322 125.104  1.00  0.00     0.014 C 
ATOM     28  C   UNL     1     116.488 119.960 124.230  1.00  0.00     0.016 C 
ATOM     29  C   UNL     1     113.501 115.621 130.418  1.00  0.00     0.011 C 
ENDROOT
BRANCH   5  30
ATOM     30  C   UNL     1     112.186 118.325 126.458  1.00  0.00     0.163 C 
BRANCH  30  31
ATOM     31  O   UNL     1     111.614 118.070 125.203  1.00  0.00    -0.396 OA
ATOM     32  H   UNL     1     110.744 117.627 125.378  1.00  0.00     0.210 HD
ENDBRANCH  30  31
ENDBRANCH   5  30
BRANCH  14  33
ATOM     33  O   UNL     1     123.526 120.776 126.258  1.00  0.00    -0.393 OA
ATOM     34  H   UNL     1     123.960 120.030 125.767  1.00  0.00     0.210 HD
ENDBRANCH  14  33
TORSDOF 3
ENDMDL
MODEL 2
REMARK VINA RESULT:    -6.745      3.717      5.908
REMARK INTER + INTRA:          -7.637
REMARK INTER:                  -7.939
REMARK INTRA:                   0.302
REMARK UNBOUND:                -0.103
REMARK SMILES CC1(C)CC[C@]2(CO)CC=C3[C@](C)(CC[C@H]4[C@@]5(C)CC[C@H](O)C(C)(C)[C@@H]5CC[C@@]34C)[C@H]2C1
REMARK SMILES IDX 1 1 2 2 4 3 5 4 6 5 9 6 10 7 11 8 29 9 28 10 27 11 26 12
REMARK SMILES IDX 23 13 21 14 20 15 19 16 17 17 16 18 15 19 14 20 12 21 31 22
REMARK SMILES IDX 32 23 13 24 18 25 24 26 25 27 30 28 3 29 7 30 8 31 22 33
REMARK H PARENT 8 32 22 34
REMARK Flexibility Score: inf
ROOT
ATOM      1  C   UNL     1     117.864 112.057 124.149  1.00  0.00     0.011 C 
ATOM      2  C   UNL     1     117.002 113.145 123.470  1.00  0.00    -0.035 C 
ATOM      3  C   UNL     1     115.686 112.490 122.978  1.00  0.00     0.007 C 
ATOM      4  C   UNL     1     114.645 113.515 122.501  1.00  0.00     0.010 C 
ATOM      5  C   UNL     1     114.294 114.582 123.583  1.00  0.00     0.001 C 
ATOM      6  C   UNL     1     113.415 115.652 122.902  1.00  0.00     0.037 C 
ATOM      7  C   UNL     1     113.278 116.917 123.700  1.00  0.00    -0.026 C 
ATOM      8  C   UNL     1     114.188 117.380 124.604  1.00  0.00    -0.062 C 
ATOM      9  C   UNL     1     113.989 118.807 125.209  1.00  0.00    -0.008 C 
ATOM     10  C   UNL     1     113.895 119.830 124.036  1.00  0.00     0.012 C 
ATOM     11  C   UNL     1     113.849 121.303 124.465  1.00  0.00     0.006 C 
ATOM     12  C   UNL     1     115.077 121.689 125.323  1.00  0.00     0.003 C 
ATOM     13  C   UNL     1     115.270 123.246 125.551  1.00  0.00    -0.006 C 
ATOM     14  C   UNL     1     116.594 123.485 126.344  1.00  0.00     0.120 C 
ATOM     15  C   UNL     1     116.684 122.655 127.634  1.00  0.00     0.033 C 
ATOM     16  C   UNL     1     116.521 121.154 127.350  1.00  0.00     0.010 C 
ATOM     17  C   UNL     1     115.189 120.783 126.607  1.00  0.00    -0.025 C 
ATOM     18  C   UNL     1     115.191 119.239 126.164  1.00  0.00     0.005 C 
ATOM     19  C   UNL     1     116.581 118.781 125.615  1.00  0.00     0.006 C 
ATOM     20  C   UNL     1     116.622 117.479 124.802  1.00  0.00     0.012 C 
ATOM     21  C   UNL     1     115.413 116.532 124.997  1.00  0.00    -0.008 C 
ATOM     22  C   UNL     1     115.617 115.282 124.036  1.00  0.00     0.008 C 
ATOM     23  C   UNL     1     116.692 114.254 124.515  1.00  0.00     0.011 C 
ATOM     24  C   UNL     1     115.310 116.081 126.491  1.00  0.00     0.016 C 
ATOM     25  C   UNL     1     114.022 121.019 127.630  1.00  0.00     0.012 C 
ATOM     26  C   UNL     1     114.069 123.919 126.268  1.00  0.00     0.014 C 
ATOM     27  C   UNL     1     115.429 123.958 124.177  1.00  0.00     0.014 C 
ATOM     28  C   UNL     1     112.643 118.759 125.997  1.00  0.00     0.016 C 
ATOM     29  C   UNL     1     117.816 113.711 122.282  1.00  0.00     0.011 C 
ENDROOT
BRANCH   5  30
ATOM     30  C   UNL     1     113.489 113.880 124.727  1.00  0.00     0.163 C 
BRANCH  30  31
ATOM     31  O   UNL     1     113.147 112.559 124.404  1.00  0.00    -0.396 OA
ATOM     32  H   UNL     1     113.673 112.323 123.597  1.00  0.00     0.210 HD
ENDBRANCH  30  31
ENDBRANCH   5  30
BRANCH  14  33
ATOM     33  O   UNL     1     116.740 124.849 126.660  1.00  0.00    -0.393 OA
ATOM     34  H   UNL     1     117.077 125.303 125.844  1.00  0.00     0.210 HD
ENDBRANCH  14  33
TORSDOF 3
ENDMDL
MODEL 3
REMARK VINA RESULT:    -6.692      1.964      8.328
REMARK INTER + INTRA:          -7.578
REMARK INTER:                  -7.474
REMARK INTRA:                  -0.104
REMARK UNBOUND:                -0.103
REMARK SMILES CC1(C)CC[C@]2(CO)CC=C3[C@](C)(CC[C@H]4[C@@]5(C)CC[C@H](O)C(C)(C)[C@@H]5CC[C@@]34C)[C@H]2C1
REMARK SMILES IDX 1 1 2 2 4 3 5 4 6 5 9 6 10 7 11 8 29 9 28 10 27 11 26 12
REMARK SMILES IDX 23 13 21 14 20 15 19 16 17 17 16 18 15 19 14 20 12 21 31 22
REMARK SMILES IDX 32 23 13 24 18 25 24 26 25 27 30 28 3 29 7 30 8 31 22 33
REMARK H PARENT 8 32 22 34
REMARK Flexibility Score: inf
ROOT
ATOM      1  C   UNL     1     120.101 117.915 119.733  1.00  0.00     0.011 C 
ATOM      2  C   UNL     1     120.224 117.594 121.239  1.00  0.00    -0.035 C 
ATOM      3  C   UNL     1     121.524 118.249 121.774  1.00  0.00     0.007 C 
ATOM      4  C   UNL     1     121.634 118.203 123.306  1.00  0.00     0.010 C 
ATOM      5  C   UNL     1     120.415 118.854 124.029  1.00  0.00     0.001 C 
ATOM      6  C   UNL     1     120.559 118.547 125.535  1.00  0.00     0.037 C 
ATOM      7  C   UNL     1     119.306 118.798 126.324  1.00  0.00    -0.026 C 
ATOM      8  C   UNL     1     118.038 118.751 125.824  1.00  0.00    -0.062 C 
ATOM      9  C   UNL     1     116.834 118.847 126.816  1.00  0.00    -0.008 C 
ATOM     10  C   UNL     1     116.986 117.722 127.884  1.00  0.00     0.012 C 
ATOM     11  C   UNL     1     115.801 117.582 128.849  1.00  0.00     0.006 C 
ATOM     12  C   UNL     1     114.474 117.332 128.094  1.00  0.00     0.003 C 
ATOM     13  C   UNL     1     113.261 116.875 129.008  1.00  0.00    -0.006 C 
ATOM     14  C   UNL     1     112.026 116.568 128.101  1.00  0.00     0.120 C 
ATOM     15  C   UNL     1     111.680 117.717 127.143  1.00  0.00     0.033 C 
ATOM     16  C   UNL     1     112.880 118.098 126.262  1.00  0.00     0.010 C 
ATOM     17  C   UNL     1     114.168 118.489 127.069  1.00  0.00    -0.025 C 
ATOM     18  C   UNL     1     115.426 118.668 126.087  1.00  0.00     0.005 C 
ATOM     19  C   UNL     1     115.469 117.574 124.971  1.00  0.00     0.006 C 
ATOM     20  C   UNL     1     116.797 117.383 124.224  1.00  0.00     0.012 C 
ATOM     21  C   UNL     1     117.791 118.567 124.315  1.00  0.00    -0.008 C 
ATOM     22  C   UNL     1     119.110 118.151 123.531  1.00  0.00     0.008 C 
ATOM     23  C   UNL     1     118.985 118.179 121.974  1.00  0.00     0.011 C 
ATOM     24  C   UNL     1     117.156 119.858 123.703  1.00  0.00     0.016 C 
ATOM     25  C   UNL     1     113.864 119.863 127.765  1.00  0.00     0.012 C 
ATOM     26  C   UNL     1     112.893 117.906 130.109  1.00  0.00     0.014 C 
ATOM     27  C   UNL     1     113.629 115.552 129.738  1.00  0.00     0.014 C 
ATOM     28  C   UNL     1     116.938 120.251 127.487  1.00  0.00     0.016 C 
ATOM     29  C   UNL     1     120.282 116.054 121.385  1.00  0.00     0.011 C 
ENDROOT
BRANCH   5  30
ATOM     30  C   UNL     1     120.468 120.400 123.793  1.00  0.00     0.163 C 
BRANCH  30  31
ATOM     31  O   UNL     1     121.740 120.934 124.045  1.00  0.00    -0.396 OA
ATOM     32  H   UNL     1     122.374 120.172 124.018  1.00  0.00     0.210 HD
ENDBRANCH  30  31
ENDBRANCH   5  30
BRANCH  14  33
ATOM     33  O   UNL     1     110.900 116.266 128.889  1.00  0.00    -0.393 OA
ATOM     34  H   UNL     1     110.323 117.074 128.895  1.00  0.00     0.210 HD
ENDBRANCH  14  33
TORSDOF 3
ENDMDL
MODEL 4
REMARK VINA RESULT:    -6.574      3.620      6.084
REMARK INTER + INTRA:          -7.446
REMARK INTER:                  -7.369
REMARK INTRA:                  -0.076
REMARK UNBOUND:                -0.103
REMARK SMILES CC1(C)CC[C@]2(CO)CC=C3[C@](C)(CC[C@H]4[C@@]5(C)CC[C@H](O)C(C)(C)[C@@H]5CC[C@@]34C)[C@H]2C1
REMARK SMILES IDX 1 1 2 2 4 3 5 4 6 5 9 6 10 7 11 8 29 9 28 10 27 11 26 12
REMARK SMILES IDX 23 13 21 14 20 15 19 16 17 17 16 18 15 19 14 20 12 21 31 22
REMARK SMILES IDX 32 23 13 24 18 25 24 26 25 27 30 28 3 29 7 30 8 31 22 33
REMARK H PARENT 8 32 22 34
REMARK Flexibility Score: inf
ROOT
ATOM      1  C   UNL     1     114.196 124.298 126.202  1.00  0.00     0.011 C 
ATOM      2  C   UNL     1     115.541 123.569 126.419  1.00  0.00    -0.035 C 
ATOM      3  C   UNL     1     115.582 123.044 127.877  1.00  0.00     0.007 C 
ATOM      4  C   UNL     1     116.763 122.096 128.142  1.00  0.00     0.010 C 
ATOM      5  C   UNL     1     116.800 120.875 127.172  1.00  0.00     0.001 C 
ATOM      6  C   UNL     1     118.136 120.141 127.412  1.00  0.00     0.037 C 
ATOM      7  C   UNL     1     118.485 119.156 126.333  1.00  0.00    -0.026 C 
ATOM      8  C   UNL     1     118.069 119.229 125.037  1.00  0.00    -0.062 C 
ATOM      9  C   UNL     1     118.674 118.234 123.994  1.00  0.00    -0.008 C 
ATOM     10  C   UNL     1     120.226 118.377 124.023  1.00  0.00     0.012 C 
ATOM     11  C   UNL     1     120.970 117.573 122.947  1.00  0.00     0.006 C 
ATOM     12  C   UNL     1     120.494 117.945 121.523  1.00  0.00     0.003 C 
ATOM     13  C   UNL     1     121.407 117.397 120.349  1.00  0.00    -0.006 C 
ATOM     14  C   UNL     1     120.861 117.931 118.986  1.00  0.00     0.120 C 
ATOM     15  C   UNL     1     119.364 117.654 118.785  1.00  0.00     0.033 C 
ATOM     16  C   UNL     1     118.524 118.232 119.935  1.00  0.00     0.010 C 
ATOM     17  C   UNL     1     118.944 117.716 121.356  1.00  0.00    -0.025 C 
ATOM     18  C   UNL     1     118.166 118.519 122.510  1.00  0.00     0.005 C 
ATOM     19  C   UNL     1     118.060 120.048 122.201  1.00  0.00     0.006 C 
ATOM     20  C   UNL     1     117.707 120.979 123.369  1.00  0.00     0.012 C 
ATOM     21  C   UNL     1     117.049 120.295 124.593  1.00  0.00    -0.008 C 
ATOM     22  C   UNL     1     116.817 121.409 125.702  1.00  0.00     0.008 C 
ATOM     23  C   UNL     1     115.628 122.383 125.417  1.00  0.00     0.011 C 
ATOM     24  C   UNL     1     115.699 119.623 124.180  1.00  0.00     0.016 C 
ATOM     25  C   UNL     1     118.535 116.202 121.424  1.00  0.00     0.012 C 
ATOM     26  C   UNL     1     121.525 115.849 120.326  1.00  0.00     0.014 C 
ATOM     27  C   UNL     1     122.851 117.954 120.509  1.00  0.00     0.014 C 
ATOM     28  C   UNL     1     118.251 116.807 124.463  1.00  0.00     0.016 C 
ATOM     29  C   UNL     1     116.673 124.594 126.169  1.00  0.00     0.011 C 
ENDROOT
BRANCH   5  30
ATOM     30  C   UNL     1     115.602 119.931 127.521  1.00  0.00     0.163 C 
BRANCH  30  31
ATOM     31  O   UNL     1     115.922 119.016 128.535  1.00  0.00    -0.396 OA
ATOM     32  H   UNL     1     115.353 118.218 128.382  1.00  0.00     0.210 HD
ENDBRANCH  30  31
ENDBRANCH   5  30
BRANCH  14  33
ATOM     33  O   UNL     1     121.584 117.374 117.914  1.00  0.00    -0.393 OA
ATOM     34  H   UNL     1     120.950 117.274 117.156  1.00  0.00     0.210 HD
ENDBRANCH  14  33
TORSDOF 3
ENDMDL
MODEL 5
REMARK VINA RESULT:    -6.546      3.600      5.678
REMARK INTER + INTRA:          -7.415
REMARK INTER:                  -7.308
REMARK INTRA:                  -0.107
REMARK UNBOUND:                -0.103
REMARK SMILES CC1(C)CC[C@]2(CO)CC=C3[C@](C)(CC[C@H]4[C@@]5(C)CC[C@H](O)C(C)(C)[C@@H]5CC[C@@]34C)[C@H]2C1
REMARK SMILES IDX 1 1 2 2 4 3 5 4 6 5 9 6 10 7 11 8 29 9 28 10 27 11 26 12
REMARK SMILES IDX 23 13 21 14 20 15 19 16 17 17 16 18 15 19 14 20 12 21 31 22
REMARK SMILES IDX 32 23 13 24 18 25 24 26 25 27 30 28 3 29 7 30 8 31 22 33
REMARK H PARENT 8 32 22 34
REMARK Flexibility Score: inf
ROOT
ATOM      1  C   UNL     1     112.131 117.071 122.491  1.00  0.00     0.011 C 
ATOM      2  C   UNL     1     112.005 117.997 123.721  1.00  0.00    -0.035 C 
ATOM      3  C   UNL     1     111.640 117.128 124.952  1.00  0.00     0.007 C 
ATOM      4  C   UNL     1     111.723 117.899 126.279  1.00  0.00     0.010 C 
ATOM      5  C   UNL     1     113.119 118.548 126.526  1.00  0.00     0.001 C 
ATOM      6  C   UNL     1     112.989 119.453 127.769  1.00  0.00     0.037 C 
ATOM      7  C   UNL     1     114.133 120.412 127.939  1.00  0.00    -0.026 C 
ATOM      8  C   UNL     1     114.912 120.894 126.929  1.00  0.00    -0.062 C 
ATOM      9  C   UNL     1     115.937 122.031 127.247  1.00  0.00    -0.008 C 
ATOM     10  C   UNL     1     115.165 123.224 127.886  1.00  0.00     0.012 C 
ATOM     11  C   UNL     1     116.005 124.487 128.121  1.00  0.00     0.006 C 
ATOM     12  C   UNL     1     116.651 124.997 126.811  1.00  0.00     0.003 C 
ATOM     13  C   UNL     1     117.278 126.451 126.897  1.00  0.00    -0.006 C 
ATOM     14  C   UNL     1     117.799 126.867 125.484  1.00  0.00     0.120 C 
ATOM     15  C   UNL     1     118.737 125.825 124.856  1.00  0.00     0.033 C 
ATOM     16  C   UNL     1     118.069 124.444 124.770  1.00  0.00     0.010 C 
ATOM     17  C   UNL     1     117.557 123.893 126.147  1.00  0.00    -0.025 C 
ATOM     18  C   UNL     1     116.692 122.555 125.943  1.00  0.00     0.005 C 
ATOM     19  C   UNL     1     115.745 122.644 124.703  1.00  0.00     0.006 C 
ATOM     20  C   UNL     1     114.597 121.627 124.619  1.00  0.00     0.012 C 
ATOM     21  C   UNL     1     114.764 120.359 125.492  1.00  0.00    -0.008 C 
ATOM     22  C   UNL     1     113.459 119.470 125.309  1.00  0.00     0.008 C 
ATOM     23  C   UNL     1     113.370 118.706 123.949  1.00  0.00     0.011 C 
ATOM     24  C   UNL     1     116.045 119.570 125.067  1.00  0.00     0.016 C 
ATOM     25  C   UNL     1     118.832 123.551 126.997  1.00  0.00     0.012 C 
ATOM     26  C   UNL     1     118.403 126.578 127.958  1.00  0.00     0.014 C 
ATOM     27  C   UNL     1     116.172 127.472 127.291  1.00  0.00     0.014 C 
ATOM     28  C   UNL     1     116.949 121.428 128.270  1.00  0.00     0.016 C 
ATOM     29  C   UNL     1     110.888 119.024 123.419  1.00  0.00     0.011 C 
ENDROOT
BRANCH   5  30
ATOM     30  C   UNL     1     114.153 117.407 126.802  1.00  0.00     0.163 C 
BRANCH  30  31
ATOM     31  O   UNL     1     113.696 116.497 127.767  1.00  0.00    -0.396 OA
ATOM     32  H   UNL     1     112.868 116.093 127.400  1.00  0.00     0.210 HD
ENDBRANCH  30  31
ENDBRANCH   5  30
BRANCH  14  33
ATOM     33  O   UNL     1     118.461 128.107 125.549  1.00  0.00    -0.393 OA
ATOM     34  H   UNL     1     117.923 128.694 126.141  1.00  0.00     0.210 HD
ENDBRANCH  14  33
TORSDOF 3
ENDMDL
MODEL 6
REMARK VINA RESULT:    -6.324      2.660      4.692
REMARK INTER + INTRA:          -7.166
REMARK INTER:                  -7.047
REMARK INTRA:                  -0.119
REMARK UNBOUND:                -0.103
REMARK SMILES CC1(C)CC[C@]2(CO)CC=C3[C@](C)(CC[C@H]4[C@@]5(C)CC[C@H](O)C(C)(C)[C@@H]5CC[C@@]34C)[C@H]2C1
REMARK SMILES IDX 1 1 2 2 4 3 5 4 6 5 9 6 10 7 11 8 29 9 28 10 27 11 26 12
REMARK SMILES IDX 23 13 21 14 20 15 19 16 17 17 16 18 15 19 14 20 12 21 31 22
REMARK SMILES IDX 32 23 13 24 18 25 24 26 25 27 30 28 3 29 7 30 8 31 22 33
REMARK H PARENT 8 32 22 34
REMARK Flexibility Score: inf
ROOT
ATOM      1  C   UNL     1     111.574 118.681 123.343  1.00  0.00     0.011 C 
ATOM      2  C   UNL     1     112.058 119.097 124.750  1.00  0.00    -0.035 C 
ATOM      3  C   UNL     1     110.895 118.877 125.752  1.00  0.00     0.007 C 
ATOM      4  C   UNL     1     111.328 119.028 127.219  1.00  0.00     0.010 C 
ATOM      5  C   UNL     1     112.507 118.085 127.611  1.00  0.00     0.001 C 
ATOM      6  C   UNL     1     112.968 118.494 129.026  1.00  0.00     0.037 C 
ATOM      7  C   UNL     1     114.304 117.926 129.412  1.00  0.00    -0.026 C 
ATOM      8  C   UNL     1     115.292 117.576 128.540  1.00  0.00    -0.062 C 
ATOM      9  C   UNL     1     116.693 117.180 129.110  1.00  0.00    -0.008 C 
ATOM     10  C   UNL     1     117.211 118.352 129.999  1.00  0.00     0.012 C 
ATOM     11  C   UNL     1     118.647 118.185 130.515  1.00  0.00     0.006 C 
ATOM     12  C   UNL     1     119.654 117.999 129.356  1.00  0.00     0.003 C 
ATOM     13  C   UNL     1     121.180 118.125 129.771  1.00  0.00    -0.006 C 
ATOM     14  C   UNL     1     122.067 118.013 128.490  1.00  0.00     0.120 C 
ATOM     15  C   UNL     1     121.757 116.767 127.647  1.00  0.00     0.033 C 
ATOM     16  C   UNL     1     120.273 116.712 127.249  1.00  0.00     0.010 C 
ATOM     17  C   UNL     1     119.282 116.755 128.464  1.00  0.00    -0.025 C 
ATOM     18  C   UNL     1     117.764 116.904 127.960  1.00  0.00     0.005 C 
ATOM     19  C   UNL     1     117.630 117.907 126.769  1.00  0.00     0.006 C 
ATOM     20  C   UNL     1     116.225 118.441 126.453  1.00  0.00     0.012 C 
ATOM     21  C   UNL     1     115.051 117.606 127.019  1.00  0.00    -0.008 C 
ATOM     22  C   UNL     1     113.700 118.350 126.635  1.00  0.00     0.008 C 
ATOM     23  C   UNL     1     113.276 118.212 125.138  1.00  0.00     0.011 C 
ATOM     24  C   UNL     1     115.081 116.157 126.432  1.00  0.00     0.016 C 
ATOM     25  C   UNL     1     119.437 115.388 129.220  1.00  0.00     0.012 C 
ATOM     26  C   UNL     1     121.619 117.087 130.837  1.00  0.00     0.014 C 
ATOM     27  C   UNL     1     121.438 119.532 130.381  1.00  0.00     0.014 C 
ATOM     28  C   UNL     1     116.463 115.902 129.974  1.00  0.00     0.016 C 
ATOM     29  C   UNL     1     112.455 120.592 124.684  1.00  0.00     0.011 C 
ENDROOT
BRANCH   5  30
ATOM     30  C   UNL     1     111.977 116.612 127.627  1.00  0.00     0.163 C 
BRANCH  30  31
ATOM     31  O   UNL     1     111.150 116.356 128.730  1.00  0.00    -0.396 OA
ATOM     32  H   UNL     1     110.246 116.174 128.365  1.00  0.00     0.210 HD
ENDBRANCH  30  31
ENDBRANCH   5  30
BRANCH  14  33
ATOM     33  O   UNL     1     123.432 118.011 128.835  1.00  0.00    -0.393 OA
ATOM     34  H   UNL     1     123.940 118.250 128.016  1.00  0.00     0.210 HD
ENDBRANCH  14  33
TORSDOF 3
ENDMDL
MODEL 7
REMARK VINA RESULT:    -6.293      6.310     11.585
REMARK INTER + INTRA:          -7.131
REMARK INTER:                  -7.012
REMARK INTRA:                  -0.119
REMARK UNBOUND:                -0.103
REMARK SMILES CC1(C)CC[C@]2(CO)CC=C3[C@](C)(CC[C@H]4[C@@]5(C)CC[C@H](O)C(C)(C)[C@@H]5CC[C@@]34C)[C@H]2C1
REMARK SMILES IDX 1 1 2 2 4 3 5 4 6 5 9 6 10 7 11 8 29 9 28 10 27 11 26 12
REMARK SMILES IDX 23 13 21 14 20 15 19 16 17 17 16 18 15 19 14 20 12 21 31 22
REMARK SMILES IDX 32 23 13 24 18 25 24 26 25 27 30 28 3 29 7 30 8 31 22 33
REMARK H PARENT 8 32 22 34
REMARK Flexibility Score: inf
ROOT
ATOM      1  C   UNL     1     127.334 118.394 115.408  1.00  0.00     0.011 C 
ATOM      2  C   UNL     1     125.844 118.570 115.776  1.00  0.00    -0.035 C 
ATOM      3  C   UNL     1     124.986 117.850 114.704  1.00  0.00     0.007 C 
ATOM      4  C   UNL     1     123.502 117.751 115.089  1.00  0.00     0.010 C 
ATOM      5  C   UNL     1     123.269 117.051 116.463  1.00  0.00     0.001 C 
ATOM      6  C   UNL     1     121.775 117.213 116.812  1.00  0.00     0.037 C 
ATOM      7  C   UNL     1     121.453 116.906 118.246  1.00  0.00    -0.026 C 
ATOM      8  C   UNL     1     122.324 117.018 119.289  1.00  0.00    -0.062 C 
ATOM      9  C   UNL     1     121.782 116.845 120.745  1.00  0.00    -0.008 C 
ATOM     10  C   UNL     1     120.621 117.863 120.961  1.00  0.00     0.012 C 
ATOM     11  C   UNL     1     120.076 117.928 122.394  1.00  0.00     0.006 C 
ATOM     12  C   UNL     1     121.188 118.265 123.415  1.00  0.00     0.003 C 
ATOM     13  C   UNL     1     120.669 118.650 124.864  1.00  0.00    -0.006 C 
ATOM     14  C   UNL     1     121.890 119.059 125.750  1.00  0.00     0.120 C 
ATOM     15  C   UNL     1     123.011 118.009 125.753  1.00  0.00     0.033 C 
ATOM     16  C   UNL     1     123.495 117.696 124.329  1.00  0.00     0.010 C 
ATOM     17  C   UNL     1     122.360 117.214 123.358  1.00  0.00    -0.025 C 
ATOM     18  C   UNL     1     122.901 117.111 121.850  1.00  0.00     0.005 C 
ATOM     19  C   UNL     1     123.838 118.304 121.473  1.00  0.00     0.006 C 
ATOM     20  C   UNL     1     124.102 118.547 119.979  1.00  0.00     0.012 C 
ATOM     21  C   UNL     1     123.810 117.346 119.046  1.00  0.00    -0.008 C 
ATOM     22  C   UNL     1     124.090 117.815 117.553  1.00  0.00     0.008 C 
ATOM     23  C   UNL     1     125.601 117.936 117.174  1.00  0.00     0.011 C 
ATOM     24  C   UNL     1     124.710 116.127 119.430  1.00  0.00     0.016 C 
ATOM     25  C   UNL     1     121.929 115.785 123.845  1.00  0.00     0.012 C 
ATOM     26  C   UNL     1     119.845 117.526 125.546  1.00  0.00     0.014 C 
ATOM     27  C   UNL     1     119.740 119.895 124.770  1.00  0.00     0.014 C 
ATOM     28  C   UNL     1     121.246 115.383 120.836  1.00  0.00     0.016 C 
ATOM     29  C   UNL     1     125.544 120.089 115.795  1.00  0.00     0.011 C 
ENDROOT
BRANCH   5  30
ATOM     30  C   UNL     1     123.620 115.534 116.311  1.00  0.00     0.163 C 
BRANCH  30  31
ATOM     31  O   UNL     1     122.666 114.840 115.552  1.00  0.00    -0.396 OA
ATOM     32  H   UNL     1     122.532 113.966 116.002  1.00  0.00     0.210 HD
ENDBRANCH  30  31
ENDBRANCH   5  30
BRANCH  14  33
ATOM     33  O   UNL     1     121.477 119.301 127.074  1.00  0.00    -0.393 OA
ATOM     34  H   UNL     1     121.807 118.543 127.625  1.00  0.00     0.210 HD
ENDBRANCH  14  33
TORSDOF 3
ENDMDL
MODEL 8
REMARK VINA RESULT:    -6.290      7.251     11.494
REMARK INTER + INTRA:          -7.128
REMARK INTER:                  -7.008
REMARK INTRA:                  -0.120
REMARK UNBOUND:                -0.103
REMARK SMILES CC1(C)CC[C@]2(CO)CC=C3[C@](C)(CC[C@H]4[C@@]5(C)CC[C@H](O)C(C)(C)[C@@H]5CC[C@@]34C)[C@H]2C1
REMARK SMILES IDX 1 1 2 2 4 3 5 4 6 5 9 6 10 7 11 8 29 9 28 10 27 11 26 12
REMARK SMILES IDX 23 13 21 14 20 15 19 16 17 17 16 18 15 19 14 20 12 21 31 22
REMARK SMILES IDX 32 23 13 24 18 25 24 26 25 27 30 28 3 29 7 30 8 31 22 33
REMARK H PARENT 8 32 22 34
REMARK Flexibility Score: inf
ROOT
ATOM      1  C   UNL     1     122.137 118.081 126.842  1.00  0.00     0.011 C 
ATOM      2  C   UNL     1     123.289 118.516 125.908  1.00  0.00    -0.035 C 
ATOM      3  C   UNL     1     124.634 118.147 126.586  1.00  0.00     0.007 C 
ATOM      4  C   UNL     1     125.843 118.310 125.652  1.00  0.00     0.010 C 
ATOM      5  C   UNL     1     125.713 117.494 124.329  1.00  0.00     0.001 C 
ATOM      6  C   UNL     1     126.880 117.918 123.413  1.00  0.00     0.037 C 
ATOM      7  C   UNL     1     126.709 117.492 121.983  1.00  0.00    -0.026 C 
ATOM      8  C   UNL     1     125.514 117.273 121.365  1.00  0.00    -0.062 C 
ATOM      9  C   UNL     1     125.500 117.021 119.822  1.00  0.00    -0.008 C 
ATOM     10  C   UNL     1     126.205 118.221 119.121  1.00  0.00     0.012 C 
ATOM     11  C   UNL     1     126.144 118.202 117.588  1.00  0.00     0.006 C 
ATOM     12  C   UNL     1     124.685 118.154 117.074  1.00  0.00     0.003 C 
ATOM     13  C   UNL     1     124.514 118.438 115.523  1.00  0.00    -0.006 C 
ATOM     14  C   UNL     1     122.991 118.454 115.173  1.00  0.00     0.120 C 
ATOM     15  C   UNL     1     122.247 117.201 115.658  1.00  0.00     0.033 C 
ATOM     16  C   UNL     1     122.422 116.992 117.170  1.00  0.00     0.010 C 
ATOM     17  C   UNL     1     123.919 116.897 117.635  1.00  0.00    -0.025 C 
ATOM     18  C   UNL     1     124.021 116.890 119.237  1.00  0.00     0.005 C 
ATOM     19  C   UNL     1     123.028 117.899 119.900  1.00  0.00     0.006 C 
ATOM     20  C   UNL     1     123.288 118.284 121.365  1.00  0.00     0.012 C 
ATOM     21  C   UNL     1     124.194 117.311 122.159  1.00  0.00    -0.008 C 
ATOM     22  C   UNL     1     124.384 117.911 123.619  1.00  0.00     0.008 C 
ATOM     23  C   UNL     1     123.143 117.761 124.557  1.00  0.00     0.011 C 
ATOM     24  C   UNL     1     123.548 115.888 122.215  1.00  0.00     0.016 C 
ATOM     25  C   UNL     1     124.477 115.539 117.082  1.00  0.00     0.012 C 
ATOM     26  C   UNL     1     125.276 117.430 114.621  1.00  0.00     0.014 C 
ATOM     27  C   UNL     1     125.072 119.851 115.188  1.00  0.00     0.014 C 
ATOM     28  C   UNL     1     126.307 115.706 119.592  1.00  0.00     0.016 C 
ATOM     29  C   UNL     1     123.174 120.046 125.706  1.00  0.00     0.011 C 
ENDROOT
BRANCH   5  30
ATOM     30  C   UNL     1     125.832 115.972 124.675  1.00  0.00     0.163 C 
BRANCH  30  31
ATOM     31  O   UNL     1     127.127 115.617 125.077  1.00  0.00    -0.396 OA
ATOM     32  H   UNL     1     127.023 114.897 125.752  1.00  0.00     0.210 HD
ENDBRANCH  30  31
ENDBRANCH   5  30
BRANCH  14  33
ATOM     33  O   UNL     1     122.807 118.593 113.784  1.00  0.00    -0.393 OA
ATOM     34  H   UNL     1     122.858 119.564 113.580  1.00  0.00     0.210 HD
ENDBRANCH  14  33
TORSDOF 3
ENDMDL
