MODEL 1
REMARK VINA RESULT:    -3.903      0.000      0.000
REMARK INTER + INTRA:          -5.066
REMARK INTER:                  -4.816
REMARK INTRA:                  -0.250
REMARK UNBOUND:                -0.250
REMARK SMILES C=CCc1ccc(OC)c(OC)c1
REMARK SMILES IDX 7 1 10 2 13 3 4 4 5 5 6 6 8 7 9 8 11 9 12 10 3 11 2 12 1 13
REMARK H PARENT
REMARK Flexibility Score: inf
ROOT
ATOM      1  C   UNL     1      15.972   8.277   2.119  1.00  0.00     0.160 A 
ATOM      2  C   UNL     1      15.234   7.150   1.725  1.00  0.00     0.160 A 
ATOM      3  C   UNL     1      13.828   7.226   1.659  1.00  0.00     0.054 A 
ATOM      4  C   UNL     1      13.163   8.419   1.976  1.00  0.00    -0.040 A 
ATOM      5  C   UNL     1      13.907   9.536   2.379  1.00  0.00     0.008 A 
ATOM      6  C   UNL     1      15.299   9.469   2.447  1.00  0.00     0.051 A 
ENDROOT
BRANCH   1   7
ATOM      7  O   UNL     1      17.371   8.171   2.176  1.00  0.00    -0.493 OA
ATOM      8  C   UNL     1      18.250   9.248   2.486  1.00  0.00     0.278 C 
ENDBRANCH   1   7
BRANCH   2   9
ATOM      9  O   UNL     1      15.931   5.973   1.410  1.00  0.00    -0.493 OA
ATOM     10  C   UNL     1      16.157   4.900   2.318  1.00  0.00     0.278 C 
ENDBRANCH   2   9
BRANCH   4  11
ATOM     11  C   UNL     1      11.659   8.483   1.930  1.00  0.00     0.062 C 
BRANCH  11  12
ATOM     12  C   UNL     1      11.097   7.281   1.223  1.00  0.00    -0.030 C 
ATOM     13  C   UNL     1      10.272   7.403   0.179  1.00  0.00     0.004 C 
ENDBRANCH  11  12
ENDBRANCH   4  11
TORSDOF 4
ENDMDL
MODEL 2
REMARK VINA RESULT:    -3.779      1.101      2.662
REMARK INTER + INTRA:          -4.912
REMARK INTER:                  -4.641
REMARK INTRA:                  -0.271
REMARK UNBOUND:                -0.250
REMARK SMILES C=CCc1ccc(OC)c(OC)c1
REMARK SMILES IDX 7 1 10 2 13 3 4 4 5 5 6 6 8 7 9 8 11 9 12 10 3 11 2 12 1 13
REMARK H PARENT
REMARK Flexibility Score: inf
ROOT
ATOM      1  C   UNL     1      15.956   7.242   1.752  1.00  0.00     0.160 A 
ATOM      2  C   UNL     1      15.660   8.548   2.174  1.00  0.00     0.160 A 
ATOM      3  C   UNL     1      14.321   8.983   2.209  1.00  0.00     0.054 A 
ATOM      4  C   UNL     1      13.280   8.120   1.833  1.00  0.00    -0.040 A 
ATOM      5  C   UNL     1      13.584   6.822   1.403  1.00  0.00     0.008 A 
ATOM      6  C   UNL     1      14.909   6.383   1.366  1.00  0.00     0.051 A 
ENDROOT
BRANCH   1   7
ATOM      7  O   UNL     1      17.299   6.837   1.727  1.00  0.00    -0.493 OA
ATOM      8  C   UNL     1      17.750   5.516   2.011  1.00  0.00     0.278 C 
ENDBRANCH   1   7
BRANCH   2   9
ATOM      9  O   UNL     1      16.724   9.384   2.547  1.00  0.00    -0.493 OA
ATOM     10  C   UNL     1      16.654  10.805   2.602  1.00  0.00     0.278 C 
ENDBRANCH   2   9
BRANCH   4  11
ATOM     11  C   UNL     1      11.854   8.603   1.847  1.00  0.00     0.062 C 
BRANCH  11  12
ATOM     12  C   UNL     1      10.908   7.479   1.525  1.00  0.00    -0.030 C 
ATOM     13  C   UNL     1      10.060   7.548   0.496  1.00  0.00     0.004 C 
ENDBRANCH  11  12
ENDBRANCH   4  11
TORSDOF 4
ENDMDL
MODEL 3
REMARK VINA RESULT:    -3.472     16.712     18.482
REMARK INTER + INTRA:          -4.533
REMARK INTER:                  -4.239
REMARK INTRA:                  -0.294
REMARK UNBOUND:                -0.250
REMARK SMILES C=CCc1ccc(OC)c(OC)c1
REMARK SMILES IDX 7 1 10 2 13 3 4 4 5 5 6 6 8 7 9 8 11 9 12 10 3 11 2 12 1 13
REMARK H PARENT
REMARK Flexibility Score: inf
ROOT
ATOM      1  C   UNL     1      17.244  -4.813  13.929  1.00  0.00     0.160 A 
ATOM      2  C   UNL     1      17.443  -4.914  15.315  1.00  0.00     0.160 A 
ATOM      3  C   UNL     1      17.648  -3.747  16.077  1.00  0.00     0.054 A 
ATOM      4  C   UNL     1      17.648  -2.485  15.463  1.00  0.00    -0.040 A 
ATOM      5  C   UNL     1      17.461  -2.394  14.078  1.00  0.00     0.008 A 
ATOM      6  C   UNL     1      17.256  -3.545  13.316  1.00  0.00     0.051 A 
ENDROOT
BRANCH   1   7
ATOM      7  O   UNL     1      17.042  -5.993  13.197  1.00  0.00    -0.493 OA
ATOM      8  C   UNL     1      15.785  -6.415  12.677  1.00  0.00     0.278 C 
ENDBRANCH   1   7
BRANCH   2   9
ATOM      9  O   UNL     1      17.431  -6.191  15.898  1.00  0.00    -0.493 OA
ATOM     10  C   UNL     1      16.319  -6.756  16.584  1.00  0.00     0.278 C 
ENDBRANCH   2   9
BRANCH   4  11
ATOM     11  C   UNL     1      17.897  -1.245  16.281  1.00  0.00     0.062 C 
BRANCH  11  12
ATOM     12  C   UNL     1      16.894  -1.132  17.395  1.00  0.00    -0.030 C 
ATOM     13  C   UNL     1      17.265  -1.131  18.678  1.00  0.00     0.004 C 
ENDBRANCH  11  12
ENDBRANCH   4  11
TORSDOF 4
ENDMDL
MODEL 4
REMARK VINA RESULT:    -3.434     17.412     19.130
REMARK INTER + INTRA:          -4.487
REMARK INTER:                  -4.150
REMARK INTRA:                  -0.337
REMARK UNBOUND:                -0.250
REMARK SMILES C=CCc1ccc(OC)c(OC)c1
REMARK SMILES IDX 7 1 10 2 13 3 4 4 5 5 6 6 8 7 9 8 11 9 12 10 3 11 2 12 1 13
REMARK H PARENT
REMARK Flexibility Score: inf
ROOT
ATOM      1  C   UNL     1      15.524  -6.137  14.491  1.00  0.00     0.160 A 
ATOM      2  C   UNL     1      16.475  -6.167  15.524  1.00  0.00     0.160 A 
ATOM      3  C   UNL     1      17.400  -5.112  15.650  1.00  0.00     0.054 A 
ATOM      4  C   UNL     1      17.373  -4.029  14.758  1.00  0.00    -0.040 A 
ATOM      5  C   UNL     1      16.428  -4.012  13.724  1.00  0.00     0.008 A 
ATOM      6  C   UNL     1      15.508  -5.053  13.593  1.00  0.00     0.051 A 
ENDROOT
BRANCH   1   7
ATOM      7  O   UNL     1      14.615  -7.202  14.391  1.00  0.00    -0.493 OA
ATOM      8  C   UNL     1      14.585  -8.138  13.318  1.00  0.00     0.278 C 
ENDBRANCH   1   7
BRANCH   2   9
ATOM      9  O   UNL     1      16.472  -7.262  16.401  1.00  0.00    -0.493 OA
ATOM     10  C   UNL     1      15.879  -7.258  17.696  1.00  0.00     0.278 C 
ENDBRANCH   2   9
BRANCH   4  11
ATOM     11  C   UNL     1      18.384  -2.920  14.883  1.00  0.00     0.062 C 
BRANCH  11  12
ATOM     12  C   UNL     1      17.726  -1.649  15.344  1.00  0.00    -0.030 C 
ATOM     13  C   UNL     1      17.389  -1.455  16.621  1.00  0.00     0.004 C 
ENDBRANCH  11  12
ENDBRANCH   4  11
TORSDOF 4
ENDMDL
MODEL 5
REMARK VINA RESULT:    -3.307     13.673     15.370
REMARK INTER + INTRA:          -4.330
REMARK INTER:                  -4.001
REMARK INTRA:                  -0.329
REMARK UNBOUND:                -0.250
REMARK SMILES C=CCc1ccc(OC)c(OC)c1
REMARK SMILES IDX 7 1 10 2 13 3 4 4 5 5 6 6 8 7 9 8 11 9 12 10 3 11 2 12 1 13
REMARK H PARENT
REMARK Flexibility Score: inf
ROOT
ATOM      1  C   UNL     1      11.560  -7.810   3.729  1.00  0.00     0.160 A 
ATOM      2  C   UNL     1      11.787  -6.657   2.961  1.00  0.00     0.160 A 
ATOM      3  C   UNL     1      10.694  -5.870   2.546  1.00  0.00     0.054 A 
ATOM      4  C   UNL     1       9.384  -6.225   2.901  1.00  0.00    -0.040 A 
ATOM      5  C   UNL     1       9.166  -7.383   3.659  1.00  0.00     0.008 A 
ATOM      6  C   UNL     1      10.243  -8.168   4.074  1.00  0.00     0.051 A 
ENDROOT
BRANCH   1   7
ATOM      7  O   UNL     1      12.669  -8.574   4.127  1.00  0.00    -0.493 OA
ATOM      8  C   UNL     1      13.136  -8.679   5.468  1.00  0.00     0.278 C 
ENDBRANCH   1   7
BRANCH   2   9
ATOM      9  O   UNL     1      13.110  -6.328   2.627  1.00  0.00    -0.493 OA
ATOM     10  C   UNL     1      13.905  -5.374   3.324  1.00  0.00     0.278 C 
ENDBRANCH   2   9
BRANCH   4  11
ATOM     11  C   UNL     1       8.220  -5.394   2.430  1.00  0.00     0.062 C 
BRANCH  11  12
ATOM     12  C   UNL     1       6.921  -5.968   2.922  1.00  0.00    -0.030 C 
ATOM     13  C   UNL     1       6.044  -5.234   3.610  1.00  0.00     0.004 C 
ENDBRANCH  11  12
ENDBRANCH   4  11
TORSDOF 4
ENDMDL
MODEL 6
REMARK VINA RESULT:    -3.294     16.858     19.146
REMARK INTER + INTRA:          -4.314
REMARK INTER:                  -4.036
REMARK INTRA:                  -0.279
REMARK UNBOUND:                -0.250
REMARK SMILES C=CCc1ccc(OC)c(OC)c1
REMARK SMILES IDX 7 1 10 2 13 3 4 4 5 5 6 6 8 7 9 8 11 9 12 10 3 11 2 12 1 13
REMARK H PARENT
REMARK Flexibility Score: inf
ROOT
ATOM      1  C   UNL     1      16.313  -6.568  15.741  1.00  0.00     0.160 A 
ATOM      2  C   UNL     1      15.613  -6.221  14.574  1.00  0.00     0.160 A 
ATOM      3  C   UNL     1      15.911  -5.011  13.917  1.00  0.00     0.054 A 
ATOM      4  C   UNL     1      16.905  -4.155  14.414  1.00  0.00    -0.040 A 
ATOM      5  C   UNL     1      17.591  -4.503  15.585  1.00  0.00     0.008 A 
ATOM      6  C   UNL     1      17.302  -5.700  16.242  1.00  0.00     0.051 A 
ENDROOT
BRANCH   1   7
ATOM      7  O   UNL     1      15.995  -7.779  16.374  1.00  0.00    -0.493 OA
ATOM      8  C   UNL     1      15.287  -7.885  17.606  1.00  0.00     0.278 C 
ENDBRANCH   1   7
BRANCH   2   9
ATOM      9  O   UNL     1      14.629  -7.103  14.101  1.00  0.00    -0.493 OA
ATOM     10  C   UNL     1      14.847  -8.099  13.108  1.00  0.00     0.278 C 
ENDBRANCH   2   9
BRANCH   4  11
ATOM     11  C   UNL     1      17.196  -2.850  13.720  1.00  0.00     0.062 C 
BRANCH  11  12
ATOM     12  C   UNL     1      17.914  -1.905  14.643  1.00  0.00    -0.030 C 
ATOM     13  C   UNL     1      19.107  -1.390  14.332  1.00  0.00     0.004 C 
ENDBRANCH  11  12
ENDBRANCH   4  11
TORSDOF 4
ENDMDL
MODEL 7
REMARK VINA RESULT:    -3.276     16.698     18.130
REMARK INTER + INTRA:          -4.291
REMARK INTER:                  -4.031
REMARK INTRA:                  -0.261
REMARK UNBOUND:                -0.250
REMARK SMILES C=CCc1ccc(OC)c(OC)c1
REMARK SMILES IDX 7 1 10 2 13 3 4 4 5 5 6 6 8 7 9 8 11 9 12 10 3 11 2 12 1 13
REMARK H PARENT
REMARK Flexibility Score: inf
ROOT
ATOM      1  C   UNL     1      -0.651   3.051  11.232  1.00  0.00     0.160 A 
ATOM      2  C   UNL     1      -0.885   3.489   9.918  1.00  0.00     0.160 A 
ATOM      3  C   UNL     1      -0.877   4.868   9.632  1.00  0.00     0.054 A 
ATOM      4  C   UNL     1      -0.629   5.806  10.646  1.00  0.00    -0.040 A 
ATOM      5  C   UNL     1      -0.407   5.361  11.955  1.00  0.00     0.008 A 
ATOM      6  C   UNL     1      -0.414   3.996  12.247  1.00  0.00     0.051 A 
ENDROOT
BRANCH   1   7
ATOM      7  O   UNL     1      -0.666   1.670  11.487  1.00  0.00    -0.493 OA
ATOM      8  C   UNL     1      -0.833   1.090  12.777  1.00  0.00     0.278 C 
ENDBRANCH   1   7
BRANCH   2   9
ATOM      9  O   UNL     1      -1.125   2.524   8.927  1.00  0.00    -0.493 OA
ATOM     10  C   UNL     1      -0.444   2.463   7.678  1.00  0.00     0.278 C 
ENDBRANCH   2   9
BRANCH   4  11
ATOM     11  C   UNL     1      -0.651   7.279  10.335  1.00  0.00     0.062 C 
BRANCH  11  12
ATOM     12  C   UNL     1       0.340   8.018  11.192  1.00  0.00    -0.030 C 
ATOM     13  C   UNL     1       0.955   9.122  10.761  1.00  0.00     0.004 C 
ENDBRANCH  11  12
ENDBRANCH   4  11
TORSDOF 4
ENDMDL
MODEL 8
REMARK VINA RESULT:    -3.267     16.882     18.724
REMARK INTER + INTRA:          -4.281
REMARK INTER:                  -3.980
REMARK INTRA:                  -0.301
REMARK UNBOUND:                -0.250
REMARK SMILES C=CCc1ccc(OC)c(OC)c1
REMARK SMILES IDX 7 1 10 2 13 3 4 4 5 5 6 6 8 7 9 8 11 9 12 10 3 11 2 12 1 13
REMARK H PARENT
REMARK Flexibility Score: inf
ROOT
ATOM      1  C   UNL     1      17.527  -3.721  14.749  1.00  0.00     0.160 A 
ATOM      2  C   UNL     1      17.717  -4.704  15.733  1.00  0.00     0.160 A 
ATOM      3  C   UNL     1      16.890  -5.845  15.747  1.00  0.00     0.054 A 
ATOM      4  C   UNL     1      15.885  -6.010  14.782  1.00  0.00    -0.040 A 
ATOM      5  C   UNL     1      15.696  -5.019  13.810  1.00  0.00     0.008 A 
ATOM      6  C   UNL     1      16.511  -3.886  13.789  1.00  0.00     0.051 A 
ENDROOT
BRANCH   1   7
ATOM      7  O   UNL     1      18.366  -2.596  14.760  1.00  0.00    -0.493 OA
ATOM      8  C   UNL     1      18.024  -1.340  15.339  1.00  0.00     0.278 C 
ENDBRANCH   1   7
BRANCH   2   9
ATOM      9  O   UNL     1      18.734  -4.510  16.681  1.00  0.00    -0.493 OA
ATOM     10  C   UNL     1      18.524  -4.028  18.004  1.00  0.00     0.278 C 
ENDBRANCH   2   9
BRANCH   4  11
ATOM     11  C   UNL     1      14.988  -7.218  14.822  1.00  0.00     0.062 C 
BRANCH  11  12
ATOM     12  C   UNL     1      14.652  -7.679  13.431  1.00  0.00    -0.030 C 
ATOM     13  C   UNL     1      14.301  -8.941  13.174  1.00  0.00     0.004 C 
ENDBRANCH  11  12
ENDBRANCH   4  11
TORSDOF 4
ENDMDL
MODEL 9
REMARK VINA RESULT:    -3.264     17.252     19.138
REMARK INTER + INTRA:          -4.277
REMARK INTER:                  -3.978
REMARK INTRA:                  -0.299
REMARK UNBOUND:                -0.250
REMARK SMILES C=CCc1ccc(OC)c(OC)c1
REMARK SMILES IDX 7 1 10 2 13 3 4 4 5 5 6 6 8 7 9 8 11 9 12 10 3 11 2 12 1 13
REMARK H PARENT
REMARK Flexibility Score: inf
ROOT
ATOM      1  C   UNL     1       3.869  -5.876   4.374  1.00  0.00     0.160 A 
ATOM      2  C   UNL     1       4.314  -7.159   4.730  1.00  0.00     0.160 A 
ATOM      3  C   UNL     1       3.499  -7.982   5.532  1.00  0.00     0.054 A 
ATOM      4  C   UNL     1       2.243  -7.534   5.970  1.00  0.00    -0.040 A 
ATOM      5  C   UNL     1       1.811  -6.248   5.619  1.00  0.00     0.008 A 
ATOM      6  C   UNL     1       2.613  -5.426   4.825  1.00  0.00     0.051 A 
ENDROOT
BRANCH   1   7
ATOM      7  O   UNL     1       4.703  -5.078   3.575  1.00  0.00    -0.493 OA
ATOM      8  C   UNL     1       4.363  -4.605   2.275  1.00  0.00     0.278 C 
ENDBRANCH   1   7
BRANCH   2   9
ATOM      9  O   UNL     1       5.572  -7.578   4.271  1.00  0.00    -0.493 OA
ATOM     10  C   UNL     1       5.819  -8.813   3.605  1.00  0.00     0.278 C 
ENDBRANCH   2   9
BRANCH   4  11
ATOM     11  C   UNL     1       1.391  -8.410   6.849  1.00  0.00     0.062 C 
BRANCH  11  12
ATOM     12  C   UNL     1       0.049  -7.777   7.091  1.00  0.00    -0.030 C 
ATOM     13  C   UNL     1      -1.089  -8.405   6.785  1.00  0.00     0.004 C 
ENDBRANCH  11  12
ENDBRANCH   4  11
TORSDOF 4
ENDMDL
