MODEL 1
REMARK VINA RESULT:    -5.573      0.000      0.000
REMARK INTER + INTRA:          -5.573
REMARK INTER:                  -5.573
REMARK INTRA:                   0.000
REMARK UNBOUND:                 0.000
REMARK SMILES C=C1[C@H]2CC[C@H](C2)C1(C)C
REMARK SMILES IDX 9 1 8 2 6 3 5 4 4 5 3 6 7 7 2 8 1 9 10 10
REMARK H PARENT
REMARK Flexibility Score: inf
ROOT
ATOM      1  C   UNL     1       4.347   5.730  12.177  1.00  0.00     0.016 C 
ATOM      2  C   UNL     1       5.183   6.829  12.870  1.00  0.00    -0.012 C 
ATOM      3  C   UNL     1       6.474   6.228  13.530  1.00  0.00    -0.001 C 
ATOM      4  C   UNL     1       7.209   7.290  14.385  1.00  0.00     0.005 C 
ATOM      5  C   UNL     1       7.730   8.284  13.325  1.00  0.00     0.008 C 
ATOM      6  C   UNL     1       7.327   7.615  11.998  1.00  0.00     0.015 C 
ATOM      7  C   UNL     1       7.441   6.150  12.353  1.00  0.00     0.012 C 
ATOM      8  C   UNL     1       5.834   7.746  11.863  1.00  0.00    -0.068 C 
ATOM      9  C   UNL     1       5.206   8.580  11.025  1.00  0.00     0.008 C 
ATOM     10  C   UNL     1       4.278   7.604  13.854  1.00  0.00     0.016 C 
ENDROOT
TORSDOF 0
ENDMDL
MODEL 2
REMARK VINA RESULT:    -5.228      0.806      2.454
REMARK INTER + INTRA:          -5.228
REMARK INTER:                  -5.228
REMARK INTRA:                   0.000
REMARK UNBOUND:                 0.000
REMARK SMILES C=C1[C@H]2CC[C@H](C2)C1(C)C
REMARK SMILES IDX 9 1 8 2 6 3 5 4 4 5 3 6 7 7 2 8 1 9 10 10
REMARK H PARENT
REMARK Flexibility Score: inf
ROOT
ATOM      1  C   UNL     1       4.075   7.850  13.701  1.00  0.00     0.016 C 
ATOM      2  C   UNL     1       5.155   7.335  12.724  1.00  0.00    -0.012 C 
ATOM      3  C   UNL     1       6.597   7.682  13.237  1.00  0.00    -0.001 C 
ATOM      4  C   UNL     1       7.666   7.339  12.171  1.00  0.00     0.005 C 
ATOM      5  C   UNL     1       7.622   5.797  12.123  1.00  0.00     0.008 C 
ATOM      6  C   UNL     1       6.620   5.446  13.237  1.00  0.00     0.015 C 
ATOM      7  C   UNL     1       6.873   6.558  14.231  1.00  0.00     0.012 C 
ATOM      8  C   UNL     1       5.249   5.828  12.748  1.00  0.00    -0.068 C 
ATOM      9  C   UNL     1       4.304   4.967  12.352  1.00  0.00     0.008 C 
ATOM     10  C   UNL     1       4.848   7.870  11.308  1.00  0.00     0.016 C 
ENDROOT
TORSDOF 0
ENDMDL
MODEL 3
REMARK VINA RESULT:    -4.807      0.838      2.981
REMARK INTER + INTRA:          -4.807
REMARK INTER:                  -4.807
REMARK INTRA:                   0.000
REMARK UNBOUND:                 0.000
REMARK SMILES C=C1[C@H]2CC[C@H](C2)C1(C)C
REMARK SMILES IDX 9 1 8 2 6 3 5 4 4 5 3 6 7 7 2 8 1 9 10 10
REMARK H PARENT
REMARK Flexibility Score: inf
ROOT
ATOM      1  C   UNL     1       8.179   8.375  13.183  1.00  0.00     0.016 C 
ATOM      2  C   UNL     1       7.312   7.282  12.519  1.00  0.00    -0.012 C 
ATOM      3  C   UNL     1       6.978   6.130  13.532  1.00  0.00    -0.001 C 
ATOM      4  C   UNL     1       6.277   4.947  12.819  1.00  0.00     0.005 C 
ATOM      5  C   UNL     1       4.907   5.543  12.429  1.00  0.00     0.008 C 
ATOM      6  C   UNL     1       4.952   6.948  13.058  1.00  0.00     0.015 C 
ATOM      7  C   UNL     1       5.785   6.697  14.295  1.00  0.00     0.012 C 
ATOM      8  C   UNL     1       5.912   7.775  12.247  1.00  0.00    -0.068 C 
ATOM      9  C   UNL     1       5.563   8.744  11.392  1.00  0.00     0.008 C 
ATOM     10  C   UNL     1       8.013   6.799  11.230  1.00  0.00     0.016 C 
ENDROOT
TORSDOF 0
ENDMDL
MODEL 4
REMARK VINA RESULT:    -4.359      1.058      2.693
REMARK INTER + INTRA:          -4.359
REMARK INTER:                  -4.359
REMARK INTRA:                   0.000
REMARK UNBOUND:                 0.000
REMARK SMILES C=C1[C@H]2CC[C@H](C2)C1(C)C
REMARK SMILES IDX 9 1 8 2 6 3 5 4 4 5 3 6 7 7 2 8 1 9 10 10
REMARK H PARENT
REMARK Flexibility Score: inf
ROOT
ATOM      1  C   UNL     1       6.609   4.913  14.760  1.00  0.00     0.016 C 
ATOM      2  C   UNL     1       6.239   5.670  13.465  1.00  0.00    -0.012 C 
ATOM      3  C   UNL     1       5.923   7.179  13.760  1.00  0.00    -0.001 C 
ATOM      4  C   UNL     1       5.368   7.889  12.501  1.00  0.00     0.005 C 
ATOM      5  C   UNL     1       6.589   7.916  11.556  1.00  0.00     0.008 C 
ATOM      6  C   UNL     1       7.711   7.322  12.426  1.00  0.00     0.015 C 
ATOM      7  C   UNL     1       7.312   7.806  13.802  1.00  0.00     0.012 C 
ATOM      8  C   UNL     1       7.440   5.849  12.568  1.00  0.00    -0.068 C 
ATOM      9  C   UNL     1       8.123   4.876  11.951  1.00  0.00     0.008 C 
ATOM     10  C   UNL     1       5.095   4.917  12.752  1.00  0.00     0.016 C 
ENDROOT
TORSDOF 0
ENDMDL
MODEL 5
REMARK VINA RESULT:    -3.470      1.089      2.543
REMARK INTER + INTRA:          -3.470
REMARK INTER:                  -3.470
REMARK INTRA:                   0.000
REMARK UNBOUND:                 0.000
REMARK SMILES C=C1[C@H]2CC[C@H](C2)C1(C)C
REMARK SMILES IDX 9 1 8 2 6 3 5 4 4 5 3 6 7 7 2 8 1 9 10 10
REMARK H PARENT
REMARK Flexibility Score: inf
ROOT
ATOM      1  C   UNL     1       5.953   8.562  11.666  1.00  0.00     0.016 C 
ATOM      2  C   UNL     1       5.747   7.419  12.685  1.00  0.00    -0.012 C 
ATOM      3  C   UNL     1       5.896   6.014  12.001  1.00  0.00    -0.001 C 
ATOM      4  C   UNL     1       5.503   4.875  12.973  1.00  0.00     0.005 C 
ATOM      5  C   UNL     1       6.625   4.923  14.032  1.00  0.00     0.008 C 
ATOM      6  C   UNL     1       7.574   6.002  13.479  1.00  0.00     0.015 C 
ATOM      7  C   UNL     1       7.408   5.812  11.987  1.00  0.00     0.012 C 
ATOM      8  C   UNL     1       6.897   7.334  13.659  1.00  0.00    -0.068 C 
ATOM      9  C   UNL     1       7.235   8.253  14.572  1.00  0.00     0.008 C 
ATOM     10  C   UNL     1       4.396   7.624  13.406  1.00  0.00     0.016 C 
ENDROOT
TORSDOF 0
ENDMDL
MODEL 6
REMARK VINA RESULT:    -3.294      0.972      3.206
REMARK INTER + INTRA:          -3.294
REMARK INTER:                  -3.294
REMARK INTRA:                   0.000
REMARK UNBOUND:                 0.000
REMARK SMILES C=C1[C@H]2CC[C@H](C2)C1(C)C
REMARK SMILES IDX 9 1 8 2 6 3 5 4 4 5 3 6 7 7 2 8 1 9 10 10
REMARK H PARENT
REMARK Flexibility Score: inf
ROOT
ATOM      1  C   UNL     1       7.879   7.033  11.433  1.00  0.00     0.016 C 
ATOM      2  C   UNL     1       6.810   7.274  12.522  1.00  0.00    -0.012 C 
ATOM      3  C   UNL     1       5.678   8.229  12.005  1.00  0.00    -0.001 C 
ATOM      4  C   UNL     1       4.714   8.623  13.152  1.00  0.00     0.005 C 
ATOM      5  C   UNL     1       3.997   7.293  13.471  1.00  0.00     0.008 C 
ATOM      6  C   UNL     1       4.556   6.336  12.402  1.00  0.00     0.015 C 
ATOM      7  C   UNL     1       4.767   7.277  11.237  1.00  0.00     0.012 C 
ATOM      8  C   UNL     1       5.984   6.034  12.769  1.00  0.00    -0.068 C 
ATOM      9  C   UNL     1       6.421   4.877  13.280  1.00  0.00     0.008 C 
ATOM     10  C   UNL     1       7.507   7.767  13.810  1.00  0.00     0.016 C 
ENDROOT
TORSDOF 0
ENDMDL
MODEL 7
REMARK VINA RESULT:    -3.230      0.975      3.072
REMARK INTER + INTRA:          -3.230
REMARK INTER:                  -3.230
REMARK INTRA:                   0.000
REMARK UNBOUND:                 0.000
REMARK SMILES C=C1[C@H]2CC[C@H](C2)C1(C)C
REMARK SMILES IDX 9 1 8 2 6 3 5 4 4 5 3 6 7 7 2 8 1 9 10 10
REMARK H PARENT
REMARK Flexibility Score: inf
ROOT
ATOM      1  C   UNL     1       6.660   4.890  13.890  1.00  0.00     0.016 C 
ATOM      2  C   UNL     1       6.568   6.083  12.912  1.00  0.00    -0.012 C 
ATOM      3  C   UNL     1       5.119   6.228  12.328  1.00  0.00    -0.001 C 
ATOM      4  C   UNL     1       5.074   7.296  11.208  1.00  0.00     0.005 C 
ATOM      5  C   UNL     1       5.326   8.611  11.977  1.00  0.00     0.008 C 
ATOM      6  C   UNL     1       5.374   8.148  13.444  1.00  0.00     0.015 C 
ATOM      7  C   UNL     1       4.395   6.996  13.428  1.00  0.00     0.012 C 
ATOM      8  C   UNL     1       6.666   7.402  13.639  1.00  0.00    -0.068 C 
ATOM      9  C   UNL     1       7.733   7.867  14.301  1.00  0.00     0.008 C 
ATOM     10  C   UNL     1       7.667   5.936  11.836  1.00  0.00     0.016 C 
ENDROOT
TORSDOF 0
ENDMDL
MODEL 8
REMARK VINA RESULT:    -2.679      1.038      3.022
REMARK INTER + INTRA:          -2.679
REMARK INTER:                  -2.679
REMARK INTRA:                   0.000
REMARK UNBOUND:                 0.000
REMARK SMILES C=C1[C@H]2CC[C@H](C2)C1(C)C
REMARK SMILES IDX 9 1 8 2 6 3 5 4 4 5 3 6 7 7 2 8 1 9 10 10
REMARK H PARENT
REMARK Flexibility Score: inf
ROOT
ATOM      1  C   UNL     1       7.854   7.943  14.244  1.00  0.00     0.016 C 
ATOM      2  C   UNL     1       6.783   7.154  13.458  1.00  0.00    -0.012 C 
ATOM      3  C   UNL     1       5.361   7.793  13.638  1.00  0.00    -0.001 C 
ATOM      4  C   UNL     1       4.264   6.898  13.011  1.00  0.00     0.005 C 
ATOM      5  C   UNL     1       4.557   7.000  11.499  1.00  0.00     0.008 C 
ATOM      6  C   UNL     1       5.708   8.021  11.441  1.00  0.00     0.015 C 
ATOM      7  C   UNL     1       5.373   8.920  12.610  1.00  0.00     0.012 C 
ATOM      8  C   UNL     1       6.942   7.340  11.968  1.00  0.00    -0.068 C 
ATOM      9  C   UNL     1       7.973   6.926  11.221  1.00  0.00     0.008 C 
ATOM     10  C   UNL     1       6.857   5.665  13.863  1.00  0.00     0.016 C 
ENDROOT
TORSDOF 0
ENDMDL
