MODEL 1
REMARK VINA RESULT:    -5.790      0.000      0.000
REMARK INTER + INTRA:          -7.117
REMARK INTER:                  -6.805
REMARK INTRA:                  -0.312
REMARK UNBOUND:                -0.312
REMARK SMILES O=c1cc(-c2ccc(O)c(O)c2)oc2cc(O)cc(O)c12
REMARK SMILES IDX 4 1 3 2 2 3 1 4 21 5 19 6 18 7 16 8 15 9 14 10 13 11 5 12
REMARK SMILES IDX 6 13 7 14 8 15 12 16 10 17 9 18 11 20 20 22 17 24
REMARK H PARENT 9 19 11 21 20 23 17 25
REMARK Flexibility Score: inf
ROOT
ATOM      1  C   UNL     1       3.427   9.329  -1.723  1.00  0.00     0.138 A 
ATOM      2  C   UNL     1       2.419   9.879  -0.918  1.00  0.00     0.100 A 
ATOM      3  C   UNL     1       2.439   9.660   0.460  1.00  0.00     0.197 A 
ATOM      4  O   UNL     1       1.488  10.113   1.147  1.00  0.00    -0.289 OA
ATOM      5  C   UNL     1       3.493   8.913   1.037  1.00  0.00     0.107 A 
ATOM      6  C   UNL     1       3.639   8.659   2.434  1.00  0.00     0.134 A 
ATOM      7  C   UNL     1       4.658   7.808   2.879  1.00  0.00     0.093 A 
ATOM      8  C   UNL     1       5.572   7.250   1.985  1.00  0.00     0.123 A 
ATOM      9  C   UNL     1       5.471   7.534   0.623  1.00  0.00     0.094 A 
ATOM     10  C   UNL     1       4.444   8.352   0.144  1.00  0.00     0.146 A 
ATOM     11  O   UNL     1       4.374   8.586  -1.161  1.00  0.00    -0.456 OA
ENDROOT
BRANCH   1  12
ATOM     12  C   UNL     1       3.454   9.533  -3.193  1.00  0.00     0.021 A 
ATOM     13  C   UNL     1       2.274   9.896  -3.862  1.00  0.00     0.016 A 
ATOM     14  C   UNL     1       2.273  10.087  -5.245  1.00  0.00     0.051 A 
ATOM     15  C   UNL     1       3.442   9.911  -5.992  1.00  0.00     0.157 A 
ATOM     16  C   UNL     1       4.628   9.342  -3.946  1.00  0.00     0.062 A 
ATOM     17  C   UNL     1       4.635   9.529  -5.334  1.00  0.00     0.158 A 
BRANCH  15  18
ATOM     18  O   UNL     1       3.374  10.124  -7.370  1.00  0.00    -0.504 OA
ATOM     19  H   UNL     1       3.233  11.028  -7.796  1.00  0.00     0.293 HD
ENDBRANCH  15  18
BRANCH  17  20
ATOM     20  O   UNL     1       5.836   9.319  -6.014  1.00  0.00    -0.504 OA
ATOM     21  H   UNL     1       5.916   9.284  -7.020  1.00  0.00     0.293 HD
ENDBRANCH  17  20
ENDBRANCH   1  12
BRANCH   6  22
ATOM     22  O   UNL     1       2.833   9.235   3.421  1.00  0.00    -0.507 OA
ATOM     23  H   UNL     1       2.562   8.782   4.281  1.00  0.00     0.293 HD
ENDBRANCH   6  22
BRANCH   8  24
ATOM     24  O   UNL     1       6.583   6.420   2.465  1.00  0.00    -0.508 OA
ATOM     25  H   UNL     1       7.009   6.572   3.371  1.00  0.00     0.293 HD
ENDBRANCH   8  24
TORSDOF 5
ENDMDL
MODEL 2
REMARK VINA RESULT:    -5.170      1.453      2.472
REMARK INTER + INTRA:          -6.389
REMARK INTER:                  -6.099
REMARK INTRA:                  -0.291
REMARK UNBOUND:                -0.312
REMARK SMILES O=c1cc(-c2ccc(O)c(O)c2)oc2cc(O)cc(O)c12
REMARK SMILES IDX 4 1 3 2 2 3 1 4 21 5 19 6 18 7 16 8 15 9 14 10 13 11 5 12
REMARK SMILES IDX 6 13 7 14 8 15 12 16 10 17 9 18 11 20 20 22 17 24
REMARK H PARENT 9 19 11 21 20 23 17 25
REMARK Flexibility Score: inf
ROOT
ATOM      1  C   UNL     1       4.448   9.620  -2.056  1.00  0.00     0.138 A 
ATOM      2  C   UNL     1       5.726   9.923  -1.566  1.00  0.00     0.100 A 
ATOM      3  C   UNL     1       5.996   9.780  -0.204  1.00  0.00     0.197 A 
ATOM      4  O   UNL     1       7.132  10.120   0.214  1.00  0.00    -0.289 OA
ATOM      5  C   UNL     1       4.988   9.302   0.665  1.00  0.00     0.107 A 
ATOM      6  C   UNL     1       5.160   9.078   2.064  1.00  0.00     0.134 A 
ATOM      7  C   UNL     1       4.058   8.713   2.847  1.00  0.00     0.093 A 
ATOM      8  C   UNL     1       2.805   8.505   2.272  1.00  0.00     0.123 A 
ATOM      9  C   UNL     1       2.636   8.668   0.897  1.00  0.00     0.094 A 
ATOM     10  C   UNL     1       3.709   9.065   0.095  1.00  0.00     0.146 A 
ATOM     11  O   UNL     1       3.504   9.224  -1.208  1.00  0.00    -0.456 OA
ENDROOT
BRANCH   1  12
ATOM     12  C   UNL     1       4.108   9.752  -3.495  1.00  0.00     0.021 A 
ATOM     13  C   UNL     1       2.774   9.970  -3.872  1.00  0.00     0.016 A 
ATOM     14  C   UNL     1       2.428  10.092  -5.219  1.00  0.00     0.051 A 
ATOM     15  C   UNL     1       3.400   9.988  -6.219  1.00  0.00     0.157 A 
ATOM     16  C   UNL     1       5.086   9.633  -4.500  1.00  0.00     0.062 A 
ATOM     17  C   UNL     1       4.747   9.751  -5.855  1.00  0.00     0.158 A 
BRANCH  15  18
ATOM     18  O   UNL     1       2.990  10.125  -7.546  1.00  0.00    -0.504 OA
ATOM     19  H   UNL     1       3.622  10.163  -8.332  1.00  0.00     0.293 HD
ENDBRANCH  15  18
BRANCH  17  20
ATOM     20  O   UNL     1       5.770   9.620  -6.796  1.00  0.00    -0.504 OA
ATOM     21  H   UNL     1       6.703   9.304  -6.575  1.00  0.00     0.293 HD
ENDBRANCH  17  20
ENDBRANCH   1  12
BRANCH   6  22
ATOM     22  O   UNL     1       6.389   9.175   2.726  1.00  0.00    -0.507 OA
ATOM     23  H   UNL     1       7.180   8.571   2.564  1.00  0.00     0.293 HD
ENDBRANCH   6  22
BRANCH   8  24
ATOM     24  O   UNL     1       1.733   8.127   3.079  1.00  0.00    -0.508 OA
ATOM     25  H   UNL     1       0.838   8.600   3.028  1.00  0.00     0.293 HD
ENDBRANCH   8  24
TORSDOF 5
ENDMDL
MODEL 3
REMARK VINA RESULT:    -5.116      1.877      7.388
REMARK INTER + INTRA:          -6.325
REMARK INTER:                  -6.060
REMARK INTRA:                  -0.265
REMARK UNBOUND:                -0.312
REMARK SMILES O=c1cc(-c2ccc(O)c(O)c2)oc2cc(O)cc(O)c12
REMARK SMILES IDX 4 1 3 2 2 3 1 4 21 5 19 6 18 7 16 8 15 9 14 10 13 11 5 12
REMARK SMILES IDX 6 13 7 14 8 15 12 16 10 17 9 18 11 20 20 22 17 24
REMARK H PARENT 9 19 11 21 20 23 17 25
REMARK Flexibility Score: inf
ROOT
ATOM      1  C   UNL     1       3.789   9.138   0.076  1.00  0.00     0.138 A 
ATOM      2  C   UNL     1       5.031   8.893  -0.527  1.00  0.00     0.100 A 
ATOM      3  C   UNL     1       5.152   8.969  -1.915  1.00  0.00     0.197 A 
ATOM      4  O   UNL     1       6.263   8.683  -2.430  1.00  0.00    -0.289 OA
ATOM      5  C   UNL     1       4.029   9.324  -2.699  1.00  0.00     0.107 A 
ATOM      6  C   UNL     1       4.044   9.471  -4.119  1.00  0.00     0.134 A 
ATOM      7  C   UNL     1       2.844   9.711  -4.801  1.00  0.00     0.093 A 
ATOM      8  C   UNL     1       1.643   9.868  -4.111  1.00  0.00     0.123 A 
ATOM      9  C   UNL     1       1.625   9.780  -2.719  1.00  0.00     0.094 A 
ATOM     10  C   UNL     1       2.800   9.506  -2.012  1.00  0.00     0.146 A 
ATOM     11  O   UNL     1       2.738   9.415  -0.689  1.00  0.00    -0.456 OA
ENDROOT
BRANCH   1  12
ATOM     12  C   UNL     1       3.606   9.072   1.548  1.00  0.00     0.021 A 
ATOM     13  C   UNL     1       4.073  10.125   2.350  1.00  0.00     0.016 A 
ATOM     14  C   UNL     1       3.917  10.084   3.737  1.00  0.00     0.051 A 
ATOM     15  C   UNL     1       3.304   8.990   4.355  1.00  0.00     0.157 A 
ATOM     16  C   UNL     1       3.001   7.963   2.170  1.00  0.00     0.062 A 
ATOM     17  C   UNL     1       2.844   7.912   3.561  1.00  0.00     0.158 A 
BRANCH  15  18
ATOM     18  O   UNL     1       3.175   9.013   5.745  1.00  0.00    -0.504 OA
ATOM     19  H   UNL     1       3.724   8.445   6.373  1.00  0.00     0.293 HD
ENDBRANCH  15  18
BRANCH  17  20
ATOM     20  O   UNL     1       2.237   6.780   4.107  1.00  0.00    -0.504 OA
ATOM     21  H   UNL     1       2.736   5.939   4.361  1.00  0.00     0.293 HD
ENDBRANCH  17  20
ENDBRANCH   1  12
BRANCH   6  22
ATOM     22  O   UNL     1       5.204   9.418  -4.898  1.00  0.00    -0.507 OA
ATOM     23  H   UNL     1       6.143   9.511  -4.542  1.00  0.00     0.293 HD
ENDBRANCH   6  22
BRANCH   8  24
ATOM     24  O   UNL     1       0.471  10.121  -4.821  1.00  0.00    -0.508 OA
ATOM     25  H   UNL     1      -0.291  10.652  -4.415  1.00  0.00     0.293 HD
ENDBRANCH   8  24
TORSDOF 5
ENDMDL
MODEL 4
REMARK VINA RESULT:    -4.289      1.471      7.067
REMARK INTER + INTRA:          -5.354
REMARK INTER:                  -5.058
REMARK INTRA:                  -0.296
REMARK UNBOUND:                -0.312
REMARK SMILES O=c1cc(-c2ccc(O)c(O)c2)oc2cc(O)cc(O)c12
REMARK SMILES IDX 4 1 3 2 2 3 1 4 21 5 19 6 18 7 16 8 15 9 14 10 13 11 5 12
REMARK SMILES IDX 6 13 7 14 8 15 12 16 10 17 9 18 11 20 20 22 17 24
REMARK H PARENT 9 19 11 21 20 23 17 25
REMARK Flexibility Score: inf
ROOT
ATOM      1  C   UNL     1       3.728   9.362  -2.078  1.00  0.00     0.138 A 
ATOM      2  C   UNL     1       2.464   9.584  -2.642  1.00  0.00     0.100 A 
ATOM      3  C   UNL     1       2.351   9.834  -4.010  1.00  0.00     0.197 A 
ATOM      4  O   UNL     1       1.211  10.091  -4.475  1.00  0.00    -0.289 OA
ATOM      5  C   UNL     1       3.509   9.830  -4.822  1.00  0.00     0.107 A 
ATOM      6  C   UNL     1       3.512  10.033  -6.235  1.00  0.00     0.134 A 
ATOM      7  C   UNL     1       4.731  10.125  -6.918  1.00  0.00     0.093 A 
ATOM      8  C   UNL     1       5.945   9.961  -6.250  1.00  0.00     0.123 A 
ATOM      9  C   UNL     1       5.953   9.709  -4.877  1.00  0.00     0.094 A 
ATOM     10  C   UNL     1       4.754   9.646  -4.163  1.00  0.00     0.146 A 
ATOM     11  O   UNL     1       4.805   9.419  -2.855  1.00  0.00    -0.456 OA
ENDROOT
BRANCH   1  12
ATOM     12  C   UNL     1       3.904   9.090  -0.629  1.00  0.00     0.021 A 
ATOM     13  C   UNL     1       5.193   9.101  -0.076  1.00  0.00     0.016 A 
ATOM     14  C   UNL     1       5.386   8.843   1.282  1.00  0.00     0.051 A 
ATOM     15  C   UNL     1       4.300   8.557   2.116  1.00  0.00     0.157 A 
ATOM     16  C   UNL     1       2.811   8.789   0.205  1.00  0.00     0.062 A 
ATOM     17  C   UNL     1       2.995   8.524   1.569  1.00  0.00     0.158 A 
BRANCH  15  18
ATOM     18  O   UNL     1       4.559   8.313   3.466  1.00  0.00    -0.504 OA
ATOM     19  H   UNL     1       5.486   8.245   3.860  1.00  0.00     0.293 HD
ENDBRANCH  15  18
BRANCH  17  20
ATOM     20  O   UNL     1       1.865   8.231   2.334  1.00  0.00    -0.504 OA
ATOM     21  H   UNL     1       1.301   7.401   2.214  1.00  0.00     0.293 HD
ENDBRANCH  17  20
ENDBRANCH   1  12
BRANCH   6  22
ATOM     22  O   UNL     1       2.354  10.125  -7.014  1.00  0.00    -0.507 OA
ATOM     23  H   UNL     1       1.570   9.493  -6.956  1.00  0.00     0.293 HD
ENDBRANCH   6  22
BRANCH   8  24
ATOM     24  O   UNL     1       7.139  10.043  -6.964  1.00  0.00    -0.508 OA
ATOM     25  H   UNL     1       8.032   9.852  -6.526  1.00  0.00     0.293 HD
ENDBRANCH   8  24
TORSDOF 5
ENDMDL
MODEL 5
REMARK VINA RESULT:    -4.121      1.441      6.844
REMARK INTER + INTRA:          -5.156
REMARK INTER:                  -4.881
REMARK INTRA:                  -0.275
REMARK UNBOUND:                -0.312
REMARK SMILES O=c1cc(-c2ccc(O)c(O)c2)oc2cc(O)cc(O)c12
REMARK SMILES IDX 4 1 3 2 2 3 1 4 21 5 19 6 18 7 16 8 15 9 14 10 13 11 5 12
REMARK SMILES IDX 6 13 7 14 8 15 12 16 10 17 9 18 11 20 20 22 17 24
REMARK H PARENT 9 19 11 21 20 23 17 25
REMARK Flexibility Score: inf
ROOT
ATOM      1  C   UNL     1       3.326   9.300  -1.383  1.00  0.00     0.138 A 
ATOM      2  C   UNL     1       2.072   9.516  -1.971  1.00  0.00     0.100 A 
ATOM      3  C   UNL     1       1.985   9.780  -3.338  1.00  0.00     0.197 A 
ATOM      4  O   UNL     1       0.853  10.031  -3.824  1.00  0.00    -0.289 OA
ATOM      5  C   UNL     1       3.160   9.796  -4.126  1.00  0.00     0.107 A 
ATOM      6  C   UNL     1       3.190  10.014  -5.536  1.00  0.00     0.134 A 
ATOM      7  C   UNL     1       4.422  10.125  -6.192  1.00  0.00     0.093 A 
ATOM      8  C   UNL     1       5.623   9.965  -5.501  1.00  0.00     0.123 A 
ATOM      9  C   UNL     1       5.605   9.697  -4.132  1.00  0.00     0.094 A 
ATOM     10  C   UNL     1       4.392   9.616  -3.443  1.00  0.00     0.146 A 
ATOM     11  O   UNL     1       4.418   9.374  -2.137  1.00  0.00    -0.456 OA
ENDROOT
BRANCH   1  12
ATOM     12  C   UNL     1       3.474   9.013   0.066  1.00  0.00     0.021 A 
ATOM     13  C   UNL     1       3.079   9.978   1.005  1.00  0.00     0.016 A 
ATOM     14  C   UNL     1       3.214   9.735   2.373  1.00  0.00     0.051 A 
ATOM     15  C   UNL     1       3.755   8.531   2.834  1.00  0.00     0.157 A 
ATOM     16  C   UNL     1       4.032   7.806   0.528  1.00  0.00     0.062 A 
ATOM     17  C   UNL     1       4.174   7.555   1.899  1.00  0.00     0.158 A 
BRANCH  15  18
ATOM     18  O   UNL     1       3.857   8.347   4.214  1.00  0.00    -0.504 OA
ATOM     19  H   UNL     1       4.552   8.794   4.794  1.00  0.00     0.293 HD
ENDBRANCH  15  18
BRANCH  17  20
ATOM     20  O   UNL     1       4.737   6.336   2.284  1.00  0.00    -0.504 OA
ATOM     21  H   UNL     1       5.426   6.239   3.015  1.00  0.00     0.293 HD
ENDBRANCH  17  20
ENDBRANCH   1  12
BRANCH   6  22
ATOM     22  O   UNL     1       2.047  10.104  -6.338  1.00  0.00    -0.507 OA
ATOM     23  H   UNL     1       1.297  10.764  -6.201  1.00  0.00     0.293 HD
ENDBRANCH   6  22
BRANCH   8  24
ATOM     24  O   UNL     1       6.831  10.066  -6.189  1.00  0.00    -0.508 OA
ATOM     25  H   UNL     1       7.102   9.383  -6.887  1.00  0.00     0.293 HD
ENDBRANCH   8  24
TORSDOF 5
ENDMDL
