MODEL 1
REMARK VINA RESULT:    -4.465      0.000      0.000
REMARK INTER + INTRA:          -8.761
REMARK INTER:                  -7.858
REMARK INTRA:                  -0.903
REMARK UNBOUND:                -0.903
REMARK SMILES CCCCCCC=CCCCCCCCC(=O)[O-]
REMARK SMILES IDX 10 1 11 2 12 3 13 4 14 5 15 6 16 7 17 8 18 9 9 10 8 11 7 12
REMARK SMILES IDX 6 13 5 14 4 15 3 16 2 17 1 18
REMARK H PARENT
REMARK Flexibility Score: inf
ROOT
ATOM      1  C   UNL     1      41.252  -4.505  -2.744  1.00  0.00     0.004 C 
ENDROOT
BRANCH   1   2
ATOM      2  C   UNL     1      41.804  -5.395  -1.621  1.00  0.00     0.000 C 
BRANCH   2   3
ATOM      3  C   UNL     1      41.703  -6.892  -1.948  1.00  0.00     0.000 C 
BRANCH   3   4
ATOM      4  C   UNL     1      41.715  -7.735  -0.664  1.00  0.00     0.000 C 
BRANCH   4   5
ATOM      5  C   UNL     1      40.303  -8.049  -0.146  1.00  0.00     0.006 C 
BRANCH   5   6
ATOM      6  C   UNL     1      40.125  -7.700   1.337  1.00  0.00     0.053 C 
BRANCH   6   7
ATOM      7  C   UNL     1      39.540  -6.331   1.485  1.00  0.00     0.041 C 
ATOM      8  O   UNL     1      38.291  -6.179   1.544  1.00  0.00    -0.550 OA
ATOM      9  O   UNL     1      40.376  -5.228   1.606  1.00  0.00    -0.550 OA
ENDBRANCH   6   7
ENDBRANCH   5   6
ENDBRANCH   4   5
ENDBRANCH   3   4
ENDBRANCH   2   3
ENDBRANCH   1   2
BRANCH   1  10
ATOM     10  C   UNL     1      41.842  -4.851  -4.119  1.00  0.00     0.027 C 
BRANCH  10  11
ATOM     11  C   UNL     1      40.766  -4.934  -5.166  1.00  0.00    -0.031 C 
ATOM     12  C   UNL     1      40.587  -6.041  -5.904  1.00  0.00    -0.031 C 
BRANCH  12  13
ATOM     13  C   UNL     1      39.497  -6.133  -6.935  1.00  0.00     0.027 C 
BRANCH  13  14
ATOM     14  C   UNL     1      38.293  -6.923  -6.398  1.00  0.00     0.004 C 
BRANCH  14  15
ATOM     15  C   UNL     1      36.948  -6.239  -6.699  1.00  0.00     0.000 C 
BRANCH  15  16
ATOM     16  C   UNL     1      37.058  -5.074  -7.707  1.00  0.00    -0.000 C 
BRANCH  16  17
ATOM     17  C   UNL     1      35.682  -4.594  -8.191  1.00  0.00    -0.003 C 
ATOM     18  C   UNL     1      35.758  -3.175  -8.750  1.00  0.00     0.004 C 
ENDBRANCH  16  17
ENDBRANCH  15  16
ENDBRANCH  14  15
ENDBRANCH  13  14
ENDBRANCH  12  13
ENDBRANCH  10  11
ENDBRANCH   1  10
TORSDOF 13
ENDMDL
MODEL 2
REMARK VINA RESULT:    -4.429     18.540     21.089
REMARK INTER + INTRA:          -8.698
REMARK INTER:                  -7.291
REMARK INTRA:                  -1.407
REMARK UNBOUND:                -0.903
REMARK SMILES CCCCCCC=CCCCCCCCC(=O)[O-]
REMARK SMILES IDX 10 1 11 2 12 3 13 4 14 5 15 6 16 7 17 8 18 9 9 10 8 11 7 12
REMARK SMILES IDX 6 13 5 14 4 15 3 16 2 17 1 18
REMARK H PARENT
REMARK Flexibility Score: inf
ROOT
ATOM      1  C   UNL     1      21.982  -0.618   9.378  1.00  0.00     0.004 C 
ENDROOT
BRANCH   1   2
ATOM      2  C   UNL     1      22.051  -1.393   8.053  1.00  0.00     0.000 C 
BRANCH   2   3
ATOM      3  C   UNL     1      22.468  -2.859   8.246  1.00  0.00     0.000 C 
BRANCH   3   4
ATOM      4  C   UNL     1      23.429  -3.003   9.435  1.00  0.00     0.000 C 
BRANCH   4   5
ATOM      5  C   UNL     1      24.905  -3.018   9.007  1.00  0.00     0.006 C 
BRANCH   5   6
ATOM      6  C   UNL     1      25.753  -1.990   9.768  1.00  0.00     0.053 C 
BRANCH   6   7
ATOM      7  C   UNL     1      27.016  -1.701   9.023  1.00  0.00     0.041 C 
ATOM      8  O   UNL     1      27.918  -0.999   9.553  1.00  0.00    -0.550 OA
ATOM      9  O   UNL     1      27.219  -2.245   7.761  1.00  0.00    -0.550 OA
ENDBRANCH   6   7
ENDBRANCH   5   6
ENDBRANCH   4   5
ENDBRANCH   3   4
ENDBRANCH   2   3
ENDBRANCH   1   2
BRANCH   1  10
ATOM     10  C   UNL     1      22.416   0.847   9.230  1.00  0.00     0.027 C 
BRANCH  10  11
ATOM     11  C   UNL     1      23.825   1.047   9.714  1.00  0.00    -0.031 C 
ATOM     12  C   UNL     1      24.570   2.086   9.302  1.00  0.00    -0.031 C 
BRANCH  12  13
ATOM     13  C   UNL     1      25.970   2.299   9.804  1.00  0.00     0.027 C 
BRANCH  13  14
ATOM     14  C   UNL     1      26.306   3.796   9.888  1.00  0.00     0.004 C 
BRANCH  14  15
ATOM     15  C   UNL     1      26.156   4.518   8.538  1.00  0.00     0.000 C 
BRANCH  15  16
ATOM     16  C   UNL     1      25.402   5.862   8.636  1.00  0.00    -0.000 C 
BRANCH  16  17
ATOM     17  C   UNL     1      24.373   6.034   7.509  1.00  0.00    -0.003 C 
ATOM     18  C   UNL     1      23.205   5.066   7.676  1.00  0.00     0.004 C 
ENDBRANCH  16  17
ENDBRANCH  15  16
ENDBRANCH  14  15
ENDBRANCH  13  14
ENDBRANCH  12  13
ENDBRANCH  10  11
ENDBRANCH   1  10
TORSDOF 13
ENDMDL
MODEL 3
REMARK VINA RESULT:    -4.392      3.701      7.784
REMARK INTER + INTRA:          -8.632
REMARK INTER:                  -7.731
REMARK INTRA:                  -0.901
REMARK UNBOUND:                -0.903
REMARK SMILES CCCCCCC=CCCCCCCCC(=O)[O-]
REMARK SMILES IDX 10 1 11 2 12 3 13 4 14 5 15 6 16 7 17 8 18 9 9 10 8 11 7 12
REMARK SMILES IDX 6 13 5 14 4 15 3 16 2 17 1 18
REMARK H PARENT
REMARK Flexibility Score: inf
ROOT
ATOM      1  C   UNL     1      40.980  -5.532  -5.317  1.00  0.00     0.004 C 
ENDROOT
BRANCH   1   2
ATOM      2  C   UNL     1      40.901  -5.274  -6.830  1.00  0.00     0.000 C 
BRANCH   2   3
ATOM      3  C   UNL     1      39.584  -5.767  -7.446  1.00  0.00     0.000 C 
BRANCH   3   4
ATOM      4  C   UNL     1      38.677  -6.391  -6.375  1.00  0.00     0.000 C 
BRANCH   4   5
ATOM      5  C   UNL     1      37.190  -6.354  -6.761  1.00  0.00     0.006 C 
BRANCH   5   6
ATOM      6  C   UNL     1      36.801  -5.061  -7.491  1.00  0.00     0.053 C 
BRANCH   6   7
ATOM      7  C   UNL     1      35.390  -5.144  -7.981  1.00  0.00     0.041 C 
ATOM      8  O   UNL     1      34.633  -4.139  -7.906  1.00  0.00    -0.550 OA
ATOM      9  O   UNL     1      34.924  -6.315  -8.565  1.00  0.00    -0.550 OA
ENDBRANCH   6   7
ENDBRANCH   5   6
ENDBRANCH   4   5
ENDBRANCH   3   4
ENDBRANCH   2   3
ENDBRANCH   1   2
BRANCH   1  10
ATOM     10  C   UNL     1      41.360  -4.275  -4.521  1.00  0.00     0.027 C 
BRANCH  10  11
ATOM     11  C   UNL     1      41.348  -4.546  -3.042  1.00  0.00    -0.031 C 
ATOM     12  C   UNL     1      41.916  -5.646  -2.524  1.00  0.00    -0.031 C 
BRANCH  12  13
ATOM     13  C   UNL     1      41.926  -5.906  -1.043  1.00  0.00     0.027 C 
BRANCH  13  14
ATOM     14  C   UNL     1      42.068  -7.406  -0.745  1.00  0.00     0.004 C 
BRANCH  14  15
ATOM     15  C   UNL     1      40.875  -8.232  -1.256  1.00  0.00     0.000 C 
BRANCH  15  16
ATOM     16  C   UNL     1      40.252  -9.150  -0.181  1.00  0.00    -0.000 C 
BRANCH  16  17
ATOM     17  C   UNL     1      38.897  -8.624   0.316  1.00  0.00    -0.003 C 
ATOM     18  C   UNL     1      39.075  -7.660   1.487  1.00  0.00     0.004 C 
ENDBRANCH  16  17
ENDBRANCH  15  16
ENDBRANCH  14  15
ENDBRANCH  13  14
ENDBRANCH  12  13
ENDBRANCH  10  11
ENDBRANCH   1  10
TORSDOF 13
ENDMDL
MODEL 4
REMARK VINA RESULT:    -4.353     16.811     19.302
REMARK INTER + INTRA:          -8.564
REMARK INTER:                  -7.950
REMARK INTRA:                  -0.614
REMARK UNBOUND:                -0.903
REMARK SMILES CCCCCCC=CCCCCCCCC(=O)[O-]
REMARK SMILES IDX 10 1 11 2 12 3 13 4 14 5 15 6 16 7 17 8 18 9 9 10 8 11 7 12
REMARK SMILES IDX 6 13 5 14 4 15 3 16 2 17 1 18
REMARK H PARENT
REMARK Flexibility Score: inf
ROOT
ATOM      1  C   UNL     1      31.710   7.148   9.289  1.00  0.00     0.004 C 
ENDROOT
BRANCH   1   2
ATOM      2  C   UNL     1      33.239   7.267   9.390  1.00  0.00     0.000 C 
BRANCH   2   3
ATOM      3  C   UNL     1      33.913   5.934   9.750  1.00  0.00     0.000 C 
BRANCH   3   4
ATOM      4  C   UNL     1      35.409   5.966   9.402  1.00  0.00     0.000 C 
BRANCH   4   5
ATOM      5  C   UNL     1      36.098   4.611   9.625  1.00  0.00     0.006 C 
BRANCH   5   6
ATOM      6  C   UNL     1      36.737   4.055   8.346  1.00  0.00     0.053 C 
BRANCH   6   7
ATOM      7  C   UNL     1      36.515   2.578   8.250  1.00  0.00     0.041 C 
ATOM      8  O   UNL     1      37.251   1.874   7.509  1.00  0.00    -0.550 OA
ATOM      9  O   UNL     1      35.527   1.973   9.016  1.00  0.00    -0.550 OA
ENDBRANCH   6   7
ENDBRANCH   5   6
ENDBRANCH   4   5
ENDBRANCH   3   4
ENDBRANCH   2   3
ENDBRANCH   1   2
BRANCH   1  10
ATOM     10  C   UNL     1      31.219   5.699   9.416  1.00  0.00     0.027 C 
BRANCH  10  11
ATOM     11  C   UNL     1      29.774   5.651   9.829  1.00  0.00    -0.031 C 
ATOM     12  C   UNL     1      28.820   5.199   9.000  1.00  0.00    -0.031 C 
BRANCH  12  13
ATOM     13  C   UNL     1      27.378   5.128   9.421  1.00  0.00     0.027 C 
BRANCH  13  14
ATOM     14  C   UNL     1      26.721   6.516   9.381  1.00  0.00     0.004 C 
BRANCH  14  15
ATOM     15  C   UNL     1      25.259   6.470   8.904  1.00  0.00     0.000 C 
BRANCH  15  16
ATOM     16  C   UNL     1      24.888   5.163   8.171  1.00  0.00    -0.000 C 
BRANCH  16  17
ATOM     17  C   UNL     1      23.516   5.250   7.487  1.00  0.00    -0.003 C 
ATOM     18  C   UNL     1      23.595   6.054   6.192  1.00  0.00     0.004 C 
ENDBRANCH  16  17
ENDBRANCH  15  16
ENDBRANCH  14  15
ENDBRANCH  13  14
ENDBRANCH  12  13
ENDBRANCH  10  11
ENDBRANCH   1  10
TORSDOF 13
ENDMDL
MODEL 5
REMARK VINA RESULT:    -4.292      2.369      4.415
REMARK INTER + INTRA:          -8.457
REMARK INTER:                  -7.626
REMARK INTRA:                  -0.830
REMARK UNBOUND:                -0.903
REMARK SMILES CCCCCCC=CCCCCCCCC(=O)[O-]
REMARK SMILES IDX 10 1 11 2 12 3 13 4 14 5 15 6 16 7 17 8 18 9 9 10 8 11 7 12
REMARK SMILES IDX 6 13 5 14 4 15 3 16 2 17 1 18
REMARK H PARENT
REMARK Flexibility Score: inf
ROOT
ATOM      1  C   UNL     1      36.561 -10.125  -1.130  1.00  0.00     0.004 C 
ENDROOT
BRANCH   1   2
ATOM      2  C   UNL     1      38.088 -10.056  -1.290  1.00  0.00     0.000 C 
BRANCH   2   3
ATOM      3  C   UNL     1      38.766  -9.267  -0.161  1.00  0.00     0.000 C 
BRANCH   3   4
ATOM      4  C   UNL     1      40.264  -9.082  -0.445  1.00  0.00     0.000 C 
BRANCH   4   5
ATOM      5  C   UNL     1      40.766  -7.674  -0.087  1.00  0.00     0.006 C 
BRANCH   5   6
ATOM      6  C   UNL     1      40.527  -7.316   1.385  1.00  0.00     0.053 C 
BRANCH   6   7
ATOM      7  C   UNL     1      39.717  -6.063   1.493  1.00  0.00     0.041 C 
ATOM      8  O   UNL     1      40.282  -4.938   1.454  1.00  0.00    -0.550 OA
ATOM      9  O   UNL     1      38.333  -6.137   1.590  1.00  0.00    -0.550 OA
ENDBRANCH   6   7
ENDBRANCH   5   6
ENDBRANCH   4   5
ENDBRANCH   3   4
ENDBRANCH   2   3
ENDBRANCH   1   2
BRANCH   1  10
ATOM     10  C   UNL     1      35.824 -10.106  -2.476  1.00  0.00     0.027 C 
BRANCH  10  11
ATOM     11  C   UNL     1      36.768  -9.807  -3.608  1.00  0.00    -0.031 C 
ATOM     12  C   UNL     1      36.484  -8.877  -4.534  1.00  0.00    -0.031 C 
BRANCH  12  13
ATOM     13  C   UNL     1      37.439  -8.561  -5.651  1.00  0.00     0.027 C 
BRANCH  13  14
ATOM     14  C   UNL     1      37.137  -7.186  -6.265  1.00  0.00     0.004 C 
BRANCH  14  15
ATOM     15  C   UNL     1      38.263  -6.681  -7.184  1.00  0.00     0.000 C 
BRANCH  15  16
ATOM     16  C   UNL     1      39.028  -5.467  -6.615  1.00  0.00    -0.000 C 
BRANCH  16  17
ATOM     17  C   UNL     1      40.202  -5.888  -5.718  1.00  0.00    -0.003 C 
ATOM     18  C   UNL     1      41.029  -4.680  -5.287  1.00  0.00     0.004 C 
ENDBRANCH  16  17
ENDBRANCH  15  16
ENDBRANCH  14  15
ENDBRANCH  13  14
ENDBRANCH  12  13
ENDBRANCH  10  11
ENDBRANCH   1  10
TORSDOF 13
ENDMDL
MODEL 6
REMARK VINA RESULT:    -4.236      1.458      2.643
REMARK INTER + INTRA:          -8.359
REMARK INTER:                  -7.479
REMARK INTRA:                  -0.879
REMARK UNBOUND:                -0.903
REMARK SMILES CCCCCCC=CCCCCCCCC(=O)[O-]
REMARK SMILES IDX 10 1 11 2 12 3 13 4 14 5 15 6 16 7 17 8 18 9 9 10 8 11 7 12
REMARK SMILES IDX 6 13 5 14 4 15 3 16 2 17 1 18
REMARK H PARENT
REMARK Flexibility Score: inf
ROOT
ATOM      1  C   UNL     1      41.291  -4.628  -3.073  1.00  0.00     0.004 C 
ENDROOT
BRANCH   1   2
ATOM      2  C   UNL     1      42.070  -5.289  -1.926  1.00  0.00     0.000 C 
BRANCH   2   3
ATOM      3  C   UNL     1      41.662  -6.752  -1.699  1.00  0.00     0.000 C 
BRANCH   3   4
ATOM      4  C   UNL     1      41.856  -7.153  -0.229  1.00  0.00     0.000 C 
BRANCH   4   5
ATOM      5  C   UNL     1      40.613  -6.880   0.630  1.00  0.00     0.006 C 
BRANCH   5   6
ATOM      6  C   UNL     1      40.755  -5.619   1.493  1.00  0.00     0.053 C 
BRANCH   6   7
ATOM      7  C   UNL     1      39.411  -5.131   1.932  1.00  0.00     0.041 C 
ATOM      8  O   UNL     1      38.385  -5.834   1.728  1.00  0.00    -0.550 OA
ATOM      9  O   UNL     1      39.296  -3.923   2.607  1.00  0.00    -0.550 OA
ENDBRANCH   6   7
ENDBRANCH   5   6
ENDBRANCH   4   5
ENDBRANCH   3   4
ENDBRANCH   2   3
ENDBRANCH   1   2
BRANCH   1  10
ATOM     10  C   UNL     1      41.940  -4.865  -4.444  1.00  0.00     0.027 C 
BRANCH  10  11
ATOM     11  C   UNL     1      41.066  -5.721  -5.317  1.00  0.00    -0.031 C 
ATOM     12  C   UNL     1      40.162  -5.184  -6.151  1.00  0.00    -0.031 C 
BRANCH  12  13
ATOM     13  C   UNL     1      39.305  -6.039  -7.042  1.00  0.00     0.027 C 
BRANCH  13  14
ATOM     14  C   UNL     1      37.813  -5.749  -6.818  1.00  0.00     0.004 C 
BRANCH  14  15
ATOM     15  C   UNL     1      36.932  -7.001  -6.973  1.00  0.00     0.000 C 
BRANCH  15  16
ATOM     16  C   UNL     1      37.049  -7.990  -5.793  1.00  0.00    -0.000 C 
BRANCH  16  17
ATOM     17  C   UNL     1      37.918  -9.207  -6.140  1.00  0.00    -0.003 C 
ATOM     18  C   UNL     1      38.762  -9.642  -4.945  1.00  0.00     0.004 C 
ENDBRANCH  16  17
ENDBRANCH  15  16
ENDBRANCH  14  15
ENDBRANCH  13  14
ENDBRANCH  12  13
ENDBRANCH  10  11
ENDBRANCH   1  10
TORSDOF 13
ENDMDL
MODEL 7
REMARK VINA RESULT:    -4.231     14.186     16.975
REMARK INTER + INTRA:          -8.349
REMARK INTER:                  -6.296
REMARK INTRA:                  -2.054
REMARK UNBOUND:                -0.903
REMARK SMILES CCCCCCC=CCCCCCCCC(=O)[O-]
REMARK SMILES IDX 10 1 11 2 12 3 13 4 14 5 15 6 16 7 17 8 18 9 9 10 8 11 7 12
REMARK SMILES IDX 6 13 5 14 4 15 3 16 2 17 1 18
REMARK H PARENT
REMARK Flexibility Score: inf
ROOT
ATOM      1  C   UNL     1      36.506   3.475   8.440  1.00  0.00     0.004 C 
ENDROOT
BRANCH   1   2
ATOM      2  C   UNL     1      37.731   2.554   8.328  1.00  0.00     0.000 C 
BRANCH   2   3
ATOM      3  C   UNL     1      38.695   2.706   9.514  1.00  0.00     0.000 C 
BRANCH   3   4
ATOM      4  C   UNL     1      40.096   3.110   9.032  1.00  0.00     0.000 C 
BRANCH   4   5
ATOM      5  C   UNL     1      40.082   4.375   8.160  1.00  0.00     0.006 C 
BRANCH   5   6
ATOM      6  C   UNL     1      41.045   4.285   6.969  1.00  0.00     0.053 C 
BRANCH   6   7
ATOM      7  C   UNL     1      40.283   4.253   5.682  1.00  0.00     0.041 C 
ATOM      8  O   UNL     1      39.834   3.162   5.239  1.00  0.00    -0.550 OA
ATOM      9  O   UNL     1      40.028   5.433   4.996  1.00  0.00    -0.550 OA
ENDBRANCH   6   7
ENDBRANCH   5   6
ENDBRANCH   4   5
ENDBRANCH   3   4
ENDBRANCH   2   3
ENDBRANCH   1   2
BRANCH   1  10
ATOM     10  C   UNL     1      36.126   3.780   9.895  1.00  0.00     0.027 C 
BRANCH  10  11
ATOM     11  C   UNL     1      35.818   5.241  10.080  1.00  0.00    -0.031 C 
ATOM     12  C   UNL     1      34.633   5.761   9.723  1.00  0.00    -0.031 C 
BRANCH  12  13
ATOM     13  C   UNL     1      34.316   7.216   9.929  1.00  0.00     0.027 C 
BRANCH  13  14
ATOM     14  C   UNL     1      34.181   7.949   8.586  1.00  0.00     0.004 C 
BRANCH  14  15
ATOM     15  C   UNL     1      35.539   8.344   7.982  1.00  0.00     0.000 C 
BRANCH  15  16
ATOM     16  C   UNL     1      35.927   7.515   6.737  1.00  0.00    -0.000 C 
BRANCH  16  17
ATOM     17  C   UNL     1      37.233   6.734   6.944  1.00  0.00    -0.003 C 
ATOM     18  C   UNL     1      38.104   7.388   8.014  1.00  0.00     0.004 C 
ENDBRANCH  16  17
ENDBRANCH  15  16
ENDBRANCH  14  15
ENDBRANCH  13  14
ENDBRANCH  12  13
ENDBRANCH  10  11
ENDBRANCH   1  10
TORSDOF 13
ENDMDL
MODEL 8
REMARK VINA RESULT:    -4.228     19.604     22.309
REMARK INTER + INTRA:          -8.343
REMARK INTER:                  -6.799
REMARK INTRA:                  -1.544
REMARK UNBOUND:                -0.903
REMARK SMILES CCCCCCC=CCCCCCCCC(=O)[O-]
REMARK SMILES IDX 10 1 11 2 12 3 13 4 14 5 15 6 16 7 17 8 18 9 9 10 8 11 7 12
REMARK SMILES IDX 6 13 5 14 4 15 3 16 2 17 1 18
REMARK H PARENT
REMARK Flexibility Score: inf
ROOT
ATOM      1  C   UNL     1      26.577   4.575   8.631  1.00  0.00     0.004 C 
ENDROOT
BRANCH   1   2
ATOM      2  C   UNL     1      26.544   6.032   9.116  1.00  0.00     0.000 C 
BRANCH   2   3
ATOM      3  C   UNL     1      25.144   6.476   9.564  1.00  0.00     0.000 C 
BRANCH   3   4
ATOM      4  C   UNL     1      24.423   7.234   8.440  1.00  0.00     0.000 C 
BRANCH   4   5
ATOM      5  C   UNL     1      23.445   6.344   7.656  1.00  0.00     0.006 C 
BRANCH   5   6
ATOM      6  C   UNL     1      23.994   5.925   6.286  1.00  0.00     0.053 C 
BRANCH   6   7
ATOM      7  C   UNL     1      23.276   6.649   5.192  1.00  0.00     0.041 C 
ATOM      8  O   UNL     1      22.874   7.830   5.371  1.00  0.00    -0.550 OA
ATOM      9  O   UNL     1      23.091   6.038   3.959  1.00  0.00    -0.550 OA
ENDBRANCH   6   7
ENDBRANCH   5   6
ENDBRANCH   4   5
ENDBRANCH   3   4
ENDBRANCH   2   3
ENDBRANCH   1   2
BRANCH   1  10
ATOM     10  C   UNL     1      26.528   3.565   9.787  1.00  0.00     0.027 C 
BRANCH  10  11
ATOM     11  C   UNL     1      25.455   2.536   9.563  1.00  0.00    -0.031 C 
ATOM     12  C   UNL     1      24.227   2.880   9.144  1.00  0.00    -0.031 C 
BRANCH  12  13
ATOM     13  C   UNL     1      23.161   1.849   8.897  1.00  0.00     0.027 C 
BRANCH  13  14
ATOM     14  C   UNL     1      23.291   0.672   9.876  1.00  0.00     0.004 C 
BRANCH  14  15
ATOM     15  C   UNL     1      23.037  -0.691   9.208  1.00  0.00     0.000 C 
BRANCH  15  16
ATOM     16  C   UNL     1      24.267  -1.624   9.219  1.00  0.00    -0.000 C 
BRANCH  16  17
ATOM     17  C   UNL     1      25.439  -1.030  10.015  1.00  0.00    -0.003 C 
ATOM     18  C   UNL     1      26.779  -1.509   9.463  1.00  0.00     0.004 C 
ENDBRANCH  16  17
ENDBRANCH  15  16
ENDBRANCH  14  15
ENDBRANCH  13  14
ENDBRANCH  12  13
ENDBRANCH  10  11
ENDBRANCH   1  10
TORSDOF 13
ENDMDL
MODEL 9
REMARK VINA RESULT:    -4.110     18.874     21.136
REMARK INTER + INTRA:          -8.136
REMARK INTER:                  -7.173
REMARK INTRA:                  -0.962
REMARK UNBOUND:                -0.903
REMARK SMILES CCCCCCC=CCCCCCCCC(=O)[O-]
REMARK SMILES IDX 10 1 11 2 12 3 13 4 14 5 15 6 16 7 17 8 18 9 9 10 8 11 7 12
REMARK SMILES IDX 6 13 5 14 4 15 3 16 2 17 1 18
REMARK H PARENT
REMARK Flexibility Score: inf
ROOT
ATOM      1  C   UNL     1      23.385   0.894   9.369  1.00  0.00     0.004 C 
ENDROOT
BRANCH   1   2
ATOM      2  C   UNL     1      22.194   0.042   8.904  1.00  0.00     0.000 C 
BRANCH   2   3
ATOM      3  C   UNL     1      22.624  -1.319   8.338  1.00  0.00     0.000 C 
BRANCH   3   4
ATOM      4  C   UNL     1      23.383  -2.137   9.394  1.00  0.00     0.000 C 
BRANCH   4   5
ATOM      5  C   UNL     1      24.770  -2.589   8.912  1.00  0.00     0.006 C 
BRANCH   5   6
ATOM      6  C   UNL     1      25.896  -2.160   9.862  1.00  0.00     0.053 C 
BRANCH   6   7
ATOM      7  C   UNL     1      26.988  -1.476   9.103  1.00  0.00     0.041 C 
ATOM      8  O   UNL     1      27.501  -2.030   8.094  1.00  0.00    -0.550 OA
ATOM      9  O   UNL     1      27.407  -0.207   9.481  1.00  0.00    -0.550 OA
ENDBRANCH   6   7
ENDBRANCH   5   6
ENDBRANCH   4   5
ENDBRANCH   3   4
ENDBRANCH   2   3
ENDBRANCH   1   2
BRANCH   1  10
ATOM     10  C   UNL     1      22.983   2.333   9.720  1.00  0.00     0.027 C 
BRANCH  10  11
ATOM     11  C   UNL     1      23.456   3.300   8.669  1.00  0.00    -0.031 C 
ATOM     12  C   UNL     1      24.394   4.222   8.933  1.00  0.00    -0.031 C 
BRANCH  12  13
ATOM     13  C   UNL     1      24.885   5.173   7.877  1.00  0.00     0.027 C 
BRANCH  13  14
ATOM     14  C   UNL     1      23.959   6.393   7.757  1.00  0.00     0.004 C 
BRANCH  14  15
ATOM     15  C   UNL     1      23.487   6.644   6.315  1.00  0.00     0.000 C 
BRANCH  15  16
ATOM     16  C   UNL     1      22.457   5.610   5.811  1.00  0.00    -0.000 C 
BRANCH  16  17
ATOM     17  C   UNL     1      22.558   5.381   4.296  1.00  0.00    -0.003 C 
ATOM     18  C   UNL     1      23.906   5.852   3.755  1.00  0.00     0.004 C 
ENDBRANCH  16  17
ENDBRANCH  15  16
ENDBRANCH  14  15
ENDBRANCH  13  14
ENDBRANCH  12  13
ENDBRANCH  10  11
ENDBRANCH   1  10
TORSDOF 13
ENDMDL
