MODEL 1
REMARK VINA RESULT:    -6.816      0.000      0.000
REMARK INTER + INTRA:          -8.662
REMARK INTER:                  -8.410
REMARK INTRA:                  -0.252
REMARK UNBOUND:                -0.252
REMARK SMILES CCCCC(=O)c1ccccc1
REMARK SMILES IDX 4 1 3 2 2 3 1 4 5 5 6 6 7 7 8 8 12 9 9 10 11 11 10 12
REMARK H PARENT
REMARK Flexibility Score: inf
ROOT
ATOM      1  C   UNL     1     152.518 154.477 160.128  1.00  0.00     0.081 C 
ENDROOT
BRANCH   1   2
ATOM      2  C   UNL     1     153.892 153.841 160.405  1.00  0.00     0.008 C 
BRANCH   2   3
ATOM      3  C   UNL     1     154.409 154.145 161.819  1.00  0.00    -0.003 C 
ATOM      4  C   UNL     1     155.933 154.085 161.917  1.00  0.00     0.004 C 
ENDBRANCH   2   3
ENDBRANCH   1   2
BRANCH   1   5
ATOM      5  C   UNL     1     152.622 155.833 159.471  1.00  0.00     0.162 C 
ATOM      6  O   UNL     1     153.738 156.227 159.033  1.00  0.00    -0.294 OA
BRANCH   5   7
ATOM      7  C   UNL     1     151.426 156.699 159.289  1.00  0.00     0.017 A 
ATOM      8  C   UNL     1     151.274 157.512 158.147  1.00  0.00     0.012 A 
ATOM      9  C   UNL     1     150.421 156.728 160.275  1.00  0.00     0.012 A 
ATOM     10  C   UNL     1     150.143 158.320 157.996  1.00  0.00     0.001 A 
ATOM     11  C   UNL     1     149.292 157.538 160.119  1.00  0.00     0.001 A 
ATOM     12  C   UNL     1     149.154 158.334 158.980  1.00  0.00     0.000 A 
ENDBRANCH   5   7
ENDBRANCH   1   5
TORSDOF 4
ENDMDL
MODEL 2
REMARK VINA RESULT:    -6.804      0.067      1.399
REMARK INTER + INTRA:          -8.647
REMARK INTER:                  -8.403
REMARK INTRA:                  -0.244
REMARK UNBOUND:                -0.252
REMARK SMILES CCCCC(=O)c1ccccc1
REMARK SMILES IDX 4 1 3 2 2 3 1 4 5 5 6 6 7 7 8 8 12 9 9 10 11 11 10 12
REMARK H PARENT
REMARK Flexibility Score: inf
ROOT
ATOM      1  C   UNL     1     152.523 154.471 160.162  1.00  0.00     0.081 C 
ENDROOT
BRANCH   1   2
ATOM      2  C   UNL     1     153.893 153.833 160.450  1.00  0.00     0.008 C 
BRANCH   2   3
ATOM      3  C   UNL     1     154.404 154.142 161.865  1.00  0.00    -0.003 C 
ATOM      4  C   UNL     1     155.929 154.106 161.965  1.00  0.00     0.004 C 
ENDBRANCH   2   3
ENDBRANCH   1   2
BRANCH   1   5
ATOM      5  C   UNL     1     152.636 155.840 159.534  1.00  0.00     0.162 C 
ATOM      6  O   UNL     1     153.763 156.255 159.146  1.00  0.00    -0.294 OA
BRANCH   5   7
ATOM      7  C   UNL     1     151.438 156.697 159.324  1.00  0.00     0.017 A 
ATOM      8  C   UNL     1     150.391 156.742 160.268  1.00  0.00     0.012 A 
ATOM      9  C   UNL     1     151.326 157.479 158.157  1.00  0.00     0.012 A 
ATOM     10  C   UNL     1     149.273 157.553 160.051  1.00  0.00     0.001 A 
ATOM     11  C   UNL     1     150.206 158.287 157.945  1.00  0.00     0.001 A 
ATOM     12  C   UNL     1     149.180 158.324 158.892  1.00  0.00     0.000 A 
ENDBRANCH   5   7
ENDBRANCH   1   5
TORSDOF 4
ENDMDL
MODEL 3
REMARK VINA RESULT:    -6.300      1.350      1.734
REMARK INTER + INTRA:          -8.025
REMARK INTER:                  -7.839
REMARK INTRA:                  -0.186
REMARK UNBOUND:                -0.252
REMARK SMILES CCCCC(=O)c1ccccc1
REMARK SMILES IDX 4 1 3 2 2 3 1 4 5 5 6 6 7 7 8 8 12 9 9 10 11 11 10 12
REMARK H PARENT
REMARK Flexibility Score: inf
ROOT
ATOM      1  C   UNL     1     153.029 153.816 160.825  1.00  0.00     0.081 C 
ENDROOT
BRANCH   1   2
ATOM      2  C   UNL     1     154.545 153.856 160.565  1.00  0.00     0.008 C 
BRANCH   2   3
ATOM      3  C   UNL     1     155.357 154.118 161.842  1.00  0.00    -0.003 C 
ATOM      4  C   UNL     1     156.863 154.165 161.587  1.00  0.00     0.004 C 
ENDBRANCH   2   3
ENDBRANCH   1   2
BRANCH   1   5
ATOM      5  C   UNL     1     152.440 155.186 161.068  1.00  0.00     0.162 C 
ATOM      6  O   UNL     1     152.454 155.671 162.233  1.00  0.00    -0.294 OA
BRANCH   5   7
ATOM      7  C   UNL     1     151.882 155.998 159.952  1.00  0.00     0.017 A 
ATOM      8  C   UNL     1     152.491 156.017 158.681  1.00  0.00     0.012 A 
ATOM      9  C   UNL     1     150.727 156.777 160.158  1.00  0.00     0.012 A 
ATOM     10  C   UNL     1     151.952 156.788 157.646  1.00  0.00     0.001 A 
ATOM     11  C   UNL     1     150.192 157.546 159.120  1.00  0.00     0.001 A 
ATOM     12  C   UNL     1     150.804 157.551 157.865  1.00  0.00     0.000 A 
ENDBRANCH   5   7
ENDBRANCH   1   5
TORSDOF 4
ENDMDL
MODEL 4
REMARK VINA RESULT:    -6.235      1.466      5.260
REMARK INTER + INTRA:          -7.945
REMARK INTER:                  -7.584
REMARK INTRA:                  -0.361
REMARK UNBOUND:                -0.252
REMARK SMILES CCCCC(=O)c1ccccc1
REMARK SMILES IDX 4 1 3 2 2 3 1 4 5 5 6 6 7 7 8 8 12 9 9 10 11 11 10 12
REMARK H PARENT
REMARK Flexibility Score: inf
ROOT
ATOM      1  C   UNL     1     152.157 157.225 157.851  1.00  0.00     0.081 C 
ENDROOT
BRANCH   1   2
ATOM      2  C   UNL     1     150.653 157.480 157.641  1.00  0.00     0.008 C 
BRANCH   2   3
ATOM      3  C   UNL     1     150.009 158.221 158.821  1.00  0.00    -0.003 C 
ATOM      4  C   UNL     1     148.795 159.053 158.407  1.00  0.00     0.004 C 
ENDBRANCH   2   3
ENDBRANCH   1   2
BRANCH   1   5
ATOM      5  C   UNL     1     152.478 155.766 158.074  1.00  0.00     0.162 C 
ATOM      6  O   UNL     1     152.478 154.973 157.092  1.00  0.00    -0.294 OA
BRANCH   5   7
ATOM      7  C   UNL     1     152.837 155.249 159.422  1.00  0.00     0.017 A 
ATOM      8  C   UNL     1     152.192 155.719 160.585  1.00  0.00     0.012 A 
ATOM      9  C   UNL     1     153.846 154.277 159.558  1.00  0.00     0.012 A 
ATOM     10  C   UNL     1     152.545 155.222 161.843  1.00  0.00     0.001 A 
ATOM     11  C   UNL     1     154.196 153.783 160.819  1.00  0.00     0.001 A 
ATOM     12  C   UNL     1     153.545 154.256 161.960  1.00  0.00     0.000 A 
ENDBRANCH   5   7
ENDBRANCH   1   5
TORSDOF 4
ENDMDL
MODEL 5
REMARK VINA RESULT:    -6.108     15.948     16.781
REMARK INTER + INTRA:          -7.788
REMARK INTER:                  -7.387
REMARK INTRA:                  -0.401
REMARK UNBOUND:                -0.252
REMARK SMILES CCCCC(=O)c1ccccc1
REMARK SMILES IDX 4 1 3 2 2 3 1 4 5 5 6 6 7 7 8 8 12 9 9 10 11 11 10 12
REMARK H PARENT
REMARK Flexibility Score: inf
ROOT
ATOM      1  C   UNL     1     150.631 172.109 152.613  1.00  0.00     0.081 C 
ENDROOT
BRANCH   1   2
ATOM      2  C   UNL     1     151.705 171.910 153.698  1.00  0.00     0.008 C 
BRANCH   2   3
ATOM      3  C   UNL     1     152.340 170.512 153.651  1.00  0.00    -0.003 C 
ATOM      4  C   UNL     1     153.647 170.482 152.860  1.00  0.00     0.004 C 
ENDBRANCH   2   3
ENDBRANCH   1   2
BRANCH   1   5
ATOM      5  C   UNL     1     149.750 170.896 152.433  1.00  0.00     0.162 C 
ATOM      6  O   UNL     1     149.006 170.522 153.382  1.00  0.00    -0.294 OA
BRANCH   5   7
ATOM      7  C   UNL     1     149.707 170.154 151.144  1.00  0.00     0.017 A 
ATOM      8  C   UNL     1     150.711 169.227 150.796  1.00  0.00     0.012 A 
ATOM      9  C   UNL     1     148.652 170.377 150.238  1.00  0.00     0.012 A 
ATOM     10  C   UNL     1     150.654 168.542 149.579  1.00  0.00     0.001 A 
ATOM     11  C   UNL     1     148.599 169.689 149.022  1.00  0.00     0.001 A 
ATOM     12  C   UNL     1     149.599 168.771 148.693  1.00  0.00     0.000 A 
ENDBRANCH   5   7
ENDBRANCH   1   5
TORSDOF 4
ENDMDL
MODEL 6
REMARK VINA RESULT:    -6.002     15.161     16.061
REMARK INTER + INTRA:          -7.657
REMARK INTER:                  -7.204
REMARK INTRA:                  -0.453
REMARK UNBOUND:                -0.252
REMARK SMILES CCCCC(=O)c1ccccc1
REMARK SMILES IDX 4 1 3 2 2 3 1 4 5 5 6 6 7 7 8 8 12 9 9 10 11 11 10 12
REMARK H PARENT
REMARK Flexibility Score: inf
ROOT
ATOM      1  C   UNL     1     152.707 169.168 152.837  1.00  0.00     0.081 C 
ENDROOT
BRANCH   1   2
ATOM      2  C   UNL     1     153.882 170.159 152.753  1.00  0.00     0.008 C 
BRANCH   2   3
ATOM      3  C   UNL     1     155.107 169.563 152.044  1.00  0.00    -0.003 C 
ATOM      4  C   UNL     1     154.755 168.374 151.152  1.00  0.00     0.004 C 
ENDBRANCH   2   3
ENDBRANCH   1   2
BRANCH   1   5
ATOM      5  C   UNL     1     151.369 169.824 152.592  1.00  0.00     0.162 C 
ATOM      6  O   UNL     1     150.889 170.601 153.463  1.00  0.00    -0.294 OA
BRANCH   5   7
ATOM      7  C   UNL     1     150.622 169.609 151.323  1.00  0.00     0.017 A 
ATOM      8  C   UNL     1     149.417 170.292 151.055  1.00  0.00     0.012 A 
ATOM      9  C   UNL     1     151.110 168.701 150.364  1.00  0.00     0.012 A 
ATOM     10  C   UNL     1     148.729 170.074 149.858  1.00  0.00     0.001 A 
ATOM     11  C   UNL     1     150.418 168.487 149.168  1.00  0.00     0.001 A 
ATOM     12  C   UNL     1     149.228 169.174 148.915  1.00  0.00     0.000 A 
ENDBRANCH   5   7
ENDBRANCH   1   5
TORSDOF 4
ENDMDL
MODEL 7
REMARK VINA RESULT:    -5.939      1.557      5.525
REMARK INTER + INTRA:          -7.580
REMARK INTER:                  -7.414
REMARK INTRA:                  -0.166
REMARK UNBOUND:                -0.252
REMARK SMILES CCCCC(=O)c1ccccc1
REMARK SMILES IDX 4 1 3 2 2 3 1 4 5 5 6 6 7 7 8 8 12 9 9 10 11 11 10 12
REMARK H PARENT
REMARK Flexibility Score: inf
ROOT
ATOM      1  C   UNL     1     151.506 157.205 158.463  1.00  0.00     0.081 C 
ENDROOT
BRANCH   1   2
ATOM      2  C   UNL     1     150.181 157.687 157.845  1.00  0.00     0.008 C 
BRANCH   2   3
ATOM      3  C   UNL     1     149.806 159.109 158.286  1.00  0.00    -0.003 C 
ATOM      4  C   UNL     1     148.296 159.343 158.307  1.00  0.00     0.004 C 
ENDBRANCH   2   3
ENDBRANCH   1   2
BRANCH   1   5
ATOM      5  C   UNL     1     151.311 156.476 159.772  1.00  0.00     0.162 C 
ATOM      6  O   UNL     1     150.235 156.629 160.413  1.00  0.00    -0.294 OA
BRANCH   5   7
ATOM      7  C   UNL     1     152.344 155.546 160.302  1.00  0.00     0.017 A 
ATOM      8  C   UNL     1     153.235 154.871 159.443  1.00  0.00     0.012 A 
ATOM      9  C   UNL     1     152.441 155.317 161.688  1.00  0.00     0.012 A 
ATOM     10  C   UNL     1     154.199 154.000 159.961  1.00  0.00     0.001 A 
ATOM     11  C   UNL     1     153.405 154.445 162.201  1.00  0.00     0.001 A 
ATOM     12  C   UNL     1     154.284 153.787 161.338  1.00  0.00     0.000 A 
ENDBRANCH   5   7
ENDBRANCH   1   5
TORSDOF 4
ENDMDL
MODEL 8
REMARK VINA RESULT:    -5.891      1.166      5.729
REMARK INTER + INTRA:          -7.521
REMARK INTER:                  -7.273
REMARK INTRA:                  -0.248
REMARK UNBOUND:                -0.252
REMARK SMILES CCCCC(=O)c1ccccc1
REMARK SMILES IDX 4 1 3 2 2 3 1 4 5 5 6 6 7 7 8 8 12 9 9 10 11 11 10 12
REMARK H PARENT
REMARK Flexibility Score: inf
ROOT
ATOM      1  C   UNL     1     151.675 156.043 159.802  1.00  0.00     0.081 C 
ENDROOT
BRANCH   1   2
ATOM      2  C   UNL     1     151.808 157.385 159.059  1.00  0.00     0.008 C 
BRANCH   2   3
ATOM      3  C   UNL     1     150.739 157.566 157.972  1.00  0.00    -0.003 C 
ATOM      4  C   UNL     1     149.743 158.677 158.300  1.00  0.00     0.004 C 
ENDBRANCH   2   3
ENDBRANCH   1   2
BRANCH   1   5
ATOM      5  C   UNL     1     152.861 155.133 159.582  1.00  0.00     0.162 C 
ATOM      6  O   UNL     1     153.146 154.755 158.412  1.00  0.00    -0.294 OA
BRANCH   5   7
ATOM      7  C   UNL     1     153.728 154.705 160.713  1.00  0.00     0.017 A 
ATOM      8  C   UNL     1     153.209 154.530 162.013  1.00  0.00     0.012 A 
ATOM      9  C   UNL     1     155.101 154.474 160.499  1.00  0.00     0.012 A 
ATOM     10  C   UNL     1     154.041 154.129 163.062  1.00  0.00     0.001 A 
ATOM     11  C   UNL     1     155.929 154.073 161.552  1.00  0.00     0.001 A 
ATOM     12  C   UNL     1     155.399 153.900 162.832  1.00  0.00     0.000 A 
ENDBRANCH   5   7
ENDBRANCH   1   5
TORSDOF 4
ENDMDL
MODEL 9
REMARK VINA RESULT:    -5.628     15.636     16.925
REMARK INTER + INTRA:          -7.196
REMARK INTER:                  -6.798
REMARK INTRA:                  -0.398
REMARK UNBOUND:                -0.252
REMARK SMILES CCCCC(=O)c1ccccc1
REMARK SMILES IDX 4 1 3 2 2 3 1 4 5 5 6 6 7 7 8 8 12 9 9 10 11 11 10 12
REMARK H PARENT
REMARK Flexibility Score: inf
ROOT
ATOM      1  C   UNL     1     148.757 170.675 150.515  1.00  0.00     0.081 C 
ENDROOT
BRANCH   1   2
ATOM      2  C   UNL     1     148.193 169.489 149.713  1.00  0.00     0.008 C 
BRANCH   2   3
ATOM      3  C   UNL     1     149.085 169.102 148.524  1.00  0.00    -0.003 C 
ATOM      4  C   UNL     1     150.377 168.408 148.954  1.00  0.00     0.004 C 
ENDBRANCH   2   3
ENDBRANCH   1   2
BRANCH   1   5
ATOM      5  C   UNL     1     149.180 170.287 151.913  1.00  0.00     0.162 C 
ATOM      6  O   UNL     1     148.331 169.786 152.702  1.00  0.00    -0.294 OA
BRANCH   5   7
ATOM      7  C   UNL     1     150.588 170.444 152.368  1.00  0.00     0.017 A 
ATOM      8  C   UNL     1     151.563 169.464 152.091  1.00  0.00     0.012 A 
ATOM      9  C   UNL     1     150.968 171.584 153.101  1.00  0.00     0.012 A 
ATOM     10  C   UNL     1     152.880 169.629 152.529  1.00  0.00     0.001 A 
ATOM     11  C   UNL     1     152.287 171.744 153.537  1.00  0.00     0.001 A 
ATOM     12  C   UNL     1     153.242 170.768 153.250  1.00  0.00     0.000 A 
ENDBRANCH   5   7
ENDBRANCH   1   5
TORSDOF 4
ENDMDL
