MODEL 1
REMARK VINA RESULT:    -3.822      0.000      0.000
REMARK INTER + INTRA:          -4.064
REMARK INTER:                  -4.045
REMARK INTRA:                  -0.019
REMARK UNBOUND:                -0.019
REMARK SMILES O=C([O-])c1cccnc1
REMARK SMILES IDX 4 1 5 2 9 3 6 4 8 5 7 6 2 7 1 8 3 9
REMARK H PARENT
REMARK Flexibility Score: inf
ROOT
ATOM      1  C   UNL     1      50.336 -19.321  13.834  1.00  0.00     0.016 A 
ATOM      2  C   UNL     1      49.244 -19.568  14.680  1.00  0.00     0.013 A 
ATOM      3  C   UNL     1      50.468 -20.097  12.669  1.00  0.00     0.120 A 
ATOM      4  C   UNL     1      48.318 -20.563  14.359  1.00  0.00     0.021 A 
ATOM      5  N   UNL     1      49.553 -21.060  12.378  1.00  0.00    -0.264 NA
ATOM      6  C   UNL     1      48.492 -21.307  13.191  1.00  0.00     0.111 A 
ENDROOT
BRANCH   1   7
ATOM      7  C   UNL     1      51.322 -18.270  14.165  1.00  0.00     0.073 C 
ATOM      8  O   UNL     1      52.555 -18.531  14.183  1.00  0.00    -0.545 OA
ATOM      9  O   UNL     1      50.903 -16.978  14.459  1.00  0.00    -0.545 OA
ENDBRANCH   1   7
TORSDOF 1
ENDMDL
MODEL 2
REMARK VINA RESULT:    -3.650      2.530      3.510
REMARK INTER + INTRA:          -3.882
REMARK INTER:                  -3.863
REMARK INTRA:                  -0.018
REMARK UNBOUND:                -0.019
REMARK SMILES O=C([O-])c1cccnc1
REMARK SMILES IDX 4 1 5 2 9 3 6 4 8 5 7 6 2 7 1 8 3 9
REMARK H PARENT
REMARK Flexibility Score: inf
ROOT
ATOM      1  C   UNL     1      49.958 -20.158  13.961  1.00  0.00     0.016 A 
ATOM      2  C   UNL     1      50.398 -18.859  14.258  1.00  0.00     0.013 A 
ATOM      3  C   UNL     1      50.591 -20.855  12.916  1.00  0.00     0.120 A 
ATOM      4  C   UNL     1      51.440 -18.286  13.526  1.00  0.00     0.021 A 
ATOM      5  N   UNL     1      51.603 -20.275  12.218  1.00  0.00    -0.264 NA
ATOM      6  C   UNL     1      52.037 -19.018  12.498  1.00  0.00     0.111 A 
ENDROOT
BRANCH   1   7
ATOM      7  C   UNL     1      48.856 -20.775  14.729  1.00  0.00     0.073 C 
ATOM      8  O   UNL     1      47.737 -20.200  14.818  1.00  0.00    -0.545 OA
ATOM      9  O   UNL     1      49.037 -21.998  15.363  1.00  0.00    -0.545 OA
ENDBRANCH   1   7
TORSDOF 1
ENDMDL
MODEL 3
REMARK VINA RESULT:    -3.572      0.880      1.655
REMARK INTER + INTRA:          -3.799
REMARK INTER:                  -3.782
REMARK INTRA:                  -0.017
REMARK UNBOUND:                -0.019
REMARK SMILES O=C([O-])c1cccnc1
REMARK SMILES IDX 4 1 5 2 9 3 6 4 8 5 7 6 2 7 1 8 3 9
REMARK H PARENT
REMARK Flexibility Score: inf
ROOT
ATOM      1  C   UNL     1      50.331 -19.469  13.500  1.00  0.00     0.016 A 
ATOM      2  C   UNL     1      50.433 -19.861  12.156  1.00  0.00     0.013 A 
ATOM      3  C   UNL     1      49.354 -20.084  14.303  1.00  0.00     0.120 A 
ATOM      4  C   UNL     1      49.579 -20.841  11.644  1.00  0.00     0.021 A 
ATOM      5  N   UNL     1      48.535 -21.034  13.781  1.00  0.00    -0.264 NA
ATOM      6  C   UNL     1      48.626 -21.421  12.481  1.00  0.00     0.111 A 
ENDROOT
BRANCH   1   7
ATOM      7  C   UNL     1      51.230 -18.433  14.053  1.00  0.00     0.073 C 
ATOM      8  O   UNL     1      52.471 -18.636  14.129  1.00  0.00    -0.545 OA
ATOM      9  O   UNL     1      50.717 -17.219  14.496  1.00  0.00    -0.545 OA
ENDBRANCH   1   7
TORSDOF 1
ENDMDL
MODEL 4
REMARK VINA RESULT:    -3.524      2.953      3.682
REMARK INTER + INTRA:          -3.749
REMARK INTER:                  -3.732
REMARK INTRA:                  -0.017
REMARK UNBOUND:                -0.019
REMARK SMILES O=C([O-])c1cccnc1
REMARK SMILES IDX 4 1 5 2 9 3 6 4 8 5 7 6 2 7 1 8 3 9
REMARK H PARENT
REMARK Flexibility Score: inf
ROOT
ATOM      1  C   UNL     1      49.845 -20.471  13.902  1.00  0.00     0.016 A 
ATOM      2  C   UNL     1      49.389 -19.357  14.625  1.00  0.00     0.013 A 
ATOM      3  C   UNL     1      51.050 -20.355  13.187  1.00  0.00     0.120 A 
ATOM      4  C   UNL     1      50.126 -18.171  14.626  1.00  0.00     0.021 A 
ATOM      5  N   UNL     1      51.749 -19.189  13.203  1.00  0.00    -0.264 NA
ATOM      6  C   UNL     1      51.316 -18.106  13.900  1.00  0.00     0.111 A 
ENDROOT
BRANCH   1   7
ATOM      7  C   UNL     1      49.073 -21.732  13.894  1.00  0.00     0.073 C 
ATOM      8  O   UNL     1      48.490 -22.120  12.846  1.00  0.00    -0.545 OA
ATOM      9  O   UNL     1      48.981 -22.508  15.043  1.00  0.00    -0.545 OA
ENDBRANCH   1   7
TORSDOF 1
ENDMDL
MODEL 5
REMARK VINA RESULT:    -3.491      2.513      3.231
REMARK INTER + INTRA:          -3.714
REMARK INTER:                  -3.697
REMARK INTRA:                  -0.016
REMARK UNBOUND:                -0.019
REMARK SMILES O=C([O-])c1cccnc1
REMARK SMILES IDX 4 1 5 2 9 3 6 4 8 5 7 6 2 7 1 8 3 9
REMARK H PARENT
REMARK Flexibility Score: inf
ROOT
ATOM      1  C   UNL     1      51.268 -18.620  13.226  1.00  0.00     0.016 A 
ATOM      2  C   UNL     1      50.872 -18.500  11.885  1.00  0.00     0.013 A 
ATOM      3  C   UNL     1      52.419 -19.372  13.518  1.00  0.00     0.120 A 
ATOM      4  C   UNL     1      51.614 -19.118  10.876  1.00  0.00     0.021 A 
ATOM      5  N   UNL     1      53.125 -19.964  12.518  1.00  0.00    -0.264 NA
ATOM      6  C   UNL     1      52.750 -19.854  11.217  1.00  0.00     0.111 A 
ENDROOT
BRANCH   1   7
ATOM      7  C   UNL     1      50.489 -17.970  14.302  1.00  0.00     0.073 C 
ATOM      8  O   UNL     1      50.762 -16.795  14.671  1.00  0.00    -0.545 OA
ATOM      9  O   UNL     1      49.445 -18.645  14.923  1.00  0.00    -0.545 OA
ENDBRANCH   1   7
TORSDOF 1
ENDMDL
MODEL 6
REMARK VINA RESULT:    -3.429      2.678      3.717
REMARK INTER + INTRA:          -3.648
REMARK INTER:                  -3.630
REMARK INTRA:                  -0.018
REMARK UNBOUND:                -0.019
REMARK SMILES O=C([O-])c1cccnc1
REMARK SMILES IDX 4 1 5 2 9 3 6 4 8 5 7 6 2 7 1 8 3 9
REMARK H PARENT
REMARK Flexibility Score: inf
ROOT
ATOM      1  C   UNL     1      49.949 -20.160  13.882  1.00  0.00     0.016 A 
ATOM      2  C   UNL     1      50.438 -20.845  12.759  1.00  0.00     0.013 A 
ATOM      3  C   UNL     1      50.505 -18.908  14.196  1.00  0.00     0.120 A 
ATOM      4  C   UNL     1      51.451 -20.283  11.980  1.00  0.00     0.021 A 
ATOM      5  N   UNL     1      51.492 -18.382  13.422  1.00  0.00    -0.264 NA
ATOM      6  C   UNL     1      51.972 -19.037  12.333  1.00  0.00     0.111 A 
ENDROOT
BRANCH   1   7
ATOM      7  C   UNL     1      48.875 -20.746  14.714  1.00  0.00     0.073 C 
ATOM      8  O   UNL     1      47.774 -20.149  14.852  1.00  0.00    -0.545 OA
ATOM      9  O   UNL     1      49.065 -21.965  15.354  1.00  0.00    -0.545 OA
ENDBRANCH   1   7
TORSDOF 1
ENDMDL
MODEL 7
REMARK VINA RESULT:    -3.376      2.468      3.446
REMARK INTER + INTRA:          -3.592
REMARK INTER:                  -3.571
REMARK INTRA:                  -0.021
REMARK UNBOUND:                -0.019
REMARK SMILES O=C([O-])c1cccnc1
REMARK SMILES IDX 4 1 5 2 9 3 6 4 8 5 7 6 2 7 1 8 3 9
REMARK H PARENT
REMARK Flexibility Score: inf
ROOT
ATOM      1  C   UNL     1      50.959 -19.959  13.138  1.00  0.00     0.016 A 
ATOM      2  C   UNL     1      51.551 -18.697  13.307  1.00  0.00     0.013 A 
ATOM      3  C   UNL     1      49.782 -20.245  13.853  1.00  0.00     0.120 A 
ATOM      4  C   UNL     1      50.973 -17.760  14.166  1.00  0.00     0.021 A 
ATOM      5  N   UNL     1      49.239 -19.316  14.683  1.00  0.00    -0.264 NA
ATOM      6  C   UNL     1      49.805 -18.092  14.853  1.00  0.00     0.111 A 
ENDROOT
BRANCH   1   7
ATOM      7  C   UNL     1      51.562 -20.959  12.231  1.00  0.00     0.073 C 
ATOM      8  O   UNL     1      50.832 -21.726  11.548  1.00  0.00    -0.545 OA
ATOM      9  O   UNL     1      52.943 -21.066  12.120  1.00  0.00    -0.545 OA
ENDBRANCH   1   7
TORSDOF 1
ENDMDL
MODEL 8
REMARK VINA RESULT:    -3.374      1.678      2.772
REMARK INTER + INTRA:          -3.590
REMARK INTER:                  -3.570
REMARK INTRA:                  -0.020
REMARK UNBOUND:                -0.019
REMARK SMILES O=C([O-])c1cccnc1
REMARK SMILES IDX 4 1 5 2 9 3 6 4 8 5 7 6 2 7 1 8 3 9
REMARK H PARENT
REMARK Flexibility Score: inf
ROOT
ATOM      1  C   UNL     1      51.131 -19.153  13.507  1.00  0.00     0.016 A 
ATOM      2  C   UNL     1      52.528 -19.289  13.482  1.00  0.00     0.013 A 
ATOM      3  C   UNL     1      50.362 -20.002  12.690  1.00  0.00     0.120 A 
ATOM      4  C   UNL     1      53.125 -20.249  12.662  1.00  0.00     0.021 A 
ATOM      5  N   UNL     1      50.967 -20.928  11.901  1.00  0.00    -0.264 NA
ATOM      6  C   UNL     1      52.319 -21.068  11.870  1.00  0.00     0.111 A 
ENDROOT
BRANCH   1   7
ATOM      7  C   UNL     1      50.487 -18.140  14.371  1.00  0.00     0.073 C 
ATOM      8  O   UNL     1      49.420 -18.407  14.986  1.00  0.00    -0.545 OA
ATOM      9  O   UNL     1      51.052 -16.879  14.519  1.00  0.00    -0.545 OA
ENDBRANCH   1   7
TORSDOF 1
ENDMDL
MODEL 9
REMARK VINA RESULT:    -3.300     17.956     18.559
REMARK INTER + INTRA:          -3.512
REMARK INTER:                  -3.492
REMARK INTRA:                  -0.020
REMARK UNBOUND:                -0.019
REMARK SMILES O=C([O-])c1cccnc1
REMARK SMILES IDX 4 1 5 2 9 3 6 4 8 5 7 6 2 7 1 8 3 9
REMARK H PARENT
REMARK Flexibility Score: inf
ROOT
ATOM      1  C   UNL     1      33.458 -11.548  15.606  1.00  0.00     0.016 A 
ATOM      2  C   UNL     1      33.596 -12.778  16.269  1.00  0.00     0.013 A 
ATOM      3  C   UNL     1      33.091 -11.559  14.249  1.00  0.00     0.120 A 
ATOM      4  C   UNL     1      33.368 -13.974  15.586  1.00  0.00     0.021 A 
ATOM      5  N   UNL     1      32.875 -12.737  13.605  1.00  0.00    -0.264 NA
ATOM      6  C   UNL     1      33.005 -13.932  14.239  1.00  0.00     0.111 A 
ENDROOT
BRANCH   1   7
ATOM      7  C   UNL     1      33.697 -10.275  16.320  1.00  0.00     0.073 C 
ATOM      8  O   UNL     1      32.947  -9.281  16.125  1.00  0.00    -0.545 OA
ATOM      9  O   UNL     1      34.751 -10.159  17.218  1.00  0.00    -0.545 OA
ENDBRANCH   1   7
TORSDOF 1
ENDMDL
