MODEL 1
REMARK VINA RESULT:    -2.428      0.000      0.000
REMARK INTER + INTRA:          -2.130
REMARK INTER:                  -2.640
REMARK INTRA:                   0.511
REMARK UNBOUND:                 0.511
REMARK SMILES C=C(C)[C@H]1CC[C@@]2(C)CC[C@@]3(C)[C@H](CC[C@H]4[C@@]5(C)CC[C@H](O)C(C)(C)[C@H]5CC[C@@]43C)[C@@H]12
REMARK SMILES IDX 4 1 5 2 6 3 7 4 31 5 13 6 14 7 15 8 16 9 17 10 19 11 20 12
REMARK SMILES IDX 21 13 23 14 26 15 27 16 28 17 29 18 11 19 10 20 9 21 12 22
REMARK SMILES IDX 30 23 24 24 25 25 18 26 8 27 2 28 3 29 1 30 22 31
REMARK H PARENT 22 32
REMARK Flexibility Score: inf
ROOT
ATOM      1  C   UNL     1      35.290   5.697   6.764  1.00  0.00     0.018 C 
ATOM      2  C   UNL     1      34.142   6.262   7.608  1.00  0.00     0.009 C 
ATOM      3  C   UNL     1      33.449   7.324   6.753  1.00  0.00     0.008 C 
ATOM      4  C   UNL     1      34.293   7.559   5.468  1.00  0.00    -0.029 C 
ATOM      5  C   UNL     1      35.605   6.744   5.658  1.00  0.00     0.006 C 
ATOM      6  C   UNL     1      36.909   7.623   5.769  1.00  0.00    -0.000 C 
ATOM      7  C   UNL     1      37.407   7.942   4.307  1.00  0.00     0.005 C 
ATOM      8  C   UNL     1      38.320   9.178   4.179  1.00  0.00     0.005 C 
ATOM      9  C   UNL     1      39.172   9.303   5.451  1.00  0.00     0.002 C 
ATOM     10  C   UNL     1      40.615   9.963   5.313  1.00  0.00    -0.026 C 
ATOM     11  C   UNL     1      40.582  11.487   4.978  1.00  0.00     0.010 C 
ATOM     12  C   UNL     1      41.979  12.124   4.882  1.00  0.00     0.033 C 
ATOM     13  C   UNL     1      43.005  11.644   5.940  1.00  0.00     0.120 C 
ATOM     14  C   UNL     1      42.394  10.842   7.144  1.00  0.00    -0.006 C 
ATOM     15  C   UNL     1      41.444   9.674   6.636  1.00  0.00     0.003 C 
ATOM     16  C   UNL     1      40.650   8.914   7.759  1.00  0.00     0.005 C 
ATOM     17  C   UNL     1      39.147   9.220   7.973  1.00  0.00     0.008 C 
ATOM     18  C   UNL     1      38.282   9.660   6.715  1.00  0.00    -0.024 C 
ATOM     19  C   UNL     1      36.799   8.931   6.627  1.00  0.00    -0.024 C 
ATOM     20  C   UNL     1      35.653   9.816   5.973  1.00  0.00     0.008 C 
ATOM     21  C   UNL     1      34.524   9.078   5.186  1.00  0.00     0.007 C 
ATOM     22  C   UNL     1      36.315   8.638   8.080  1.00  0.00     0.012 C 
ATOM     23  C   UNL     1      38.026  11.184   6.866  1.00  0.00     0.012 C 
ATOM     24  C   UNL     1      43.590  10.236   7.949  1.00  0.00     0.014 C 
ATOM     25  C   UNL     1      41.679  11.817   8.125  1.00  0.00     0.014 C 
ATOM     26  C   UNL     1      41.346   9.257   4.113  1.00  0.00     0.012 C 
ATOM     27  C   UNL     1      33.503   6.974   4.263  1.00  0.00     0.011 C 
ENDROOT
BRANCH   1  28
ATOM     28  C   UNL     1      36.497   5.077   7.499  1.00  0.00    -0.077 C 
ATOM     29  C   UNL     1      36.420   3.630   7.930  1.00  0.00     0.039 C 
ATOM     30  C   UNL     1      37.533   5.802   7.963  1.00  0.00     0.008 C 
ENDBRANCH   1  28
BRANCH  13  31
ATOM     31  O   UNL     1      43.996  10.881   5.279  1.00  0.00    -0.393 OA
ATOM     32  H   UNL     1      44.793  10.848   5.869  1.00  0.00     0.210 HD
ENDBRANCH  13  31
TORSDOF 2
ENDMDL
MODEL 2
REMARK VINA RESULT:    -2.284     15.199     17.533
REMARK INTER + INTRA:          -1.973
REMARK INTER:                  -2.893
REMARK INTRA:                   0.920
REMARK UNBOUND:                 0.511
REMARK SMILES C=C(C)[C@H]1CC[C@@]2(C)CC[C@@]3(C)[C@H](CC[C@H]4[C@@]5(C)CC[C@H](O)C(C)(C)[C@H]5CC[C@@]43C)[C@@H]12
REMARK SMILES IDX 4 1 5 2 6 3 7 4 31 5 13 6 14 7 15 8 16 9 17 10 19 11 20 12
REMARK SMILES IDX 21 13 23 14 26 15 27 16 28 17 29 18 11 19 10 20 9 21 12 22
REMARK SMILES IDX 30 23 24 24 25 25 18 26 8 27 2 28 3 29 1 30 22 31
REMARK H PARENT 22 32
REMARK Flexibility Score: inf
ROOT
ATOM      1  C   UNL     1      37.743   2.909 -10.890  1.00  0.00     0.018 C 
ATOM      2  C   UNL     1      38.344   1.724 -11.654  1.00  0.00     0.009 C 
ATOM      3  C   UNL     1      39.344   1.054 -10.711  1.00  0.00     0.008 C 
ATOM      4  C   UNL     1      39.513   1.946  -9.447  1.00  0.00    -0.029 C 
ATOM      5  C   UNL     1      38.726   3.257  -9.736  1.00  0.00     0.006 C 
ATOM      6  C   UNL     1      39.625   4.547  -9.844  1.00  0.00    -0.000 C 
ATOM      7  C   UNL     1      39.862   5.099  -8.386  1.00  0.00     0.005 C 
ATOM      8  C   UNL     1      41.099   6.005  -8.219  1.00  0.00     0.005 C 
ATOM      9  C   UNL     1      41.311   6.805  -9.512  1.00  0.00     0.002 C 
ATOM     10  C   UNL     1      41.977   8.246  -9.391  1.00  0.00    -0.026 C 
ATOM     11  C   UNL     1      43.479   8.212  -8.964  1.00  0.00     0.010 C 
ATOM     12  C   UNL     1      44.125   9.605  -8.883  1.00  0.00     0.033 C 
ATOM     13  C   UNL     1      43.722  10.593 -10.006  1.00  0.00     0.120 C 
ATOM     14  C   UNL     1      42.986   9.944 -11.232  1.00  0.00    -0.006 C 
ATOM     15  C   UNL     1      41.778   9.025 -10.759  1.00  0.00     0.003 C 
ATOM     16  C   UNL     1      41.077   8.196 -11.895  1.00  0.00     0.005 C 
ATOM     17  C   UNL     1      41.377   6.683 -12.032  1.00  0.00     0.008 C 
ATOM     18  C   UNL     1      41.731   5.863 -10.718  1.00  0.00    -0.024 C 
ATOM     19  C   UNL     1      40.981   4.392 -10.617  1.00  0.00    -0.024 C 
ATOM     20  C   UNL     1      41.812   3.263  -9.867  1.00  0.00     0.008 C 
ATOM     21  C   UNL     1      41.015   2.173  -9.083  1.00  0.00     0.007 C 
ATOM     22  C   UNL     1      40.769   3.855 -12.065  1.00  0.00     0.012 C 
ATOM     23  C   UNL     1      43.258   5.587 -10.767  1.00  0.00     0.012 C 
ATOM     24  C   UNL     1      42.443  11.113 -12.118  1.00  0.00     0.014 C 
ATOM     25  C   UNL     1      44.009   9.182 -12.125  1.00  0.00     0.014 C 
ATOM     26  C   UNL     1      41.210   9.030  -8.264  1.00  0.00     0.012 C 
ATOM     27  C   UNL     1      38.847   1.209  -8.250  1.00  0.00     0.011 C 
ENDROOT
BRANCH   1  28
ATOM     28  C   UNL     1      37.182   4.092 -11.707  1.00  0.00    -0.077 C 
ATOM     29  C   UNL     1      38.074   5.285 -11.965  1.00  0.00     0.039 C 
ATOM     30  C   UNL     1      35.880   4.218 -12.029  1.00  0.00     0.008 C 
ENDBRANCH   1  28
BRANCH  13  31
ATOM     31  O   UNL     1      42.932  11.617  -9.431  1.00  0.00    -0.393 OA
ATOM     32  H   UNL     1      42.235  11.866 -10.092  1.00  0.00     0.210 HD
ENDBRANCH  13  31
TORSDOF 2
ENDMDL
MODEL 3
REMARK VINA RESULT:    -2.256      1.336      3.775
REMARK INTER + INTRA:          -1.943
REMARK INTER:                  -1.581
REMARK INTRA:                  -0.362
REMARK UNBOUND:                 0.511
REMARK SMILES C=C(C)[C@H]1CC[C@@]2(C)CC[C@@]3(C)[C@H](CC[C@H]4[C@@]5(C)CC[C@H](O)C(C)(C)[C@H]5CC[C@@]43C)[C@@H]12
REMARK SMILES IDX 4 1 5 2 6 3 7 4 31 5 13 6 14 7 15 8 16 9 17 10 19 11 20 12
REMARK SMILES IDX 21 13 23 14 26 15 27 16 28 17 29 18 11 19 10 20 9 21 12 22
REMARK SMILES IDX 30 23 24 24 25 25 18 26 8 27 2 28 3 29 1 30 22 31
REMARK H PARENT 22 32
REMARK Flexibility Score: inf
ROOT
ATOM      1  C   UNL     1      33.842   8.555   4.799  1.00  0.00     0.018 C 
ATOM      2  C   UNL     1      33.649   7.173   4.165  1.00  0.00     0.009 C 
ATOM      3  C   UNL     1      33.814   6.147   5.287  1.00  0.00     0.008 C 
ATOM      4  C   UNL     1      34.312   6.881   6.565  1.00  0.00    -0.029 C 
ATOM      5  C   UNL     1      34.616   8.344   6.132  1.00  0.00     0.006 C 
ATOM      6  C   UNL     1      36.137   8.748   6.219  1.00  0.00    -0.000 C 
ATOM      7  C   UNL     1      36.436   9.202   7.700  1.00  0.00     0.005 C 
ATOM      8  C   UNL     1      37.918   9.133   8.122  1.00  0.00     0.005 C 
ATOM      9  C   UNL     1      38.799   9.449   6.905  1.00  0.00     0.002 C 
ATOM     10  C   UNL     1      40.206  10.144   7.171  1.00  0.00    -0.026 C 
ATOM     11  C   UNL     1      41.239   9.222   7.894  1.00  0.00     0.010 C 
ATOM     12  C   UNL     1      42.606   9.888   8.115  1.00  0.00     0.033 C 
ATOM     13  C   UNL     1      43.123  10.758   6.941  1.00  0.00     0.120 C 
ATOM     14  C   UNL     1      42.350  10.573   5.586  1.00  0.00    -0.006 C 
ATOM     15  C   UNL     1      40.780  10.694   5.796  1.00  0.00     0.003 C 
ATOM     16  C   UNL     1      39.903  10.361   4.536  1.00  0.00     0.005 C 
ATOM     17  C   UNL     1      39.174   8.997   4.451  1.00  0.00     0.008 C 
ATOM     18  C   UNL     1      38.699   8.312   5.803  1.00  0.00    -0.024 C 
ATOM     19  C   UNL     1      37.174   7.675   5.737  1.00  0.00    -0.024 C 
ATOM     20  C   UNL     1      36.947   6.381   6.631  1.00  0.00     0.008 C 
ATOM     21  C   UNL     1      35.522   6.150   7.228  1.00  0.00     0.007 C 
ATOM     22  C   UNL     1      36.901   7.217   4.272  1.00  0.00     0.012 C 
ATOM     23  C   UNL     1      39.670   7.129   6.063  1.00  0.00     0.012 C 
ATOM     24  C   UNL     1      42.841  11.699   4.618  1.00  0.00     0.014 C 
ATOM     25  C   UNL     1      42.767   9.232   4.915  1.00  0.00     0.014 C 
ATOM     26  C   UNL     1      39.958  11.370   8.124  1.00  0.00     0.012 C 
ATOM     27  C   UNL     1      33.147   6.888   7.596  1.00  0.00     0.011 C 
ENDROOT
BRANCH   1  28
ATOM     28  C   UNL     1      34.317   9.712   3.895  1.00  0.00    -0.077 C 
ATOM     29  C   UNL     1      34.473  11.089   4.498  1.00  0.00     0.039 C 
ATOM     30  C   UNL     1      34.404   9.615   2.554  1.00  0.00     0.008 C 
ENDBRANCH   1  28
BRANCH  13  31
ATOM     31  O   UNL     1      43.100  12.112   7.352  1.00  0.00    -0.393 OA
ATOM     32  H   UNL     1      42.270  12.253   7.875  1.00  0.00     0.210 HD
ENDBRANCH  13  31
TORSDOF 2
ENDMDL
MODEL 4
REMARK VINA RESULT:    -1.753     15.110     16.899
REMARK INTER + INTRA:          -1.396
REMARK INTER:                  -1.112
REMARK INTRA:                  -0.284
REMARK UNBOUND:                 0.511
REMARK SMILES C=C(C)[C@H]1CC[C@@]2(C)CC[C@@]3(C)[C@H](CC[C@H]4[C@@]5(C)CC[C@H](O)C(C)(C)[C@H]5CC[C@@]43C)[C@@H]12
REMARK SMILES IDX 4 1 5 2 6 3 7 4 31 5 13 6 14 7 15 8 16 9 17 10 19 11 20 12
REMARK SMILES IDX 21 13 23 14 26 15 27 16 28 17 29 18 11 19 10 20 9 21 12 22
REMARK SMILES IDX 30 23 24 24 25 25 18 26 8 27 2 28 3 29 1 30 22 31
REMARK H PARENT 22 32
REMARK Flexibility Score: inf
ROOT
ATOM      1  C   UNL     1      40.605   1.676  -8.635  1.00  0.00     0.018 C 
ATOM      2  C   UNL     1      39.232   1.495  -7.979  1.00  0.00     0.009 C 
ATOM      3  C   UNL     1      38.190   1.640  -9.089  1.00  0.00     0.008 C 
ATOM      4  C   UNL     1      38.907   2.115 -10.386  1.00  0.00    -0.029 C 
ATOM      5  C   UNL     1      40.376   2.426  -9.978  1.00  0.00     0.006 C 
ATOM      6  C   UNL     1      40.778   3.945 -10.098  1.00  0.00    -0.000 C 
ATOM      7  C   UNL     1      41.212   4.218 -11.590  1.00  0.00     0.005 C 
ATOM      8  C   UNL     1      41.137   5.692 -12.037  1.00  0.00     0.005 C 
ATOM      9  C   UNL     1      41.469   6.595 -10.840  1.00  0.00     0.002 C 
ATOM     10  C   UNL     1      42.160   7.997 -11.141  1.00  0.00    -0.026 C 
ATOM     11  C   UNL     1      41.228   9.016 -11.870  1.00  0.00     0.010 C 
ATOM     12  C   UNL     1      41.891  10.380 -12.125  1.00  0.00     0.033 C 
ATOM     13  C   UNL     1      42.776  10.917 -10.972  1.00  0.00     0.120 C 
ATOM     14  C   UNL     1      42.610  10.169  -9.601  1.00  0.00    -0.006 C 
ATOM     15  C   UNL     1      42.729   8.595  -9.784  1.00  0.00     0.003 C 
ATOM     16  C   UNL     1      42.413   7.741  -8.504  1.00  0.00     0.005 C 
ATOM     17  C   UNL     1      41.050   7.014  -8.388  1.00  0.00     0.008 C 
ATOM     18  C   UNL     1      40.347   6.515  -9.722  1.00  0.00    -0.024 C 
ATOM     19  C   UNL     1      39.711   4.991  -9.621  1.00  0.00    -0.024 C 
ATOM     20  C   UNL     1      38.405   4.748 -10.493  1.00  0.00     0.008 C 
ATOM     21  C   UNL     1      38.167   3.313 -11.061  1.00  0.00     0.007 C 
ATOM     22  C   UNL     1      39.273   4.745  -8.144  1.00  0.00     0.012 C 
ATOM     23  C   UNL     1      39.160   7.481  -9.984  1.00  0.00     0.012 C 
ATOM     24  C   UNL     1      43.749  10.677  -8.656  1.00  0.00     0.014 C 
ATOM     25  C   UNL     1      41.277  10.598  -8.919  1.00  0.00     0.014 C 
ATOM     26  C   UNL     1      43.373   7.732 -12.105  1.00  0.00     0.012 C 
ATOM     27  C   UNL     1      38.900   0.931 -11.396  1.00  0.00     0.011 C 
ENDROOT
BRANCH   1  28
ATOM     28  C   UNL     1      41.773   2.167  -7.755  1.00  0.00    -0.077 C 
ATOM     29  C   UNL     1      43.106   2.453  -8.409  1.00  0.00     0.039 C 
ATOM     30  C   UNL     1      41.739   2.161  -6.408  1.00  0.00     0.008 C 
ENDBRANCH   1  28
BRANCH  13  31
ATOM     31  O   UNL     1      44.125  10.887 -11.400  1.00  0.00    -0.393 OA
ATOM     32  H   UNL     1      44.690  11.156 -10.630  1.00  0.00     0.210 HD
ENDBRANCH  13  31
TORSDOF 2
ENDMDL
MODEL 5
REMARK VINA RESULT:    -1.549      2.595      7.586
REMARK INTER + INTRA:          -1.174
REMARK INTER:                  -1.466
REMARK INTRA:                   0.293
REMARK UNBOUND:                 0.511
REMARK SMILES C=C(C)[C@H]1CC[C@@]2(C)CC[C@@]3(C)[C@H](CC[C@H]4[C@@]5(C)CC[C@H](O)C(C)(C)[C@H]5CC[C@@]43C)[C@@H]12
REMARK SMILES IDX 4 1 5 2 6 3 7 4 31 5 13 6 14 7 15 8 16 9 17 10 19 11 20 12
REMARK SMILES IDX 21 13 23 14 26 15 27 16 28 17 29 18 11 19 10 20 9 21 12 22
REMARK SMILES IDX 30 23 24 24 25 25 18 26 8 27 2 28 3 29 1 30 22 31
REMARK H PARENT 22 32
REMARK Flexibility Score: inf
ROOT
ATOM      1  C   UNL     1      42.939  10.955   4.663  1.00  0.00     0.018 C 
ATOM      2  C   UNL     1      43.273  12.125   5.595  1.00  0.00     0.009 C 
ATOM      3  C   UNL     1      43.364  11.549   7.009  1.00  0.00     0.008 C 
ATOM      4  C   UNL     1      42.884  10.070   6.977  1.00  0.00    -0.029 C 
ATOM      5  C   UNL     1      42.330   9.826   5.543  1.00  0.00     0.006 C 
ATOM      6  C   UNL     1      40.782   9.543   5.481  1.00  0.00    -0.000 C 
ATOM      7  C   UNL     1      40.557   8.005   5.748  1.00  0.00     0.005 C 
ATOM      8  C   UNL     1      39.146   7.623   6.241  1.00  0.00     0.005 C 
ATOM      9  C   UNL     1      38.120   8.569   5.600  1.00  0.00     0.002 C 
ATOM     10  C   UNL     1      36.656   8.001   5.334  1.00  0.00    -0.026 C 
ATOM     11  C   UNL     1      35.841   7.723   6.636  1.00  0.00     0.010 C 
ATOM     12  C   UNL     1      34.417   7.209   6.370  1.00  0.00     0.033 C 
ATOM     13  C   UNL     1      33.673   7.885   5.190  1.00  0.00     0.120 C 
ATOM     14  C   UNL     1      34.336   9.204   4.654  1.00  0.00    -0.006 C 
ATOM     15  C   UNL     1      35.885   8.994   4.365  1.00  0.00     0.003 C 
ATOM     16  C   UNL     1      36.681  10.294   3.982  1.00  0.00     0.005 C 
ATOM     17  C   UNL     1      37.591  10.971   5.037  1.00  0.00     0.008 C 
ATOM     18  C   UNL     1      38.283  10.053   6.134  1.00  0.00    -0.024 C 
ATOM     19  C   UNL     1      39.872  10.417   6.413  1.00  0.00    -0.024 C 
ATOM     20  C   UNL     1      40.368  10.170   7.903  1.00  0.00     0.008 C 
ATOM     21  C   UNL     1      41.860   9.759   8.115  1.00  0.00     0.007 C 
ATOM     22  C   UNL     1      40.073  11.943   6.159  1.00  0.00     0.012 C 
ATOM     23  C   UNL     1      37.524  10.306   7.465  1.00  0.00     0.012 C 
ATOM     24  C   UNL     1      33.599   9.585   3.328  1.00  0.00     0.014 C 
ATOM     25  C   UNL     1      34.060  10.378   5.639  1.00  0.00     0.014 C 
ATOM     26  C   UNL     1      36.809   6.620   4.598  1.00  0.00     0.012 C 
ATOM     27  C   UNL     1      44.125   9.159   7.203  1.00  0.00     0.011 C 
ENDROOT
BRANCH   1  28
ATOM     28  C   UNL     1      42.220  11.266   3.334  1.00  0.00    -0.077 C 
ATOM     29  C   UNL     1      41.036  10.416   2.933  1.00  0.00     0.039 C 
ATOM     30  C   UNL     1      42.707  12.116   2.409  1.00  0.00     0.008 C 
ENDBRANCH   1  28
BRANCH  13  31
ATOM     31  O   UNL     1      33.535   6.934   4.152  1.00  0.00    -0.393 OA
ATOM     32  H   UNL     1      34.079   6.142   4.396  1.00  0.00     0.210 HD
ENDBRANCH  13  31
TORSDOF 2
ENDMDL
MODEL 6
REMARK VINA RESULT:    -1.264     14.451     17.341
REMARK INTER + INTRA:          -0.864
REMARK INTER:                  -1.473
REMARK INTRA:                   0.609
REMARK UNBOUND:                 0.511
REMARK SMILES C=C(C)[C@H]1CC[C@@]2(C)CC[C@@]3(C)[C@H](CC[C@H]4[C@@]5(C)CC[C@H](O)C(C)(C)[C@H]5CC[C@@]43C)[C@@H]12
REMARK SMILES IDX 4 1 5 2 6 3 7 4 31 5 13 6 14 7 15 8 16 9 17 10 19 11 20 12
REMARK SMILES IDX 21 13 23 14 26 15 27 16 28 17 29 18 11 19 10 20 9 21 12 22
REMARK SMILES IDX 30 23 24 24 25 25 18 26 8 27 2 28 3 29 1 30 22 31
REMARK H PARENT 22 32
REMARK Flexibility Score: inf
ROOT
ATOM      1  C   UNL     1      42.268  10.522  -9.738  1.00  0.00     0.018 C 
ATOM      2  C   UNL     1      42.764  10.802 -11.161  1.00  0.00     0.009 C 
ATOM      3  C   UNL     1      41.614  10.450 -12.106  1.00  0.00     0.008 C 
ATOM      4  C   UNL     1      40.488   9.758 -11.284  1.00  0.00    -0.029 C 
ATOM      5  C   UNL     1      41.067   9.541  -9.856  1.00  0.00     0.006 C 
ATOM      6  C   UNL     1      41.255   8.030  -9.452  1.00  0.00    -0.000 C 
ATOM      7  C   UNL     1      39.878   7.499  -8.894  1.00  0.00     0.005 C 
ATOM      8  C   UNL     1      39.698   5.968  -8.937  1.00  0.00     0.005 C 
ATOM      9  C   UNL     1      41.061   5.298  -8.711  1.00  0.00     0.002 C 
ATOM     10  C   UNL     1      41.076   3.872  -8.003  1.00  0.00    -0.026 C 
ATOM     11  C   UNL     1      40.466   2.729  -8.874  1.00  0.00     0.010 C 
ATOM     12  C   UNL     1      40.516   1.349  -8.198  1.00  0.00     0.033 C 
ATOM     13  C   UNL     1      41.817   1.037  -7.415  1.00  0.00     0.120 C 
ATOM     14  C   UNL     1      43.012   2.016  -7.694  1.00  0.00    -0.006 C 
ATOM     15  C   UNL     1      42.560   3.533  -7.554  1.00  0.00     0.003 C 
ATOM     16  C   UNL     1      43.636   4.599  -7.973  1.00  0.00     0.005 C 
ATOM     17  C   UNL     1      43.505   5.320  -9.337  1.00  0.00     0.008 C 
ATOM     18  C   UNL     1      42.049   5.564  -9.923  1.00  0.00    -0.024 C 
ATOM     19  C   UNL     1      41.821   7.074 -10.559  1.00  0.00    -0.024 C 
ATOM     20  C   UNL     1      40.813   7.143 -11.786  1.00  0.00     0.008 C 
ATOM     21  C   UNL     1      39.979   8.451 -11.970  1.00  0.00     0.007 C 
ATOM     22  C   UNL     1      43.187   7.576 -11.120  1.00  0.00     0.012 C 
ATOM     23  C   UNL     1      41.866   4.554 -11.088  1.00  0.00     0.012 C 
ATOM     24  C   UNL     1      44.125   1.698  -6.641  1.00  0.00     0.014 C 
ATOM     25  C   UNL     1      43.646   1.702  -9.081  1.00  0.00     0.014 C 
ATOM     26  C   UNL     1      40.184   3.974  -6.711  1.00  0.00     0.012 C 
ATOM     27  C   UNL     1      39.285  10.741 -11.200  1.00  0.00     0.011 C 
ENDROOT
BRANCH   1  28
ATOM     28  C   UNL     1      43.317  10.209  -8.650  1.00  0.00    -0.077 C 
ATOM     29  C   UNL     1      43.291   8.853  -7.985  1.00  0.00     0.039 C 
ATOM     30  C   UNL     1      44.125  11.143  -8.112  1.00  0.00     0.008 C 
ENDBRANCH   1  28
BRANCH  13  31
ATOM     31  O   UNL     1      41.505   1.004  -6.035  1.00  0.00    -0.393 OA
ATOM     32  H   UNL     1      42.284   1.370  -5.543  1.00  0.00     0.210 HD
ENDBRANCH  13  31
TORSDOF 2
ENDMDL
MODEL 7
REMARK VINA RESULT:    -1.138      2.521      7.540
REMARK INTER + INTRA:          -0.727
REMARK INTER:                  -0.311
REMARK INTRA:                  -0.416
REMARK UNBOUND:                 0.511
REMARK SMILES C=C(C)[C@H]1CC[C@@]2(C)CC[C@@]3(C)[C@H](CC[C@H]4[C@@]5(C)CC[C@H](O)C(C)(C)[C@H]5CC[C@@]43C)[C@@H]12
REMARK SMILES IDX 4 1 5 2 6 3 7 4 31 5 13 6 14 7 15 8 16 9 17 10 19 11 20 12
REMARK SMILES IDX 21 13 23 14 26 15 27 16 28 17 29 18 11 19 10 20 9 21 12 22
REMARK SMILES IDX 30 23 24 24 25 25 18 26 8 27 2 28 3 29 1 30 22 31
REMARK H PARENT 22 32
REMARK Flexibility Score: inf
ROOT
ATOM      1  C   UNL     1      41.993  10.619   3.868  1.00  0.00     0.018 C 
ATOM      2  C   UNL     1      42.062  12.094   4.279  1.00  0.00     0.009 C 
ATOM      3  C   UNL     1      42.406  12.121   5.769  1.00  0.00     0.008 C 
ATOM      4  C   UNL     1      42.343  10.668   6.321  1.00  0.00    -0.029 C 
ATOM      5  C   UNL     1      41.776   9.791   5.167  1.00  0.00     0.006 C 
ATOM      6  C   UNL     1      40.361   9.162   5.460  1.00  0.00    -0.000 C 
ATOM      7  C   UNL     1      40.581   7.825   6.268  1.00  0.00     0.005 C 
ATOM      8  C   UNL     1      39.365   7.345   7.086  1.00  0.00     0.005 C 
ATOM      9  C   UNL     1      38.078   7.726   6.339  1.00  0.00     0.002 C 
ATOM     10  C   UNL     1      36.808   6.784   6.526  1.00  0.00    -0.026 C 
ATOM     11  C   UNL     1      36.193   6.832   7.961  1.00  0.00     0.010 C 
ATOM     12  C   UNL     1      34.946   5.948   8.123  1.00  0.00     0.033 C 
ATOM     13  C   UNL     1      33.965   5.951   6.923  1.00  0.00     0.120 C 
ATOM     14  C   UNL     1      34.207   7.089   5.869  1.00  0.00    -0.006 C 
ATOM     15  C   UNL     1      35.730   7.144   5.418  1.00  0.00     0.003 C 
ATOM     16  C   UNL     1      36.115   8.352   4.491  1.00  0.00     0.005 C 
ATOM     17  C   UNL     1      36.880   9.560   5.088  1.00  0.00     0.008 C 
ATOM     18  C   UNL     1      37.871   9.298   6.302  1.00  0.00    -0.024 C 
ATOM     19  C   UNL     1      39.318  10.089   6.175  1.00  0.00    -0.024 C 
ATOM     20  C   UNL     1      39.966  10.532   7.557  1.00  0.00     0.008 C 
ATOM     21  C   UNL     1      41.524  10.579   7.648  1.00  0.00     0.007 C 
ATOM     22  C   UNL     1      39.079  11.415   5.388  1.00  0.00     0.012 C 
ATOM     23  C   UNL     1      37.167   9.847   7.573  1.00  0.00     0.012 C 
ATOM     24  C   UNL     1      33.302   6.773   4.633  1.00  0.00     0.014 C 
ATOM     25  C   UNL     1      33.694   8.449   6.427  1.00  0.00     0.014 C 
ATOM     26  C   UNL     1      37.277   5.302   6.290  1.00  0.00     0.012 C 
ATOM     27  C   UNL     1      43.797  10.214   6.637  1.00  0.00     0.011 C 
ENDROOT
BRANCH   1  28
ATOM     28  C   UNL     1      41.123  10.242   2.650  1.00  0.00    -0.077 C 
ATOM     29  C   UNL     1      41.167   8.821   2.138  1.00  0.00     0.039 C 
ATOM     30  C   UNL     1      40.484  11.151   1.888  1.00  0.00     0.008 C 
ENDBRANCH   1  28
BRANCH  13  31
ATOM     31  O   UNL     1      34.016   4.677   6.308  1.00  0.00    -0.393 OA
ATOM     32  H   UNL     1      33.988   3.995   7.027  1.00  0.00     0.210 HD
ENDBRANCH  13  31
TORSDOF 2
ENDMDL
MODEL 8
REMARK VINA RESULT:    -0.722      2.687      7.362
REMARK INTER + INTRA:          -0.275
REMARK INTER:                  -0.113
REMARK INTRA:                  -0.162
REMARK UNBOUND:                 0.511
REMARK SMILES C=C(C)[C@H]1CC[C@@]2(C)CC[C@@]3(C)[C@H](CC[C@H]4[C@@]5(C)CC[C@H](O)C(C)(C)[C@H]5CC[C@@]43C)[C@@H]12
REMARK SMILES IDX 4 1 5 2 6 3 7 4 31 5 13 6 14 7 15 8 16 9 17 10 19 11 20 12
REMARK SMILES IDX 21 13 23 14 26 15 27 16 28 17 29 18 11 19 10 20 9 21 12 22
REMARK SMILES IDX 30 23 24 24 25 25 18 26 8 27 2 28 3 29 1 30 22 31
REMARK H PARENT 22 32
REMARK Flexibility Score: inf
ROOT
ATOM      1  C   UNL     1      41.550  11.091   6.047  1.00  0.00     0.018 C 
ATOM      2  C   UNL     1      42.762  10.248   5.634  1.00  0.00     0.009 C 
ATOM      3  C   UNL     1      42.700  10.105   4.113  1.00  0.00     0.008 C 
ATOM      4  C   UNL     1      41.344  10.679   3.612  1.00  0.00    -0.029 C 
ATOM      5  C   UNL     1      40.516  11.006   4.888  1.00  0.00     0.006 C 
ATOM      6  C   UNL     1      39.219  10.129   5.067  1.00  0.00    -0.000 C 
ATOM      7  C   UNL     1      38.059  10.799   4.233  1.00  0.00     0.005 C 
ATOM      8  C   UNL     1      36.898   9.859   3.850  1.00  0.00     0.005 C 
ATOM      9  C   UNL     1      36.700   8.828   4.971  1.00  0.00     0.002 C 
ATOM     10  C   UNL     1      35.230   8.262   5.204  1.00  0.00    -0.026 C 
ATOM     11  C   UNL     1      34.712   7.354   4.044  1.00  0.00     0.010 C 
ATOM     12  C   UNL     1      33.306   6.783   4.292  1.00  0.00     0.033 C 
ATOM     13  C   UNL     1      33.021   6.321   5.744  1.00  0.00     0.120 C 
ATOM     14  C   UNL     1      34.289   6.194   6.663  1.00  0.00    -0.006 C 
ATOM     15  C   UNL     1      35.182   7.507   6.600  1.00  0.00     0.003 C 
ATOM     16  C   UNL     1      36.559   7.423   7.352  1.00  0.00     0.005 C 
ATOM     17  C   UNL     1      37.862   7.229   6.539  1.00  0.00     0.008 C 
ATOM     18  C   UNL     1      37.931   7.833   5.071  1.00  0.00    -0.024 C 
ATOM     19  C   UNL     1      39.353   8.604   4.724  1.00  0.00    -0.024 C 
ATOM     20  C   UNL     1      39.815   8.512   3.206  1.00  0.00     0.008 C 
ATOM     21  C   UNL     1      40.626   9.711   2.619  1.00  0.00     0.007 C 
ATOM     22  C   UNL     1      40.490   7.920   5.544  1.00  0.00     0.012 C 
ATOM     23  C   UNL     1      37.821   6.632   4.093  1.00  0.00     0.012 C 
ATOM     24  C   UNL     1      33.779   5.973   8.125  1.00  0.00     0.014 C 
ATOM     25  C   UNL     1      35.084   4.906   6.297  1.00  0.00     0.014 C 
ATOM     26  C   UNL     1      34.254   9.492   5.279  1.00  0.00     0.012 C 
ATOM     27  C   UNL     1      41.639  12.001   2.846  1.00  0.00     0.011 C 
ENDROOT
BRANCH   1  28
ATOM     28  C   UNL     1      41.003  10.926   7.480  1.00  0.00    -0.077 C 
ATOM     29  C   UNL     1      41.032   9.555   8.116  1.00  0.00     0.039 C 
ATOM     30  C   UNL     1      40.313  11.887   8.125  1.00  0.00     0.008 C 
ENDBRANCH   1  28
BRANCH  13  31
ATOM     31  O   UNL     1      32.076   7.209   6.312  1.00  0.00    -0.393 OA
ATOM     32  H   UNL     1      32.523   8.086   6.432  1.00  0.00     0.210 HD
ENDBRANCH  13  31
TORSDOF 2
ENDMDL
