MODEL 1
REMARK VINA RESULT:    -3.458      0.000      0.000
REMARK INTER + INTRA:          -6.299
REMARK INTER:                  -5.277
REMARK INTRA:                  -1.022
REMARK UNBOUND:                -1.022
REMARK SMILES O=C([O-])CCCCCCCCC(=O)[O-]
REMARK SMILES IDX 7 1 6 2 5 3 4 4 2 5 1 6 3 7 8 8 9 9 10 10 11 11 12 12 13 13
REMARK SMILES IDX 14 14
REMARK H PARENT
REMARK Flexibility Score: inf
ROOT
ATOM      1  C   UNL     1     162.635 154.312 162.486  1.00  0.00     0.000 C 
ENDROOT
BRANCH   1   2
ATOM      2  C   UNL     1     164.152 154.048 162.514  1.00  0.00     0.000 C 
BRANCH   2   3
ATOM      3  C   UNL     1     164.680 153.369 163.795  1.00  0.00     0.006 C 
BRANCH   3   4
ATOM      4  C   UNL     1     165.761 154.165 164.543  1.00  0.00     0.053 C 
BRANCH   4   5
ATOM      5  C   UNL     1     165.218 155.428 165.136  1.00  0.00     0.041 C 
ATOM      6  O   UNL     1     165.432 156.534 164.573  1.00  0.00    -0.550 OA
ATOM      7  O   UNL     1     164.449 155.382 166.291  1.00  0.00    -0.550 OA
ENDBRANCH   4   5
ENDBRANCH   3   4
ENDBRANCH   2   3
ENDBRANCH   1   2
BRANCH   1   8
ATOM      8  C   UNL     1     161.954 154.042 163.837  1.00  0.00     0.000 C 
BRANCH   8   9
ATOM      9  C   UNL     1     161.288 155.297 164.429  1.00  0.00     0.000 C 
BRANCH   9  10
ATOM     10  C   UNL     1     161.879 156.621 163.899  1.00  0.00     0.006 C 
BRANCH  10  11
ATOM     11  C   UNL     1     161.417 157.830 164.723  1.00  0.00     0.053 C 
BRANCH  11  12
ATOM     12  C   UNL     1     162.587 158.496 165.377  1.00  0.00     0.041 C 
ATOM     13  O   UNL     1     163.372 159.206 164.696  1.00  0.00    -0.550 OA
ATOM     14  O   UNL     1     162.837 158.292 166.728  1.00  0.00    -0.550 OA
ENDBRANCH  11  12
ENDBRANCH  10  11
ENDBRANCH   9  10
ENDBRANCH   8   9
ENDBRANCH   1   8
TORSDOF 9
ENDMDL
MODEL 2
REMARK VINA RESULT:    -3.457      1.060      3.977
REMARK INTER + INTRA:          -6.298
REMARK INTER:                  -5.322
REMARK INTRA:                  -0.976
REMARK UNBOUND:                -1.022
REMARK SMILES O=C([O-])CCCCCCCCC(=O)[O-]
REMARK SMILES IDX 7 1 6 2 5 3 4 4 2 5 1 6 3 7 8 8 9 9 10 10 11 11 12 12 13 13
REMARK SMILES IDX 14 14
REMARK H PARENT
REMARK Flexibility Score: inf
ROOT
ATOM      1  C   UNL     1     161.944 155.081 162.732  1.00  0.00     0.000 C 
ENDROOT
BRANCH   1   2
ATOM      2  C   UNL     1     161.799 156.444 163.434  1.00  0.00     0.000 C 
BRANCH   2   3
ATOM      3  C   UNL     1     161.404 156.381 164.924  1.00  0.00     0.006 C 
BRANCH   3   4
ATOM      4  C   UNL     1     162.071 157.445 165.809  1.00  0.00     0.053 C 
BRANCH   4   5
ATOM      5  C   UNL     1     162.024 158.806 165.186  1.00  0.00     0.041 C 
ATOM      6  O   UNL     1     163.091 159.388 164.857  1.00  0.00    -0.550 OA
ATOM      7  O   UNL     1     160.802 159.416 164.936  1.00  0.00    -0.550 OA
ENDBRANCH   4   5
ENDBRANCH   3   4
ENDBRANCH   2   3
ENDBRANCH   1   2
BRANCH   1   8
ATOM      8  C   UNL     1     161.536 153.899 163.627  1.00  0.00     0.000 C 
BRANCH   8   9
ATOM      9  C   UNL     1     162.706 152.945 163.922  1.00  0.00     0.000 C 
BRANCH   9  10
ATOM     10  C   UNL     1     164.091 153.540 163.590  1.00  0.00     0.006 C 
BRANCH  10  11
ATOM     11  C   UNL     1     164.971 153.686 164.839  1.00  0.00     0.053 C 
BRANCH  11  12
ATOM     12  C   UNL     1     164.887 155.079 165.379  1.00  0.00     0.041 C 
ATOM     13  O   UNL     1     165.159 156.062 164.642  1.00  0.00    -0.550 OA
ATOM     14  O   UNL     1     164.555 155.288 166.712  1.00  0.00    -0.550 OA
ENDBRANCH  11  12
ENDBRANCH  10  11
ENDBRANCH   9  10
ENDBRANCH   8   9
ENDBRANCH   1   8
TORSDOF 9
ENDMDL
MODEL 3
REMARK VINA RESULT:    -3.446      1.991      5.134
REMARK INTER + INTRA:          -6.281
REMARK INTER:                  -5.433
REMARK INTRA:                  -0.848
REMARK UNBOUND:                -1.022
REMARK SMILES O=C([O-])CCCCCCCCC(=O)[O-]
REMARK SMILES IDX 7 1 6 2 5 3 4 4 2 5 1 6 3 7 8 8 9 9 10 10 11 11 12 12 13 13
REMARK SMILES IDX 14 14
REMARK H PARENT
REMARK Flexibility Score: inf
ROOT
ATOM      1  C   UNL     1     162.067 155.756 166.129  1.00  0.00     0.000 C 
ENDROOT
BRANCH   1   2
ATOM      2  C   UNL     1     161.422 155.679 164.733  1.00  0.00     0.000 C 
BRANCH   2   3
ATOM      3  C   UNL     1     161.373 157.009 163.953  1.00  0.00     0.006 C 
BRANCH   3   4
ATOM      4  C   UNL     1     160.267 157.976 164.406  1.00  0.00     0.053 C 
BRANCH   4   5
ATOM      5  C   UNL     1     160.827 159.242 164.976  1.00  0.00     0.041 C 
ATOM      6  O   UNL     1     160.054 160.125 165.435  1.00  0.00    -0.550 OA
ATOM      7  O   UNL     1     162.201 159.434 165.032  1.00  0.00    -0.550 OA
ENDBRANCH   4   5
ENDBRANCH   3   4
ENDBRANCH   2   3
ENDBRANCH   1   2
BRANCH   1   8
ATOM      8  C   UNL     1     163.467 156.389 166.108  1.00  0.00     0.000 C 
BRANCH   8   9
ATOM      9  C   UNL     1     164.593 155.342 166.059  1.00  0.00     0.000 C 
BRANCH   9  10
ATOM     10  C   UNL     1     165.419 155.381 164.755  1.00  0.00     0.006 C 
BRANCH  10  11
ATOM     11  C   UNL     1     165.470 154.012 164.063  1.00  0.00     0.053 C 
BRANCH  11  12
ATOM     12  C   UNL     1     164.184 153.737 163.350  1.00  0.00     0.041 C 
ATOM     13  O   UNL     1     163.887 154.381 162.309  1.00  0.00    -0.550 OA
ATOM     14  O   UNL     1     163.291 152.805 163.863  1.00  0.00    -0.550 OA
ENDBRANCH  11  12
ENDBRANCH  10  11
ENDBRANCH   9  10
ENDBRANCH   8   9
ENDBRANCH   1   8
TORSDOF 9
ENDMDL
MODEL 4
REMARK VINA RESULT:    -3.422      2.671      5.565
REMARK INTER + INTRA:          -6.245
REMARK INTER:                  -5.688
REMARK INTRA:                  -0.557
REMARK UNBOUND:                -1.022
REMARK SMILES O=C([O-])CCCCCCCCC(=O)[O-]
REMARK SMILES IDX 7 1 6 2 5 3 4 4 2 5 1 6 3 7 8 8 9 9 10 10 11 11 12 12 13 13
REMARK SMILES IDX 14 14
REMARK H PARENT
REMARK Flexibility Score: inf
ROOT
ATOM      1  C   UNL     1     163.282 157.350 165.657  1.00  0.00     0.000 C 
ENDROOT
BRANCH   1   2
ATOM      2  C   UNL     1     163.035 158.705 164.966  1.00  0.00     0.000 C 
BRANCH   2   3
ATOM      3  C   UNL     1     161.642 159.322 165.204  1.00  0.00     0.006 C 
BRANCH   3   4
ATOM      4  C   UNL     1     160.470 158.485 164.667  1.00  0.00     0.053 C 
BRANCH   4   5
ATOM      5  C   UNL     1     159.189 159.259 164.648  1.00  0.00     0.041 C 
ATOM      6  O   UNL     1     158.613 159.557 165.728  1.00  0.00    -0.550 OA
ATOM      7  O   UNL     1     158.648 159.682 163.441  1.00  0.00    -0.550 OA
ENDBRANCH   4   5
ENDBRANCH   3   4
ENDBRANCH   2   3
ENDBRANCH   1   2
BRANCH   1   8
ATOM      8  C   UNL     1     164.328 156.489 164.931  1.00  0.00     0.000 C 
BRANCH   8   9
ATOM      9  C   UNL     1     164.150 154.984 165.200  1.00  0.00     0.000 C 
BRANCH   9  10
ATOM     10  C   UNL     1     163.976 154.142 163.919  1.00  0.00     0.006 C 
BRANCH  10  11
ATOM     11  C   UNL     1     162.544 153.612 163.765  1.00  0.00     0.053 C 
BRANCH  11  12
ATOM     12  C   UNL     1     161.585 154.743 163.570  1.00  0.00     0.041 C 
ATOM     13  O   UNL     1     160.545 154.822 164.275  1.00  0.00    -0.550 OA
ATOM     14  O   UNL     1     161.814 155.685 162.574  1.00  0.00    -0.550 OA
ENDBRANCH  11  12
ENDBRANCH  10  11
ENDBRANCH   9  10
ENDBRANCH   8   9
ENDBRANCH   1   8
TORSDOF 9
ENDMDL
MODEL 5
REMARK VINA RESULT:    -3.410      1.402      3.980
REMARK INTER + INTRA:          -6.226
REMARK INTER:                  -5.337
REMARK INTRA:                  -0.890
REMARK UNBOUND:                -1.022
REMARK SMILES O=C([O-])CCCCCCCCC(=O)[O-]
REMARK SMILES IDX 7 1 6 2 5 3 4 4 2 5 1 6 3 7 8 8 9 9 10 10 11 11 12 12 13 13
REMARK SMILES IDX 14 14
REMARK H PARENT
REMARK Flexibility Score: inf
ROOT
ATOM      1  C   UNL     1     161.336 154.330 163.664  1.00  0.00     0.000 C 
ENDROOT
BRANCH   1   2
ATOM      2  C   UNL     1     161.813 155.684 163.105  1.00  0.00     0.000 C 
BRANCH   2   3
ATOM      3  C   UNL     1     161.807 156.852 164.112  1.00  0.00     0.006 C 
BRANCH   3   4
ATOM      4  C   UNL     1     161.805 156.426 165.588  1.00  0.00     0.053 C 
BRANCH   4   5
ATOM      5  C   UNL     1     162.595 157.365 166.446  1.00  0.00     0.041 C 
ATOM      6  O   UNL     1     162.879 158.518 166.026  1.00  0.00    -0.550 OA
ATOM      7  O   UNL     1     162.988 156.982 167.721  1.00  0.00    -0.550 OA
ENDBRANCH   4   5
ENDBRANCH   3   4
ENDBRANCH   2   3
ENDBRANCH   1   2
BRANCH   1   8
ATOM      8  C   UNL     1     162.448 153.270 163.699  1.00  0.00     0.000 C 
BRANCH   8   9
ATOM      9  C   UNL     1     163.837 153.854 163.386  1.00  0.00     0.000 C 
BRANCH   9  10
ATOM     10  C   UNL     1     164.775 153.912 164.611  1.00  0.00     0.006 C 
BRANCH  10  11
ATOM     11  C   UNL     1     165.266 155.338 164.894  1.00  0.00     0.053 C 
BRANCH  11  12
ATOM     12  C   UNL     1     166.606 155.565 164.266  1.00  0.00     0.041 C 
ATOM     13  O   UNL     1     166.921 156.708 163.845  1.00  0.00    -0.550 OA
ATOM     14  O   UNL     1     167.485 154.502 164.103  1.00  0.00    -0.550 OA
ENDBRANCH  11  12
ENDBRANCH  10  11
ENDBRANCH   9  10
ENDBRANCH   8   9
ENDBRANCH   1   8
TORSDOF 9
ENDMDL
MODEL 6
REMARK VINA RESULT:    -3.357      2.171      4.651
REMARK INTER + INTRA:          -6.145
REMARK INTER:                  -5.240
REMARK INTRA:                  -0.905
REMARK UNBOUND:                -1.022
REMARK SMILES O=C([O-])CCCCCCCCC(=O)[O-]
REMARK SMILES IDX 7 1 6 2 5 3 4 4 2 5 1 6 3 7 8 8 9 9 10 10 11 11 12 12 13 13
REMARK SMILES IDX 14 14
REMARK H PARENT
REMARK Flexibility Score: inf
ROOT
ATOM      1  C   UNL     1     164.595 155.847 164.985  1.00  0.00     0.000 C 
ENDROOT
BRANCH   1   2
ATOM      2  C   UNL     1     163.610 155.898 166.168  1.00  0.00     0.000 C 
BRANCH   2   3
ATOM      3  C   UNL     1     162.840 157.225 166.328  1.00  0.00     0.006 C 
BRANCH   3   4
ATOM      4  C   UNL     1     162.658 158.022 165.026  1.00  0.00     0.053 C 
BRANCH   4   5
ATOM      5  C   UNL     1     161.315 158.680 164.952  1.00  0.00     0.041 C 
ATOM      6  O   UNL     1     160.333 158.058 164.467  1.00  0.00    -0.550 OA
ATOM      7  O   UNL     1     161.139 159.964 165.450  1.00  0.00    -0.550 OA
ENDBRANCH   4   5
ENDBRANCH   3   4
ENDBRANCH   2   3
ENDBRANCH   1   2
BRANCH   1   8
ATOM      8  C   UNL     1     165.423 154.553 164.949  1.00  0.00     0.000 C 
BRANCH   8   9
ATOM      9  C   UNL     1     164.606 153.336 164.481  1.00  0.00     0.000 C 
BRANCH   9  10
ATOM     10  C   UNL     1     163.742 153.613 163.232  1.00  0.00     0.006 C 
BRANCH  10  11
ATOM     11  C   UNL     1     162.255 153.333 163.486  1.00  0.00     0.053 C 
BRANCH  11  12
ATOM     12  C   UNL     1     161.476 154.611 163.497  1.00  0.00     0.041 C 
ATOM     13  O   UNL     1     160.520 154.762 164.302  1.00  0.00    -0.550 OA
ATOM     14  O   UNL     1     161.776 155.616 162.586  1.00  0.00    -0.550 OA
ENDBRANCH  11  12
ENDBRANCH  10  11
ENDBRANCH   9  10
ENDBRANCH   8   9
ENDBRANCH   1   8
TORSDOF 9
ENDMDL
MODEL 7
REMARK VINA RESULT:    -3.280     13.051     14.371
REMARK INTER + INTRA:          -6.028
REMARK INTER:                  -5.175
REMARK INTRA:                  -0.853
REMARK UNBOUND:                -1.022
REMARK SMILES O=C([O-])CCCCCCCCC(=O)[O-]
REMARK SMILES IDX 7 1 6 2 5 3 4 4 2 5 1 6 3 7 8 8 9 9 10 10 11 11 12 12 13 13
REMARK SMILES IDX 14 14
REMARK H PARENT
REMARK Flexibility Score: inf
ROOT
ATOM      1  C   UNL     1     155.815 155.475 151.127  1.00  0.00     0.000 C 
ENDROOT
BRANCH   1   2
ATOM      2  C   UNL     1     156.691 154.337 150.568  1.00  0.00     0.000 C 
BRANCH   2   3
ATOM      3  C   UNL     1     157.708 153.739 151.561  1.00  0.00     0.006 C 
BRANCH   3   4
ATOM      4  C   UNL     1     159.084 154.425 151.559  1.00  0.00     0.053 C 
BRANCH   4   5
ATOM      5  C   UNL     1     159.327 155.203 152.814  1.00  0.00     0.041 C 
ATOM      6  O   UNL     1     160.503 155.392 153.224  1.00  0.00    -0.550 OA
ATOM      7  O   UNL     1     158.259 155.749 153.514  1.00  0.00    -0.550 OA
ENDBRANCH   4   5
ENDBRANCH   3   4
ENDBRANCH   2   3
ENDBRANCH   1   2
BRANCH   1   8
ATOM      8  C   UNL     1     155.890 156.759 150.285  1.00  0.00     0.000 C 
BRANCH   8   9
ATOM      9  C   UNL     1     156.868 157.795 150.865  1.00  0.00     0.000 C 
BRANCH   9  10
ATOM     10  C   UNL     1     158.267 157.761 150.212  1.00  0.00     0.006 C 
BRANCH  10  11
ATOM     11  C   UNL     1     159.097 159.004 150.562  1.00  0.00     0.053 C 
BRANCH  11  12
ATOM     12  C   UNL     1     160.558 158.713 150.426  1.00  0.00     0.041 C 
ATOM     13  O   UNL     1     161.027 157.619 150.838  1.00  0.00    -0.550 OA
ATOM     14  O   UNL     1     161.411 159.670 149.890  1.00  0.00    -0.550 OA
ENDBRANCH  11  12
ENDBRANCH  10  11
ENDBRANCH   9  10
ENDBRANCH   8   9
ENDBRANCH   1   8
TORSDOF 9
ENDMDL
MODEL 8
REMARK VINA RESULT:    -3.192     12.988     14.583
REMARK INTER + INTRA:          -5.894
REMARK INTER:                  -5.063
REMARK INTRA:                  -0.831
REMARK UNBOUND:                -1.022
REMARK SMILES O=C([O-])CCCCCCCCC(=O)[O-]
REMARK SMILES IDX 7 1 6 2 5 3 4 4 2 5 1 6 3 7 8 8 9 9 10 10 11 11 12 12 13 13
REMARK SMILES IDX 14 14
REMARK H PARENT
REMARK Flexibility Score: inf
ROOT
ATOM      1  C   UNL     1     158.413 158.283 150.969  1.00  0.00     0.000 C 
ENDROOT
BRANCH   1   2
ATOM      2  C   UNL     1     156.873 158.251 150.987  1.00  0.00     0.000 C 
BRANCH   2   3
ATOM      3  C   UNL     1     156.232 156.976 150.400  1.00  0.00     0.006 C 
BRANCH   3   4
ATOM      4  C   UNL     1     156.090 155.814 151.395  1.00  0.00     0.053 C 
BRANCH   4   5
ATOM      5  C   UNL     1     156.196 154.481 150.722  1.00  0.00     0.041 C 
ATOM      6  O   UNL     1     157.288 153.854 150.729  1.00  0.00    -0.550 OA
ATOM      7  O   UNL     1     155.082 153.916 150.116  1.00  0.00    -0.550 OA
ENDBRANCH   4   5
ENDBRANCH   3   4
ENDBRANCH   2   3
ENDBRANCH   1   2
BRANCH   1   8
ATOM      8  C   UNL     1     159.018 157.389 149.875  1.00  0.00     0.000 C 
BRANCH   8   9
ATOM      9  C   UNL     1     159.873 156.245 150.447  1.00  0.00     0.000 C 
BRANCH   9  10
ATOM     10  C   UNL     1     159.765 156.096 151.980  1.00  0.00     0.006 C 
BRANCH  10  11
ATOM     11  C   UNL     1     160.275 154.733 152.465  1.00  0.00     0.053 C 
BRANCH  11  12
ATOM     12  C   UNL     1     160.386 154.716 153.957  1.00  0.00     0.041 C 
ATOM     13  O   UNL     1     161.496 154.925 154.512  1.00  0.00    -0.550 OA
ATOM     14  O   UNL     1     159.272 154.420 154.733  1.00  0.00    -0.550 OA
ENDBRANCH  11  12
ENDBRANCH  10  11
ENDBRANCH   9  10
ENDBRANCH   8   9
ENDBRANCH   1   8
TORSDOF 9
ENDMDL
MODEL 9
REMARK VINA RESULT:    -3.166      2.076      4.981
REMARK INTER + INTRA:          -5.853
REMARK INTER:                  -5.144
REMARK INTRA:                  -0.709
REMARK UNBOUND:                -1.022
REMARK SMILES O=C([O-])CCCCCCCCC(=O)[O-]
REMARK SMILES IDX 7 1 6 2 5 3 4 4 2 5 1 6 3 7 8 8 9 9 10 10 11 11 12 12 13 13
REMARK SMILES IDX 14 14
REMARK H PARENT
REMARK Flexibility Score: inf
ROOT
ATOM      1  C   UNL     1     163.756 154.478 164.506  1.00  0.00     0.000 C 
ENDROOT
BRANCH   1   2
ATOM      2  C   UNL     1     162.295 154.918 164.295  1.00  0.00     0.000 C 
BRANCH   2   3
ATOM      3  C   UNL     1     161.778 155.987 165.280  1.00  0.00     0.006 C 
BRANCH   3   4
ATOM      4  C   UNL     1     161.463 157.349 164.641  1.00  0.00     0.053 C 
BRANCH   4   5
ATOM      5  C   UNL     1     161.953 158.489 165.478  1.00  0.00     0.041 C 
ATOM      6  O   UNL     1     161.635 159.672 165.182  1.00  0.00    -0.550 OA
ATOM      7  O   UNL     1     162.730 158.246 166.602  1.00  0.00    -0.550 OA
ENDBRANCH   4   5
ENDBRANCH   3   4
ENDBRANCH   2   3
ENDBRANCH   1   2
BRANCH   1   8
ATOM      8  C   UNL     1     164.547 155.438 165.409  1.00  0.00     0.000 C 
BRANCH   8   9
ATOM      9  C   UNL     1     165.456 156.390 164.614  1.00  0.00     0.000 C 
BRANCH   9  10
ATOM     10  C   UNL     1     166.925 155.923 164.534  1.00  0.00     0.006 C 
BRANCH  10  11
ATOM     11  C   UNL     1     167.519 156.123 163.133  1.00  0.00     0.053 C 
BRANCH  11  12
ATOM     12  C   UNL     1     167.013 155.073 162.195  1.00  0.00     0.041 C 
ATOM     13  O   UNL     1     166.763 155.364 160.996  1.00  0.00    -0.550 OA
ATOM     14  O   UNL     1     166.770 153.786 162.658  1.00  0.00    -0.550 OA
ENDBRANCH  11  12
ENDBRANCH  10  11
ENDBRANCH   9  10
ENDBRANCH   8   9
ENDBRANCH   1   8
TORSDOF 9
ENDMDL
