MODEL 1
REMARK VINA RESULT:    -4.500      0.000      0.000
REMARK INTER + INTRA:          -4.882
REMARK INTER:                  -5.420
REMARK INTRA:                   0.539
REMARK UNBOUND:                 0.539
REMARK SMILES O=c1c(O)c(-c2ccc(O)cc2O)oc2cc(O)cc(O)c12
REMARK SMILES IDX 5 1 3 2 2 3 1 4 22 5 20 6 19 7 17 8 16 9 15 10 14 11 6 12
REMARK SMILES IDX 8 13 7 14 9 15 11 16 12 17 10 18 13 20 4 22 21 24 18 26
REMARK H PARENT 10 19 13 21 4 23 21 25 18 27
REMARK Flexibility Score: inf
ROOT
ATOM      1  C   UNL     1       4.306  -6.670  14.250  1.00  0.00     0.184 A 
ATOM      2  C   UNL     1       4.142  -7.483  13.118  1.00  0.00     0.208 A 
ATOM      3  C   UNL     1       4.224  -8.876  13.263  1.00  0.00     0.238 A 
ATOM      4  O   UNL     1       4.016  -9.602  12.257  1.00  0.00    -0.285 OA
ATOM      5  C   UNL     1       4.499  -9.436  14.535  1.00  0.00     0.111 A 
ATOM      6  C   UNL     1       4.644 -10.832  14.792  1.00  0.00     0.134 A 
ATOM      7  C   UNL     1       4.793 -11.281  16.111  1.00  0.00     0.093 A 
ATOM      8  C   UNL     1       4.867 -10.378  17.174  1.00  0.00     0.123 A 
ATOM      9  C   UNL     1       4.784  -9.010  16.928  1.00  0.00     0.094 A 
ATOM     10  C   UNL     1       4.598  -8.534  15.627  1.00  0.00     0.146 A 
ATOM     11  O   UNL     1       4.511  -7.223  15.439  1.00  0.00    -0.451 OA
ENDROOT
BRANCH   1  12
ATOM     12  C   UNL     1       4.252  -5.195  14.152  1.00  0.00     0.063 A 
ATOM     13  C   UNL     1       3.895  -3.208  12.795  1.00  0.00     0.047 A 
ATOM     14  C   UNL     1       3.900  -4.597  12.930  1.00  0.00     0.020 A 
ATOM     15  C   UNL     1       4.251  -2.395  13.877  1.00  0.00     0.119 A 
ATOM     16  C   UNL     1       4.605  -2.979  15.096  1.00  0.00     0.093 A 
ATOM     17  C   UNL     1       4.602  -4.371  15.248  1.00  0.00     0.130 A 
BRANCH  15  18
ATOM     18  O   UNL     1       4.255  -1.007  13.752  1.00  0.00    -0.508 OA
ATOM     19  H   UNL     1       3.860  -0.410  14.469  1.00  0.00     0.293 HD
ENDBRANCH  15  18
BRANCH  17  20
ATOM     20  O   UNL     1       4.929  -4.898  16.499  1.00  0.00    -0.507 OA
ATOM     21  H   UNL     1       5.451  -4.382  17.197  1.00  0.00     0.293 HD
ENDBRANCH  17  20
ENDBRANCH   1  12
BRANCH   2  22
ATOM     22  O   UNL     1       3.875  -6.902  11.875  1.00  0.00    -0.502 OA
ATOM     23  H   UNL     1       3.720  -7.454  11.040  1.00  0.00     0.293 HD
ENDBRANCH   2  22
BRANCH   6  24
ATOM     24  O   UNL     1       4.675 -11.812  13.795  1.00  0.00    -0.507 OA
ATOM     25  H   UNL     1       5.395 -11.895  13.092  1.00  0.00     0.293 HD
ENDBRANCH   6  24
BRANCH   8  26
ATOM     26  O   UNL     1       5.032 -10.832  18.481  1.00  0.00    -0.508 OA
ATOM     27  H   UNL     1       5.950 -11.005  18.871  1.00  0.00     0.293 HD
ENDBRANCH   8  26
TORSDOF 6
ENDMDL
MODEL 2
REMARK VINA RESULT:    -4.327     15.939     18.561
REMARK INTER + INTRA:          -4.674
REMARK INTER:                  -4.329
REMARK INTRA:                  -0.344
REMARK UNBOUND:                 0.539
REMARK SMILES O=c1c(O)c(-c2ccc(O)cc2O)oc2cc(O)cc(O)c12
REMARK SMILES IDX 5 1 3 2 2 3 1 4 22 5 20 6 19 7 17 8 16 9 15 10 14 11 6 12
REMARK SMILES IDX 8 13 7 14 9 15 11 16 12 17 10 18 13 20 4 22 21 24 18 26
REMARK H PARENT 10 19 13 21 4 23 21 25 18 27
REMARK Flexibility Score: inf
ROOT
ATOM      1  C   UNL     1      12.852 -12.820  29.018  1.00  0.00     0.184 A 
ATOM      2  C   UNL     1      13.542 -12.111  30.013  1.00  0.00     0.208 A 
ATOM      3  C   UNL     1      12.897 -11.047  30.662  1.00  0.00     0.238 A 
ATOM      4  O   UNL     1      13.499 -10.455  31.595  1.00  0.00    -0.285 OA
ATOM      5  C   UNL     1      11.580 -10.687  30.286  1.00  0.00     0.111 A 
ATOM      6  C   UNL     1      10.844  -9.602  30.848  1.00  0.00     0.134 A 
ATOM      7  C   UNL     1       9.504  -9.415  30.485  1.00  0.00     0.093 A 
ATOM      8  C   UNL     1       8.893 -10.235  29.533  1.00  0.00     0.123 A 
ATOM      9  C   UNL     1       9.621 -11.262  28.937  1.00  0.00     0.094 A 
ATOM     10  C   UNL     1      10.948 -11.497  29.305  1.00  0.00     0.146 A 
ATOM     11  O   UNL     1      11.600 -12.495  28.721  1.00  0.00    -0.451 OA
ENDROOT
BRANCH   1  12
ATOM     12  C   UNL     1      13.490 -13.935  28.285  1.00  0.00     0.063 A 
ATOM     13  C   UNL     1      14.369 -14.824  26.198  1.00  0.00     0.047 A 
ATOM     14  C   UNL     1      13.817 -13.770  26.928  1.00  0.00     0.020 A 
ATOM     15  C   UNL     1      14.594 -16.061  26.810  1.00  0.00     0.119 A 
ATOM     16  C   UNL     1      14.271 -16.237  28.159  1.00  0.00     0.093 A 
ATOM     17  C   UNL     1      13.727 -15.184  28.905  1.00  0.00     0.130 A 
BRANCH  15  18
ATOM     18  O   UNL     1      15.139 -17.123  26.090  1.00  0.00    -0.508 OA
ATOM     19  H   UNL     1      15.808 -16.967  25.345  1.00  0.00     0.293 HD
ENDBRANCH  15  18
BRANCH  17  20
ATOM     20  O   UNL     1      13.457 -15.406  30.257  1.00  0.00    -0.507 OA
ATOM     21  H   UNL     1      13.960 -16.082  30.818  1.00  0.00     0.293 HD
ENDBRANCH  17  20
ENDBRANCH   1  12
BRANCH   2  22
ATOM     22  O   UNL     1      14.843 -12.486  30.362  1.00  0.00    -0.502 OA
ATOM     23  H   UNL     1      15.055 -13.383  30.780  1.00  0.00     0.293 HD
ENDBRANCH   2  22
BRANCH   6  24
ATOM     24  O   UNL     1      11.384  -8.669  31.737  1.00  0.00    -0.507 OA
ATOM     25  H   UNL     1      10.876  -8.231  32.491  1.00  0.00     0.293 HD
ENDBRANCH   6  24
BRANCH   8  26
ATOM     26  O   UNL     1       7.564 -10.032  29.168  1.00  0.00    -0.508 OA
ATOM     27  H   UNL     1       7.262  -9.173  28.726  1.00  0.00     0.293 HD
ENDBRANCH   8  26
TORSDOF 6
ENDMDL
MODEL 3
REMARK VINA RESULT:    -3.830     15.903     18.096
REMARK INTER + INTRA:          -4.075
REMARK INTER:                  -3.705
REMARK INTRA:                  -0.370
REMARK UNBOUND:                 0.539
REMARK SMILES O=c1c(O)c(-c2ccc(O)cc2O)oc2cc(O)cc(O)c12
REMARK SMILES IDX 5 1 3 2 2 3 1 4 22 5 20 6 19 7 17 8 16 9 15 10 14 11 6 12
REMARK SMILES IDX 8 13 7 14 9 15 11 16 12 17 10 18 13 20 4 22 21 24 18 26
REMARK H PARENT 10 19 13 21 4 23 21 25 18 27
REMARK Flexibility Score: inf
ROOT
ATOM      1  C   UNL     1      12.176 -12.921  28.540  1.00  0.00     0.184 A 
ATOM      2  C   UNL     1      10.839 -12.833  28.125  1.00  0.00     0.208 A 
ATOM      3  C   UNL     1      10.035 -11.801  28.633  1.00  0.00     0.238 A 
ATOM      4  O   UNL     1       8.855 -11.691  28.212  1.00  0.00    -0.285 OA
ATOM      5  C   UNL     1      10.573 -10.888  29.574  1.00  0.00     0.111 A 
ATOM      6  C   UNL     1       9.839  -9.828  30.185  1.00  0.00     0.134 A 
ATOM      7  C   UNL     1      10.506  -8.912  31.008  1.00  0.00     0.093 A 
ATOM      8  C   UNL     1      11.866  -9.055  31.292  1.00  0.00     0.123 A 
ATOM      9  C   UNL     1      12.579 -10.120  30.746  1.00  0.00     0.094 A 
ATOM     10  C   UNL     1      11.949 -11.029  29.892  1.00  0.00     0.146 A 
ATOM     11  O   UNL     1      12.669 -12.021  29.382  1.00  0.00    -0.451 OA
ENDROOT
BRANCH   1  12
ATOM     12  C   UNL     1      13.063 -14.000  28.055  1.00  0.00     0.063 A 
ATOM     13  C   UNL     1      14.361 -14.975  26.242  1.00  0.00     0.047 A 
ATOM     14  C   UNL     1      13.567 -13.943  26.743  1.00  0.00     0.020 A 
ATOM     15  C   UNL     1      14.657 -16.086  27.040  1.00  0.00     0.119 A 
ATOM     16  C   UNL     1      14.160 -16.154  28.345  1.00  0.00     0.093 A 
ATOM     17  C   UNL     1      13.372 -15.119  28.863  1.00  0.00     0.130 A 
BRANCH  15  18
ATOM     18  O   UNL     1      15.444 -17.125  26.548  1.00  0.00    -0.508 OA
ATOM     19  H   UNL     1      16.447 -17.139  26.687  1.00  0.00     0.293 HD
ENDBRANCH  15  18
BRANCH  17  20
ATOM     20  O   UNL     1      12.933 -15.225  30.185  1.00  0.00    -0.507 OA
ATOM     21  H   UNL     1      13.564 -15.243  30.977  1.00  0.00     0.293 HD
ENDBRANCH  17  20
ENDBRANCH   1  12
BRANCH   2  22
ATOM     22  O   UNL     1      10.334 -13.749  27.198  1.00  0.00    -0.502 OA
ATOM     23  H   UNL     1       9.489 -14.281  27.366  1.00  0.00     0.293 HD
ENDBRANCH   2  22
BRANCH   6  24
ATOM     24  O   UNL     1       8.460  -9.647  30.042  1.00  0.00    -0.507 OA
ATOM     25  H   UNL     1       8.023  -9.120  29.301  1.00  0.00     0.293 HD
ENDBRANCH   6  24
BRANCH   8  26
ATOM     26  O   UNL     1      12.518  -8.147  32.125  1.00  0.00    -0.508 OA
ATOM     27  H   UNL     1      12.016  -7.614  32.824  1.00  0.00     0.293 HD
ENDBRANCH   8  26
TORSDOF 6
ENDMDL
