MODEL 1
REMARK VINA RESULT:    -3.770      0.000      0.000
REMARK INTER + INTRA:          -8.759
REMARK INTER:                  -6.635
REMARK INTRA:                  -2.124
REMARK UNBOUND:                -2.124
REMARK SMILES CCCCCCCCCCCCCCC(=O)[O-]
REMARK SMILES IDX 9 1 10 2 11 3 12 4 13 5 14 6 15 7 16 8 17 9 8 10 7 11 6 12
REMARK SMILES IDX 5 13 4 14 3 15 2 16 1 17
REMARK H PARENT
REMARK Flexibility Score: inf
ROOT
ATOM      1  C   UNL     1       9.809  -8.974  36.597  1.00  0.00     0.000 C 
ENDROOT
BRANCH   1   2
ATOM      2  C   UNL     1      10.862  -7.857  36.671  1.00  0.00     0.000 C 
BRANCH   2   3
ATOM      3  C   UNL     1      10.386  -6.651  37.499  1.00  0.00     0.000 C 
BRANCH   3   4
ATOM      4  C   UNL     1      10.588  -5.309  36.776  1.00  0.00     0.000 C 
BRANCH   4   5
ATOM      5  C   UNL     1      11.608  -5.326  35.620  1.00  0.00     0.006 C 
BRANCH   5   6
ATOM      6  C   UNL     1      11.985  -3.929  35.093  1.00  0.00     0.053 C 
BRANCH   6   7
ATOM      7  C   UNL     1      12.909  -3.193  36.016  1.00  0.00     0.041 C 
ATOM      8  O   UNL     1      12.804  -1.947  36.162  1.00  0.00    -0.550 OA
ATOM      9  O   UNL     1      13.861  -3.891  36.750  1.00  0.00    -0.550 OA
ENDBRANCH   6   7
ENDBRANCH   5   6
ENDBRANCH   4   5
ENDBRANCH   3   4
ENDBRANCH   2   3
ENDBRANCH   1   2
BRANCH   1  10
ATOM     10  C   UNL     1       9.761  -9.656  35.220  1.00  0.00     0.000 C 
BRANCH  10  11
ATOM     11  C   UNL     1      10.546  -8.885  34.143  1.00  0.00    -0.000 C 
BRANCH  11  12
ATOM     12  C   UNL     1       9.677  -8.132  33.118  1.00  0.00    -0.000 C 
BRANCH  12  13
ATOM     13  C   UNL     1       8.247  -7.871  33.622  1.00  0.00    -0.000 C 
BRANCH  13  14
ATOM     14  C   UNL     1       8.104  -6.502  34.306  1.00  0.00    -0.000 C 
BRANCH  14  15
ATOM     15  C   UNL     1       8.592  -5.343  33.422  1.00  0.00    -0.000 C 
BRANCH  15  16
ATOM     16  C   UNL     1       8.411  -3.998  34.135  1.00  0.00    -0.003 C 
ATOM     17  C   UNL     1       7.353  -4.092  35.230  1.00  0.00     0.004 C 
ENDBRANCH  15  16
ENDBRANCH  14  15
ENDBRANCH  13  14
ENDBRANCH  12  13
ENDBRANCH  11  12
ENDBRANCH  10  11
ENDBRANCH   1  10
TORSDOF 13
ENDMDL
MODEL 2
REMARK VINA RESULT:    -3.751      1.076      3.492
REMARK INTER + INTRA:          -8.726
REMARK INTER:                  -6.933
REMARK INTRA:                  -1.793
REMARK UNBOUND:                -2.124
REMARK SMILES CCCCCCCCCCCCCCC(=O)[O-]
REMARK SMILES IDX 9 1 10 2 11 3 12 4 13 5 14 6 15 7 16 8 17 9 8 10 7 11 6 12
REMARK SMILES IDX 5 13 4 14 3 15 2 16 1 17
REMARK H PARENT
REMARK Flexibility Score: inf
ROOT
ATOM      1  C   UNL     1       8.150  -5.405  37.703  1.00  0.00     0.000 C 
ENDROOT
BRANCH   1   2
ATOM      2  C   UNL     1       9.493  -5.979  38.180  1.00  0.00     0.000 C 
BRANCH   2   3
ATOM      3  C   UNL     1      10.260  -6.695  37.054  1.00  0.00     0.000 C 
BRANCH   3   4
ATOM      4  C   UNL     1      11.515  -5.929  36.601  1.00  0.00     0.000 C 
BRANCH   4   5
ATOM      5  C   UNL     1      11.264  -4.782  35.601  1.00  0.00     0.006 C 
BRANCH   5   6
ATOM      6  C   UNL     1      12.550  -4.140  35.045  1.00  0.00     0.053 C 
BRANCH   6   7
ATOM      7  C   UNL     1      13.264  -3.304  36.064  1.00  0.00     0.041 C 
ATOM      8  O   UNL     1      14.152  -3.815  36.796  1.00  0.00    -0.550 OA
ATOM      9  O   UNL     1      12.981  -1.949  36.175  1.00  0.00    -0.550 OA
ENDBRANCH   6   7
ENDBRANCH   5   6
ENDBRANCH   4   5
ENDBRANCH   3   4
ENDBRANCH   2   3
ENDBRANCH   1   2
BRANCH   1  10
ATOM     10  C   UNL     1       8.230  -3.907  37.364  1.00  0.00     0.000 C 
BRANCH  10  11
ATOM     11  C   UNL     1       7.599  -3.567  36.002  1.00  0.00    -0.000 C 
BRANCH  11  12
ATOM     12  C   UNL     1       7.552  -4.733  34.996  1.00  0.00    -0.000 C 
BRANCH  12  13
ATOM     13  C   UNL     1       8.535  -4.554  33.827  1.00  0.00    -0.000 C 
BRANCH  13  14
ATOM     14  C   UNL     1       8.644  -5.813  32.950  1.00  0.00    -0.000 C 
BRANCH  14  15
ATOM     15  C   UNL     1       8.629  -7.111  33.771  1.00  0.00    -0.000 C 
BRANCH  15  16
ATOM     16  C   UNL     1       9.419  -8.217  33.060  1.00  0.00    -0.003 C 
ATOM     17  C   UNL     1      10.754  -8.473  33.752  1.00  0.00     0.004 C 
ENDBRANCH  15  16
ENDBRANCH  14  15
ENDBRANCH  13  14
ENDBRANCH  12  13
ENDBRANCH  11  12
ENDBRANCH  10  11
ENDBRANCH   1  10
TORSDOF 13
ENDMDL
MODEL 3
REMARK VINA RESULT:    -3.729      3.569      6.752
REMARK INTER + INTRA:          -8.687
REMARK INTER:                  -7.626
REMARK INTRA:                  -1.061
REMARK UNBOUND:                -2.124
REMARK SMILES CCCCCCCCCCCCCCC(=O)[O-]
REMARK SMILES IDX 9 1 10 2 11 3 12 4 13 5 14 6 15 7 16 8 17 9 8 10 7 11 6 12
REMARK SMILES IDX 5 13 4 14 3 15 2 16 1 17
REMARK H PARENT
REMARK Flexibility Score: inf
ROOT
ATOM      1  C   UNL     1      13.736  -3.379  36.029  1.00  0.00     0.000 C 
ENDROOT
BRANCH   1   2
ATOM      2  C   UNL     1      12.201  -3.449  36.039  1.00  0.00     0.000 C 
BRANCH   2   3
ATOM      3  C   UNL     1      11.632  -4.094  34.764  1.00  0.00     0.000 C 
BRANCH   3   4
ATOM      4  C   UNL     1      11.080  -5.510  35.001  1.00  0.00     0.000 C 
BRANCH   4   5
ATOM      5  C   UNL     1       9.936  -5.611  36.029  1.00  0.00     0.006 C 
BRANCH   5   6
ATOM      6  C   UNL     1       8.559  -5.186  35.482  1.00  0.00     0.053 C 
BRANCH   6   7
ATOM      7  C   UNL     1       8.141  -3.829  35.961  1.00  0.00     0.041 C 
ATOM      8  O   UNL     1       7.252  -3.183  35.347  1.00  0.00    -0.550 OA
ATOM      9  O   UNL     1       8.703  -3.293  37.113  1.00  0.00    -0.550 OA
ENDBRANCH   6   7
ENDBRANCH   5   6
ENDBRANCH   4   5
ENDBRANCH   3   4
ENDBRANCH   2   3
ENDBRANCH   1   2
BRANCH   1  10
ATOM     10  C   UNL     1      14.375  -4.186  37.171  1.00  0.00     0.000 C 
BRANCH  10  11
ATOM     11  C   UNL     1      13.365  -5.087  37.905  1.00  0.00    -0.000 C 
BRANCH  11  12
ATOM     12  C   UNL     1      13.992  -6.193  38.776  1.00  0.00    -0.000 C 
BRANCH  12  13
ATOM     13  C   UNL     1      13.097  -7.438  38.899  1.00  0.00    -0.000 C 
BRANCH  13  14
ATOM     14  C   UNL     1      13.886  -8.749  38.751  1.00  0.00    -0.000 C 
BRANCH  14  15
ATOM     15  C   UNL     1      15.364  -8.516  38.401  1.00  0.00    -0.000 C 
BRANCH  15  16
ATOM     16  C   UNL     1      16.151  -9.831  38.448  1.00  0.00    -0.003 C 
ATOM     17  C   UNL     1      17.401  -9.757  37.576  1.00  0.00     0.004 C 
ENDBRANCH  15  16
ENDBRANCH  14  15
ENDBRANCH  13  14
ENDBRANCH  12  13
ENDBRANCH  11  12
ENDBRANCH  10  11
ENDBRANCH   1  10
TORSDOF 13
ENDMDL
MODEL 4
REMARK VINA RESULT:    -3.629      1.713      3.138
REMARK INTER + INTRA:          -8.510
REMARK INTER:                  -6.316
REMARK INTRA:                  -2.194
REMARK UNBOUND:                -2.124
REMARK SMILES CCCCCCCCCCCCCCC(=O)[O-]
REMARK SMILES IDX 9 1 10 2 11 3 12 4 13 5 14 6 15 7 16 8 17 9 8 10 7 11 6 12
REMARK SMILES IDX 5 13 4 14 3 15 2 16 1 17
REMARK H PARENT
REMARK Flexibility Score: inf
ROOT
ATOM      1  C   UNL     1       8.679  -7.696  33.216  1.00  0.00     0.000 C 
ENDROOT
BRANCH   1   2
ATOM      2  C   UNL     1       8.948  -6.184  33.152  1.00  0.00     0.000 C 
BRANCH   2   3
ATOM      3  C   UNL     1       8.350  -5.428  34.350  1.00  0.00     0.000 C 
BRANCH   3   4
ATOM      4  C   UNL     1       9.420  -4.835  35.282  1.00  0.00     0.000 C 
BRANCH   4   5
ATOM      5  C   UNL     1      10.865  -5.301  35.012  1.00  0.00     0.006 C 
BRANCH   5   6
ATOM      6  C   UNL     1      11.849  -4.156  34.708  1.00  0.00     0.053 C 
BRANCH   6   7
ATOM      7  C   UNL     1      12.459  -3.575  35.948  1.00  0.00     0.041 C 
ATOM      8  O   UNL     1      12.602  -2.330  36.064  1.00  0.00    -0.550 OA
ATOM      9  O   UNL     1      12.832  -4.407  36.996  1.00  0.00    -0.550 OA
ENDBRANCH   6   7
ENDBRANCH   5   6
ENDBRANCH   4   5
ENDBRANCH   3   4
ENDBRANCH   2   3
ENDBRANCH   1   2
BRANCH   1  10
ATOM     10  C   UNL     1       9.966  -8.523  33.372  1.00  0.00     0.000 C 
BRANCH  10  11
ATOM     11  C   UNL     1      10.257  -8.908  34.834  1.00  0.00    -0.000 C 
BRANCH  11  12
ATOM     12  C   UNL     1       9.016  -9.277  35.669  1.00  0.00    -0.000 C 
BRANCH  12  13
ATOM     13  C   UNL     1       8.711  -8.252  36.774  1.00  0.00    -0.000 C 
BRANCH  13  14
ATOM     14  C   UNL     1       7.222  -7.872  36.833  1.00  0.00    -0.000 C 
BRANCH  14  15
ATOM     15  C   UNL     1       6.337  -8.813  36.001  1.00  0.00    -0.000 C 
BRANCH  15  16
ATOM     16  C   UNL     1       5.498  -8.022  34.990  1.00  0.00    -0.003 C 
ATOM     17  C   UNL     1       5.175  -8.867  33.761  1.00  0.00     0.004 C 
ENDBRANCH  15  16
ENDBRANCH  14  15
ENDBRANCH  13  14
ENDBRANCH  12  13
ENDBRANCH  11  12
ENDBRANCH  10  11
ENDBRANCH   1  10
TORSDOF 13
ENDMDL
MODEL 5
REMARK VINA RESULT:    -3.589      2.247      3.816
REMARK INTER + INTRA:          -8.440
REMARK INTER:                  -6.838
REMARK INTRA:                  -1.602
REMARK UNBOUND:                -2.124
REMARK SMILES CCCCCCCCCCCCCCC(=O)[O-]
REMARK SMILES IDX 9 1 10 2 11 3 12 4 13 5 14 6 15 7 16 8 17 9 8 10 7 11 6 12
REMARK SMILES IDX 5 13 4 14 3 15 2 16 1 17
REMARK H PARENT
REMARK Flexibility Score: inf
ROOT
ATOM      1  C   UNL     1      10.582  -8.340  34.025  1.00  0.00     0.000 C 
ENDROOT
BRANCH   1   2
ATOM      2  C   UNL     1      10.227  -8.983  35.375  1.00  0.00     0.000 C 
BRANCH   2   3
ATOM      3  C   UNL     1      10.146  -7.953  36.515  1.00  0.00     0.000 C 
BRANCH   3   4
ATOM      4  C   UNL     1      10.802  -8.444  37.816  1.00  0.00     0.000 C 
BRANCH   4   5
ATOM      5  C   UNL     1      12.071  -7.681  38.247  1.00  0.00     0.006 C 
BRANCH   5   6
ATOM      6  C   UNL     1      13.201  -8.587  38.773  1.00  0.00     0.053 C 
BRANCH   6   7
ATOM      7  C   UNL     1      14.552  -7.948  38.660  1.00  0.00     0.041 C 
ATOM      8  O   UNL     1      14.671  -6.696  38.714  1.00  0.00    -0.550 OA
ATOM      9  O   UNL     1      15.689  -8.738  38.537  1.00  0.00    -0.550 OA
ENDBRANCH   6   7
ENDBRANCH   5   6
ENDBRANCH   4   5
ENDBRANCH   3   4
ENDBRANCH   2   3
ENDBRANCH   1   2
BRANCH   1  10
ATOM     10  C   UNL     1       9.373  -8.232  33.081  1.00  0.00     0.000 C 
BRANCH  10  11
ATOM     11  C   UNL     1       8.414  -7.091  33.466  1.00  0.00    -0.000 C 
BRANCH  11  12
ATOM     12  C   UNL     1       8.783  -5.709  32.894  1.00  0.00    -0.000 C 
BRANCH  12  13
ATOM     13  C   UNL     1       8.575  -4.568  33.903  1.00  0.00    -0.000 C 
BRANCH  13  14
ATOM     14  C   UNL     1       9.447  -4.725  35.160  1.00  0.00    -0.000 C 
BRANCH  14  15
ATOM     15  C   UNL     1      10.951  -4.693  34.846  1.00  0.00    -0.000 C 
BRANCH  15  16
ATOM     16  C   UNL     1      11.769  -4.429  36.115  1.00  0.00    -0.003 C 
ATOM     17  C   UNL     1      10.864  -4.281  37.334  1.00  0.00     0.004 C 
ENDBRANCH  15  16
ENDBRANCH  14  15
ENDBRANCH  13  14
ENDBRANCH  12  13
ENDBRANCH  11  12
ENDBRANCH  10  11
ENDBRANCH   1  10
TORSDOF 13
ENDMDL
MODEL 6
REMARK VINA RESULT:    -3.540      1.275      2.090
REMARK INTER + INTRA:          -8.354
REMARK INTER:                  -6.600
REMARK INTRA:                  -1.754
REMARK UNBOUND:                -2.124
REMARK SMILES CCCCCCCCCCCCCCC(=O)[O-]
REMARK SMILES IDX 9 1 10 2 11 3 12 4 13 5 14 6 15 7 16 8 17 9 8 10 7 11 6 12
REMARK SMILES IDX 5 13 4 14 3 15 2 16 1 17
REMARK H PARENT
REMARK Flexibility Score: inf
ROOT
ATOM      1  C   UNL     1      10.482  -8.483  34.320  1.00  0.00     0.000 C 
ENDROOT
BRANCH   1   2
ATOM      2  C   UNL     1      10.837  -7.139  34.976  1.00  0.00     0.000 C 
BRANCH   2   3
ATOM      3  C   UNL     1      10.649  -7.161  36.502  1.00  0.00     0.000 C 
BRANCH   3   4
ATOM      4  C   UNL     1      11.653  -6.264  37.245  1.00  0.00     0.000 C 
BRANCH   4   5
ATOM      5  C   UNL     1      11.110  -4.890  37.689  1.00  0.00     0.006 C 
BRANCH   5   6
ATOM      6  C   UNL     1      11.259  -3.783  36.628  1.00  0.00     0.053 C 
BRANCH   6   7
ATOM      7  C   UNL     1      12.552  -3.875  35.874  1.00  0.00     0.041 C 
ATOM      8  O   UNL     1      12.555  -4.171  34.651  1.00  0.00    -0.550 OA
ATOM      9  O   UNL     1      13.752  -3.592  36.514  1.00  0.00    -0.550 OA
ENDBRANCH   6   7
ENDBRANCH   5   6
ENDBRANCH   4   5
ENDBRANCH   3   4
ENDBRANCH   2   3
ENDBRANCH   1   2
BRANCH   1  10
ATOM     10  C   UNL     1       9.489  -8.332  33.156  1.00  0.00     0.000 C 
BRANCH  10  11
ATOM     11  C   UNL     1       8.262  -7.477  33.523  1.00  0.00    -0.000 C 
BRANCH  11  12
ATOM     12  C   UNL     1       7.293  -8.126  34.529  1.00  0.00    -0.000 C 
BRANCH  12  13
ATOM     13  C   UNL     1       6.526  -7.094  35.373  1.00  0.00    -0.000 C 
BRANCH  13  14
ATOM     14  C   UNL     1       7.411  -5.918  35.816  1.00  0.00    -0.000 C 
BRANCH  14  15
ATOM     15  C   UNL     1       6.657  -4.580  35.831  1.00  0.00    -0.000 C 
BRANCH  15  16
ATOM     16  C   UNL     1       7.427  -3.509  35.049  1.00  0.00    -0.003 C 
ATOM     17  C   UNL     1       8.581  -4.123  34.264  1.00  0.00     0.004 C 
ENDBRANCH  15  16
ENDBRANCH  14  15
ENDBRANCH  13  14
ENDBRANCH  12  13
ENDBRANCH  11  12
ENDBRANCH  10  11
ENDBRANCH   1  10
TORSDOF 13
ENDMDL
MODEL 7
REMARK VINA RESULT:    -3.523      1.792      3.101
REMARK INTER + INTRA:          -8.324
REMARK INTER:                  -5.717
REMARK INTRA:                  -2.607
REMARK UNBOUND:                -2.124
REMARK SMILES CCCCCCCCCCCCCCC(=O)[O-]
REMARK SMILES IDX 9 1 10 2 11 3 12 4 13 5 14 6 15 7 16 8 17 9 8 10 7 11 6 12
REMARK SMILES IDX 5 13 4 14 3 15 2 16 1 17
REMARK H PARENT
REMARK Flexibility Score: inf
ROOT
ATOM      1  C   UNL     1       9.935  -7.901  33.864  1.00  0.00     0.000 C 
ENDROOT
BRANCH   1   2
ATOM      2  C   UNL     1       9.805  -8.690  35.177  1.00  0.00     0.000 C 
BRANCH   2   3
ATOM      3  C   UNL     1      10.502  -7.990  36.356  1.00  0.00     0.000 C 
BRANCH   3   4
ATOM      4  C   UNL     1      11.183  -6.671  35.955  1.00  0.00     0.000 C 
BRANCH   4   5
ATOM      5  C   UNL     1      11.259  -5.602  37.063  1.00  0.00     0.006 C 
BRANCH   5   6
ATOM      6  C   UNL     1      11.150  -4.153  36.549  1.00  0.00     0.053 C 
BRANCH   6   7
ATOM      7  C   UNL     1      12.070  -3.878  35.399  1.00  0.00     0.041 C 
ATOM      8  O   UNL     1      11.611  -3.749  34.234  1.00  0.00    -0.550 OA
ATOM      9  O   UNL     1      13.433  -3.721  35.619  1.00  0.00    -0.550 OA
ENDBRANCH   6   7
ENDBRANCH   5   6
ENDBRANCH   4   5
ENDBRANCH   3   4
ENDBRANCH   2   3
ENDBRANCH   1   2
BRANCH   1  10
ATOM     10  C   UNL     1       8.629  -7.198  33.461  1.00  0.00     0.000 C 
BRANCH  10  11
ATOM     11  C   UNL     1       8.810  -5.687  33.228  1.00  0.00    -0.000 C 
BRANCH  11  12
ATOM     12  C   UNL     1       8.250  -4.785  34.344  1.00  0.00    -0.000 C 
BRANCH  12  13
ATOM     13  C   UNL     1       7.202  -5.494  35.218  1.00  0.00    -0.000 C 
BRANCH  13  14
ATOM     14  C   UNL     1       7.626  -5.583  36.694  1.00  0.00    -0.000 C 
BRANCH  14  15
ATOM     15  C   UNL     1       7.101  -6.850  37.387  1.00  0.00    -0.000 C 
BRANCH  15  16
ATOM     16  C   UNL     1       6.359  -7.750  36.392  1.00  0.00    -0.003 C 
ATOM     17  C   UNL     1       6.521  -9.223  36.753  1.00  0.00     0.004 C 
ENDBRANCH  15  16
ENDBRANCH  14  15
ENDBRANCH  13  14
ENDBRANCH  12  13
ENDBRANCH  11  12
ENDBRANCH  10  11
ENDBRANCH   1  10
TORSDOF 13
ENDMDL
MODEL 8
REMARK VINA RESULT:    -3.482      2.408      3.555
REMARK INTER + INTRA:          -8.253
REMARK INTER:                  -6.221
REMARK INTRA:                  -2.031
REMARK UNBOUND:                -2.124
REMARK SMILES CCCCCCCCCCCCCCC(=O)[O-]
REMARK SMILES IDX 9 1 10 2 11 3 12 4 13 5 14 6 15 7 16 8 17 9 8 10 7 11 6 12
REMARK SMILES IDX 5 13 4 14 3 15 2 16 1 17
REMARK H PARENT
REMARK Flexibility Score: inf
ROOT
ATOM      1  C   UNL     1      10.131  -8.197  33.851  1.00  0.00     0.000 C 
ENDROOT
BRANCH   1   2
ATOM      2  C   UNL     1       8.791  -7.592  33.406  1.00  0.00     0.000 C 
BRANCH   2   3
ATOM      3  C   UNL     1       8.916  -6.112  33.006  1.00  0.00     0.000 C 
BRANCH   3   4
ATOM      4  C   UNL     1       8.322  -5.154  34.052  1.00  0.00     0.000 C 
BRANCH   4   5
ATOM      5  C   UNL     1       9.346  -4.458  34.970  1.00  0.00     0.006 C 
BRANCH   5   6
ATOM      6  C   UNL     1      10.793  -4.496  34.441  1.00  0.00     0.053 C 
BRANCH   6   7
ATOM      7  C   UNL     1      11.811  -4.439  35.540  1.00  0.00     0.041 C 
ATOM      8  O   UNL     1      11.638  -5.094  36.602  1.00  0.00    -0.550 OA
ATOM      9  O   UNL     1      12.973  -3.697  35.375  1.00  0.00    -0.550 OA
ENDBRANCH   6   7
ENDBRANCH   5   6
ENDBRANCH   4   5
ENDBRANCH   3   4
ENDBRANCH   2   3
ENDBRANCH   1   2
BRANCH   1  10
ATOM     10  C   UNL     1      10.354  -8.097  35.370  1.00  0.00     0.000 C 
BRANCH  10  11
ATOM     11  C   UNL     1       9.078  -8.388  36.182  1.00  0.00    -0.000 C 
BRANCH  11  12
ATOM     12  C   UNL     1       8.626  -7.249  37.114  1.00  0.00    -0.000 C 
BRANCH  12  13
ATOM     13  C   UNL     1       7.105  -7.232  37.345  1.00  0.00    -0.000 C 
BRANCH  13  14
ATOM     14  C   UNL     1       6.316  -7.707  36.114  1.00  0.00    -0.000 C 
BRANCH  14  15
ATOM     15  C   UNL     1       5.318  -6.655  35.607  1.00  0.00    -0.000 C 
BRANCH  15  16
ATOM     16  C   UNL     1       4.057  -7.323  35.045  1.00  0.00    -0.003 C 
ATOM     17  C   UNL     1       3.082  -7.686  36.160  1.00  0.00     0.004 C 
ENDBRANCH  15  16
ENDBRANCH  14  15
ENDBRANCH  13  14
ENDBRANCH  12  13
ENDBRANCH  11  12
ENDBRANCH  10  11
ENDBRANCH   1  10
TORSDOF 13
ENDMDL
MODEL 9
REMARK VINA RESULT:    -3.424      2.065      3.543
REMARK INTER + INTRA:          -8.150
REMARK INTER:                  -6.134
REMARK INTRA:                  -2.016
REMARK UNBOUND:                -2.124
REMARK SMILES CCCCCCCCCCCCCCC(=O)[O-]
REMARK SMILES IDX 9 1 10 2 11 3 12 4 13 5 14 6 15 7 16 8 17 9 8 10 7 11 6 12
REMARK SMILES IDX 5 13 4 14 3 15 2 16 1 17
REMARK H PARENT
REMARK Flexibility Score: inf
ROOT
ATOM      1  C   UNL     1      10.972  -4.590  34.623  1.00  0.00     0.000 C 
ENDROOT
BRANCH   1   2
ATOM      2  C   UNL     1      11.471  -4.702  36.072  1.00  0.00     0.000 C 
BRANCH   2   3
ATOM      3  C   UNL     1      10.319  -4.829  37.083  1.00  0.00     0.000 C 
BRANCH   3   4
ATOM      4  C   UNL     1      10.424  -6.089  37.960  1.00  0.00     0.000 C 
BRANCH   4   5
ATOM      5  C   UNL     1      11.524  -7.089  37.551  1.00  0.00     0.006 C 
BRANCH   5   6
ATOM      6  C   UNL     1      12.407  -7.565  38.721  1.00  0.00     0.053 C 
BRANCH   6   7
ATOM      7  C   UNL     1      13.724  -6.851  38.777  1.00  0.00     0.041 C 
ATOM      8  O   UNL     1      13.765  -5.595  38.844  1.00  0.00    -0.550 OA
ATOM      9  O   UNL     1      14.909  -7.577  38.799  1.00  0.00    -0.550 OA
ENDBRANCH   6   7
ENDBRANCH   5   6
ENDBRANCH   4   5
ENDBRANCH   3   4
ENDBRANCH   2   3
ENDBRANCH   1   2
BRANCH   1  10
ATOM     10  C   UNL     1       9.445  -4.728  34.508  1.00  0.00     0.000 C 
BRANCH  10  11
ATOM     11  C   UNL     1       9.001  -5.399  33.194  1.00  0.00    -0.000 C 
BRANCH  11  12
ATOM     12  C   UNL     1       8.596  -6.879  33.325  1.00  0.00    -0.000 C 
BRANCH  12  13
ATOM     13  C   UNL     1       9.208  -7.561  34.560  1.00  0.00    -0.000 C 
BRANCH  13  14
ATOM     14  C   UNL     1       8.141  -8.054  35.552  1.00  0.00    -0.000 C 
BRANCH  14  15
ATOM     15  C   UNL     1       6.768  -7.406  35.316  1.00  0.00    -0.000 C 
BRANCH  15  16
ATOM     16  C   UNL     1       6.472  -6.347  36.385  1.00  0.00    -0.003 C 
ATOM     17  C   UNL     1       6.039  -5.029  35.751  1.00  0.00     0.004 C 
ENDBRANCH  15  16
ENDBRANCH  14  15
ENDBRANCH  13  14
ENDBRANCH  12  13
ENDBRANCH  11  12
ENDBRANCH  10  11
ENDBRANCH   1  10
TORSDOF 13
ENDMDL
