MODEL 1
REMARK VINA RESULT:    -0.805      0.000      0.000
REMARK INTER + INTRA:          -4.946
REMARK INTER:                  -1.559
REMARK INTRA:                  -3.388
REMARK UNBOUND:                -3.388
REMARK SMILES CCCCCCCCCCCCCCCCCC(=O)[O-]
REMARK SMILES IDX 10 1 11 2 12 3 13 4 14 5 15 6 16 7 17 8 18 9 19 10 20 11
REMARK SMILES IDX 9 12 8 13 7 14 6 15 5 16 4 17 3 18 2 19 1 20
REMARK H PARENT
REMARK Flexibility Score: inf
ROOT
ATOM      1  C   UNL     1     -13.720 -22.745  85.242  1.00  0.00     0.000 C 
ENDROOT
BRANCH   1   2
ATOM      2  C   UNL     1     -13.239 -21.687  84.241  1.00  0.00     0.000 C 
BRANCH   2   3
ATOM      3  C   UNL     1     -13.230 -22.249  82.811  1.00  0.00     0.000 C 
BRANCH   3   4
ATOM      4  C   UNL     1     -14.246 -21.548  81.895  1.00  0.00     0.000 C 
BRANCH   4   5
ATOM      5  C   UNL     1     -15.663 -22.133  82.028  1.00  0.00     0.000 C 
BRANCH   5   6
ATOM      6  C   UNL     1     -16.309 -22.428  80.666  1.00  0.00     0.000 C 
BRANCH   6   7
ATOM      7  C   UNL     1     -17.490 -23.410  80.773  1.00  0.00     0.006 C 
BRANCH   7   8
ATOM      8  C   UNL     1     -17.526 -24.402  79.604  1.00  0.00     0.053 C 
BRANCH   8   9
ATOM      9  C   UNL     1     -18.438 -25.557  79.886  1.00  0.00     0.041 C 
ATOM     10  O   UNL     1     -18.653 -26.425  79.000  1.00  0.00    -0.550 OA
ATOM     11  O   UNL     1     -19.078 -25.654  81.115  1.00  0.00    -0.550 OA
ENDBRANCH   8   9
ENDBRANCH   7   8
ENDBRANCH   6   7
ENDBRANCH   5   6
ENDBRANCH   4   5
ENDBRANCH   3   4
ENDBRANCH   2   3
ENDBRANCH   1   2
BRANCH   1  12
ATOM     12  C   UNL     1     -15.129 -22.412  85.756  1.00  0.00     0.000 C 
BRANCH  12  13
ATOM     13  C   UNL     1     -16.126 -23.563  85.548  1.00  0.00    -0.000 C 
BRANCH  13  14
ATOM     14  C   UNL     1     -15.581 -24.752  84.734  1.00  0.00    -0.000 C 
BRANCH  14  15
ATOM     15  C   UNL     1     -16.590 -25.319  83.713  1.00  0.00    -0.000 C 
BRANCH  15  16
ATOM     16  C   UNL     1     -15.912 -26.212  82.658  1.00  0.00    -0.000 C 
BRANCH  16  17
ATOM     17  C   UNL     1     -14.546 -25.668  82.211  1.00  0.00    -0.000 C 
BRANCH  17  18
ATOM     18  C   UNL     1     -14.307 -25.842  80.701  1.00  0.00    -0.000 C 
BRANCH  18  19
ATOM     19  C   UNL     1     -13.359 -24.775  80.129  1.00  0.00    -0.003 C 
ATOM     20  C   UNL     1     -13.760 -24.321  78.727  1.00  0.00     0.004 C 
ENDBRANCH  18  19
ENDBRANCH  17  18
ENDBRANCH  16  17
ENDBRANCH  15  16
ENDBRANCH  14  15
ENDBRANCH  13  14
ENDBRANCH  12  13
ENDBRANCH   1  12
TORSDOF 16
ENDMDL
MODEL 2
REMARK VINA RESULT:    -0.722      2.623      4.948
REMARK INTER + INTRA:          -4.785
REMARK INTER:                  -1.631
REMARK INTRA:                  -3.154
REMARK UNBOUND:                -3.388
REMARK SMILES CCCCCCCCCCCCCCCCCC(=O)[O-]
REMARK SMILES IDX 10 1 11 2 12 3 13 4 14 5 15 6 16 7 17 8 18 9 19 10 20 11
REMARK SMILES IDX 9 12 8 13 7 14 6 15 5 16 4 17 3 18 2 19 1 20
REMARK H PARENT
REMARK Flexibility Score: inf
ROOT
ATOM      1  C   UNL     1     -15.355 -23.047  81.203  1.00  0.00     0.000 C 
ENDROOT
BRANCH   1   2
ATOM      2  C   UNL     1     -16.387 -24.165  81.400  1.00  0.00     0.000 C 
BRANCH   2   3
ATOM      3  C   UNL     1     -17.665 -23.623  82.059  1.00  0.00     0.000 C 
BRANCH   3   4
ATOM      4  C   UNL     1     -17.369 -22.586  83.154  1.00  0.00     0.000 C 
BRANCH   4   5
ATOM      5  C   UNL     1     -18.455 -22.550  84.243  1.00  0.00     0.000 C 
BRANCH   5   6
ATOM      6  C   UNL     1     -19.304 -23.830  84.273  1.00  0.00     0.000 C 
BRANCH   6   7
ATOM      7  C   UNL     1     -18.779 -24.864  85.285  1.00  0.00     0.006 C 
BRANCH   7   8
ATOM      8  C   UNL     1     -18.530 -26.232  84.638  1.00  0.00     0.053 C 
BRANCH   8   9
ATOM      9  C   UNL     1     -18.310 -27.299  85.666  1.00  0.00     0.041 C 
ATOM     10  O   UNL     1     -17.151 -27.538  86.095  1.00  0.00    -0.550 OA
ATOM     11  O   UNL     1     -19.382 -28.054  86.125  1.00  0.00    -0.550 OA
ENDBRANCH   8   9
ENDBRANCH   7   8
ENDBRANCH   6   7
ENDBRANCH   5   6
ENDBRANCH   4   5
ENDBRANCH   3   4
ENDBRANCH   2   3
ENDBRANCH   1   2
BRANCH   1  12
ATOM     12  C   UNL     1     -13.925 -23.602  81.285  1.00  0.00     0.000 C 
BRANCH  12  13
ATOM     13  C   UNL     1     -12.971 -22.676  82.057  1.00  0.00    -0.000 C 
BRANCH  13  14
ATOM     14  C   UNL     1     -13.665 -21.644  82.966  1.00  0.00    -0.000 C 
BRANCH  14  15
ATOM     15  C   UNL     1     -13.308 -21.794  84.461  1.00  0.00    -0.000 C 
BRANCH  15  16
ATOM     16  C   UNL     1     -14.491 -22.320  85.293  1.00  0.00    -0.000 C 
BRANCH  16  17
ATOM     17  C   UNL     1     -14.274 -23.759  85.787  1.00  0.00    -0.000 C 
BRANCH  17  18
ATOM     18  C   UNL     1     -15.181 -24.773  85.068  1.00  0.00    -0.000 C 
BRANCH  18  19
ATOM     19  C   UNL     1     -14.388 -25.743  84.177  1.00  0.00    -0.003 C 
ATOM     20  C   UNL     1     -12.877 -25.601  84.350  1.00  0.00     0.004 C 
ENDBRANCH  18  19
ENDBRANCH  17  18
ENDBRANCH  16  17
ENDBRANCH  15  16
ENDBRANCH  14  15
ENDBRANCH  13  14
ENDBRANCH  12  13
ENDBRANCH   1  12
TORSDOF 16
ENDMDL
MODEL 3
REMARK VINA RESULT:    -0.686      2.378      4.376
REMARK INTER + INTRA:          -4.716
REMARK INTER:                  -1.759
REMARK INTRA:                  -2.956
REMARK UNBOUND:                -3.388
REMARK SMILES CCCCCCCCCCCCCCCCCC(=O)[O-]
REMARK SMILES IDX 10 1 11 2 12 3 13 4 14 5 15 6 16 7 17 8 18 9 19 10 20 11
REMARK SMILES IDX 9 12 8 13 7 14 6 15 5 16 4 17 3 18 2 19 1 20
REMARK H PARENT
REMARK Flexibility Score: inf
ROOT
ATOM      1  C   UNL     1     -16.171 -24.734  82.655  1.00  0.00     0.000 C 
ENDROOT
BRANCH   1   2
ATOM      2  C   UNL     1     -16.142 -25.395  81.272  1.00  0.00     0.000 C 
BRANCH   2   3
ATOM      3  C   UNL     1     -15.993 -24.341  80.163  1.00  0.00     0.000 C 
BRANCH   3   4
ATOM      4  C   UNL     1     -17.137 -24.396  79.139  1.00  0.00     0.000 C 
BRANCH   4   5
ATOM      5  C   UNL     1     -17.917 -23.073  79.052  1.00  0.00     0.000 C 
BRANCH   5   6
ATOM      6  C   UNL     1     -17.032 -21.847  79.327  1.00  0.00     0.000 C 
BRANCH   6   7
ATOM      7  C   UNL     1     -17.853 -20.591  79.672  1.00  0.00     0.006 C 
BRANCH   7   8
ATOM      8  C   UNL     1     -17.707 -20.191  81.145  1.00  0.00     0.053 C 
BRANCH   8   9
ATOM      9  C   UNL     1     -19.020 -20.237  81.864  1.00  0.00     0.041 C 
ATOM     10  O   UNL     1     -19.387 -19.266  82.576  1.00  0.00    -0.550 OA
ATOM     11  O   UNL     1     -19.824 -21.366  81.774  1.00  0.00    -0.550 OA
ENDBRANCH   8   9
ENDBRANCH   7   8
ENDBRANCH   6   7
ENDBRANCH   5   6
ENDBRANCH   4   5
ENDBRANCH   3   4
ENDBRANCH   2   3
ENDBRANCH   1   2
BRANCH   1  12
ATOM     12  C   UNL     1     -17.220 -23.612  82.705  1.00  0.00     0.000 C 
BRANCH  12  13
ATOM     13  C   UNL     1     -17.096 -22.737  83.963  1.00  0.00    -0.000 C 
BRANCH  13  14
ATOM     14  C   UNL     1     -16.266 -23.357  85.104  1.00  0.00    -0.000 C 
BRANCH  14  15
ATOM     15  C   UNL     1     -15.248 -22.382  85.733  1.00  0.00    -0.000 C 
BRANCH  15  16
ATOM     16  C   UNL     1     -13.809 -22.661  85.265  1.00  0.00    -0.000 C 
BRANCH  16  17
ATOM     17  C   UNL     1     -13.340 -21.685  84.175  1.00  0.00    -0.000 C 
BRANCH  17  18
ATOM     18  C   UNL     1     -13.477 -22.271  82.759  1.00  0.00    -0.000 C 
BRANCH  18  19
ATOM     19  C   UNL     1     -14.325 -21.383  81.834  1.00  0.00    -0.003 C 
ATOM     20  C   UNL     1     -13.587 -20.991  80.555  1.00  0.00     0.004 C 
ENDBRANCH  18  19
ENDBRANCH  17  18
ENDBRANCH  16  17
ENDBRANCH  15  16
ENDBRANCH  14  15
ENDBRANCH  13  14
ENDBRANCH  12  13
ENDBRANCH   1  12
TORSDOF 16
ENDMDL
MODEL 4
REMARK VINA RESULT:    -0.639      3.166      4.737
REMARK INTER + INTRA:          -4.624
REMARK INTER:                  -1.416
REMARK INTRA:                  -3.208
REMARK UNBOUND:                -3.388
REMARK SMILES CCCCCCCCCCCCCCCCCC(=O)[O-]
REMARK SMILES IDX 10 1 11 2 12 3 13 4 14 5 15 6 16 7 17 8 18 9 19 10 20 11
REMARK SMILES IDX 9 12 8 13 7 14 6 15 5 16 4 17 3 18 2 19 1 20
REMARK H PARENT
REMARK Flexibility Score: inf
ROOT
ATOM      1  C   UNL     1     -17.292 -22.535  83.399  1.00  0.00     0.000 C 
ENDROOT
BRANCH   1   2
ATOM      2  C   UNL     1     -18.465 -23.382  82.891  1.00  0.00     0.000 C 
BRANCH   2   3
ATOM      3  C   UNL     1     -18.156 -23.975  81.508  1.00  0.00     0.000 C 
BRANCH   3   4
ATOM      4  C   UNL     1     -17.292 -23.041  80.646  1.00  0.00     0.000 C 
BRANCH   4   5
ATOM      5  C   UNL     1     -16.345 -23.810  79.708  1.00  0.00     0.000 C 
BRANCH   5   6
ATOM      6  C   UNL     1     -14.946 -23.180  79.636  1.00  0.00     0.000 C 
BRANCH   6   7
ATOM      7  C   UNL     1     -14.797 -21.963  80.567  1.00  0.00     0.006 C 
BRANCH   7   8
ATOM      8  C   UNL     1     -13.328 -21.587  80.797  1.00  0.00     0.053 C 
BRANCH   8   9
ATOM      9  C   UNL     1     -13.186 -20.168  81.258  1.00  0.00     0.041 C 
ATOM     10  O   UNL     1     -12.876 -19.917  82.451  1.00  0.00    -0.550 OA
ATOM     11  O   UNL     1     -13.430 -19.123  80.376  1.00  0.00    -0.550 OA
ENDBRANCH   8   9
ENDBRANCH   7   8
ENDBRANCH   6   7
ENDBRANCH   5   6
ENDBRANCH   4   5
ENDBRANCH   3   4
ENDBRANCH   2   3
ENDBRANCH   1   2
BRANCH   1  12
ATOM     12  C   UNL     1     -17.002 -22.831  84.879  1.00  0.00     0.000 C 
BRANCH  12  13
ATOM     13  C   UNL     1     -17.542 -24.199  85.328  1.00  0.00    -0.000 C 
BRANCH  13  14
ATOM     14  C   UNL     1     -16.478 -25.308  85.441  1.00  0.00    -0.000 C 
BRANCH  14  15
ATOM     15  C   UNL     1     -16.400 -26.221  84.198  1.00  0.00    -0.000 C 
BRANCH  15  16
ATOM     16  C   UNL     1     -14.988 -26.254  83.587  1.00  0.00    -0.000 C 
BRANCH  16  17
ATOM     17  C   UNL     1     -14.640 -24.963  82.829  1.00  0.00    -0.000 C 
BRANCH  17  18
ATOM     18  C   UNL     1     -13.269 -24.393  83.232  1.00  0.00    -0.000 C 
BRANCH  18  19
ATOM     19  C   UNL     1     -13.389 -23.150  84.129  1.00  0.00    -0.003 C 
ATOM     20  C   UNL     1     -13.271 -23.482  85.615  1.00  0.00     0.004 C 
ENDBRANCH  18  19
ENDBRANCH  17  18
ENDBRANCH  16  17
ENDBRANCH  15  16
ENDBRANCH  14  15
ENDBRANCH  13  14
ENDBRANCH  12  13
ENDBRANCH   1  12
TORSDOF 16
ENDMDL
MODEL 5
REMARK VINA RESULT:    -0.628      2.251      4.812
REMARK INTER + INTRA:          -4.603
REMARK INTER:                  -1.748
REMARK INTRA:                  -2.854
REMARK UNBOUND:                -3.388
REMARK SMILES CCCCCCCCCCCCCCCCCC(=O)[O-]
REMARK SMILES IDX 10 1 11 2 12 3 13 4 14 5 15 6 16 7 17 8 18 9 19 10 20 11
REMARK SMILES IDX 9 12 8 13 7 14 6 15 5 16 4 17 3 18 2 19 1 20
REMARK H PARENT
REMARK Flexibility Score: inf
ROOT
ATOM      1  C   UNL     1     -12.895 -23.391  82.111  1.00  0.00     0.000 C 
ENDROOT
BRANCH   1   2
ATOM      2  C   UNL     1     -13.284 -21.909  82.182  1.00  0.00     0.000 C 
BRANCH   2   3
ATOM      3  C   UNL     1     -13.245 -21.399  83.630  1.00  0.00     0.000 C 
BRANCH   3   4
ATOM      4  C   UNL     1     -12.875 -22.502  84.634  1.00  0.00     0.000 C 
BRANCH   4   5
ATOM      5  C   UNL     1     -14.046 -22.877  85.559  1.00  0.00     0.000 C 
BRANCH   5   6
ATOM      6  C   UNL     1     -14.473 -24.345  85.405  1.00  0.00     0.000 C 
BRANCH   6   7
ATOM      7  C   UNL     1     -15.609 -24.525  84.381  1.00  0.00     0.006 C 
BRANCH   7   8
ATOM      8  C   UNL     1     -16.405 -23.232  84.168  1.00  0.00     0.053 C 
BRANCH   8   9
ATOM      9  C   UNL     1     -17.822 -23.371  84.635  1.00  0.00     0.041 C 
ATOM     10  O   UNL     1     -18.671 -23.961  83.919  1.00  0.00    -0.550 OA
ATOM     11  O   UNL     1     -18.211 -22.817  85.848  1.00  0.00    -0.550 OA
ENDBRANCH   8   9
ENDBRANCH   7   8
ENDBRANCH   6   7
ENDBRANCH   5   6
ENDBRANCH   4   5
ENDBRANCH   3   4
ENDBRANCH   2   3
ENDBRANCH   1   2
BRANCH   1  12
ATOM     12  C   UNL     1     -13.828 -24.158  81.161  1.00  0.00     0.000 C 
BRANCH  12  13
ATOM     13  C   UNL     1     -14.872 -23.251  80.492  1.00  0.00    -0.000 C 
BRANCH  13  14
ATOM     14  C   UNL     1     -16.297 -23.834  80.440  1.00  0.00    -0.000 C 
BRANCH  14  15
ATOM     15  C   UNL     1     -17.409 -22.773  80.588  1.00  0.00    -0.000 C 
BRANCH  15  16
ATOM     16  C   UNL     1     -16.878 -21.452  81.172  1.00  0.00    -0.000 C 
BRANCH  16  17
ATOM     17  C   UNL     1     -17.606 -20.221  80.611  1.00  0.00    -0.000 C 
BRANCH  17  18
ATOM     18  C   UNL     1     -16.646 -19.058  80.300  1.00  0.00    -0.000 C 
BRANCH  18  19
ATOM     19  C   UNL     1     -15.224 -19.541  79.973  1.00  0.00    -0.003 C 
ATOM     20  C   UNL     1     -15.063 -19.950  78.510  1.00  0.00     0.004 C 
ENDBRANCH  18  19
ENDBRANCH  17  18
ENDBRANCH  16  17
ENDBRANCH  15  16
ENDBRANCH  14  15
ENDBRANCH  13  14
ENDBRANCH  12  13
ENDBRANCH   1  12
TORSDOF 16
ENDMDL
MODEL 6
REMARK VINA RESULT:    -0.616      9.992     11.779
REMARK INTER + INTRA:          -4.581
REMARK INTER:                  -1.474
REMARK INTRA:                  -3.107
REMARK UNBOUND:                -3.388
REMARK SMILES CCCCCCCCCCCCCCCCCC(=O)[O-]
REMARK SMILES IDX 10 1 11 2 12 3 13 4 14 5 15 6 16 7 17 8 18 9 19 10 20 11
REMARK SMILES IDX 9 12 8 13 7 14 6 15 5 16 4 17 3 18 2 19 1 20
REMARK H PARENT
REMARK Flexibility Score: inf
ROOT
ATOM      1  C   UNL     1     -16.937 -13.192  84.881  1.00  0.00     0.000 C 
ENDROOT
BRANCH   1   2
ATOM      2  C   UNL     1     -17.050 -14.703  84.645  1.00  0.00     0.000 C 
BRANCH   2   3
ATOM      3  C   UNL     1     -17.555 -15.001  83.225  1.00  0.00     0.000 C 
BRANCH   3   4
ATOM      4  C   UNL     1     -16.511 -14.670  82.147  1.00  0.00     0.000 C 
BRANCH   4   5
ATOM      5  C   UNL     1     -17.014 -13.623  81.138  1.00  0.00     0.000 C 
BRANCH   5   6
ATOM      6  C   UNL     1     -18.316 -14.051  80.443  1.00  0.00     0.000 C 
BRANCH   6   7
ATOM      7  C   UNL     1     -19.486 -13.096  80.739  1.00  0.00     0.006 C 
BRANCH   7   8
ATOM      8  C   UNL     1     -19.015 -11.787  81.385  1.00  0.00     0.053 C 
BRANCH   8   9
ATOM      9  C   UNL     1     -19.511 -11.656  82.793  1.00  0.00     0.041 C 
ATOM     10  O   UNL     1     -19.121 -10.702  83.516  1.00  0.00    -0.550 OA
ATOM     11  O   UNL     1     -20.377 -12.607  83.317  1.00  0.00    -0.550 OA
ENDBRANCH   8   9
ENDBRANCH   7   8
ENDBRANCH   6   7
ENDBRANCH   5   6
ENDBRANCH   4   5
ENDBRANCH   3   4
ENDBRANCH   2   3
ENDBRANCH   1   2
BRANCH   1  12
ATOM     12  C   UNL     1     -15.755 -12.869  85.809  1.00  0.00     0.000 C 
BRANCH  12  13
ATOM     13  C   UNL     1     -14.822 -14.072  86.025  1.00  0.00    -0.000 C 
BRANCH  13  14
ATOM     14  C   UNL     1     -13.444 -13.950  85.347  1.00  0.00    -0.000 C 
BRANCH  14  15
ATOM     15  C   UNL     1     -13.319 -14.767  84.043  1.00  0.00    -0.000 C 
BRANCH  15  16
ATOM     16  C   UNL     1     -12.954 -13.885  82.836  1.00  0.00    -0.000 C 
BRANCH  16  17
ATOM     17  C   UNL     1     -13.103 -12.385  83.132  1.00  0.00    -0.000 C 
BRANCH  17  18
ATOM     18  C   UNL     1     -14.134 -11.702  82.216  1.00  0.00    -0.000 C 
BRANCH  18  19
ATOM     19  C   UNL     1     -14.960 -10.636  82.954  1.00  0.00    -0.003 C 
ATOM     20  C   UNL     1     -14.205 -10.013  84.127  1.00  0.00     0.004 C 
ENDBRANCH  18  19
ENDBRANCH  17  18
ENDBRANCH  16  17
ENDBRANCH  15  16
ENDBRANCH  14  15
ENDBRANCH  13  14
ENDBRANCH  12  13
ENDBRANCH   1  12
TORSDOF 16
ENDMDL
MODEL 7
REMARK VINA RESULT:    -0.574      9.827     11.509
REMARK INTER + INTRA:          -4.499
REMARK INTER:                  -1.437
REMARK INTRA:                  -3.061
REMARK UNBOUND:                -3.388
REMARK SMILES CCCCCCCCCCCCCCCCCC(=O)[O-]
REMARK SMILES IDX 10 1 11 2 12 3 13 4 14 5 15 6 16 7 17 8 18 9 19 10 20 11
REMARK SMILES IDX 9 12 8 13 7 14 6 15 5 16 4 17 3 18 2 19 1 20
REMARK H PARENT
REMARK Flexibility Score: inf
ROOT
ATOM      1  C   UNL     1     -17.336 -14.812  85.545  1.00  0.00     0.000 C 
ENDROOT
BRANCH   1   2
ATOM      2  C   UNL     1     -17.304 -15.054  84.031  1.00  0.00     0.000 C 
BRANCH   2   3
ATOM      3  C   UNL     1     -18.631 -15.656  83.542  1.00  0.00     0.000 C 
BRANCH   3   4
ATOM      4  C   UNL     1     -19.853 -15.024  84.227  1.00  0.00     0.000 C 
BRANCH   4   5
ATOM      5  C   UNL     1     -20.384 -13.795  83.470  1.00  0.00     0.000 C 
BRANCH   5   6
ATOM      6  C   UNL     1     -19.994 -13.802  81.984  1.00  0.00     0.000 C 
BRANCH   6   7
ATOM      7  C   UNL     1     -19.210 -12.542  81.573  1.00  0.00     0.006 C 
BRANCH   7   8
ATOM      8  C   UNL     1     -17.811 -12.879  81.042  1.00  0.00     0.053 C 
BRANCH   8   9
ATOM      9  C   UNL     1     -17.483 -12.092  79.810  1.00  0.00     0.041 C 
ATOM     10  O   UNL     1     -18.186 -11.101  79.484  1.00  0.00    -0.550 OA
ATOM     11  O   UNL     1     -16.419 -12.476  79.003  1.00  0.00    -0.550 OA
ENDBRANCH   8   9
ENDBRANCH   7   8
ENDBRANCH   6   7
ENDBRANCH   5   6
ENDBRANCH   4   5
ENDBRANCH   3   4
ENDBRANCH   2   3
ENDBRANCH   1   2
BRANCH   1  12
ATOM     12  C   UNL     1     -16.988 -13.352  85.874  1.00  0.00     0.000 C 
BRANCH  12  13
ATOM     13  C   UNL     1     -17.031 -12.437  84.640  1.00  0.00    -0.000 C 
BRANCH  13  14
ATOM     14  C   UNL     1     -15.773 -11.573  84.431  1.00  0.00    -0.000 C 
BRANCH  14  15
ATOM     15  C   UNL     1     -14.748 -11.682  85.581  1.00  0.00    -0.000 C 
BRANCH  15  16
ATOM     16  C   UNL     1     -13.389 -12.220  85.100  1.00  0.00    -0.000 C 
BRANCH  16  17
ATOM     17  C   UNL     1     -13.182 -13.703  85.445  1.00  0.00    -0.000 C 
BRANCH  17  18
ATOM     18  C   UNL     1     -13.666 -14.643  84.327  1.00  0.00    -0.000 C 
BRANCH  18  19
ATOM     19  C   UNL     1     -13.241 -14.162  82.930  1.00  0.00    -0.003 C 
ATOM     20  C   UNL     1     -14.415 -14.066  81.958  1.00  0.00     0.004 C 
ENDBRANCH  18  19
ENDBRANCH  17  18
ENDBRANCH  16  17
ENDBRANCH  15  16
ENDBRANCH  14  15
ENDBRANCH  13  14
ENDBRANCH  12  13
ENDBRANCH   1  12
TORSDOF 16
ENDMDL
MODEL 8
REMARK VINA RESULT:    -0.570      8.347     10.394
REMARK INTER + INTRA:          -4.490
REMARK INTER:                  -1.271
REMARK INTRA:                  -3.219
REMARK UNBOUND:                -3.388
REMARK SMILES CCCCCCCCCCCCCCCCCC(=O)[O-]
REMARK SMILES IDX 10 1 11 2 12 3 13 4 14 5 15 6 16 7 17 8 18 9 19 10 20 11
REMARK SMILES IDX 9 12 8 13 7 14 6 15 5 16 4 17 3 18 2 19 1 20
REMARK H PARENT
REMARK Flexibility Score: inf
ROOT
ATOM      1  C   UNL     1     -21.399 -16.680  82.085  1.00  0.00     0.000 C 
ENDROOT
BRANCH   1   2
ATOM      2  C   UNL     1     -20.778 -17.972  81.540  1.00  0.00     0.000 C 
BRANCH   2   3
ATOM      3  C   UNL     1     -19.391 -17.702  80.937  1.00  0.00     0.000 C 
BRANCH   3   4
ATOM      4  C   UNL     1     -18.381 -17.203  81.982  1.00  0.00     0.000 C 
BRANCH   4   5
ATOM      5  C   UNL     1     -17.680 -15.902  81.554  1.00  0.00     0.000 C 
BRANCH   5   6
ATOM      6  C   UNL     1     -17.943 -14.743  82.528  1.00  0.00     0.000 C 
BRANCH   6   7
ATOM      7  C   UNL     1     -16.931 -14.704  83.687  1.00  0.00     0.006 C 
BRANCH   7   8
ATOM      8  C   UNL     1     -17.364 -13.743  84.801  1.00  0.00     0.053 C 
BRANCH   8   9
ATOM      9  C   UNL     1     -16.662 -12.424  84.698  1.00  0.00     0.041 C 
ATOM     10  O   UNL     1     -17.253 -11.426  84.209  1.00  0.00    -0.550 OA
ATOM     11  O   UNL     1     -15.340 -12.305  85.110  1.00  0.00    -0.550 OA
ENDBRANCH   8   9
ENDBRANCH   7   8
ENDBRANCH   6   7
ENDBRANCH   5   6
ENDBRANCH   4   5
ENDBRANCH   3   4
ENDBRANCH   2   3
ENDBRANCH   1   2
BRANCH   1  12
ATOM     12  C   UNL     1     -22.460 -16.990  83.152  1.00  0.00     0.000 C 
BRANCH  12  13
ATOM     13  C   UNL     1     -22.131 -16.365  84.518  1.00  0.00    -0.000 C 
BRANCH  13  14
ATOM     14  C   UNL     1     -20.707 -15.789  84.639  1.00  0.00    -0.000 C 
BRANCH  14  15
ATOM     15  C   UNL     1     -19.950 -16.265  85.897  1.00  0.00    -0.000 C 
BRANCH  15  16
ATOM     16  C   UNL     1     -18.836 -17.271  85.560  1.00  0.00    -0.000 C 
BRANCH  16  17
ATOM     17  C   UNL     1     -19.222 -18.719  85.900  1.00  0.00    -0.000 C 
BRANCH  17  18
ATOM     18  C   UNL     1     -19.554 -19.551  84.648  1.00  0.00    -0.000 C 
BRANCH  18  19
ATOM     19  C   UNL     1     -20.992 -20.094  84.667  1.00  0.00    -0.003 C 
ATOM     20  C   UNL     1     -21.737 -19.743  85.954  1.00  0.00     0.004 C 
ENDBRANCH  18  19
ENDBRANCH  17  18
ENDBRANCH  16  17
ENDBRANCH  15  16
ENDBRANCH  14  15
ENDBRANCH  13  14
ENDBRANCH  12  13
ENDBRANCH   1  12
TORSDOF 16
ENDMDL
MODEL 9
REMARK VINA RESULT:    -0.561      4.826      7.811
REMARK INTER + INTRA:          -4.473
REMARK INTER:                  -1.015
REMARK INTRA:                  -3.458
REMARK UNBOUND:                -3.388
REMARK SMILES CCCCCCCCCCCCCCCCCC(=O)[O-]
REMARK SMILES IDX 10 1 11 2 12 3 13 4 14 5 15 6 16 7 17 8 18 9 19 10 20 11
REMARK SMILES IDX 9 12 8 13 7 14 6 15 5 16 4 17 3 18 2 19 1 20
REMARK H PARENT
REMARK Flexibility Score: inf
ROOT
ATOM      1  C   UNL     1     -21.538 -20.247  80.218  1.00  0.00     0.000 C 
ENDROOT
BRANCH   1   2
ATOM      2  C   UNL     1     -21.526 -21.398  81.231  1.00  0.00     0.000 C 
BRANCH   2   3
ATOM      3  C   UNL     1     -20.227 -22.212  81.123  1.00  0.00     0.000 C 
BRANCH   3   4
ATOM      4  C   UNL     1     -19.319 -22.039  82.351  1.00  0.00     0.000 C 
BRANCH   4   5
ATOM      5  C   UNL     1     -17.838 -21.864  81.972  1.00  0.00     0.000 C 
BRANCH   5   6
ATOM      6  C   UNL     1     -17.562 -22.206  80.500  1.00  0.00     0.000 C 
BRANCH   6   7
ATOM      7  C   UNL     1     -16.187 -21.703  80.025  1.00  0.00     0.006 C 
BRANCH   7   8
ATOM      8  C   UNL     1     -15.643 -20.578  80.915  1.00  0.00     0.053 C 
BRANCH   8   9
ATOM      9  C   UNL     1     -14.324 -20.943  81.524  1.00  0.00     0.041 C 
ATOM     10  O   UNL     1     -13.402 -20.090  81.597  1.00  0.00    -0.550 OA
ATOM     11  O   UNL     1     -14.102 -22.237  81.980  1.00  0.00    -0.550 OA
ENDBRANCH   8   9
ENDBRANCH   7   8
ENDBRANCH   6   7
ENDBRANCH   5   6
ENDBRANCH   4   5
ENDBRANCH   3   4
ENDBRANCH   2   3
ENDBRANCH   1   2
BRANCH   1  12
ATOM     12  C   UNL     1     -20.459 -20.450  79.144  1.00  0.00     0.000 C 
BRANCH  12  13
ATOM     13  C   UNL     1     -19.448 -19.293  79.089  1.00  0.00    -0.000 C 
BRANCH  13  14
ATOM     14  C   UNL     1     -19.605 -18.244  80.206  1.00  0.00    -0.000 C 
BRANCH  14  15
ATOM     15  C   UNL     1     -18.502 -18.315  81.283  1.00  0.00    -0.000 C 
BRANCH  15  16
ATOM     16  C   UNL     1     -19.076 -18.259  82.710  1.00  0.00    -0.000 C 
BRANCH  16  17
ATOM     17  C   UNL     1     -20.485 -17.646  82.758  1.00  0.00    -0.000 C 
BRANCH  17  18
ATOM     18  C   UNL     1     -21.474 -18.502  83.567  1.00  0.00    -0.000 C 
BRANCH  18  19
ATOM     19  C   UNL     1     -20.765 -19.521  84.474  1.00  0.00    -0.003 C 
ATOM     20  C   UNL     1     -21.693 -20.643  84.938  1.00  0.00     0.004 C 
ENDBRANCH  18  19
ENDBRANCH  17  18
ENDBRANCH  16  17
ENDBRANCH  15  16
ENDBRANCH  14  15
ENDBRANCH  13  14
ENDBRANCH  12  13
ENDBRANCH   1  12
TORSDOF 16
ENDMDL
