MODEL 1
REMARK VINA RESULT:    -2.672      0.000      0.000
REMARK INTER + INTRA:          -2.672
REMARK INTER:                  -2.672
REMARK INTRA:                   0.000
REMARK UNBOUND:                 0.000
REMARK SMILES CC1=CC(=O)[C@@H]2C[C@H]1C2(C)C
REMARK SMILES IDX 1 1 2 2 3 3 4 4 5 5 6 6 7 7 8 8 9 9 10 10 11 11
REMARK H PARENT
REMARK Flexibility Score: inf
ROOT
ATOM      1  C   UNL     1      -7.086  -6.502  -5.597  1.00  0.00     0.040 C 
ATOM      2  C   UNL     1      -7.650  -5.919  -4.341  1.00  0.00    -0.066 C 
ATOM      3  C   UNL     1      -8.160  -6.711  -3.357  1.00  0.00     0.047 C 
ATOM      4  C   UNL     1      -8.666  -6.008  -2.135  1.00  0.00     0.159 C 
ATOM      5  O   UNL     1      -9.125  -6.631  -1.143  1.00  0.00    -0.295 OA
ATOM      6  C   UNL     1      -8.586  -4.482  -2.177  1.00  0.00     0.067 C 
ATOM      7  C   UNL     1      -9.125  -4.114  -3.577  1.00  0.00     0.021 C 
ATOM      8  C   UNL     1      -7.699  -4.394  -4.104  1.00  0.00     0.022 C 
ATOM      9  C   UNL     1      -7.170  -4.074  -2.676  1.00  0.00    -0.019 C 
ATOM     10  C   UNL     1      -6.887  -2.564  -2.476  1.00  0.00     0.012 C 
ATOM     11  C   UNL     1      -5.944  -4.873  -2.150  1.00  0.00     0.012 C 
ENDROOT
TORSDOF 0
ENDMDL
MODEL 2
REMARK VINA RESULT:    -2.547     21.025     22.726
REMARK INTER + INTRA:          -2.547
REMARK INTER:                  -2.547
REMARK INTRA:                   0.000
REMARK UNBOUND:                 0.000
REMARK SMILES CC1=CC(=O)[C@@H]2C[C@H]1C2(C)C
REMARK SMILES IDX 1 1 2 2 3 3 4 4 5 5 6 6 7 7 8 8 9 9 10 10 11 11
REMARK H PARENT
REMARK Flexibility Score: inf
ROOT
ATOM      1  C   UNL     1      -0.524 -21.515 -19.035  1.00  0.00     0.040 C 
ATOM      2  C   UNL     1      -1.982 -21.501 -18.702  1.00  0.00    -0.066 C 
ATOM      3  C   UNL     1      -2.435 -21.907 -17.484  1.00  0.00     0.047 C 
ATOM      4  C   UNL     1      -3.915 -21.816 -17.262  1.00  0.00     0.159 C 
ATOM      5  O   UNL     1      -4.450 -22.125 -16.166  1.00  0.00    -0.295 OA
ATOM      6  C   UNL     1      -4.726 -21.322 -18.459  1.00  0.00     0.067 C 
ATOM      7  C   UNL     1      -4.157 -22.115 -19.656  1.00  0.00     0.021 C 
ATOM      8  C   UNL     1      -3.044 -21.044 -19.724  1.00  0.00     0.022 C 
ATOM      9  C   UNL     1      -4.032 -20.056 -19.039  1.00  0.00    -0.019 C 
ATOM     10  C   UNL     1      -4.926 -19.310 -20.062  1.00  0.00     0.012 C 
ATOM     11  C   UNL     1      -3.454 -19.010 -18.045  1.00  0.00     0.012 C 
ENDROOT
TORSDOF 0
ENDMDL
MODEL 3
REMARK VINA RESULT:    -2.412      1.899      2.781
REMARK INTER + INTRA:          -2.412
REMARK INTER:                  -2.412
REMARK INTRA:                   0.000
REMARK UNBOUND:                 0.000
REMARK SMILES CC1=CC(=O)[C@@H]2C[C@H]1C2(C)C
REMARK SMILES IDX 1 1 2 2 3 3 4 4 5 5 6 6 7 7 8 8 9 9 10 10 11 11
REMARK H PARENT
REMARK Flexibility Score: inf
ROOT
ATOM      1  C   UNL     1      -7.399  -6.365  -4.880  1.00  0.00     0.040 C 
ATOM      2  C   UNL     1      -7.522  -5.247  -3.894  1.00  0.00    -0.066 C 
ATOM      3  C   UNL     1      -8.327  -4.174  -4.134  1.00  0.00     0.047 C 
ATOM      4  C   UNL     1      -8.388  -3.136  -3.056  1.00  0.00     0.159 C 
ATOM      5  O   UNL     1      -9.125  -2.120  -3.143  1.00  0.00    -0.295 OA
ATOM      6  C   UNL     1      -7.494  -3.398  -1.844  1.00  0.00     0.067 C 
ATOM      7  C   UNL     1      -6.140  -3.818  -2.457  1.00  0.00     0.021 C 
ATOM      8  C   UNL     1      -6.731  -5.242  -2.569  1.00  0.00     0.022 C 
ATOM      9  C   UNL     1      -7.687  -4.875  -1.397  1.00  0.00    -0.019 C 
ATOM     10  C   UNL     1      -7.056  -5.158  -0.010  1.00  0.00     0.012 C 
ATOM     11  C   UNL     1      -9.124  -5.468  -1.407  1.00  0.00     0.012 C 
ENDROOT
TORSDOF 0
ENDMDL
MODEL 4
REMARK VINA RESULT:    -2.391      1.650      3.098
REMARK INTER + INTRA:          -2.391
REMARK INTER:                  -2.391
REMARK INTRA:                   0.000
REMARK UNBOUND:                 0.000
REMARK SMILES CC1=CC(=O)[C@@H]2C[C@H]1C2(C)C
REMARK SMILES IDX 1 1 2 2 3 3 4 4 5 5 6 6 7 7 8 8 9 9 10 10 11 11
REMARK H PARENT
REMARK Flexibility Score: inf
ROOT
ATOM      1  C   UNL     1      -9.032  -5.978   0.091  1.00  0.00     0.040 C 
ATOM      2  C   UNL     1      -8.382  -5.497  -1.168  1.00  0.00    -0.066 C 
ATOM      3  C   UNL     1      -8.698  -6.035  -2.379  1.00  0.00     0.047 C 
ATOM      4  C   UNL     1      -8.001  -5.446  -3.568  1.00  0.00     0.159 C 
ATOM      5  O   UNL     1      -8.236  -5.831  -4.743  1.00  0.00    -0.295 OA
ATOM      6  C   UNL     1      -6.986  -4.347  -3.254  1.00  0.00     0.067 C 
ATOM      7  C   UNL     1      -6.176  -4.909  -2.065  1.00  0.00     0.021 C 
ATOM      8  C   UNL     1      -7.312  -4.385  -1.156  1.00  0.00     0.022 C 
ATOM      9  C   UNL     1      -7.638  -3.341  -2.262  1.00  0.00    -0.019 C 
ATOM     10  C   UNL     1      -6.807  -2.041  -2.111  1.00  0.00     0.012 C 
ATOM     11  C   UNL     1      -9.125  -2.944  -2.484  1.00  0.00     0.012 C 
ENDROOT
TORSDOF 0
ENDMDL
MODEL 5
REMARK VINA RESULT:    -2.367      1.576      2.536
REMARK INTER + INTRA:          -2.367
REMARK INTER:                  -2.367
REMARK INTRA:                   0.000
REMARK UNBOUND:                 0.000
REMARK SMILES CC1=CC(=O)[C@@H]2C[C@H]1C2(C)C
REMARK SMILES IDX 1 1 2 2 3 3 4 4 5 5 6 6 7 7 8 8 9 9 10 10 11 11
REMARK H PARENT
REMARK Flexibility Score: inf
ROOT
ATOM      1  C   UNL     1      -8.334  -2.143  -3.883  1.00  0.00     0.040 C 
ATOM      2  C   UNL     1      -8.339  -3.442  -3.140  1.00  0.00    -0.066 C 
ATOM      3  C   UNL     1      -8.638  -4.615  -3.765  1.00  0.00     0.047 C 
ATOM      4  C   UNL     1      -8.578  -5.850  -2.919  1.00  0.00     0.159 C 
ATOM      5  O   UNL     1      -8.795  -6.997  -3.389  1.00  0.00    -0.295 OA
ATOM      6  C   UNL     1      -8.236  -5.620  -1.447  1.00  0.00     0.067 C 
ATOM      7  C   UNL     1      -9.125  -4.425  -1.035  1.00  0.00     0.021 C 
ATOM      8  C   UNL     1      -8.026  -3.515  -1.631  1.00  0.00     0.022 C 
ATOM      9  C   UNL     1      -7.011  -4.664  -1.367  1.00  0.00    -0.019 C 
ATOM     10  C   UNL     1      -6.405  -4.602   0.058  1.00  0.00     0.012 C 
ATOM     11  C   UNL     1      -5.850  -4.867  -2.381  1.00  0.00     0.012 C 
ENDROOT
TORSDOF 0
ENDMDL
MODEL 6
REMARK VINA RESULT:    -1.888     16.517     18.048
REMARK INTER + INTRA:          -1.888
REMARK INTER:                  -1.888
REMARK INTRA:                   0.000
REMARK UNBOUND:                 0.000
REMARK SMILES CC1=CC(=O)[C@@H]2C[C@H]1C2(C)C
REMARK SMILES IDX 1 1 2 2 3 3 4 4 5 5 6 6 7 7 8 8 9 9 10 10 11 11
REMARK H PARENT
REMARK Flexibility Score: inf
ROOT
ATOM      1  C   UNL     1       7.350  -1.879  -4.283  1.00  0.00     0.040 C 
ATOM      2  C   UNL     1       8.619  -2.658  -4.428  1.00  0.00    -0.066 C 
ATOM      3  C   UNL     1       8.840  -3.794  -3.709  1.00  0.00     0.047 C 
ATOM      4  C   UNL     1      10.136  -4.500  -3.967  1.00  0.00     0.159 C 
ATOM      5  O   UNL     1      10.438  -5.579  -3.394  1.00  0.00    -0.295 OA
ATOM      6  C   UNL     1      11.064  -3.819  -4.973  1.00  0.00     0.067 C 
ATOM      7  C   UNL     1      11.047  -2.332  -4.556  1.00  0.00     0.021 C 
ATOM      8  C   UNL     1       9.745  -2.205  -5.381  1.00  0.00     0.022 C 
ATOM      9  C   UNL     1      10.230  -3.420  -6.224  1.00  0.00    -0.019 C 
ATOM     10  C   UNL     1      11.123  -2.993  -7.416  1.00  0.00     0.012 C 
ATOM     11  C   UNL     1       9.163  -4.422  -6.750  1.00  0.00     0.012 C 
ENDROOT
TORSDOF 0
ENDMDL
MODEL 7
REMARK VINA RESULT:    -1.861      1.770      3.150
REMARK INTER + INTRA:          -1.861
REMARK INTER:                  -1.861
REMARK INTRA:                   0.000
REMARK UNBOUND:                 0.000
REMARK SMILES CC1=CC(=O)[C@@H]2C[C@H]1C2(C)C
REMARK SMILES IDX 1 1 2 2 3 3 4 4 5 5 6 6 7 7 8 8 9 9 10 10 11 11
REMARK H PARENT
REMARK Flexibility Score: inf
ROOT
ATOM      1  C   UNL     1      -9.125  -6.919  -1.500  1.00  0.00     0.040 C 
ATOM      2  C   UNL     1      -8.503  -5.835  -2.322  1.00  0.00    -0.066 C 
ATOM      3  C   UNL     1      -7.367  -5.201  -1.918  1.00  0.00     0.047 C 
ATOM      4  C   UNL     1      -6.825  -4.155  -2.844  1.00  0.00     0.159 C 
ATOM      5  O   UNL     1      -5.761  -3.529  -2.600  1.00  0.00    -0.295 OA
ATOM      6  C   UNL     1      -7.654  -3.904  -4.103  1.00  0.00     0.067 C 
ATOM      7  C   UNL     1      -9.108  -3.823  -3.589  1.00  0.00     0.021 C 
ATOM      8  C   UNL     1      -9.125  -5.368  -3.655  1.00  0.00     0.022 C 
ATOM      9  C   UNL     1      -8.014  -5.276  -4.741  1.00  0.00    -0.019 C 
ATOM     10  C   UNL     1      -8.596  -5.127  -6.170  1.00  0.00     0.012 C 
ATOM     11  C   UNL     1      -6.924  -6.384  -4.773  1.00  0.00     0.012 C 
ENDROOT
TORSDOF 0
ENDMDL
MODEL 8
REMARK VINA RESULT:    -1.722     16.699     18.126
REMARK INTER + INTRA:          -1.722
REMARK INTER:                  -1.722
REMARK INTRA:                   0.000
REMARK UNBOUND:                 0.000
REMARK SMILES CC1=CC(=O)[C@@H]2C[C@H]1C2(C)C
REMARK SMILES IDX 1 1 2 2 3 3 4 4 5 5 6 6 7 7 8 8 9 9 10 10 11 11
REMARK H PARENT
REMARK Flexibility Score: inf
ROOT
ATOM      1  C   UNL     1      11.089  -5.933  -5.931  1.00  0.00     0.040 C 
ATOM      2  C   UNL     1      10.549  -4.542  -6.028  1.00  0.00    -0.066 C 
ATOM      3  C   UNL     1       9.991  -4.076  -7.180  1.00  0.00     0.047 C 
ATOM      4  C   UNL     1       9.458  -2.676  -7.140  1.00  0.00     0.159 C 
ATOM      5  O   UNL     1       8.886  -2.147  -8.128  1.00  0.00    -0.295 OA
ATOM      6  C   UNL     1       9.657  -1.938  -5.816  1.00  0.00     0.067 C 
ATOM      7  C   UNL     1      11.125  -2.233  -5.436  1.00  0.00     0.021 C 
ATOM      8  C   UNL     1      10.612  -3.562  -4.837  1.00  0.00     0.022 C 
ATOM      9  C   UNL     1       9.226  -2.879  -4.655  1.00  0.00    -0.019 C 
ATOM     10  C   UNL     1       9.109  -2.130  -3.303  1.00  0.00     0.012 C 
ATOM     11  C   UNL     1       7.948  -3.745  -4.842  1.00  0.00     0.012 C 
ENDROOT
TORSDOF 0
ENDMDL
