MODEL 1
REMARK VINA RESULT:    -3.871      0.000      0.000
REMARK INTER + INTRA:          -4.257
REMARK INTER:                  -4.098
REMARK INTRA:                  -0.160
REMARK UNBOUND:                -0.160
REMARK SMILES C=C(C)[C@H]1CC=C(C)CC1
REMARK SMILES IDX 8 1 7 2 6 3 5 4 4 5 10 6 9 7 2 8 1 9 3 10
REMARK H PARENT
REMARK Flexibility Score: inf
ROOT
ATOM      1  C   UNL     1      -5.646  -3.739   2.114  1.00  0.00     0.039 C 
ATOM      2  C   UNL     1      -5.042  -3.698   0.738  1.00  0.00    -0.077 C 
ATOM      3  C   UNL     1      -4.775  -2.520   0.152  1.00  0.00    -0.027 C 
ATOM      4  C   UNL     1      -4.126  -2.500  -1.205  1.00  0.00     0.035 C 
ATOM      5  C   UNL     1      -2.940  -3.494  -1.249  1.00  0.00     0.018 C 
ATOM      6  C   UNL     1      -3.250  -4.867  -0.568  1.00  0.00     0.013 C 
ATOM      7  C   UNL     1      -4.676  -4.968   0.005  1.00  0.00     0.031 C 
ENDROOT
BRANCH   5   8
ATOM      8  C   UNL     1      -2.454  -3.673  -2.680  1.00  0.00    -0.077 C 
ATOM      9  C   UNL     1      -2.518  -4.875  -3.274  1.00  0.00     0.008 C 
ATOM     10  C   UNL     1      -1.868  -2.514  -3.445  1.00  0.00     0.039 C 
ENDBRANCH   5   8
TORSDOF 1
ENDMDL
MODEL 2
REMARK VINA RESULT:    -3.742      6.418      8.602
REMARK INTER + INTRA:          -4.121
REMARK INTER:                  -3.961
REMARK INTRA:                  -0.160
REMARK UNBOUND:                -0.160
REMARK SMILES C=C(C)[C@H]1CC=C(C)CC1
REMARK SMILES IDX 8 1 7 2 6 3 5 4 4 5 10 6 9 7 2 8 1 9 3 10
REMARK H PARENT
REMARK Flexibility Score: inf
ROOT
ATOM      1  C   UNL     1      -0.281   5.413  -3.119  1.00  0.00     0.039 C 
ATOM      2  C   UNL     1      -1.068   4.349  -3.832  1.00  0.00    -0.077 C 
ATOM      3  C   UNL     1      -1.378   3.202  -3.204  1.00  0.00    -0.027 C 
ATOM      4  C   UNL     1      -2.207   2.170  -3.918  1.00  0.00     0.035 C 
ATOM      5  C   UNL     1      -3.417   2.839  -4.614  1.00  0.00     0.018 C 
ATOM      6  C   UNL     1      -3.058   4.173  -5.347  1.00  0.00     0.013 C 
ATOM      7  C   UNL     1      -1.569   4.557  -5.242  1.00  0.00     0.031 C 
ENDROOT
BRANCH   5   8
ATOM      8  C   UNL     1      -4.101   1.852  -5.548  1.00  0.00    -0.077 C 
ATOM      9  C   UNL     1      -4.166   2.096  -6.867  1.00  0.00     0.008 C 
ATOM     10  C   UNL     1      -4.741   0.597  -5.009  1.00  0.00     0.039 C 
ENDBRANCH   5   8
TORSDOF 1
ENDMDL
MODEL 3
REMARK VINA RESULT:    -3.730      0.699      4.506
REMARK INTER + INTRA:          -4.108
REMARK INTER:                  -3.945
REMARK INTRA:                  -0.163
REMARK UNBOUND:                -0.160
REMARK SMILES C=C(C)[C@H]1CC=C(C)CC1
REMARK SMILES IDX 8 1 7 2 6 3 5 4 4 5 10 6 9 7 2 8 1 9 3 10
REMARK H PARENT
REMARK Flexibility Score: inf
ROOT
ATOM      1  C   UNL     1      -2.557  -3.770  -2.803  1.00  0.00     0.039 C 
ATOM      2  C   UNL     1      -3.253  -3.567  -1.486  1.00  0.00    -0.077 C 
ATOM      3  C   UNL     1      -3.983  -2.460  -1.272  1.00  0.00    -0.027 C 
ATOM      4  C   UNL     1      -4.711  -2.297   0.034  1.00  0.00     0.035 C 
ATOM      5  C   UNL     1      -5.449  -3.605   0.406  1.00  0.00     0.018 C 
ATOM      6  C   UNL     1      -4.600  -4.895   0.158  1.00  0.00     0.013 C 
ATOM      7  C   UNL     1      -3.191  -4.612  -0.397  1.00  0.00     0.031 C 
ENDROOT
BRANCH   5   8
ATOM      8  C   UNL     1      -5.960  -3.536   1.838  1.00  0.00    -0.077 C 
ATOM      9  C   UNL     1      -6.967  -2.710   2.162  1.00  0.00     0.008 C 
ATOM     10  C   UNL     1      -5.326  -4.371   2.923  1.00  0.00     0.039 C 
ENDBRANCH   5   8
TORSDOF 1
ENDMDL
MODEL 4
REMARK VINA RESULT:    -3.694      1.889      3.485
REMARK INTER + INTRA:          -4.070
REMARK INTER:                  -3.909
REMARK INTRA:                  -0.161
REMARK UNBOUND:                -0.160
REMARK SMILES C=C(C)[C@H]1CC=C(C)CC1
REMARK SMILES IDX 8 1 7 2 6 3 5 4 4 5 10 6 9 7 2 8 1 9 3 10
REMARK H PARENT
REMARK Flexibility Score: inf
ROOT
ATOM      1  C   UNL     1      -8.211  -1.846   4.099  1.00  0.00     0.039 C 
ATOM      2  C   UNL     1      -7.496  -2.340   2.872  1.00  0.00    -0.077 C 
ATOM      3  C   UNL     1      -7.295  -1.517   1.830  1.00  0.00    -0.027 C 
ATOM      4  C   UNL     1      -6.536  -2.015   0.632  1.00  0.00     0.035 C 
ATOM      5  C   UNL     1      -5.259  -2.768   1.078  1.00  0.00     0.018 C 
ATOM      6  C   UNL     1      -5.491  -3.728   2.291  1.00  0.00     0.013 C 
ATOM      7  C   UNL     1      -6.946  -3.745   2.798  1.00  0.00     0.031 C 
ENDROOT
BRANCH   5   8
ATOM      8  C   UNL     1      -4.635  -3.497  -0.103  1.00  0.00    -0.077 C 
ATOM      9  C   UNL     1      -4.668  -4.837  -0.171  1.00  0.00     0.008 C 
ATOM     10  C   UNL     1      -3.944  -2.730  -1.204  1.00  0.00     0.039 C 
ENDBRANCH   5   8
TORSDOF 1
ENDMDL
MODEL 5
REMARK VINA RESULT:    -3.629      3.072      5.367
REMARK INTER + INTRA:          -4.001
REMARK INTER:                  -3.834
REMARK INTRA:                  -0.167
REMARK UNBOUND:                -0.160
REMARK SMILES C=C(C)[C@H]1CC=C(C)CC1
REMARK SMILES IDX 8 1 7 2 6 3 5 4 4 5 10 6 9 7 2 8 1 9 3 10
REMARK H PARENT
REMARK Flexibility Score: inf
ROOT
ATOM      1  C   UNL     1      -3.482   2.694  -4.619  1.00  0.00     0.039 C 
ATOM      2  C   UNL     1      -3.332   1.316  -4.036  1.00  0.00    -0.077 C 
ATOM      3  C   UNL     1      -2.253   1.008  -3.299  1.00  0.00    -0.027 C 
ATOM      4  C   UNL     1      -2.144  -0.360  -2.685  1.00  0.00     0.035 C 
ATOM      5  C   UNL     1      -3.482  -0.758  -2.016  1.00  0.00     0.018 C 
ATOM      6  C   UNL     1      -4.740  -0.401  -2.874  1.00  0.00     0.013 C 
ATOM      7  C   UNL     1      -4.403   0.266  -4.221  1.00  0.00     0.031 C 
ENDROOT
BRANCH   5   8
ATOM      8  C   UNL     1      -3.464  -2.230  -1.632  1.00  0.00    -0.077 C 
ATOM      9  C   UNL     1      -2.605  -3.077  -2.221  1.00  0.00     0.008 C 
ATOM     10  C   UNL     1      -4.426  -2.770  -0.603  1.00  0.00     0.039 C 
ENDBRANCH   5   8
TORSDOF 1
ENDMDL
MODEL 6
REMARK VINA RESULT:    -3.605      7.026      9.293
REMARK INTER + INTRA:          -3.975
REMARK INTER:                  -3.812
REMARK INTRA:                  -0.163
REMARK UNBOUND:                -0.160
REMARK SMILES C=C(C)[C@H]1CC=C(C)CC1
REMARK SMILES IDX 8 1 7 2 6 3 5 4 4 5 10 6 9 7 2 8 1 9 3 10
REMARK H PARENT
REMARK Flexibility Score: inf
ROOT
ATOM      1  C   UNL     1       2.643   5.316  -1.279  1.00  0.00     0.039 C 
ATOM      2  C   UNL     1       1.616   4.628  -2.134  1.00  0.00    -0.077 C 
ATOM      3  C   UNL     1       1.292   3.346  -1.901  1.00  0.00    -0.027 C 
ATOM      4  C   UNL     1       0.228   2.690  -2.736  1.00  0.00     0.035 C 
ATOM      5  C   UNL     1      -1.001   3.621  -2.873  1.00  0.00     0.018 C 
ATOM      6  C   UNL     1      -0.625   5.115  -3.146  1.00  0.00     0.013 C 
ATOM      7  C   UNL     1       0.892   5.366  -3.236  1.00  0.00     0.031 C 
ENDROOT
BRANCH   5   8
ATOM      8  C   UNL     1      -1.959   3.082  -3.925  1.00  0.00    -0.077 C 
ATOM      9  C   UNL     1      -2.434   1.830  -3.836  1.00  0.00     0.008 C 
ATOM     10  C   UNL     1      -2.371   3.934  -5.101  1.00  0.00     0.039 C 
ENDBRANCH   5   8
TORSDOF 1
ENDMDL
MODEL 7
REMARK VINA RESULT:    -3.592      6.657      8.665
REMARK INTER + INTRA:          -3.961
REMARK INTER:                  -3.798
REMARK INTRA:                  -0.163
REMARK UNBOUND:                -0.160
REMARK SMILES C=C(C)[C@H]1CC=C(C)CC1
REMARK SMILES IDX 8 1 7 2 6 3 5 4 4 5 10 6 9 7 2 8 1 9 3 10
REMARK H PARENT
REMARK Flexibility Score: inf
ROOT
ATOM      1  C   UNL     1      -4.398   1.199  -5.503  1.00  0.00     0.039 C 
ATOM      2  C   UNL     1      -3.496   2.154  -4.773  1.00  0.00    -0.077 C 
ATOM      3  C   UNL     1      -2.577   1.689  -3.911  1.00  0.00    -0.027 C 
ATOM      4  C   UNL     1      -1.651   2.657  -3.226  1.00  0.00     0.035 C 
ATOM      5  C   UNL     1      -1.083   3.673  -4.246  1.00  0.00     0.018 C 
ATOM      6  C   UNL     1      -2.152   4.215  -5.251  1.00  0.00     0.013 C 
ATOM      7  C   UNL     1      -3.564   3.643  -5.022  1.00  0.00     0.031 C 
ENDROOT
BRANCH   5   8
ATOM      8  C   UNL     1      -0.366   4.804  -3.523  1.00  0.00    -0.077 C 
ATOM      9  C   UNL     1       0.725   4.555  -2.782  1.00  0.00     0.008 C 
ATOM     10  C   UNL     1      -0.883   6.219  -3.604  1.00  0.00     0.039 C 
ENDBRANCH   5   8
TORSDOF 1
ENDMDL
MODEL 8
REMARK VINA RESULT:    -3.573      1.166      4.816
REMARK INTER + INTRA:          -3.941
REMARK INTER:                  -3.783
REMARK INTRA:                  -0.158
REMARK UNBOUND:                -0.160
REMARK SMILES C=C(C)[C@H]1CC=C(C)CC1
REMARK SMILES IDX 8 1 7 2 6 3 5 4 4 5 10 6 9 7 2 8 1 9 3 10
REMARK H PARENT
REMARK Flexibility Score: inf
ROOT
ATOM      1  C   UNL     1      -0.276  -3.371  -4.754  1.00  0.00     0.039 C 
ATOM      2  C   UNL     1      -1.465  -3.468  -3.839  1.00  0.00    -0.077 C 
ATOM      3  C   UNL     1      -1.742  -4.623  -3.212  1.00  0.00    -0.027 C 
ATOM      4  C   UNL     1      -2.907  -4.687  -2.263  1.00  0.00     0.035 C 
ATOM      5  C   UNL     1      -2.903  -3.459  -1.321  1.00  0.00     0.018 C 
ATOM      6  C   UNL     1      -2.581  -2.113  -2.049  1.00  0.00     0.013 C 
ATOM      7  C   UNL     1      -2.343  -2.269  -3.563  1.00  0.00     0.031 C 
ENDROOT
BRANCH   5   8
ATOM      8  C   UNL     1      -4.211  -3.381  -0.548  1.00  0.00    -0.077 C 
ATOM      9  C   UNL     1      -4.861  -2.213  -0.427  1.00  0.00     0.008 C 
ATOM     10  C   UNL     1      -4.787  -4.606   0.119  1.00  0.00     0.039 C 
ENDBRANCH   5   8
TORSDOF 1
ENDMDL
MODEL 9
REMARK VINA RESULT:    -3.572      7.349      9.118
REMARK INTER + INTRA:          -3.940
REMARK INTER:                  -3.777
REMARK INTRA:                  -0.163
REMARK UNBOUND:                -0.160
REMARK SMILES C=C(C)[C@H]1CC=C(C)CC1
REMARK SMILES IDX 8 1 7 2 6 3 5 4 4 5 10 6 9 7 2 8 1 9 3 10
REMARK H PARENT
REMARK Flexibility Score: inf
ROOT
ATOM      1  C   UNL     1      -3.970   2.401  -4.976  1.00  0.00     0.039 C 
ATOM      2  C   UNL     1      -2.647   3.033  -4.646  1.00  0.00    -0.077 C 
ATOM      3  C   UNL     1      -2.394   4.301  -5.011  1.00  0.00    -0.027 C 
ATOM      4  C   UNL     1      -1.083   4.931  -4.630  1.00  0.00     0.035 C 
ATOM      5  C   UNL     1      -0.757   4.640  -3.145  1.00  0.00     0.018 C 
ATOM      6  C   UNL     1      -1.050   3.163  -2.718  1.00  0.00     0.013 C 
ATOM      7  C   UNL     1      -1.595   2.285  -3.860  1.00  0.00     0.031 C 
ENDROOT
BRANCH   5   8
ATOM      8  C   UNL     1       0.677   5.041  -2.829  1.00  0.00    -0.077 C 
ATOM      9  C   UNL     1       1.209   6.147  -3.373  1.00  0.00     0.008 C 
ATOM     10  C   UNL     1       1.534   4.191  -1.925  1.00  0.00     0.039 C 
ENDBRANCH   5   8
TORSDOF 1
ENDMDL
