MODEL 1
REMARK VINA RESULT:    -4.089      0.000      0.000
REMARK INTER + INTRA:          -5.503
REMARK INTER:                  -5.284
REMARK INTRA:                  -0.218
REMARK UNBOUND:                -0.218
REMARK SMILES CCCCCCC(=O)[O-]
REMARK SMILES IDX 5 1 6 2 7 3 8 4 9 5 4 6 3 7 2 8 1 9
REMARK H PARENT
REMARK Flexibility Score: inf
ROOT
ATOM      1  C   UNL     1      11.327  29.756  59.637  1.00  0.00     0.006 C 
ENDROOT
BRANCH   1   2
ATOM      2  C   UNL     1      11.775  28.435  60.276  1.00  0.00     0.053 C 
BRANCH   2   3
ATOM      3  C   UNL     1      12.629  28.663  61.485  1.00  0.00     0.041 C 
ATOM      4  O   UNL     1      13.092  27.686  62.129  1.00  0.00    -0.550 OA
ATOM      5  O   UNL     1      12.887  29.957  61.920  1.00  0.00    -0.550 OA
ENDBRANCH   2   3
ENDBRANCH   1   2
BRANCH   1   6
ATOM      6  C   UNL     1       9.798  29.843  59.495  1.00  0.00     0.000 C 
BRANCH   6   7
ATOM      7  C   UNL     1       9.062  28.826  60.382  1.00  0.00    -0.000 C 
BRANCH   7   8
ATOM      8  C   UNL     1       8.452  29.467  61.637  1.00  0.00    -0.003 C 
ATOM      9  C   UNL     1       7.194  30.261  61.292  1.00  0.00     0.004 C 
ENDBRANCH   7   8
ENDBRANCH   6   7
ENDBRANCH   1   6
TORSDOF 5
ENDMDL
MODEL 2
REMARK VINA RESULT:    -3.972      2.743      5.377
REMARK INTER + INTRA:          -5.352
REMARK INTER:                  -5.204
REMARK INTRA:                  -0.148
REMARK UNBOUND:                -0.218
REMARK SMILES CCCCCCC(=O)[O-]
REMARK SMILES IDX 5 1 6 2 7 3 8 4 9 5 4 6 3 7 2 8 1 9
REMARK H PARENT
REMARK Flexibility Score: inf
ROOT
ATOM      1  C   UNL     1      12.945  28.524  61.823  1.00  0.00     0.006 C 
ENDROOT
BRANCH   1   2
ATOM      2  C   UNL     1      12.082  28.765  60.577  1.00  0.00     0.053 C 
BRANCH   2   3
ATOM      3  C   UNL     1      10.810  29.482  60.911  1.00  0.00     0.041 C 
ATOM      4  O   UNL     1      10.004  29.803  59.999  1.00  0.00    -0.550 OA
ATOM      5  O   UNL     1      10.529  29.824  62.228  1.00  0.00    -0.550 OA
ENDBRANCH   2   3
ENDBRANCH   1   2
BRANCH   1   6
ATOM      6  C   UNL     1      14.023  29.608  62.001  1.00  0.00     0.000 C 
BRANCH   6   7
ATOM      7  C   UNL     1      15.407  29.019  62.317  1.00  0.00    -0.000 C 
BRANCH   7   8
ATOM      8  C   UNL     1      15.645  28.842  63.823  1.00  0.00    -0.003 C 
ATOM      9  C   UNL     1      16.216  27.460  64.131  1.00  0.00     0.004 C 
ENDBRANCH   7   8
ENDBRANCH   6   7
ENDBRANCH   1   6
TORSDOF 5
ENDMDL
MODEL 3
REMARK VINA RESULT:    -3.971      3.373      4.909
REMARK INTER + INTRA:          -5.350
REMARK INTER:                  -4.956
REMARK INTRA:                  -0.394
REMARK UNBOUND:                -0.218
REMARK SMILES CCCCCCC(=O)[O-]
REMARK SMILES IDX 5 1 6 2 7 3 8 4 9 5 4 6 3 7 2 8 1 9
REMARK H PARENT
REMARK Flexibility Score: inf
ROOT
ATOM      1  C   UNL     1      16.171  29.273  62.078  1.00  0.00     0.006 C 
ENDROOT
BRANCH   1   2
ATOM      2  C   UNL     1      15.887  29.145  63.581  1.00  0.00     0.053 C 
BRANCH   2   3
ATOM      3  C   UNL     1      15.782  27.713  64.007  1.00  0.00     0.041 C 
ATOM      4  O   UNL     1      16.821  27.039  64.229  1.00  0.00    -0.550 OA
ATOM      5  O   UNL     1      14.534  27.114  64.130  1.00  0.00    -0.550 OA
ENDBRANCH   2   3
ENDBRANCH   1   2
BRANCH   1   6
ATOM      6  C   UNL     1      14.934  29.742  61.292  1.00  0.00     0.000 C 
BRANCH   6   7
ATOM      7  C   UNL     1      13.846  30.336  62.200  1.00  0.00    -0.000 C 
BRANCH   7   8
ATOM      8  C   UNL     1      12.462  29.720  61.949  1.00  0.00    -0.003 C 
ATOM      9  C   UNL     1      12.584  28.301  61.399  1.00  0.00     0.004 C 
ENDBRANCH   7   8
ENDBRANCH   6   7
ENDBRANCH   1   6
TORSDOF 5
ENDMDL
MODEL 4
REMARK VINA RESULT:    -3.967      3.021      5.692
REMARK INTER + INTRA:          -5.345
REMARK INTER:                  -5.101
REMARK INTRA:                  -0.244
REMARK UNBOUND:                -0.218
REMARK SMILES CCCCCCC(=O)[O-]
REMARK SMILES IDX 5 1 6 2 7 3 8 4 9 5 4 6 3 7 2 8 1 9
REMARK H PARENT
REMARK Flexibility Score: inf
ROOT
ATOM      1  C   UNL     1      14.174  30.038  61.696  1.00  0.00     0.006 C 
ENDROOT
BRANCH   1   2
ATOM      2  C   UNL     1      13.121  28.929  61.818  1.00  0.00     0.053 C 
BRANCH   2   3
ATOM      3  C   UNL     1      11.771  29.390  61.360  1.00  0.00     0.041 C 
ATOM      4  O   UNL     1      11.511  29.467  60.131  1.00  0.00    -0.550 OA
ATOM      5  O   UNL     1      10.812  29.764  62.292  1.00  0.00    -0.550 OA
ENDBRANCH   2   3
ENDBRANCH   1   2
BRANCH   1   6
ATOM      6  C   UNL     1      15.604  29.475  61.612  1.00  0.00     0.000 C 
BRANCH   6   7
ATOM      7  C   UNL     1      16.465  29.866  62.823  1.00  0.00    -0.000 C 
BRANCH   7   8
ATOM      8  C   UNL     1      16.038  29.148  64.111  1.00  0.00    -0.003 C 
ATOM      9  C   UNL     1      16.207  27.637  63.980  1.00  0.00     0.004 C 
ENDBRANCH   7   8
ENDBRANCH   6   7
ENDBRANCH   1   6
TORSDOF 5
ENDMDL
MODEL 5
REMARK VINA RESULT:    -3.955      3.063      5.894
REMARK INTER + INTRA:          -5.329
REMARK INTER:                  -5.171
REMARK INTRA:                  -0.158
REMARK UNBOUND:                -0.218
REMARK SMILES CCCCCCC(=O)[O-]
REMARK SMILES IDX 5 1 6 2 7 3 8 4 9 5 4 6 3 7 2 8 1 9
REMARK H PARENT
REMARK Flexibility Score: inf
ROOT
ATOM      1  C   UNL     1      14.045  29.014  62.270  1.00  0.00     0.006 C 
ENDROOT
BRANCH   1   2
ATOM      2  C   UNL     1      12.734  28.348  61.830  1.00  0.00     0.053 C 
BRANCH   2   3
ATOM      3  C   UNL     1      11.734  29.353  61.345  1.00  0.00     0.041 C 
ATOM      4  O   UNL     1      10.888  29.839  62.140  1.00  0.00    -0.550 OA
ATOM      5  O   UNL     1      11.718  29.728  60.008  1.00  0.00    -0.550 OA
ENDBRANCH   2   3
ENDBRANCH   1   2
BRANCH   1   6
ATOM      6  C   UNL     1      14.840  28.137  63.253  1.00  0.00     0.000 C 
BRANCH   6   7
ATOM      7  C   UNL     1      16.138  28.810  63.728  1.00  0.00    -0.000 C 
BRANCH   7   8
ATOM      8  C   UNL     1      16.441  30.113  62.975  1.00  0.00    -0.003 C 
ATOM      9  C   UNL     1      17.596  29.926  61.995  1.00  0.00     0.004 C 
ENDBRANCH   7   8
ENDBRANCH   6   7
ENDBRANCH   1   6
TORSDOF 5
ENDMDL
MODEL 6
REMARK VINA RESULT:    -3.860      1.745      2.535
REMARK INTER + INTRA:          -5.206
REMARK INTER:                  -5.016
REMARK INTRA:                  -0.190
REMARK UNBOUND:                -0.218
REMARK SMILES CCCCCCC(=O)[O-]
REMARK SMILES IDX 5 1 6 2 7 3 8 4 9 5 4 6 3 7 2 8 1 9
REMARK H PARENT
REMARK Flexibility Score: inf
ROOT
ATOM      1  C   UNL     1      12.471  29.270  61.347  1.00  0.00     0.006 C 
ENDROOT
BRANCH   1   2
ATOM      2  C   UNL     1      13.209  28.208  62.173  1.00  0.00     0.053 C 
BRANCH   2   3
ATOM      3  C   UNL     1      14.552  28.690  62.628  1.00  0.00     0.041 C 
ATOM      4  O   UNL     1      15.292  27.944  63.321  1.00  0.00    -0.550 OA
ATOM      5  O   UNL     1      14.972  29.976  62.314  1.00  0.00    -0.550 OA
ENDBRANCH   2   3
ENDBRANCH   1   2
BRANCH   1   6
ATOM      6  C   UNL     1      11.139  29.687  61.995  1.00  0.00     0.000 C 
BRANCH   6   7
ATOM      7  C   UNL     1       9.954  29.599  61.020  1.00  0.00    -0.000 C 
BRANCH   7   8
ATOM      8  C   UNL     1      10.376  29.786  59.556  1.00  0.00    -0.003 C 
ATOM      9  C   UNL     1       9.454  29.015  58.615  1.00  0.00     0.004 C 
ENDBRANCH   7   8
ENDBRANCH   6   7
ENDBRANCH   1   6
TORSDOF 5
ENDMDL
MODEL 7
REMARK VINA RESULT:    -3.855      1.142      1.937
REMARK INTER + INTRA:          -5.200
REMARK INTER:                  -4.994
REMARK INTRA:                  -0.206
REMARK UNBOUND:                -0.218
REMARK SMILES CCCCCCC(=O)[O-]
REMARK SMILES IDX 5 1 6 2 7 3 8 4 9 5 4 6 3 7 2 8 1 9
REMARK H PARENT
REMARK Flexibility Score: inf
ROOT
ATOM      1  C   UNL     1      11.701  29.411  61.466  1.00  0.00     0.006 C 
ENDROOT
BRANCH   1   2
ATOM      2  C   UNL     1      12.809  28.389  61.750  1.00  0.00     0.053 C 
BRANCH   2   3
ATOM      3  C   UNL     1      14.082  29.052  62.179  1.00  0.00     0.041 C 
ATOM      4  O   UNL     1      14.233  30.293  62.026  1.00  0.00    -0.550 OA
ATOM      5  O   UNL     1      15.113  28.295  62.720  1.00  0.00    -0.550 OA
ENDBRANCH   2   3
ENDBRANCH   1   2
BRANCH   1   6
ATOM      6  C   UNL     1      11.312  29.447  59.977  1.00  0.00     0.000 C 
BRANCH   6   7
ATOM      7  C   UNL     1       9.861  29.904  59.756  1.00  0.00    -0.000 C 
BRANCH   7   8
ATOM      8  C   UNL     1       8.839  28.969  60.417  1.00  0.00    -0.003 C 
ATOM      9  C   UNL     1       7.996  29.717  61.446  1.00  0.00     0.004 C 
ENDBRANCH   7   8
ENDBRANCH   6   7
ENDBRANCH   1   6
TORSDOF 5
ENDMDL
MODEL 8
REMARK VINA RESULT:    -3.817      2.601      4.604
REMARK INTER + INTRA:          -5.151
REMARK INTER:                  -4.991
REMARK INTRA:                  -0.161
REMARK UNBOUND:                -0.218
REMARK SMILES CCCCCCC(=O)[O-]
REMARK SMILES IDX 5 1 6 2 7 3 8 4 9 5 4 6 3 7 2 8 1 9
REMARK H PARENT
REMARK Flexibility Score: inf
ROOT
ATOM      1  C   UNL     1      10.526  29.669  59.995  1.00  0.00     0.006 C 
ENDROOT
BRANCH   1   2
ATOM      2  C   UNL     1       9.162  28.987  60.168  1.00  0.00     0.053 C 
BRANCH   2   3
ATOM      3  C   UNL     1       8.382  29.583  61.299  1.00  0.00     0.041 C 
ATOM      4  O   UNL     1       8.795  29.472  62.483  1.00  0.00    -0.550 OA
ATOM      5  O   UNL     1       7.180  30.233  61.048  1.00  0.00    -0.550 OA
ENDBRANCH   2   3
ENDBRANCH   1   2
BRANCH   1   6
ATOM      6  C   UNL     1      11.674  28.829  60.582  1.00  0.00     0.000 C 
BRANCH   6   7
ATOM      7  C   UNL     1      12.441  29.567  61.690  1.00  0.00    -0.000 C 
BRANCH   7   8
ATOM      8  C   UNL     1      13.725  28.839  62.109  1.00  0.00    -0.003 C 
ATOM      9  C   UNL     1      14.965  29.618  61.675  1.00  0.00     0.004 C 
ENDBRANCH   7   8
ENDBRANCH   6   7
ENDBRANCH   1   6
TORSDOF 5
ENDMDL
MODEL 9
REMARK VINA RESULT:    -3.775      3.085      5.929
REMARK INTER + INTRA:          -5.096
REMARK INTER:                  -4.930
REMARK INTRA:                  -0.166
REMARK UNBOUND:                -0.218
REMARK SMILES CCCCCCC(=O)[O-]
REMARK SMILES IDX 5 1 6 2 7 3 8 4 9 5 4 6 3 7 2 8 1 9
REMARK H PARENT
REMARK Flexibility Score: inf
ROOT
ATOM      1  C   UNL     1      13.910  29.030  62.199  1.00  0.00     0.006 C 
ENDROOT
BRANCH   1   2
ATOM      2  C   UNL     1      12.650  28.380  61.612  1.00  0.00     0.053 C 
BRANCH   2   3
ATOM      3  C   UNL     1      12.252  29.011  60.314  1.00  0.00     0.041 C 
ATOM      4  O   UNL     1      13.060  29.749  59.692  1.00  0.00    -0.550 OA
ATOM      5  O   UNL     1      10.975  28.810  59.806  1.00  0.00    -0.550 OA
ENDBRANCH   2   3
ENDBRANCH   1   2
BRANCH   1   6
ATOM      6  C   UNL     1      14.651  28.091  63.167  1.00  0.00     0.000 C 
BRANCH   6   7
ATOM      7  C   UNL     1      16.083  28.561  63.467  1.00  0.00    -0.000 C 
BRANCH   7   8
ATOM      8  C   UNL     1      16.948  28.668  62.203  1.00  0.00    -0.003 C 
ATOM      9  C   UNL     1      17.492  30.084  62.028  1.00  0.00     0.004 C 
ENDBRANCH   7   8
ENDBRANCH   6   7
ENDBRANCH   1   6
TORSDOF 5
ENDMDL
