MODEL 1
REMARK VINA RESULT:    -7.087      0.000      0.000
REMARK INTER + INTRA:         -14.693
REMARK INTER:                 -11.645
REMARK INTRA:                  -3.048
REMARK UNBOUND:                -3.048
REMARK SMILES C[C@H]1O[C@@H](OC[C@@H]2O[C@H](Oc3c(-c4ccc(O)c(O)c4)oc4cc(O)cc(O)c4c3=O)[C@H](O)[C@H](O)[C@@H]2O)[C@H](O)[C@H](O)[C@@H]1O
REMARK SMILES IDX 7 1 36 2 34 3 32 4 9 5 8 6 6 7 5 8 4 9 1 10 2 11 42 12 3 13
REMARK SMILES IDX 40 14 38 15 43 16 41 18 39 20 37 22 35 24 10 26 11 27 12 28
REMARK SMILES IDX 30 29 21 30 29 31 31 32 22 33 27 34 23 35 26 36 24 37 13 38
REMARK SMILES IDX 20 39 14 40 18 41 15 42 16 43 19 44 17 46 28 48 25 50 33 52
REMARK H PARENT 43 17 41 19 39 21 37 23 35 25 19 45 17 47 28 49 25 51 33 53
REMARK Flexibility Score: inf
ROOT
ATOM      1  C   UNL     1      -0.984  47.742  82.124  1.00  0.00     0.180 C 
ATOM      2  C   UNL     1      -1.772  48.000  83.428  1.00  0.00     0.177 C 
ATOM      3  C   UNL     1      -0.819  48.088  84.656  1.00  0.00     0.180 C 
ATOM      4  C   UNL     1       0.637  47.696  84.287  1.00  0.00     0.214 C 
ATOM      5  C   UNL     1       0.658  46.440  83.339  1.00  0.00     0.339 C 
ATOM      6  O   UNL     1      -0.192  46.555  82.187  1.00  0.00    -0.332 OA
ENDROOT
BRANCH   1   7
ATOM      7  C   UNL     1      -1.938  47.649  80.916  1.00  0.00     0.198 C 
BRANCH   7   8
ATOM      8  O   UNL     1      -2.301  46.291  80.729  1.00  0.00    -0.347 OA
BRANCH   8   9
ATOM      9  C   UNL     1      -2.625  45.970  79.386  1.00  0.00     0.281 C 
ATOM     10  C   UNL     1      -2.413  42.837  77.479  1.00  0.00     0.041 C 
ATOM     11  C   UNL     1      -2.598  44.341  77.706  1.00  0.00     0.150 C 
ATOM     12  C   UNL     1      -1.765  45.170  76.676  1.00  0.00     0.174 C 
ATOM     13  O   UNL     1      -2.218  44.642  79.039  1.00  0.00    -0.344 OA
ATOM     14  C   UNL     1      -1.129  46.408  77.346  1.00  0.00     0.179 C 
ATOM     15  C   UNL     1      -2.061  47.044  78.410  1.00  0.00     0.202 C 
BRANCH  12  16
ATOM     16  O   UNL     1      -2.576  45.553  75.596  1.00  0.00    -0.388 OA
ATOM     17  H   UNL     1      -2.922  46.460  75.811  1.00  0.00     0.211 HD
ENDBRANCH  12  16
BRANCH  14  18
ATOM     18  O   UNL     1      -0.669  47.342  76.399  1.00  0.00    -0.387 OA
ATOM     19  H   UNL     1      -1.411  47.961  76.202  1.00  0.00     0.211 HD
ENDBRANCH  14  18
BRANCH  15  20
ATOM     20  O   UNL     1      -3.102  47.789  77.818  1.00  0.00    -0.385 OA
ATOM     21  H   UNL     1      -2.758  48.706  77.637  1.00  0.00     0.211 HD
ENDBRANCH  15  20
ENDBRANCH   8   9
ENDBRANCH   7   8
ENDBRANCH   1   7
BRANCH   2  22
ATOM     22  O   UNL     1      -2.735  46.977  83.609  1.00  0.00    -0.387 OA
ATOM     23  H   UNL     1      -2.560  46.568  84.512  1.00  0.00     0.211 HD
ENDBRANCH   2  22
BRANCH   3  24
ATOM     24  O   UNL     1      -1.311  47.344  85.760  1.00  0.00    -0.387 OA
ATOM     25  H   UNL     1      -0.656  47.463  86.505  1.00  0.00     0.211 HD
ENDBRANCH   3  24
BRANCH   5  26
ATOM     26  O   UNL     1       0.283  45.231  84.020  1.00  0.00    -0.454 OA
BRANCH  26  27
ATOM     27  C   UNL     1      -0.095  43.993  83.452  1.00  0.00     0.214 A 
ATOM     28  C   UNL     1       0.907  43.048  83.136  1.00  0.00     0.180 A 
ATOM     29  C   UNL     1      -1.424  43.647  83.157  1.00  0.00     0.239 A 
ATOM     30  O   UNL     1       0.635  42.031  82.318  1.00  0.00    -0.452 OA
ATOM     31  C   UNL     1      -1.681  42.586  82.273  1.00  0.00     0.111 A 
ATOM     32  O   UNL     1      -2.369  44.295  83.681  1.00  0.00    -0.285 OA
ATOM     33  C   UNL     1      -0.579  41.813  81.829  1.00  0.00     0.146 A 
ATOM     34  C   UNL     1      -2.979  42.310  81.757  1.00  0.00     0.134 A 
ATOM     35  C   UNL     1      -0.766  40.803  80.885  1.00  0.00     0.094 A 
ATOM     36  C   UNL     1      -3.135  41.296  80.805  1.00  0.00     0.093 A 
ATOM     37  C   UNL     1      -2.042  40.538  80.371  1.00  0.00     0.123 A 
BRANCH  28  38
ATOM     38  C   UNL     1       2.227  43.093  83.786  1.00  0.00     0.025 A 
ATOM     39  C   UNL     1       2.356  42.922  85.165  1.00  0.00     0.062 A 
ATOM     40  C   UNL     1       3.349  43.387  83.009  1.00  0.00     0.016 A 
ATOM     41  C   UNL     1       3.623  42.990  85.761  1.00  0.00     0.158 A 
ATOM     42  C   UNL     1       4.616  43.476  83.593  1.00  0.00     0.051 A 
ATOM     43  C   UNL     1       4.767  43.277  84.967  1.00  0.00     0.157 A 
BRANCH  41  44
ATOM     44  O   UNL     1       3.708  42.763  87.133  1.00  0.00    -0.504 OA
ATOM     45  H   UNL     1       4.000  43.456  87.805  1.00  0.00     0.293 HD
ENDBRANCH  41  44
BRANCH  43  46
ATOM     46  O   UNL     1       6.064  43.400  85.502  1.00  0.00    -0.504 OA
ATOM     47  H   UNL     1       6.270  43.530  86.477  1.00  0.00     0.293 HD
ENDBRANCH  43  46
ENDBRANCH  28  38
BRANCH  34  48
ATOM     48  O   UNL     1      -4.098  43.038  82.176  1.00  0.00    -0.507 OA
ATOM     49  H   UNL     1      -4.747  43.441  81.525  1.00  0.00     0.293 HD
ENDBRANCH  34  48
BRANCH  37  50
ATOM     50  O   UNL     1      -2.229  39.559  79.395  1.00  0.00    -0.508 OA
ATOM     51  H   UNL     1      -1.461  38.999  79.044  1.00  0.00     0.293 HD
ENDBRANCH  37  50
ENDBRANCH  26  27
ENDBRANCH   5  26
BRANCH   4  52
ATOM     52  O   UNL     1       1.477  47.555  85.399  1.00  0.00    -0.384 OA
ATOM     53  H   UNL     1       1.719  46.585  85.515  1.00  0.00     0.211 HD
ENDBRANCH   4  52
TORSDOF 16
ENDMDL
MODEL 2
REMARK VINA RESULT:    -6.912      2.328      3.423
REMARK INTER + INTRA:         -14.404
REMARK INTER:                 -12.110
REMARK INTRA:                  -2.294
REMARK UNBOUND:                -3.048
REMARK SMILES C[C@H]1O[C@@H](OC[C@@H]2O[C@H](Oc3c(-c4ccc(O)c(O)c4)oc4cc(O)cc(O)c4c3=O)[C@H](O)[C@H](O)[C@@H]2O)[C@H](O)[C@H](O)[C@@H]1O
REMARK SMILES IDX 7 1 36 2 34 3 32 4 9 5 8 6 6 7 5 8 4 9 1 10 2 11 42 12 3 13
REMARK SMILES IDX 40 14 38 15 43 16 41 18 39 20 37 22 35 24 10 26 11 27 12 28
REMARK SMILES IDX 30 29 21 30 29 31 31 32 22 33 27 34 23 35 26 36 24 37 13 38
REMARK SMILES IDX 20 39 14 40 18 41 15 42 16 43 19 44 17 46 28 48 25 50 33 52
REMARK H PARENT 43 17 41 19 39 21 37 23 35 25 19 45 17 47 28 49 25 51 33 53
REMARK Flexibility Score: inf
ROOT
ATOM      1  C   UNL     1       0.097  44.532  81.457  1.00  0.00     0.180 C 
ATOM      2  C   UNL     1      -1.014  44.560  82.530  1.00  0.00     0.177 C 
ATOM      3  C   UNL     1      -0.511  45.220  83.847  1.00  0.00     0.180 C 
ATOM      4  C   UNL     1       1.017  45.492  83.810  1.00  0.00     0.214 C 
ATOM      5  C   UNL     1       1.788  44.278  83.172  1.00  0.00     0.339 C 
ATOM      6  O   UNL     1       1.273  43.853  81.901  1.00  0.00    -0.332 OA
ENDROOT
BRANCH   1   7
ATOM      7  C   UNL     1      -0.409  43.870  80.159  1.00  0.00     0.198 C 
BRANCH   7   8
ATOM      8  O   UNL     1      -1.806  44.093  80.053  1.00  0.00    -0.347 OA
BRANCH   8   9
ATOM      9  C   UNL     1      -2.141  45.220  79.260  1.00  0.00     0.281 C 
ATOM     10  C   UNL     1      -0.305  47.027  76.640  1.00  0.00     0.041 C 
ATOM     11  C   UNL     1      -1.417  46.770  77.663  1.00  0.00     0.150 C 
ATOM     12  C   UNL     1      -1.694  48.045  78.524  1.00  0.00     0.174 C 
ATOM     13  O   UNL     1      -1.032  45.673  78.475  1.00  0.00    -0.344 OA
ATOM     14  C   UNL     1      -1.956  47.671  79.999  1.00  0.00     0.179 C 
ATOM     15  C   UNL     1      -2.756  46.349  80.137  1.00  0.00     0.202 C 
BRANCH  12  16
ATOM     16  O   UNL     1      -2.780  48.759  77.993  1.00  0.00    -0.388 OA
ATOM     17  H   UNL     1      -2.795  49.637  78.459  1.00  0.00     0.211 HD
ENDBRANCH  12  16
BRANCH  14  18
ATOM     18  O   UNL     1      -2.536  48.734  80.716  1.00  0.00    -0.387 OA
ATOM     19  H   UNL     1      -2.550  48.481  81.669  1.00  0.00     0.211 HD
ENDBRANCH  14  18
BRANCH  15  20
ATOM     20  O   UNL     1      -4.123  46.531  79.847  1.00  0.00    -0.385 OA
ATOM     21  H   UNL     1      -4.268  46.294  78.891  1.00  0.00     0.211 HD
ENDBRANCH  15  20
ENDBRANCH   8   9
ENDBRANCH   7   8
ENDBRANCH   1   7
BRANCH   2  22
ATOM     22  O   UNL     1      -1.474  43.242  82.770  1.00  0.00    -0.387 OA
ATOM     23  H   UNL     1      -0.752  42.772  83.290  1.00  0.00     0.211 HD
ENDBRANCH   2  22
BRANCH   3  24
ATOM     24  O   UNL     1      -0.896  44.474  84.991  1.00  0.00    -0.387 OA
ATOM     25  H   UNL     1      -0.674  45.033  85.790  1.00  0.00     0.211 HD
ENDBRANCH   3  24
BRANCH   5  26
ATOM     26  O   UNL     1       1.802  43.123  84.028  1.00  0.00    -0.454 OA
BRANCH  26  27
ATOM     27  C   UNL     1       2.021  41.774  83.667  1.00  0.00     0.214 A 
ATOM     28  C   UNL     1       3.346  41.321  83.477  1.00  0.00     0.180 A 
ATOM     29  C   UNL     1       0.987  40.847  83.461  1.00  0.00     0.239 A 
ATOM     30  O   UNL     1       3.577  40.177  82.833  1.00  0.00    -0.452 OA
ATOM     31  C   UNL     1       1.253  39.660  82.758  1.00  0.00     0.111 A 
ATOM     32  O   UNL     1      -0.168  41.092  83.901  1.00  0.00    -0.285 OA
ATOM     33  C   UNL     1       2.599  39.384  82.413  1.00  0.00     0.146 A 
ATOM     34  C   UNL     1       0.226  38.776  82.322  1.00  0.00     0.134 A 
ATOM     35  C   UNL     1       2.909  38.264  81.640  1.00  0.00     0.094 A 
ATOM     36  C   UNL     1       0.566  37.665  81.542  1.00  0.00     0.093 A 
ATOM     37  C   UNL     1       1.897  37.399  81.204  1.00  0.00     0.123 A 
BRANCH  28  38
ATOM     38  C   UNL     1       4.487  42.029  84.081  1.00  0.00     0.025 A 
ATOM     39  C   UNL     1       4.803  41.864  85.430  1.00  0.00     0.062 A 
ATOM     40  C   UNL     1       5.206  42.934  83.298  1.00  0.00     0.016 A 
ATOM     41  C   UNL     1       5.882  42.567  85.984  1.00  0.00     0.158 A 
ATOM     42  C   UNL     1       6.273  43.655  83.842  1.00  0.00     0.051 A 
ATOM     43  C   UNL     1       6.623  43.478  85.183  1.00  0.00     0.157 A 
BRANCH  41  44
ATOM     44  O   UNL     1       6.191  42.332  87.322  1.00  0.00    -0.504 OA
ATOM     45  H   UNL     1       7.122  42.147  87.664  1.00  0.00     0.293 HD
ENDBRANCH  41  44
BRANCH  43  46
ATOM     46  O   UNL     1       7.692  44.248  85.681  1.00  0.00    -0.504 OA
ATOM     47  H   UNL     1       8.560  44.402  85.197  1.00  0.00     0.293 HD
ENDBRANCH  43  46
ENDBRANCH  28  38
BRANCH  34  48
ATOM     48  O   UNL     1      -1.116  39.001  82.650  1.00  0.00    -0.507 OA
ATOM     49  H   UNL     1      -1.445  39.893  82.972  1.00  0.00     0.293 HD
ENDBRANCH  34  48
BRANCH  37  50
ATOM     50  O   UNL     1       2.196  36.302  80.396  1.00  0.00    -0.508 OA
ATOM     51  H   UNL     1       2.712  36.399  79.529  1.00  0.00     0.293 HD
ENDBRANCH  37  50
ENDBRANCH  26  27
ENDBRANCH   5  26
BRANCH   4  52
ATOM     52  O   UNL     1       1.545  45.884  85.047  1.00  0.00    -0.384 OA
ATOM     53  H   UNL     1       2.185  46.649  84.912  1.00  0.00     0.211 HD
ENDBRANCH   4  52
TORSDOF 16
ENDMDL
MODEL 3
REMARK VINA RESULT:    -6.893      2.231      2.950
REMARK INTER + INTRA:         -14.374
REMARK INTER:                 -12.162
REMARK INTRA:                  -2.213
REMARK UNBOUND:                -3.048
REMARK SMILES C[C@H]1O[C@@H](OC[C@@H]2O[C@H](Oc3c(-c4ccc(O)c(O)c4)oc4cc(O)cc(O)c4c3=O)[C@H](O)[C@H](O)[C@@H]2O)[C@H](O)[C@H](O)[C@@H]1O
REMARK SMILES IDX 7 1 36 2 34 3 32 4 9 5 8 6 6 7 5 8 4 9 1 10 2 11 42 12 3 13
REMARK SMILES IDX 40 14 38 15 43 16 41 18 39 20 37 22 35 24 10 26 11 27 12 28
REMARK SMILES IDX 30 29 21 30 29 31 31 32 22 33 27 34 23 35 26 36 24 37 13 38
REMARK SMILES IDX 20 39 14 40 18 41 15 42 16 43 19 44 17 46 28 48 25 50 33 52
REMARK H PARENT 43 17 41 19 39 21 37 23 35 25 19 45 17 47 28 49 25 51 33 53
REMARK Flexibility Score: inf
ROOT
ATOM      1  C   UNL     1       0.028  44.789  81.471  1.00  0.00     0.180 C 
ATOM      2  C   UNL     1      -1.037  44.923  82.581  1.00  0.00     0.177 C 
ATOM      3  C   UNL     1      -0.416  45.481  83.896  1.00  0.00     0.180 C 
ATOM      4  C   UNL     1       1.132  45.565  83.813  1.00  0.00     0.214 C 
ATOM      5  C   UNL     1       1.728  44.284  83.121  1.00  0.00     0.339 C 
ATOM      6  O   UNL     1       1.125  43.960  81.858  1.00  0.00    -0.332 OA
ENDROOT
BRANCH   1   7
ATOM      7  C   UNL     1      -0.595  44.230  80.176  1.00  0.00     0.198 C 
BRANCH   7   8
ATOM      8  O   UNL     1      -1.935  44.685  80.086  1.00  0.00    -0.347 OA
BRANCH   8   9
ATOM      9  C   UNL     1      -2.424  44.748  78.755  1.00  0.00     0.281 C 
ATOM     10  C   UNL     1      -2.398  42.317  76.001  1.00  0.00     0.041 C 
ATOM     11  C   UNL     1      -2.582  43.678  76.680  1.00  0.00     0.150 C 
ATOM     12  C   UNL     1      -1.907  44.816  75.849  1.00  0.00     0.174 C 
ATOM     13  O   UNL     1      -2.038  43.603  77.988  1.00  0.00    -0.344 OA
ATOM     14  C   UNL     1      -1.215  45.842  76.773  1.00  0.00     0.179 C 
ATOM     15  C   UNL     1      -2.015  46.088  78.079  1.00  0.00     0.202 C 
BRANCH  12  16
ATOM     16  O   UNL     1      -2.860  45.448  75.033  1.00  0.00    -0.388 OA
ATOM     17  H   UNL     1      -3.723  44.981  75.194  1.00  0.00     0.211 HD
ENDBRANCH  12  16
BRANCH  14  18
ATOM     18  O   UNL     1      -0.902  47.035  76.095  1.00  0.00    -0.387 OA
ATOM     19  H   UNL     1      -0.690  46.803  75.161  1.00  0.00     0.211 HD
ENDBRANCH  14  18
BRANCH  15  20
ATOM     20  O   UNL     1      -3.138  46.911  77.860  1.00  0.00    -0.385 OA
ATOM     21  H   UNL     1      -3.072  47.282  76.938  1.00  0.00     0.211 HD
ENDBRANCH  15  20
ENDBRANCH   8   9
ENDBRANCH   7   8
ENDBRANCH   1   7
BRANCH   2  22
ATOM     22  O   UNL     1      -1.647  43.665  82.806  1.00  0.00    -0.387 OA
ATOM     23  H   UNL     1      -1.011  43.129  83.372  1.00  0.00     0.211 HD
ENDBRANCH   2  22
BRANCH   3  24
ATOM     24  O   UNL     1      -0.854  44.756  85.034  1.00  0.00    -0.387 OA
ATOM     25  H   UNL     1      -0.611  45.301  85.836  1.00  0.00     0.211 HD
ENDBRANCH   3  24
BRANCH   5  26
ATOM     26  O   UNL     1       1.627  43.113  83.949  1.00  0.00    -0.454 OA
BRANCH  26  27
ATOM     27  C   UNL     1       1.852  41.767  83.584  1.00  0.00     0.214 A 
ATOM     28  C   UNL     1       3.180  41.319  83.400  1.00  0.00     0.180 A 
ATOM     29  C   UNL     1       0.822  40.837  83.369  1.00  0.00     0.239 A 
ATOM     30  O   UNL     1       3.418  40.178  82.752  1.00  0.00    -0.452 OA
ATOM     31  C   UNL     1       1.096  39.654  82.662  1.00  0.00     0.111 A 
ATOM     32  O   UNL     1      -0.336  41.076  83.803  1.00  0.00    -0.285 OA
ATOM     33  C   UNL     1       2.445  39.384  82.324  1.00  0.00     0.146 A 
ATOM     34  C   UNL     1       0.075  38.768  82.218  1.00  0.00     0.134 A 
ATOM     35  C   UNL     1       2.764  38.267  81.549  1.00  0.00     0.094 A 
ATOM     36  C   UNL     1       0.423  37.661  81.435  1.00  0.00     0.093 A 
ATOM     37  C   UNL     1       1.757  37.401  81.103  1.00  0.00     0.123 A 
BRANCH  28  38
ATOM     38  C   UNL     1       4.315  42.029  84.012  1.00  0.00     0.025 A 
ATOM     39  C   UNL     1       4.640  41.840  85.356  1.00  0.00     0.062 A 
ATOM     40  C   UNL     1       5.019  42.959  83.244  1.00  0.00     0.016 A 
ATOM     41  C   UNL     1       5.713  42.545  85.919  1.00  0.00     0.158 A 
ATOM     42  C   UNL     1       6.079  43.681  83.799  1.00  0.00     0.051 A 
ATOM     43  C   UNL     1       6.438  43.482  85.134  1.00  0.00     0.157 A 
BRANCH  41  44
ATOM     44  O   UNL     1       6.033  42.286  87.251  1.00  0.00    -0.504 OA
ATOM     45  H   UNL     1       6.887  41.842  87.552  1.00  0.00     0.293 HD
ENDBRANCH  41  44
BRANCH  43  46
ATOM     46  O   UNL     1       7.501  44.254  85.642  1.00  0.00    -0.504 OA
ATOM     47  H   UNL     1       8.411  44.322  85.221  1.00  0.00     0.293 HD
ENDBRANCH  43  46
ENDBRANCH  28  38
BRANCH  34  48
ATOM     48  O   UNL     1      -1.269  38.987  82.539  1.00  0.00    -0.507 OA
ATOM     49  H   UNL     1      -1.834  39.654  82.046  1.00  0.00     0.293 HD
ENDBRANCH  34  48
BRANCH  37  50
ATOM     50  O   UNL     1       2.064  36.308  80.293  1.00  0.00    -0.508 OA
ATOM     51  H   UNL     1       1.595  35.415  80.396  1.00  0.00     0.293 HD
ENDBRANCH  37  50
ENDBRANCH  26  27
ENDBRANCH   5  26
BRANCH   4  52
ATOM     52  O   UNL     1       1.742  45.856  85.040  1.00  0.00    -0.384 OA
ATOM     53  H   UNL     1       1.154  45.535  85.791  1.00  0.00     0.211 HD
ENDBRANCH   4  52
TORSDOF 16
ENDMDL
MODEL 4
REMARK VINA RESULT:    -6.682      2.258      6.043
REMARK INTER + INTRA:         -14.028
REMARK INTER:                 -11.711
REMARK INTRA:                  -2.317
REMARK UNBOUND:                -3.048
REMARK SMILES C[C@H]1O[C@@H](OC[C@@H]2O[C@H](Oc3c(-c4ccc(O)c(O)c4)oc4cc(O)cc(O)c4c3=O)[C@H](O)[C@H](O)[C@@H]2O)[C@H](O)[C@H](O)[C@@H]1O
REMARK SMILES IDX 7 1 36 2 34 3 32 4 9 5 8 6 6 7 5 8 4 9 1 10 2 11 42 12 3 13
REMARK SMILES IDX 40 14 38 15 43 16 41 18 39 20 37 22 35 24 10 26 11 27 12 28
REMARK SMILES IDX 30 29 21 30 29 31 31 32 22 33 27 34 23 35 26 36 24 37 13 38
REMARK SMILES IDX 20 39 14 40 18 41 15 42 16 43 19 44 17 46 28 48 25 50 33 52
REMARK H PARENT 43 17 41 19 39 21 37 23 35 25 19 45 17 47 28 49 25 51 33 53
REMARK Flexibility Score: inf
ROOT
ATOM      1  C   UNL     1      -2.596  45.010  84.518  1.00  0.00     0.180 C 
ATOM      2  C   UNL     1      -3.843  44.184  84.134  1.00  0.00     0.177 C 
ATOM      3  C   UNL     1      -3.667  42.684  84.514  1.00  0.00     0.180 C 
ATOM      4  C   UNL     1      -2.221  42.375  84.990  1.00  0.00     0.214 C 
ATOM      5  C   UNL     1      -1.164  43.106  84.083  1.00  0.00     0.339 C 
ATOM      6  O   UNL     1      -1.400  44.512  83.915  1.00  0.00    -0.332 OA
ENDROOT
BRANCH   1   7
ATOM      7  C   UNL     1      -2.778  46.492  84.130  1.00  0.00     0.198 C 
BRANCH   7   8
ATOM      8  O   UNL     1      -1.554  47.171  84.353  1.00  0.00    -0.347 OA
BRANCH   8   9
ATOM      9  C   UNL     1      -1.717  48.464  84.915  1.00  0.00     0.281 C 
ATOM     10  C   UNL     1      -2.098  51.785  83.391  1.00  0.00     0.041 C 
ATOM     11  C   UNL     1      -1.872  50.763  84.510  1.00  0.00     0.150 C 
ATOM     12  C   UNL     1      -0.666  51.178  85.414  1.00  0.00     0.174 C 
ATOM     13  O   UNL     1      -1.660  49.492  83.920  1.00  0.00    -0.344 OA
ATOM     14  C   UNL     1       0.175  49.947  85.815  1.00  0.00     0.179 C 
ATOM     15  C   UNL     1      -0.703  48.694  86.073  1.00  0.00     0.202 C 
BRANCH  12  16
ATOM     16  O   UNL     1      -1.128  51.855  86.554  1.00  0.00    -0.388 OA
ATOM     17  H   UNL     1      -1.523  51.166  87.151  1.00  0.00     0.211 HD
ENDBRANCH  12  16
BRANCH  14  18
ATOM     18  O   UNL     1       1.046  50.229  86.884  1.00  0.00    -0.387 OA
ATOM     19  H   UNL     1       1.166  51.207  86.923  1.00  0.00     0.211 HD
ENDBRANCH  14  18
BRANCH  15  20
ATOM     20  O   UNL     1      -1.360  48.761  87.318  1.00  0.00    -0.385 OA
ATOM     21  H   UNL     1      -1.678  49.696  87.447  1.00  0.00     0.211 HD
ENDBRANCH  15  20
ENDBRANCH   8   9
ENDBRANCH   7   8
ENDBRANCH   1   7
BRANCH   2  22
ATOM     22  O   UNL     1      -4.097  44.326  82.748  1.00  0.00    -0.387 OA
ATOM     23  H   UNL     1      -5.095  44.279  82.628  1.00  0.00     0.211 HD
ENDBRANCH   2  22
BRANCH   3  24
ATOM     24  O   UNL     1      -4.084  41.822  83.467  1.00  0.00    -0.387 OA
ATOM     25  H   UNL     1      -4.357  42.404  82.702  1.00  0.00     0.211 HD
ENDBRANCH   3  24
BRANCH   5  26
ATOM     26  O   UNL     1      -1.078  42.534  82.767  1.00  0.00    -0.454 OA
BRANCH  26  27
ATOM     27  C   UNL     1      -0.877  43.202  81.538  1.00  0.00     0.214 A 
ATOM     28  C   UNL     1       0.425  43.627  81.192  1.00  0.00     0.180 A 
ATOM     29  C   UNL     1      -1.912  43.495  80.635  1.00  0.00     0.239 A 
ATOM     30  O   UNL     1       0.601  44.528  80.224  1.00  0.00    -0.452 OA
ATOM     31  C   UNL     1      -1.707  44.466  79.640  1.00  0.00     0.111 A 
ATOM     32  O   UNL     1      -3.014  42.891  80.730  1.00  0.00    -0.285 OA
ATOM     33  C   UNL     1      -0.404  45.005  79.501  1.00  0.00     0.146 A 
ATOM     34  C   UNL     1      -2.761  44.972  78.829  1.00  0.00     0.134 A 
ATOM     35  C   UNL     1      -0.163  46.032  78.588  1.00  0.00     0.094 A 
ATOM     36  C   UNL     1      -2.492  46.009  77.927  1.00  0.00     0.093 A 
ATOM     37  C   UNL     1      -1.203  46.537  77.796  1.00  0.00     0.123 A 
BRANCH  28  38
ATOM     38  C   UNL     1       1.615  43.009  81.800  1.00  0.00     0.025 A 
ATOM     39  C   UNL     1       1.973  41.694  81.501  1.00  0.00     0.062 A 
ATOM     40  C   UNL     1       2.340  43.735  82.747  1.00  0.00     0.016 A 
ATOM     41  C   UNL     1       3.099  41.123  82.111  1.00  0.00     0.158 A 
ATOM     42  C   UNL     1       3.453  43.171  83.376  1.00  0.00     0.051 A 
ATOM     43  C   UNL     1       3.845  41.867  83.065  1.00  0.00     0.157 A 
BRANCH  41  44
ATOM     44  O   UNL     1       3.448  39.825  81.743  1.00  0.00    -0.504 OA
ATOM     45  H   UNL     1       2.816  39.172  81.304  1.00  0.00     0.293 HD
ENDBRANCH  41  44
BRANCH  43  46
ATOM     46  O   UNL     1       4.962  41.345  83.746  1.00  0.00    -0.504 OA
ATOM     47  H   UNL     1       5.485  40.539  83.452  1.00  0.00     0.293 HD
ENDBRANCH  43  46
ENDBRANCH  28  38
BRANCH  34  48
ATOM     48  O   UNL     1      -4.061  44.462  78.921  1.00  0.00    -0.507 OA
ATOM     49  H   UNL     1      -4.306  43.743  79.577  1.00  0.00     0.293 HD
ENDBRANCH  34  48
BRANCH  37  50
ATOM     50  O   UNL     1      -0.979  47.592  76.913  1.00  0.00    -0.508 OA
ATOM     51  H   UNL     1      -1.683  48.300  76.733  1.00  0.00     0.293 HD
ENDBRANCH  37  50
ENDBRANCH  26  27
ENDBRANCH   5  26
BRANCH   4  52
ATOM     52  O   UNL     1      -1.962  41.006  85.136  1.00  0.00    -0.384 OA
ATOM     53  H   UNL     1      -2.811  40.529  85.388  1.00  0.00     0.211 HD
ENDBRANCH   4  52
TORSDOF 16
ENDMDL
MODEL 5
REMARK VINA RESULT:    -6.655      1.802      8.919
REMARK INTER + INTRA:         -13.982
REMARK INTER:                 -12.247
REMARK INTRA:                  -1.735
REMARK UNBOUND:                -3.048
REMARK SMILES C[C@H]1O[C@@H](OC[C@@H]2O[C@H](Oc3c(-c4ccc(O)c(O)c4)oc4cc(O)cc(O)c4c3=O)[C@H](O)[C@H](O)[C@@H]2O)[C@H](O)[C@H](O)[C@@H]1O
REMARK SMILES IDX 7 1 36 2 34 3 32 4 9 5 8 6 6 7 5 8 4 9 1 10 2 11 42 12 3 13
REMARK SMILES IDX 40 14 38 15 43 16 41 18 39 20 37 22 35 24 10 26 11 27 12 28
REMARK SMILES IDX 30 29 21 30 29 31 31 32 22 33 27 34 23 35 26 36 24 37 13 38
REMARK SMILES IDX 20 39 14 40 18 41 15 42 16 43 19 44 17 46 28 48 25 50 33 52
REMARK H PARENT 43 17 41 19 39 21 37 23 35 25 19 45 17 47 28 49 25 51 33 53
REMARK Flexibility Score: inf
ROOT
ATOM      1  C   UNL     1       1.032  42.198  83.131  1.00  0.00     0.180 C 
ATOM      2  C   UNL     1      -0.153  41.344  82.629  1.00  0.00     0.177 C 
ATOM      3  C   UNL     1      -0.457  41.625  81.128  1.00  0.00     0.180 C 
ATOM      4  C   UNL     1       0.368  42.824  80.586  1.00  0.00     0.214 C 
ATOM      5  C   UNL     1       0.407  43.997  81.634  1.00  0.00     0.339 C 
ATOM      6  O   UNL     1       0.813  43.599  82.953  1.00  0.00    -0.332 OA
ENDROOT
BRANCH   1   7
ATOM      7  C   UNL     1       1.320  41.917  84.620  1.00  0.00     0.198 C 
BRANCH   7   8
ATOM      8  O   UNL     1       1.625  43.144  85.261  1.00  0.00    -0.347 OA
BRANCH   8   9
ATOM      9  C   UNL     1       2.961  43.219  85.734  1.00  0.00     0.281 C 
ATOM     10  C   UNL     1       6.200  43.103  84.004  1.00  0.00     0.041 C 
ATOM     11  C   UNL     1       5.234  43.091  85.194  1.00  0.00     0.150 C 
ATOM     12  C   UNL     1       5.582  41.936  86.188  1.00  0.00     0.174 C 
ATOM     13  O   UNL     1       3.913  42.962  84.696  1.00  0.00    -0.344 OA
ATOM     14  C   UNL     1       4.300  41.270  86.734  1.00  0.00     0.179 C 
ATOM     15  C   UNL     1       3.161  42.296  86.972  1.00  0.00     0.202 C 
BRANCH  12  16
ATOM     16  O   UNL     1       6.373  42.425  87.239  1.00  0.00    -0.388 OA
ATOM     17  H   UNL     1       6.640  41.636  87.782  1.00  0.00     0.211 HD
ENDBRANCH  12  16
BRANCH  14  18
ATOM     18  O   UNL     1       4.560  40.476  87.866  1.00  0.00    -0.387 OA
ATOM     19  H   UNL     1       4.484  39.531  87.595  1.00  0.00     0.211 HD
ENDBRANCH  14  18
BRANCH  15  20
ATOM     20  O   UNL     1       3.373  43.054  88.141  1.00  0.00    -0.385 OA
ATOM     21  H   UNL     1       2.926  42.583  88.897  1.00  0.00     0.211 HD
ENDBRANCH  15  20
ENDBRANCH   8   9
ENDBRANCH   7   8
ENDBRANCH   1   7
BRANCH   2  22
ATOM     22  O   UNL     1      -1.293  41.597  83.431  1.00  0.00    -0.387 OA
ATOM     23  H   UNL     1      -2.094  41.293  82.903  1.00  0.00     0.211 HD
ENDBRANCH   2  22
BRANCH   3  24
ATOM     24  O   UNL     1      -1.847  41.780  80.891  1.00  0.00    -0.387 OA
ATOM     25  H   UNL     1      -2.297  41.770  81.784  1.00  0.00     0.211 HD
ENDBRANCH   3  24
BRANCH   5  26
ATOM     26  O   UNL     1      -0.862  44.659  81.768  1.00  0.00    -0.454 OA
BRANCH  26  27
ATOM     27  C   UNL     1      -1.108  46.016  82.077  1.00  0.00     0.214 A 
ATOM     28  C   UNL     1      -1.211  46.953  81.024  1.00  0.00     0.180 A 
ATOM     29  C   UNL     1      -1.237  46.503  83.388  1.00  0.00     0.239 A 
ATOM     30  O   UNL     1      -1.116  48.259  81.276  1.00  0.00    -0.452 OA
ATOM     31  C   UNL     1      -1.108  47.882  83.628  1.00  0.00     0.111 A 
ATOM     32  O   UNL     1      -1.458  45.701  84.333  1.00  0.00    -0.285 OA
ATOM     33  C   UNL     1      -0.998  48.741  82.507  1.00  0.00     0.146 A 
ATOM     34  C   UNL     1      -1.010  48.429  84.938  1.00  0.00     0.134 A 
ATOM     35  C   UNL     1      -0.782  50.108  82.689  1.00  0.00     0.094 A 
ATOM     36  C   UNL     1      -0.785  49.803  85.090  1.00  0.00     0.093 A 
ATOM     37  C   UNL     1      -0.677  50.645  83.979  1.00  0.00     0.123 A 
BRANCH  28  38
ATOM     38  C   UNL     1      -1.541  46.525  79.654  1.00  0.00     0.025 A 
ATOM     39  C   UNL     1      -0.880  47.070  78.552  1.00  0.00     0.062 A 
ATOM     40  C   UNL     1      -2.585  45.618  79.467  1.00  0.00     0.016 A 
ATOM     41  C   UNL     1      -1.229  46.661  77.258  1.00  0.00     0.158 A 
ATOM     42  C   UNL     1      -2.955  45.215  78.180  1.00  0.00     0.051 A 
ATOM     43  C   UNL     1      -2.283  45.726  77.068  1.00  0.00     0.157 A 
BRANCH  41  44
ATOM     44  O   UNL     1      -0.507  47.194  76.192  1.00  0.00    -0.504 OA
ATOM     45  H   UNL     1      -0.764  47.084  75.223  1.00  0.00     0.293 HD
ENDBRANCH  41  44
BRANCH  43  46
ATOM     46  O   UNL     1      -2.714  45.300  75.797  1.00  0.00    -0.504 OA
ATOM     47  H   UNL     1      -3.329  45.822  75.196  1.00  0.00     0.293 HD
ENDBRANCH  43  46
ENDBRANCH  28  38
BRANCH  34  48
ATOM     48  O   UNL     1      -1.126  47.622  86.076  1.00  0.00    -0.507 OA
ATOM     49  H   UNL     1      -1.227  46.625  86.014  1.00  0.00     0.293 HD
ENDBRANCH  34  48
BRANCH  37  50
ATOM     50  O   UNL     1      -0.418  52.002  84.167  1.00  0.00    -0.508 OA
ATOM     51  H   UNL     1      -1.153  52.660  84.402  1.00  0.00     0.293 HD
ENDBRANCH  37  50
ENDBRANCH  26  27
ENDBRANCH   5  26
BRANCH   4  52
ATOM     52  O   UNL     1      -0.030  43.245  79.311  1.00  0.00    -0.384 OA
ATOM     53  H   UNL     1       0.571  42.831  78.619  1.00  0.00     0.211 HD
ENDBRANCH   4  52
TORSDOF 16
ENDMDL
MODEL 6
REMARK VINA RESULT:    -6.638      4.275      9.658
REMARK INTER + INTRA:         -13.955
REMARK INTER:                 -11.733
REMARK INTRA:                  -2.222
REMARK UNBOUND:                -3.048
REMARK SMILES C[C@H]1O[C@@H](OC[C@@H]2O[C@H](Oc3c(-c4ccc(O)c(O)c4)oc4cc(O)cc(O)c4c3=O)[C@H](O)[C@H](O)[C@@H]2O)[C@H](O)[C@H](O)[C@@H]1O
REMARK SMILES IDX 7 1 36 2 34 3 32 4 9 5 8 6 6 7 5 8 4 9 1 10 2 11 42 12 3 13
REMARK SMILES IDX 40 14 38 15 43 16 41 18 39 20 37 22 35 24 10 26 11 27 12 28
REMARK SMILES IDX 30 29 21 30 29 31 31 32 22 33 27 34 23 35 26 36 24 37 13 38
REMARK SMILES IDX 20 39 14 40 18 41 15 42 16 43 19 44 17 46 28 48 25 50 33 52
REMARK H PARENT 43 17 41 19 39 21 37 23 35 25 19 45 17 47 28 49 25 51 33 53
REMARK Flexibility Score: inf
ROOT
ATOM      1  C   UNL     1       3.225  38.153  85.211  1.00  0.00     0.180 C 
ATOM      2  C   UNL     1       2.010  37.441  84.576  1.00  0.00     0.177 C 
ATOM      3  C   UNL     1       1.951  37.686  83.039  1.00  0.00     0.180 C 
ATOM      4  C   UNL     1       3.000  38.735  82.580  1.00  0.00     0.214 C 
ATOM      5  C   UNL     1       3.062  39.943  83.586  1.00  0.00     0.339 C 
ATOM      6  O   UNL     1       3.230  39.560  84.961  1.00  0.00    -0.332 OA
ENDROOT
BRANCH   1   7
ATOM      7  C   UNL     1       3.270  37.911  86.733  1.00  0.00     0.198 C 
BRANCH   7   8
ATOM      8  O   UNL     1       4.144  36.826  86.993  1.00  0.00    -0.347 OA
BRANCH   8   9
ATOM      9  C   UNL     1       5.481  37.065  86.584  1.00  0.00     0.281 C 
ATOM     10  C   UNL     1       8.250  34.795  85.757  1.00  0.00     0.041 C 
ATOM     11  C   UNL     1       7.565  36.128  86.077  1.00  0.00     0.150 C 
ATOM     12  C   UNL     1       8.379  36.937  87.138  1.00  0.00     0.174 C 
ATOM     13  O   UNL     1       6.250  35.858  86.532  1.00  0.00    -0.344 OA
ATOM     14  C   UNL     1       7.438  37.634  88.145  1.00  0.00     0.179 C 
ATOM     15  C   UNL     1       6.143  38.159  87.471  1.00  0.00     0.202 C 
BRANCH  12  16
ATOM     16  O   UNL     1       9.206  37.875  86.500  1.00  0.00    -0.388 OA
ATOM     17  H   UNL     1       9.772  38.281  87.209  1.00  0.00     0.211 HD
ENDBRANCH  12  16
BRANCH  14  18
ATOM     18  O   UNL     1       8.104  38.627  88.887  1.00  0.00    -0.387 OA
ATOM     19  H   UNL     1       7.769  39.504  88.586  1.00  0.00     0.211 HD
ENDBRANCH  14  18
BRANCH  15  20
ATOM     20  O   UNL     1       6.375  39.338  86.734  1.00  0.00    -0.385 OA
ATOM     21  H   UNL     1       5.500  39.658  86.383  1.00  0.00     0.211 HD
ENDBRANCH  15  20
ENDBRANCH   8   9
ENDBRANCH   7   8
ENDBRANCH   1   7
BRANCH   2  22
ATOM     22  O   UNL     1       0.820  37.885  85.203  1.00  0.00    -0.387 OA
ATOM     23  H   UNL     1       0.057  37.412  84.749  1.00  0.00     0.211 HD
ENDBRANCH   2  22
BRANCH   3  24
ATOM     24  O   UNL     1       0.640  38.013  82.607  1.00  0.00    -0.387 OA
ATOM     25  H   UNL     1       0.263  38.649  83.279  1.00  0.00     0.211 HD
ENDBRANCH   3  24
BRANCH   5  26
ATOM     26  O   UNL     1       1.892  40.775  83.521  1.00  0.00    -0.454 OA
BRANCH  26  27
ATOM     27  C   UNL     1       1.658  41.884  82.678  1.00  0.00     0.214 A 
ATOM     28  C   UNL     1       2.307  43.108  82.957  1.00  0.00     0.180 A 
ATOM     29  C   UNL     1       0.790  41.852  81.574  1.00  0.00     0.239 A 
ATOM     30  O   UNL     1       1.874  44.239  82.400  1.00  0.00    -0.452 OA
ATOM     31  C   UNL     1       0.329  43.060  81.023  1.00  0.00     0.111 A 
ATOM     32  O   UNL     1       0.427  40.745  81.097  1.00  0.00    -0.285 OA
ATOM     33  C   UNL     1       0.883  44.266  81.517  1.00  0.00     0.146 A 
ATOM     34  C   UNL     1      -0.710  43.116  80.052  1.00  0.00     0.134 A 
ATOM     35  C   UNL     1       0.401  45.496  81.066  1.00  0.00     0.094 A 
ATOM     36  C   UNL     1      -1.179  44.364  79.624  1.00  0.00     0.093 A 
ATOM     37  C   UNL     1      -0.628  45.551  80.118  1.00  0.00     0.123 A 
BRANCH  28  38
ATOM     38  C   UNL     1       3.537  43.150  83.766  1.00  0.00     0.025 A 
ATOM     39  C   UNL     1       4.795  43.125  83.163  1.00  0.00     0.062 A 
ATOM     40  C   UNL     1       3.426  43.138  85.158  1.00  0.00     0.016 A 
ATOM     41  C   UNL     1       5.949  43.145  83.959  1.00  0.00     0.158 A 
ATOM     42  C   UNL     1       4.569  43.139  85.962  1.00  0.00     0.051 A 
ATOM     43  C   UNL     1       5.836  43.145  85.375  1.00  0.00     0.157 A 
BRANCH  41  44
ATOM     44  O   UNL     1       7.183  43.170  83.311  1.00  0.00    -0.504 OA
ATOM     45  H   UNL     1       7.363  43.673  82.456  1.00  0.00     0.293 HD
ENDBRANCH  41  44
BRANCH  43  46
ATOM     46  O   UNL     1       6.950  43.125  86.236  1.00  0.00    -0.504 OA
ATOM     47  H   UNL     1       7.234  43.891  86.823  1.00  0.00     0.293 HD
ENDBRANCH  43  46
ENDBRANCH  28  38
BRANCH  34  48
ATOM     48  O   UNL     1      -1.278  41.951  79.524  1.00  0.00    -0.507 OA
ATOM     49  H   UNL     1      -0.729  41.257  79.051  1.00  0.00     0.293 HD
ENDBRANCH  34  48
BRANCH  37  50
ATOM     50  O   UNL     1      -1.143  46.776  79.695  1.00  0.00    -0.508 OA
ATOM     51  H   UNL     1      -0.628  47.388  79.072  1.00  0.00     0.293 HD
ENDBRANCH  37  50
ENDBRANCH  26  27
ENDBRANCH   5  26
BRANCH   4  52
ATOM     52  O   UNL     1       2.839  39.141  81.250  1.00  0.00    -0.384 OA
ATOM     53  H   UNL     1       2.875  38.336  80.647  1.00  0.00     0.211 HD
ENDBRANCH   4  52
TORSDOF 16
ENDMDL
MODEL 7
REMARK VINA RESULT:    -6.549      2.242      6.926
REMARK INTER + INTRA:         -13.808
REMARK INTER:                 -11.858
REMARK INTRA:                  -1.950
REMARK UNBOUND:                -3.048
REMARK SMILES C[C@H]1O[C@@H](OC[C@@H]2O[C@H](Oc3c(-c4ccc(O)c(O)c4)oc4cc(O)cc(O)c4c3=O)[C@H](O)[C@H](O)[C@@H]2O)[C@H](O)[C@H](O)[C@@H]1O
REMARK SMILES IDX 7 1 36 2 34 3 32 4 9 5 8 6 6 7 5 8 4 9 1 10 2 11 42 12 3 13
REMARK SMILES IDX 40 14 38 15 43 16 41 18 39 20 37 22 35 24 10 26 11 27 12 28
REMARK SMILES IDX 30 29 21 30 29 31 31 32 22 33 27 34 23 35 26 36 24 37 13 38
REMARK SMILES IDX 20 39 14 40 18 41 15 42 16 43 19 44 17 46 28 48 25 50 33 52
REMARK H PARENT 43 17 41 19 39 21 37 23 35 25 19 45 17 47 28 49 25 51 33 53
REMARK Flexibility Score: inf
ROOT
ATOM      1  C   UNL     1       0.605  47.071  82.969  1.00  0.00     0.180 C 
ATOM      2  C   UNL     1       0.639  46.161  84.217  1.00  0.00     0.177 C 
ATOM      3  C   UNL     1       1.318  44.796  83.902  1.00  0.00     0.180 C 
ATOM      4  C   UNL     1       1.599  44.626  82.385  1.00  0.00     0.214 C 
ATOM      5  C   UNL     1       0.381  45.137  81.528  1.00  0.00     0.339 C 
ATOM      6  O   UNL     1      -0.062  46.461  81.862  1.00  0.00    -0.332 OA
ENDROOT
BRANCH   1   7
ATOM      7  C   UNL     1      -0.076  48.418  83.289  1.00  0.00     0.198 C 
BRANCH   7   8
ATOM      8  O   UNL     1      -1.432  48.171  83.622  1.00  0.00    -0.347 OA
BRANCH   8   9
ATOM      9  C   UNL     1      -1.964  49.094  84.558  1.00  0.00     0.281 C 
ATOM     10  C   UNL     1      -4.033  52.103  84.153  1.00  0.00     0.041 C 
ATOM     11  C   UNL     1      -3.140  51.092  84.879  1.00  0.00     0.150 C 
ATOM     12  C   UNL     1      -2.026  51.816  85.703  1.00  0.00     0.174 C 
ATOM     13  O   UNL     1      -2.581  50.215  83.915  1.00  0.00    -0.344 OA
ATOM     14  C   UNL     1      -0.684  51.057  85.607  1.00  0.00     0.179 C 
ATOM     15  C   UNL     1      -0.880  49.518  85.592  1.00  0.00     0.202 C 
BRANCH  12  16
ATOM     16  O   UNL     1      -2.426  51.950  87.042  1.00  0.00    -0.388 OA
ATOM     17  H   UNL     1      -3.157  52.624  87.052  1.00  0.00     0.211 HD
ENDBRANCH  12  16
BRANCH  14  18
ATOM     18  O   UNL     1       0.230  51.478  86.590  1.00  0.00    -0.387 OA
ATOM     19  H   UNL     1      -0.163  51.277  87.472  1.00  0.00     0.211 HD
ENDBRANCH  14  18
BRANCH  15  20
ATOM     20  O   UNL     1      -1.176  49.014  86.875  1.00  0.00    -0.385 OA
ATOM     21  H   UNL     1      -1.393  48.046  86.781  1.00  0.00     0.211 HD
ENDBRANCH  15  20
ENDBRANCH   8   9
ENDBRANCH   7   8
ENDBRANCH   1   7
BRANCH   2  22
ATOM     22  O   UNL     1      -0.679  45.970  84.699  1.00  0.00    -0.387 OA
ATOM     23  H   UNL     1      -0.600  45.481  85.576  1.00  0.00     0.211 HD
ENDBRANCH   2  22
BRANCH   3  24
ATOM     24  O   UNL     1       0.584  43.706  84.438  1.00  0.00    -0.387 OA
ATOM     25  H   UNL     1       0.936  42.878  84.004  1.00  0.00     0.211 HD
ENDBRANCH   3  24
BRANCH   5  26
ATOM     26  O   UNL     1      -0.763  44.272  81.627  1.00  0.00    -0.454 OA
BRANCH  26  27
ATOM     27  C   UNL     1      -1.188  43.283  80.712  1.00  0.00     0.214 A 
ATOM     28  C   UNL     1      -2.016  43.660  79.630  1.00  0.00     0.180 A 
ATOM     29  C   UNL     1      -0.853  41.924  80.825  1.00  0.00     0.239 A 
ATOM     30  O   UNL     1      -2.693  42.734  78.950  1.00  0.00    -0.452 OA
ATOM     31  C   UNL     1      -1.599  40.968  80.115  1.00  0.00     0.111 A 
ATOM     32  O   UNL     1       0.106  41.577  81.565  1.00  0.00    -0.285 OA
ATOM     33  C   UNL     1      -2.571  41.435  79.197  1.00  0.00     0.146 A 
ATOM     34  C   UNL     1      -1.466  39.568  80.337  1.00  0.00     0.134 A 
ATOM     35  C   UNL     1      -3.398  40.531  78.530  1.00  0.00     0.094 A 
ATOM     36  C   UNL     1      -2.315  38.685  79.660  1.00  0.00     0.093 A 
ATOM     37  C   UNL     1      -3.273  39.154  78.755  1.00  0.00     0.123 A 
BRANCH  28  38
ATOM     38  C   UNL     1      -2.061  45.052  79.155  1.00  0.00     0.025 A 
ATOM     39  C   UNL     1      -1.231  45.486  78.120  1.00  0.00     0.062 A 
ATOM     40  C   UNL     1      -2.897  45.959  79.810  1.00  0.00     0.016 A 
ATOM     41  C   UNL     1      -1.279  46.823  77.702  1.00  0.00     0.158 A 
ATOM     42  C   UNL     1      -2.941  47.299  79.414  1.00  0.00     0.051 A 
ATOM     43  C   UNL     1      -2.140  47.743  78.360  1.00  0.00     0.157 A 
BRANCH  41  44
ATOM     44  O   UNL     1      -0.469  47.197  76.631  1.00  0.00    -0.504 OA
ATOM     45  H   UNL     1      -0.796  47.707  75.825  1.00  0.00     0.293 HD
ENDBRANCH  41  44
BRANCH  43  46
ATOM     46  O   UNL     1      -2.212  49.108  78.020  1.00  0.00    -0.504 OA
ATOM     47  H   UNL     1      -2.939  49.734  78.319  1.00  0.00     0.293 HD
ENDBRANCH  43  46
ENDBRANCH  28  38
BRANCH  34  48
ATOM     48  O   UNL     1      -0.511  39.059  81.225  1.00  0.00    -0.507 OA
ATOM     49  H   UNL     1       0.142  39.651  81.704  1.00  0.00     0.293 HD
ENDBRANCH  34  48
BRANCH  37  50
ATOM     50  O   UNL     1      -4.125  38.248  78.125  1.00  0.00    -0.508 OA
ATOM     51  H   UNL     1      -3.940  37.251  78.121  1.00  0.00     0.293 HD
ENDBRANCH  37  50
ENDBRANCH  26  27
ENDBRANCH   5  26
BRANCH   4  52
ATOM     52  O   UNL     1       2.009  43.334  82.034  1.00  0.00    -0.384 OA
ATOM     53  H   UNL     1       2.879  43.383  81.530  1.00  0.00     0.211 HD
ENDBRANCH   4  52
TORSDOF 16
ENDMDL
MODEL 8
REMARK VINA RESULT:    -6.510      2.268      7.145
REMARK INTER + INTRA:         -13.744
REMARK INTER:                 -11.265
REMARK INTRA:                  -2.479
REMARK UNBOUND:                -3.048
REMARK SMILES C[C@H]1O[C@@H](OC[C@@H]2O[C@H](Oc3c(-c4ccc(O)c(O)c4)oc4cc(O)cc(O)c4c3=O)[C@H](O)[C@H](O)[C@@H]2O)[C@H](O)[C@H](O)[C@@H]1O
REMARK SMILES IDX 7 1 36 2 34 3 32 4 9 5 8 6 6 7 5 8 4 9 1 10 2 11 42 12 3 13
REMARK SMILES IDX 40 14 38 15 43 16 41 18 39 20 37 22 35 24 10 26 11 27 12 28
REMARK SMILES IDX 30 29 21 30 29 31 31 32 22 33 27 34 23 35 26 36 24 37 13 38
REMARK SMILES IDX 20 39 14 40 18 41 15 42 16 43 19 44 17 46 28 48 25 50 33 52
REMARK H PARENT 43 17 41 19 39 21 37 23 35 25 19 45 17 47 28 49 25 51 33 53
REMARK Flexibility Score: inf
ROOT
ATOM      1  C   UNL     1      -2.993  45.029  84.373  1.00  0.00     0.180 C 
ATOM      2  C   UNL     1      -3.550  44.103  83.269  1.00  0.00     0.177 C 
ATOM      3  C   UNL     1      -3.347  42.603  83.633  1.00  0.00     0.180 C 
ATOM      4  C   UNL     1      -2.467  42.430  84.900  1.00  0.00     0.214 C 
ATOM      5  C   UNL     1      -1.248  43.426  84.876  1.00  0.00     0.339 C 
ATOM      6  O   UNL     1      -1.608  44.795  84.638  1.00  0.00    -0.332 OA
ENDROOT
BRANCH   1   7
ATOM      7  C   UNL     1      -3.193  46.512  83.999  1.00  0.00     0.198 C 
BRANCH   7   8
ATOM      8  O   UNL     1      -1.983  47.208  84.248  1.00  0.00    -0.347 OA
BRANCH   8   9
ATOM      9  C   UNL     1      -2.172  48.469  84.870  1.00  0.00     0.281 C 
ATOM     10  C   UNL     1      -3.046  51.775  83.525  1.00  0.00     0.041 C 
ATOM     11  C   UNL     1      -2.577  50.754  84.567  1.00  0.00     0.150 C 
ATOM     12  C   UNL     1      -1.294  51.255  85.305  1.00  0.00     0.174 C 
ATOM     13  O   UNL     1      -2.345  49.518  83.911  1.00  0.00    -0.344 OA
ATOM     14  C   UNL     1      -0.302  50.094  85.543  1.00  0.00     0.179 C 
ATOM     15  C   UNL     1      -1.026  48.764  85.880  1.00  0.00     0.202 C 
BRANCH  12  16
ATOM     16  O   UNL     1      -1.643  51.865  86.521  1.00  0.00    -0.388 OA
ATOM     17  H   UNL     1      -0.793  52.163  86.941  1.00  0.00     0.211 HD
ENDBRANCH  12  16
BRANCH  14  18
ATOM     18  O   UNL     1       0.685  50.430  86.487  1.00  0.00    -0.387 OA
ATOM     19  H   UNL     1       0.606  51.395  86.675  1.00  0.00     0.211 HD
ENDBRANCH  14  18
BRANCH  15  20
ATOM     20  O   UNL     1      -1.501  48.747  87.207  1.00  0.00    -0.385 OA
ATOM     21  H   UNL     1      -0.988  49.426  87.725  1.00  0.00     0.211 HD
ENDBRANCH  15  20
ENDBRANCH   8   9
ENDBRANCH   7   8
ENDBRANCH   1   7
BRANCH   2  22
ATOM     22  O   UNL     1      -2.929  44.411  82.034  1.00  0.00    -0.387 OA
ATOM     23  H   UNL     1      -1.941  44.482  82.214  1.00  0.00     0.211 HD
ENDBRANCH   2  22
BRANCH   3  24
ATOM     24  O   UNL     1      -2.857  41.855  82.532  1.00  0.00    -0.387 OA
ATOM     25  H   UNL     1      -3.637  41.674  81.933  1.00  0.00     0.211 HD
ENDBRANCH   3  24
BRANCH   5  26
ATOM     26  O   UNL     1      -0.266  43.071  83.889  1.00  0.00    -0.454 OA
BRANCH  26  27
ATOM     27  C   UNL     1       1.114  43.375  83.884  1.00  0.00     0.214 A 
ATOM     28  C   UNL     1       1.672  44.017  82.756  1.00  0.00     0.180 A 
ATOM     29  C   UNL     1       1.984  43.055  84.940  1.00  0.00     0.239 A 
ATOM     30  O   UNL     1       2.993  44.025  82.575  1.00  0.00    -0.452 OA
ATOM     31  C   UNL     1       3.371  43.049  84.714  1.00  0.00     0.111 A 
ATOM     32  O   UNL     1       1.513  42.770  86.073  1.00  0.00    -0.285 OA
ATOM     33  C   UNL     1       3.838  43.511  83.459  1.00  0.00     0.146 A 
ATOM     34  C   UNL     1       4.302  42.532  85.658  1.00  0.00     0.134 A 
ATOM     35  C   UNL     1       5.198  43.446  83.150  1.00  0.00     0.094 A 
ATOM     36  C   UNL     1       5.658  42.472  85.317  1.00  0.00     0.093 A 
ATOM     37  C   UNL     1       6.113  42.930  84.076  1.00  0.00     0.123 A 
BRANCH  28  38
ATOM     38  C   UNL     1       0.831  44.785  81.823  1.00  0.00     0.025 A 
ATOM     39  C   UNL     1       0.353  46.051  82.163  1.00  0.00     0.062 A 
ATOM     40  C   UNL     1       0.451  44.193  80.617  1.00  0.00     0.016 A 
ATOM     41  C   UNL     1      -0.464  46.752  81.265  1.00  0.00     0.158 A 
ATOM     42  C   UNL     1      -0.377  44.874  79.720  1.00  0.00     0.051 A 
ATOM     43  C   UNL     1      -0.839  46.155  80.031  1.00  0.00     0.157 A 
BRANCH  41  44
ATOM     44  O   UNL     1      -0.875  48.034  81.626  1.00  0.00    -0.504 OA
ATOM     45  H   UNL     1      -1.112  48.760  80.967  1.00  0.00     0.293 HD
ENDBRANCH  41  44
BRANCH  43  46
ATOM     46  O   UNL     1      -1.688  46.783  79.099  1.00  0.00    -0.504 OA
ATOM     47  H   UNL     1      -2.012  46.361  78.246  1.00  0.00     0.293 HD
ENDBRANCH  43  46
ENDBRANCH  28  38
BRANCH  34  48
ATOM     48  O   UNL     1       3.888  42.076  86.915  1.00  0.00    -0.507 OA
ATOM     49  H   UNL     1       4.288  41.263  87.345  1.00  0.00     0.293 HD
ENDBRANCH  34  48
BRANCH  37  50
ATOM     50  O   UNL     1       7.466  42.822  83.757  1.00  0.00    -0.508 OA
ATOM     51  H   UNL     1       7.829  42.048  83.213  1.00  0.00     0.293 HD
ENDBRANCH  37  50
ENDBRANCH  26  27
ENDBRANCH   5  26
BRANCH   4  52
ATOM     52  O   UNL     1      -2.083  41.104  85.137  1.00  0.00    -0.384 OA
ATOM     53  H   UNL     1      -1.743  40.696  84.282  1.00  0.00     0.211 HD
ENDBRANCH   4  52
TORSDOF 16
ENDMDL
MODEL 9
REMARK VINA RESULT:    -6.454      2.577      5.846
REMARK INTER + INTRA:         -13.653
REMARK INTER:                 -11.563
REMARK INTRA:                  -2.089
REMARK UNBOUND:                -3.048
REMARK SMILES C[C@H]1O[C@@H](OC[C@@H]2O[C@H](Oc3c(-c4ccc(O)c(O)c4)oc4cc(O)cc(O)c4c3=O)[C@H](O)[C@H](O)[C@@H]2O)[C@H](O)[C@H](O)[C@@H]1O
REMARK SMILES IDX 7 1 36 2 34 3 32 4 9 5 8 6 6 7 5 8 4 9 1 10 2 11 42 12 3 13
REMARK SMILES IDX 40 14 38 15 43 16 41 18 39 20 37 22 35 24 10 26 11 27 12 28
REMARK SMILES IDX 30 29 21 30 29 31 31 32 22 33 27 34 23 35 26 36 24 37 13 38
REMARK SMILES IDX 20 39 14 40 18 41 15 42 16 43 19 44 17 46 28 48 25 50 33 52
REMARK H PARENT 43 17 41 19 39 21 37 23 35 25 19 45 17 47 28 49 25 51 33 53
REMARK Flexibility Score: inf
ROOT
ATOM      1  C   UNL     1      -0.651  45.488  81.830  1.00  0.00     0.180 C 
ATOM      2  C   UNL     1      -0.851  45.549  80.300  1.00  0.00     0.177 C 
ATOM      3  C   UNL     1      -1.881  44.485  79.821  1.00  0.00     0.180 C 
ATOM      4  C   UNL     1      -2.284  43.515  80.964  1.00  0.00     0.214 C 
ATOM      5  C   UNL     1      -1.027  43.094  81.812  1.00  0.00     0.339 C 
ATOM      6  O   UNL     1      -0.233  44.197  82.278  1.00  0.00    -0.332 OA
ENDROOT
BRANCH   1   7
ATOM      7  C   UNL     1       0.376  46.541  82.293  1.00  0.00     0.198 C 
BRANCH   7   8
ATOM      8  O   UNL     1      -0.150  47.831  82.032  1.00  0.00    -0.347 OA
BRANCH   8   9
ATOM      9  C   UNL     1      -0.644  48.487  83.188  1.00  0.00     0.281 C 
ATOM     10  C   UNL     1      -2.081  51.829  83.703  1.00  0.00     0.041 C 
ATOM     11  C   UNL     1      -1.491  50.471  84.096  1.00  0.00     0.150 C 
ATOM     12  C   UNL     1      -0.400  50.632  85.204  1.00  0.00     0.174 C 
ATOM     13  O   UNL     1      -0.958  49.860  82.933  1.00  0.00    -0.344 OA
ATOM     14  C   UNL     1       0.790  49.680  84.952  1.00  0.00     0.179 C 
ATOM     15  C   UNL     1       0.335  48.309  84.385  1.00  0.00     0.202 C 
BRANCH  12  16
ATOM     16  O   UNL     1      -0.960  50.401  86.471  1.00  0.00    -0.388 OA
ATOM     17  H   UNL     1      -0.669  49.492  86.747  1.00  0.00     0.211 HD
ENDBRANCH  12  16
BRANCH  14  18
ATOM     18  O   UNL     1       1.611  49.551  86.088  1.00  0.00    -0.387 OA
ATOM     19  H   UNL     1       2.517  49.317  85.779  1.00  0.00     0.211 HD
ENDBRANCH  14  18
BRANCH  15  20
ATOM     20  O   UNL     1      -0.226  47.487  85.383  1.00  0.00    -0.385 OA
ATOM     21  H   UNL     1      -1.172  47.768  85.515  1.00  0.00     0.211 HD
ENDBRANCH  15  20
ENDBRANCH   8   9
ENDBRANCH   7   8
ENDBRANCH   1   7
BRANCH   2  22
ATOM     22  O   UNL     1       0.397  45.371  79.652  1.00  0.00    -0.387 OA
ATOM     23  H   UNL     1       0.251  44.696  78.921  1.00  0.00     0.211 HD
ENDBRANCH   2  22
BRANCH   3  24
ATOM     24  O   UNL     1      -1.429  43.795  78.666  1.00  0.00    -0.387 OA
ATOM     25  H   UNL     1      -0.935  42.987  78.985  1.00  0.00     0.211 HD
ENDBRANCH   3  24
BRANCH   5  26
ATOM     26  O   UNL     1      -0.146  42.216  81.093  1.00  0.00    -0.454 OA
BRANCH  26  27
ATOM     27  C   UNL     1       0.170  40.870  81.385  1.00  0.00     0.214 A 
ATOM     28  C   UNL     1       1.309  40.587  82.173  1.00  0.00     0.180 A 
ATOM     29  C   UNL     1      -0.576  39.776  80.915  1.00  0.00     0.239 A 
ATOM     30  O   UNL     1       1.818  39.355  82.197  1.00  0.00    -0.452 OA
ATOM     31  C   UNL     1      -0.005  38.493  80.930  1.00  0.00     0.111 A 
ATOM     32  O   UNL     1      -1.744  39.958  80.480  1.00  0.00    -0.285 OA
ATOM     33  C   UNL     1       1.255  38.337  81.560  1.00  0.00     0.146 A 
ATOM     34  C   UNL     1      -0.603  37.376  80.281  1.00  0.00     0.134 A 
ATOM     35  C   UNL     1       1.907  37.103  81.529  1.00  0.00     0.094 A 
ATOM     36  C   UNL     1       0.078  36.153  80.259  1.00  0.00     0.093 A 
ATOM     37  C   UNL     1       1.322  36.007  80.882  1.00  0.00     0.123 A 
BRANCH  28  38
ATOM     38  C   UNL     1       1.885  41.603  83.070  1.00  0.00     0.025 A 
ATOM     39  C   UNL     1       1.387  41.788  84.360  1.00  0.00     0.062 A 
ATOM     40  C   UNL     1       2.892  42.437  82.581  1.00  0.00     0.016 A 
ATOM     41  C   UNL     1       1.941  42.777  85.186  1.00  0.00     0.158 A 
ATOM     42  C   UNL     1       3.440  43.439  83.387  1.00  0.00     0.051 A 
ATOM     43  C   UNL     1       2.975  43.617  84.692  1.00  0.00     0.157 A 
BRANCH  41  44
ATOM     44  O   UNL     1       1.446  42.890  86.484  1.00  0.00    -0.504 OA
ATOM     45  H   UNL     1       0.601  43.387  86.726  1.00  0.00     0.293 HD
ENDBRANCH  41  44
BRANCH  43  46
ATOM     46  O   UNL     1       3.550  44.656  85.450  1.00  0.00    -0.504 OA
ATOM     47  H   UNL     1       3.636  45.609  85.141  1.00  0.00     0.293 HD
ENDBRANCH  43  46
ENDBRANCH  28  38
BRANCH  34  48
ATOM     48  O   UNL     1      -1.852  37.479  79.658  1.00  0.00    -0.507 OA
ATOM     49  H   UNL     1      -2.457  36.687  79.543  1.00  0.00     0.293 HD
ENDBRANCH  34  48
BRANCH  37  50
ATOM     50  O   UNL     1       1.988  34.783  80.810  1.00  0.00    -0.508 OA
ATOM     51  H   UNL     1       1.635  33.953  81.273  1.00  0.00     0.293 HD
ENDBRANCH  37  50
ENDBRANCH  26  27
ENDBRANCH   5  26
BRANCH   4  52
ATOM     52  O   UNL     1      -3.038  42.419  80.527  1.00  0.00    -0.384 OA
ATOM     53  H   UNL     1      -2.991  41.684  81.213  1.00  0.00     0.211 HD
ENDBRANCH   4  52
TORSDOF 16
ENDMDL
