MODEL 1
REMARK VINA RESULT:    -5.186      0.000      0.000
REMARK INTER + INTRA:         -10.903
REMARK INTER:                  -9.128
REMARK INTRA:                  -1.775
REMARK UNBOUND:                -1.775
REMARK SMILES CCCCCCC=CCCCCCCCC(=O)[O-]
REMARK SMILES IDX 10 1 11 2 12 3 13 4 14 5 15 6 16 7 17 8 18 9 9 10 8 11 7 12
REMARK SMILES IDX 6 13 5 14 4 15 3 16 2 17 1 18
REMARK H PARENT
REMARK Flexibility Score: inf
ROOT
ATOM      1  C   UNL     1       1.536  -3.309  -3.568  1.00  0.00     0.004 C 
ENDROOT
BRANCH   1   2
ATOM      2  C   UNL     1       0.305  -2.434  -3.275  1.00  0.00     0.000 C 
BRANCH   2   3
ATOM      3  C   UNL     1      -0.741  -3.074  -2.340  1.00  0.00     0.000 C 
BRANCH   3   4
ATOM      4  C   UNL     1      -0.281  -4.359  -1.624  1.00  0.00     0.000 C 
BRANCH   4   5
ATOM      5  C   UNL     1      -1.088  -5.622  -1.972  1.00  0.00     0.006 C 
BRANCH   5   6
ATOM      6  C   UNL     1      -1.224  -5.843  -3.483  1.00  0.00     0.053 C 
BRANCH   6   7
ATOM      7  C   UNL     1      -2.667  -5.907  -3.874  1.00  0.00     0.041 C 
ATOM      8  O   UNL     1      -3.476  -5.036  -3.458  1.00  0.00    -0.550 OA
ATOM      9  O   UNL     1      -3.111  -6.904  -4.734  1.00  0.00    -0.550 OA
ENDBRANCH   6   7
ENDBRANCH   5   6
ENDBRANCH   4   5
ENDBRANCH   3   4
ENDBRANCH   2   3
ENDBRANCH   1   2
BRANCH   1  10
ATOM     10  C   UNL     1       2.141  -3.038  -4.953  1.00  0.00     0.027 C 
BRANCH  10  11
ATOM     11  C   UNL     1       3.621  -2.754  -4.864  1.00  0.00    -0.031 C 
ATOM     12  C   UNL     1       4.588  -3.481  -5.454  1.00  0.00    -0.031 C 
BRANCH  12  13
ATOM     13  C   UNL     1       4.365  -4.733  -6.274  1.00  0.00     0.027 C 
BRANCH  13  14
ATOM     14  C   UNL     1       4.909  -5.979  -5.559  1.00  0.00     0.004 C 
BRANCH  14  15
ATOM     15  C   UNL     1       3.865  -7.107  -5.475  1.00  0.00     0.000 C 
BRANCH  15  16
ATOM     16  C   UNL     1       2.594  -6.688  -4.712  1.00  0.00    -0.000 C 
BRANCH  16  17
ATOM     17  C   UNL     1       2.646  -6.916  -3.192  1.00  0.00    -0.003 C 
ATOM     18  C   UNL     1       3.755  -7.879  -2.769  1.00  0.00     0.004 C 
ENDBRANCH  16  17
ENDBRANCH  15  16
ENDBRANCH  14  15
ENDBRANCH  13  14
ENDBRANCH  12  13
ENDBRANCH  10  11
ENDBRANCH   1  10
TORSDOF 13
ENDMDL
MODEL 2
REMARK VINA RESULT:    -5.105      0.992      1.998
REMARK INTER + INTRA:         -10.760
REMARK INTER:                  -8.837
REMARK INTRA:                  -1.923
REMARK UNBOUND:                -1.775
REMARK SMILES CCCCCCC=CCCCCCCCC(=O)[O-]
REMARK SMILES IDX 10 1 11 2 12 3 13 4 14 5 15 6 16 7 17 8 18 9 9 10 8 11 7 12
REMARK SMILES IDX 6 13 5 14 4 15 3 16 2 17 1 18
REMARK H PARENT
REMARK Flexibility Score: inf
ROOT
ATOM      1  C   UNL     1       0.026  -3.202  -2.829  1.00  0.00     0.004 C 
ENDROOT
BRANCH   1   2
ATOM      2  C   UNL     1      -0.243  -4.094  -1.605  1.00  0.00     0.000 C 
BRANCH   2   3
ATOM      3  C   UNL     1       0.429  -5.482  -1.650  1.00  0.00     0.000 C 
BRANCH   3   4
ATOM      4  C   UNL     1      -0.532  -6.668  -1.863  1.00  0.00     0.000 C 
BRANCH   4   5
ATOM      5  C   UNL     1      -1.940  -6.478  -1.272  1.00  0.00     0.006 C 
BRANCH   5   6
ATOM      6  C   UNL     1      -3.053  -6.889  -2.244  1.00  0.00     0.053 C 
BRANCH   6   7
ATOM      7  C   UNL     1      -3.056  -5.995  -3.443  1.00  0.00     0.041 C 
ATOM      8  O   UNL     1      -3.488  -4.816  -3.354  1.00  0.00    -0.550 OA
ATOM      9  O   UNL     1      -2.542  -6.451  -4.651  1.00  0.00    -0.550 OA
ENDBRANCH   6   7
ENDBRANCH   5   6
ENDBRANCH   4   5
ENDBRANCH   3   4
ENDBRANCH   2   3
ENDBRANCH   1   2
BRANCH   1  10
ATOM     10  C   UNL     1       1.430  -3.410  -3.417  1.00  0.00     0.027 C 
BRANCH  10  11
ATOM     11  C   UNL     1       1.575  -2.731  -4.757  1.00  0.00    -0.031 C 
ATOM     12  C   UNL     1       2.736  -2.549  -5.414  1.00  0.00    -0.031 C 
BRANCH  12  13
ATOM     13  C   UNL     1       4.102  -2.957  -4.907  1.00  0.00     0.027 C 
BRANCH  13  14
ATOM     14  C   UNL     1       4.851  -3.817  -5.936  1.00  0.00     0.004 C 
BRANCH  14  15
ATOM     15  C   UNL     1       4.283  -5.245  -6.030  1.00  0.00     0.000 C 
BRANCH  15  16
ATOM     16  C   UNL     1       4.444  -6.039  -4.720  1.00  0.00    -0.000 C 
BRANCH  16  17
ATOM     17  C   UNL     1       3.153  -6.689  -4.194  1.00  0.00    -0.003 C 
ATOM     18  C   UNL     1       1.961  -6.493  -5.129  1.00  0.00     0.004 C 
ENDBRANCH  16  17
ENDBRANCH  15  16
ENDBRANCH  14  15
ENDBRANCH  13  14
ENDBRANCH  12  13
ENDBRANCH  10  11
ENDBRANCH   1  10
TORSDOF 13
ENDMDL
MODEL 3
REMARK VINA RESULT:    -5.093      3.661      5.974
REMARK INTER + INTRA:         -10.738
REMARK INTER:                  -8.187
REMARK INTRA:                  -2.551
REMARK UNBOUND:                -1.775
REMARK SMILES CCCCCCC=CCCCCCCCC(=O)[O-]
REMARK SMILES IDX 10 1 11 2 12 3 13 4 14 5 15 6 16 7 17 8 18 9 9 10 8 11 7 12
REMARK SMILES IDX 6 13 5 14 4 15 3 16 2 17 1 18
REMARK H PARENT
REMARK Flexibility Score: inf
ROOT
ATOM      1  C   UNL     1       2.671  -3.072  -4.381  1.00  0.00     0.004 C 
ENDROOT
BRANCH   1   2
ATOM      2  C   UNL     1       3.850  -2.516  -5.197  1.00  0.00     0.000 C 
BRANCH   2   3
ATOM      3  C   UNL     1       4.848  -3.577  -5.704  1.00  0.00     0.000 C 
BRANCH   3   4
ATOM      4  C   UNL     1       4.806  -4.925  -4.958  1.00  0.00     0.000 C 
BRANCH   4   5
ATOM      5  C   UNL     1       4.489  -6.146  -5.840  1.00  0.00     0.006 C 
BRANCH   5   6
ATOM      6  C   UNL     1       4.223  -5.770  -7.303  1.00  0.00     0.053 C 
BRANCH   6   7
ATOM      7  C   UNL     1       5.378  -6.170  -8.164  1.00  0.00     0.041 C 
ATOM      8  O   UNL     1       6.171  -5.299  -8.608  1.00  0.00    -0.550 OA
ATOM      9  O   UNL     1       5.605  -7.513  -8.442  1.00  0.00    -0.550 OA
ENDBRANCH   6   7
ENDBRANCH   5   6
ENDBRANCH   4   5
ENDBRANCH   3   4
ENDBRANCH   2   3
ENDBRANCH   1   2
BRANCH   1  10
ATOM     10  C   UNL     1       1.322  -2.901  -5.096  1.00  0.00     0.027 C 
BRANCH  10  11
ATOM     11  C   UNL     1       1.184  -3.861  -6.253  1.00  0.00    -0.031 C 
ATOM     12  C   UNL     1       0.617  -5.081  -6.186  1.00  0.00    -0.031 C 
BRANCH  12  13
ATOM     13  C   UNL     1       0.057  -5.719  -4.934  1.00  0.00     0.027 C 
BRANCH  13  14
ATOM     14  C   UNL     1       1.140  -6.487  -4.161  1.00  0.00     0.004 C 
BRANCH  14  15
ATOM     15  C   UNL     1       1.246  -6.033  -2.695  1.00  0.00     0.000 C 
BRANCH  15  16
ATOM     16  C   UNL     1      -0.050  -5.383  -2.176  1.00  0.00    -0.000 C 
BRANCH  16  17
ATOM     17  C   UNL     1       0.116  -3.955  -1.629  1.00  0.00    -0.003 C 
ATOM     18  C   UNL     1      -0.833  -2.950  -2.282  1.00  0.00     0.004 C 
ENDBRANCH  16  17
ENDBRANCH  15  16
ENDBRANCH  14  15
ENDBRANCH  13  14
ENDBRANCH  12  13
ENDBRANCH  10  11
ENDBRANCH   1  10
TORSDOF 13
ENDMDL
MODEL 4
REMARK VINA RESULT:    -5.086      1.198      3.231
REMARK INTER + INTRA:         -10.726
REMARK INTER:                  -8.749
REMARK INTRA:                  -1.977
REMARK UNBOUND:                -1.775
REMARK SMILES CCCCCCC=CCCCCCCCC(=O)[O-]
REMARK SMILES IDX 10 1 11 2 12 3 13 4 14 5 15 6 16 7 17 8 18 9 9 10 8 11 7 12
REMARK SMILES IDX 6 13 5 14 4 15 3 16 2 17 1 18
REMARK H PARENT
REMARK Flexibility Score: inf
ROOT
ATOM      1  C   UNL     1       2.143  -6.609  -2.695  1.00  0.00     0.004 C 
ENDROOT
BRANCH   1   2
ATOM      2  C   UNL     1       0.608  -6.582  -2.595  1.00  0.00     0.000 C 
BRANCH   2   3
ATOM      3  C   UNL     1       0.042  -5.594  -1.554  1.00  0.00     0.000 C 
BRANCH   3   4
ATOM      4  C   UNL     1      -0.744  -4.405  -2.140  1.00  0.00     0.000 C 
BRANCH   4   5
ATOM      5  C   UNL     1      -1.482  -4.699  -3.458  1.00  0.00     0.006 C 
BRANCH   5   6
ATOM      6  C   UNL     1      -2.910  -5.214  -3.239  1.00  0.00     0.053 C 
BRANCH   6   7
ATOM      7  C   UNL     1      -3.012  -6.654  -3.631  1.00  0.00     0.041 C 
ATOM      8  O   UNL     1      -3.086  -6.977  -4.845  1.00  0.00    -0.550 OA
ATOM      9  O   UNL     1      -2.982  -7.644  -2.656  1.00  0.00    -0.550 OA
ENDBRANCH   6   7
ENDBRANCH   5   6
ENDBRANCH   4   5
ENDBRANCH   3   4
ENDBRANCH   2   3
ENDBRANCH   1   2
BRANCH   1  10
ATOM     10  C   UNL     1       2.641  -6.672  -4.147  1.00  0.00     0.027 C 
BRANCH  10  11
ATOM     11  C   UNL     1       4.140  -6.832  -4.211  1.00  0.00    -0.031 C 
ATOM     12  C   UNL     1       4.968  -6.098  -4.979  1.00  0.00    -0.031 C 
BRANCH  12  13
ATOM     13  C   UNL     1       4.537  -5.014  -5.941  1.00  0.00     0.027 C 
BRANCH  13  14
ATOM     14  C   UNL     1       4.999  -3.627  -5.470  1.00  0.00     0.004 C 
BRANCH  14  15
ATOM     15  C   UNL     1       3.832  -2.629  -5.357  1.00  0.00     0.000 C 
BRANCH  15  16
ATOM     16  C   UNL     1       2.721  -3.116  -4.407  1.00  0.00    -0.000 C 
BRANCH  16  17
ATOM     17  C   UNL     1       1.297  -3.041  -4.985  1.00  0.00    -0.003 C 
ATOM     18  C   UNL     1       1.108  -3.914  -6.224  1.00  0.00     0.004 C 
ENDBRANCH  16  17
ENDBRANCH  15  16
ENDBRANCH  14  15
ENDBRANCH  13  14
ENDBRANCH  12  13
ENDBRANCH  10  11
ENDBRANCH   1  10
TORSDOF 13
ENDMDL
MODEL 5
REMARK VINA RESULT:    -5.053      2.975      5.772
REMARK INTER + INTRA:         -10.668
REMARK INTER:                  -8.142
REMARK INTRA:                  -2.527
REMARK UNBOUND:                -1.775
REMARK SMILES CCCCCCC=CCCCCCCCC(=O)[O-]
REMARK SMILES IDX 10 1 11 2 12 3 13 4 14 5 15 6 16 7 17 8 18 9 9 10 8 11 7 12
REMARK SMILES IDX 6 13 5 14 4 15 3 16 2 17 1 18
REMARK H PARENT
REMARK Flexibility Score: inf
ROOT
ATOM      1  C   UNL     1       1.065  -4.590  -6.122  1.00  0.00     0.004 C 
ENDROOT
BRANCH   1   2
ATOM      2  C   UNL     1       1.177  -3.328  -5.250  1.00  0.00     0.000 C 
BRANCH   2   3
ATOM      3  C   UNL     1       2.483  -3.214  -4.436  1.00  0.00     0.000 C 
BRANCH   3   4
ATOM      4  C   UNL     1       3.710  -2.727  -5.232  1.00  0.00     0.000 C 
BRANCH   4   5
ATOM      5  C   UNL     1       4.889  -3.715  -5.276  1.00  0.00     0.006 C 
BRANCH   5   6
ATOM      6  C   UNL     1       4.741  -4.770  -6.379  1.00  0.00     0.053 C 
BRANCH   6   7
ATOM      7  C   UNL     1       4.693  -6.142  -5.786  1.00  0.00     0.041 C 
ATOM      8  O   UNL     1       4.944  -6.315  -4.564  1.00  0.00    -0.550 OA
ATOM      9  O   UNL     1       4.327  -7.227  -6.573  1.00  0.00    -0.550 OA
ENDBRANCH   6   7
ENDBRANCH   5   6
ENDBRANCH   4   5
ENDBRANCH   3   4
ENDBRANCH   2   3
ENDBRANCH   1   2
BRANCH   1  10
ATOM     10  C   UNL     1       0.182  -5.674  -5.485  1.00  0.00     0.027 C 
BRANCH  10  11
ATOM     11  C   UNL     1       0.975  -6.918  -5.167  1.00  0.00    -0.031 C 
ATOM     12  C   UNL     1       1.564  -7.183  -3.985  1.00  0.00    -0.031 C 
BRANCH  12  13
ATOM     13  C   UNL     1       1.568  -6.264  -2.784  1.00  0.00     0.027 C 
BRANCH  13  14
ATOM     14  C   UNL     1       0.606  -6.758  -1.694  1.00  0.00     0.004 C 
BRANCH  14  15
ATOM     15  C   UNL     1      -0.678  -5.912  -1.619  1.00  0.00     0.000 C 
BRANCH  15  16
ATOM     16  C   UNL     1      -0.441  -4.434  -1.982  1.00  0.00    -0.000 C 
BRANCH  16  17
ATOM     17  C   UNL     1      -1.558  -3.787  -2.819  1.00  0.00    -0.003 C 
ATOM     18  C   UNL     1      -2.609  -4.789  -3.293  1.00  0.00     0.004 C 
ENDBRANCH  16  17
ENDBRANCH  15  16
ENDBRANCH  14  15
ENDBRANCH  13  14
ENDBRANCH  12  13
ENDBRANCH  10  11
ENDBRANCH   1  10
TORSDOF 13
ENDMDL
MODEL 6
REMARK VINA RESULT:    -5.000      1.147      2.611
REMARK INTER + INTRA:         -10.576
REMARK INTER:                  -8.225
REMARK INTRA:                  -2.351
REMARK UNBOUND:                -1.775
REMARK SMILES CCCCCCC=CCCCCCCCC(=O)[O-]
REMARK SMILES IDX 10 1 11 2 12 3 13 4 14 5 15 6 16 7 17 8 18 9 9 10 8 11 7 12
REMARK SMILES IDX 6 13 5 14 4 15 3 16 2 17 1 18
REMARK H PARENT
REMARK Flexibility Score: inf
ROOT
ATOM      1  C   UNL     1       1.322  -3.422  -3.639  1.00  0.00     0.004 C 
ENDROOT
BRANCH   1   2
ATOM      2  C   UNL     1      -0.030  -3.355  -2.909  1.00  0.00     0.000 C 
BRANCH   2   3
ATOM      3  C   UNL     1      -0.084  -4.117  -1.569  1.00  0.00     0.000 C 
BRANCH   3   4
ATOM      4  C   UNL     1       0.371  -5.588  -1.633  1.00  0.00     0.000 C 
BRANCH   4   5
ATOM      5  C   UNL     1      -0.712  -6.585  -2.084  1.00  0.00     0.006 C 
BRANCH   5   6
ATOM      6  C   UNL     1      -2.134  -6.077  -1.818  1.00  0.00     0.053 C 
BRANCH   6   7
ATOM      7  C   UNL     1      -2.878  -5.910  -3.106  1.00  0.00     0.041 C 
ATOM      8  O   UNL     1      -3.477  -4.832  -3.357  1.00  0.00    -0.550 OA
ATOM      9  O   UNL     1      -2.874  -6.931  -4.048  1.00  0.00    -0.550 OA
ENDBRANCH   6   7
ENDBRANCH   5   6
ENDBRANCH   4   5
ENDBRANCH   3   4
ENDBRANCH   2   3
ENDBRANCH   1   2
BRANCH   1  10
ATOM     10  C   UNL     1       1.181  -3.832  -5.113  1.00  0.00     0.027 C 
BRANCH  10  11
ATOM     11  C   UNL     1       0.167  -4.937  -5.285  1.00  0.00    -0.031 C 
ATOM     12  C   UNL     1       0.459  -6.225  -5.546  1.00  0.00    -0.031 C 
BRANCH  12  13
ATOM     13  C   UNL     1       1.849  -6.783  -5.753  1.00  0.00     0.027 C 
BRANCH  13  14
ATOM     14  C   UNL     1       2.604  -6.923  -4.423  1.00  0.00     0.004 C 
BRANCH  14  15
ATOM     15  C   UNL     1       4.043  -6.383  -4.506  1.00  0.00     0.000 C 
BRANCH  15  16
ATOM     16  C   UNL     1       4.512  -6.156  -5.955  1.00  0.00    -0.000 C 
BRANCH  16  17
ATOM     17  C   UNL     1       4.680  -4.681  -6.357  1.00  0.00    -0.003 C 
ATOM     18  C   UNL     1       4.891  -3.754  -5.161  1.00  0.00     0.004 C 
ENDBRANCH  16  17
ENDBRANCH  15  16
ENDBRANCH  14  15
ENDBRANCH  13  14
ENDBRANCH  12  13
ENDBRANCH  10  11
ENDBRANCH   1  10
TORSDOF 13
ENDMDL
MODEL 7
REMARK VINA RESULT:    -4.951      2.711      5.697
REMARK INTER + INTRA:         -10.488
REMARK INTER:                  -8.138
REMARK INTRA:                  -2.350
REMARK UNBOUND:                -1.775
REMARK SMILES CCCCCCC=CCCCCCCCC(=O)[O-]
REMARK SMILES IDX 10 1 11 2 12 3 13 4 14 5 15 6 16 7 17 8 18 9 9 10 8 11 7 12
REMARK SMILES IDX 6 13 5 14 4 15 3 16 2 17 1 18
REMARK H PARENT
REMARK Flexibility Score: inf
ROOT
ATOM      1  C   UNL     1      -1.416  -4.492  -3.580  1.00  0.00     0.004 C 
ENDROOT
BRANCH   1   2
ATOM      2  C   UNL     1      -0.875  -3.396  -2.646  1.00  0.00     0.000 C 
BRANCH   2   3
ATOM      3  C   UNL     1       0.433  -2.727  -3.118  1.00  0.00     0.000 C 
BRANCH   3   4
ATOM      4  C   UNL     1       1.227  -3.515  -4.178  1.00  0.00     0.000 C 
BRANCH   4   5
ATOM      5  C   UNL     1       2.243  -2.683  -4.980  1.00  0.00     0.006 C 
BRANCH   5   6
ATOM      6  C   UNL     1       3.629  -3.335  -5.043  1.00  0.00     0.053 C 
BRANCH   6   7
ATOM      7  C   UNL     1       3.521  -4.747  -5.526  1.00  0.00     0.041 C 
ATOM      8  O   UNL     1       3.924  -5.697  -4.806  1.00  0.00    -0.550 OA
ATOM      9  O   UNL     1       2.933  -5.017  -6.756  1.00  0.00    -0.550 OA
ENDBRANCH   6   7
ENDBRANCH   5   6
ENDBRANCH   4   5
ENDBRANCH   3   4
ENDBRANCH   2   3
ENDBRANCH   1   2
BRANCH   1  10
ATOM     10  C   UNL     1      -2.847  -4.922  -3.224  1.00  0.00     0.027 C 
BRANCH  10  11
ATOM     11  C   UNL     1      -2.996  -6.424  -3.250  1.00  0.00    -0.031 C 
ATOM     12  C   UNL     1      -2.668  -7.255  -2.242  1.00  0.00    -0.031 C 
BRANCH  12  13
ATOM     13  C   UNL     1      -2.056  -6.835  -0.925  1.00  0.00     0.027 C 
BRANCH  13  14
ATOM     14  C   UNL     1      -0.616  -7.352  -0.783  1.00  0.00     0.004 C 
BRANCH  14  15
ATOM     15  C   UNL     1       0.428  -6.236  -0.966  1.00  0.00     0.000 C 
BRANCH  15  16
ATOM     16  C   UNL     1       1.357  -6.480  -2.169  1.00  0.00    -0.000 C 
BRANCH  16  17
ATOM     17  C   UNL     1       0.957  -7.663  -3.067  1.00  0.00    -0.003 C 
ATOM     18  C   UNL     1       0.700  -7.254  -4.517  1.00  0.00     0.004 C 
ENDBRANCH  16  17
ENDBRANCH  15  16
ENDBRANCH  14  15
ENDBRANCH  13  14
ENDBRANCH  12  13
ENDBRANCH  10  11
ENDBRANCH   1  10
TORSDOF 13
ENDMDL
MODEL 8
REMARK VINA RESULT:    -4.941      2.333      5.791
REMARK INTER + INTRA:         -10.471
REMARK INTER:                  -8.729
REMARK INTRA:                  -1.742
REMARK UNBOUND:                -1.775
REMARK SMILES CCCCCCC=CCCCCCCCC(=O)[O-]
REMARK SMILES IDX 10 1 11 2 12 3 13 4 14 5 15 6 16 7 17 8 18 9 9 10 8 11 7 12
REMARK SMILES IDX 6 13 5 14 4 15 3 16 2 17 1 18
REMARK H PARENT
REMARK Flexibility Score: inf
ROOT
ATOM      1  C   UNL     1       1.028  -3.504  -4.741  1.00  0.00     0.004 C 
ENDROOT
BRANCH   1   2
ATOM      2  C   UNL     1       2.222  -3.043  -5.593  1.00  0.00     0.000 C 
BRANCH   2   3
ATOM      3  C   UNL     1       3.538  -2.844  -4.815  1.00  0.00     0.000 C 
BRANCH   3   4
ATOM      4  C   UNL     1       4.789  -3.456  -5.475  1.00  0.00     0.000 C 
BRANCH   4   5
ATOM      5  C   UNL     1       4.594  -4.869  -6.051  1.00  0.00     0.006 C 
BRANCH   5   6
ATOM      6  C   UNL     1       4.965  -5.974  -5.054  1.00  0.00     0.053 C 
BRANCH   6   7
ATOM      7  C   UNL     1       3.733  -6.654  -4.545  1.00  0.00     0.041 C 
ATOM      8  O   UNL     1       3.740  -7.221  -3.421  1.00  0.00    -0.550 OA
ATOM      9  O   UNL     1       2.563  -6.624  -5.295  1.00  0.00    -0.550 OA
ENDBRANCH   6   7
ENDBRANCH   5   6
ENDBRANCH   4   5
ENDBRANCH   3   4
ENDBRANCH   2   3
ENDBRANCH   1   2
BRANCH   1  10
ATOM     10  C   UNL     1       1.315  -3.441  -3.233  1.00  0.00     0.027 C 
BRANCH  10  11
ATOM     11  C   UNL     1       0.040  -3.438  -2.427  1.00  0.00    -0.031 C 
ATOM     12  C   UNL     1      -0.362  -4.427  -1.604  1.00  0.00    -0.031 C 
BRANCH  12  13
ATOM     13  C   UNL     1       0.373  -5.729  -1.377  1.00  0.00     0.027 C 
BRANCH  13  14
ATOM     14  C   UNL     1      -0.597  -6.873  -1.049  1.00  0.00     0.004 C 
BRANCH  14  15
ATOM     15  C   UNL     1      -2.066  -6.482  -1.290  1.00  0.00     0.000 C 
BRANCH  15  16
ATOM     16  C   UNL     1      -2.657  -7.130  -2.556  1.00  0.00    -0.000 C 
BRANCH  16  17
ATOM     17  C   UNL     1      -2.747  -6.200  -3.778  1.00  0.00    -0.003 C 
ATOM     18  C   UNL     1      -1.519  -6.282  -4.684  1.00  0.00     0.004 C 
ENDBRANCH  16  17
ENDBRANCH  15  16
ENDBRANCH  14  15
ENDBRANCH  13  14
ENDBRANCH  12  13
ENDBRANCH  10  11
ENDBRANCH   1  10
TORSDOF 13
ENDMDL
MODEL 9
REMARK VINA RESULT:    -4.932      3.124      5.347
REMARK INTER + INTRA:         -10.455
REMARK INTER:                  -8.113
REMARK INTRA:                  -2.342
REMARK UNBOUND:                -1.775
REMARK SMILES CCCCCCC=CCCCCCCCC(=O)[O-]
REMARK SMILES IDX 10 1 11 2 12 3 13 4 14 5 15 6 16 7 17 8 18 9 9 10 8 11 7 12
REMARK SMILES IDX 6 13 5 14 4 15 3 16 2 17 1 18
REMARK H PARENT
REMARK Flexibility Score: inf
ROOT
ATOM      1  C   UNL     1      -0.348  -5.220  -1.608  1.00  0.00     0.004 C 
ENDROOT
BRANCH   1   2
ATOM      2  C   UNL     1      -0.740  -3.736  -1.702  1.00  0.00     0.000 C 
BRANCH   2   3
ATOM      3  C   UNL     1      -0.067  -2.957  -2.851  1.00  0.00     0.000 C 
BRANCH   3   4
ATOM      4  C   UNL     1       1.340  -3.449  -3.241  1.00  0.00     0.000 C 
BRANCH   4   5
ATOM      5  C   UNL     1       1.775  -3.105  -4.676  1.00  0.00     0.006 C 
BRANCH   5   6
ATOM      6  C   UNL     1       3.116  -3.741  -5.061  1.00  0.00     0.053 C 
BRANCH   6   7
ATOM      7  C   UNL     1       4.043  -2.709  -5.620  1.00  0.00     0.041 C 
ATOM      8  O   UNL     1       3.725  -1.491  -5.597  1.00  0.00    -0.550 OA
ATOM      9  O   UNL     1       5.280  -3.088  -6.129  1.00  0.00    -0.550 OA
ENDBRANCH   6   7
ENDBRANCH   5   6
ENDBRANCH   4   5
ENDBRANCH   3   4
ENDBRANCH   2   3
ENDBRANCH   1   2
BRANCH   1  10
ATOM     10  C   UNL     1      -1.563  -6.158  -1.656  1.00  0.00     0.027 C 
BRANCH  10  11
ATOM     11  C   UNL     1      -2.586  -5.690  -2.662  1.00  0.00    -0.031 C 
ATOM     12  C   UNL     1      -2.595  -6.015  -3.969  1.00  0.00    -0.031 C 
BRANCH  12  13
ATOM     13  C   UNL     1      -1.562  -6.872  -4.665  1.00  0.00     0.027 C 
BRANCH  13  14
ATOM     14  C   UNL     1      -0.408  -6.023  -5.220  1.00  0.00     0.004 C 
BRANCH  14  15
ATOM     15  C   UNL     1       0.869  -6.851  -5.450  1.00  0.00     0.000 C 
BRANCH  15  16
ATOM     16  C   UNL     1       1.286  -7.662  -4.209  1.00  0.00    -0.000 C 
BRANCH  16  17
ATOM     17  C   UNL     1       2.271  -6.947  -3.268  1.00  0.00    -0.003 C 
ATOM     18  C   UNL     1       3.674  -7.551  -3.298  1.00  0.00     0.004 C 
ENDBRANCH  16  17
ENDBRANCH  15  16
ENDBRANCH  14  15
ENDBRANCH  13  14
ENDBRANCH  12  13
ENDBRANCH  10  11
ENDBRANCH   1  10
TORSDOF 13
ENDMDL
