MODEL 1
REMARK VINA RESULT:    25.128      0.000      0.000
REMARK INTER + INTRA:          35.294
REMARK INTER:                  35.411
REMARK INTRA:                  -0.117
REMARK UNBOUND:                -0.117
REMARK SMILES C=C(CC[C@@H](C(=O)[O-])[C@@H]1[C@@H](O)C[C@]2(C)C3=C(CC[C@]12C)[C@@]1(C)CC[C@H](O)C(C)(C)[C@H]1CC3)C(C)C
REMARK SMILES IDX 4 1 5 2 6 3 7 4 8 5 9 6 10 7 19 8 12 9 13 10 18 11 20 12
REMARK SMILES IDX 14 13 15 14 17 15 16 16 32 17 21 18 31 19 30 20 23 21 22 22
REMARK SMILES IDX 27 23 24 24 25 25 28 26 29 27 11 28 26 30 3 32 2 33 1 34
REMARK SMILES IDX 33 35 34 36 35 37
REMARK H PARENT 11 29 26 31
REMARK Flexibility Score: inf
ROOT
ATOM      1  C   UNL     1      17.298  -7.439  15.242  1.00  0.00     0.014 C 
ENDROOT
BRANCH   1   2
ATOM      2  C   UNL     1      17.140  -5.968  14.779  1.00  0.00     0.042 C 
BRANCH   2   3
ATOM      3  C   UNL     1      18.150  -5.680  13.691  1.00  0.00     0.045 C 
ATOM      4  O   UNL     1      18.705  -6.621  13.063  1.00  0.00    -0.550 OA
ATOM      5  O   UNL     1      18.436  -4.366  13.344  1.00  0.00    -0.550 OA
ENDBRANCH   2   3
BRANCH   2   6
ATOM      6  C   UNL     1      15.672  -5.653  14.304  1.00  0.00     0.033 C 
ATOM      7  C   UNL     1      14.566  -6.205  15.211  1.00  0.00     0.119 C 
ATOM      8  C   UNL     1      15.219  -6.058  12.833  1.00  0.00    -0.017 C 
ATOM      9  C   UNL     1      13.309  -6.104  14.365  1.00  0.00     0.043 C 
ATOM     10  C   UNL     1      13.726  -6.616  12.979  1.00  0.00    -0.003 C 
ATOM     11  C   UNL     1      16.110  -7.099  12.111  1.00  0.00     0.012 C 
ATOM     12  C   UNL     1      15.289  -4.762  11.962  1.00  0.00     0.013 C 
ATOM     13  C   UNL     1      12.763  -6.068  11.883  1.00  0.00     0.017 C 
ATOM     14  C   UNL     1      13.579  -8.168  12.990  1.00  0.00    -0.064 C 
ATOM     15  C   UNL     1      16.002  -8.514  12.661  1.00  0.00     0.032 C 
ATOM     16  C   UNL     1      14.584  -9.035  12.680  1.00  0.00    -0.064 C 
ATOM     17  C   UNL     1      12.217  -8.776  13.282  1.00  0.00     0.032 C 
ATOM     18  C   UNL     1      14.341 -10.580  12.770  1.00  0.00    -0.008 C 
ATOM     19  C   UNL     1      11.911  -9.774  12.188  1.00  0.00     0.009 C 
ATOM     20  C   UNL     1      12.869 -11.006  12.270  1.00  0.00     0.007 C 
ATOM     21  C   UNL     1      14.612 -10.943  14.261  1.00  0.00     0.014 C 
ATOM     22  C   UNL     1      15.384 -11.315  11.876  1.00  0.00     0.016 C 
ATOM     23  C   UNL     1      12.242 -12.331  12.938  1.00  0.00    -0.006 C 
ATOM     24  C   UNL     1      14.134 -12.326  14.665  1.00  0.00     0.033 C 
ATOM     25  C   UNL     1      12.629 -12.454  14.442  1.00  0.00     0.120 C 
ATOM     26  C   UNL     1      12.698 -13.604  12.160  1.00  0.00     0.014 C 
ATOM     27  C   UNL     1      10.688 -12.359  12.858  1.00  0.00     0.014 C 
BRANCH   7  28
ATOM     28  O   UNL     1      14.424  -5.435  16.377  1.00  0.00    -0.393 OA
ATOM     29  H   UNL     1      15.042  -4.665  16.285  1.00  0.00     0.210 HD
ENDBRANCH   7  28
BRANCH  25  30
ATOM     30  O   UNL     1      12.210 -13.691  14.970  1.00  0.00    -0.393 OA
ATOM     31  H   UNL     1      11.635 -13.500  15.755  1.00  0.00     0.210 HD
ENDBRANCH  25  30
ENDBRANCH   2   6
ENDBRANCH   1   2
BRANCH   1  32
ATOM     32  C   UNL     1      18.743  -7.773  15.647  1.00  0.00     0.031 C 
BRANCH  32  33
ATOM     33  C   UNL     1      19.073  -9.221  15.338  1.00  0.00    -0.075 C 
ATOM     34  C   UNL     1      20.361  -9.608  15.323  1.00  0.00     0.008 C 
BRANCH  33  35
ATOM     35  C   UNL     1      17.972 -10.242  15.077  1.00  0.00     0.008 C 
ATOM     36  C   UNL     1      18.328 -11.159  13.902  1.00  0.00     0.012 C 
ATOM     37  C   UNL     1      17.667 -11.059  16.340  1.00  0.00     0.012 C 
ENDBRANCH  33  35
ENDBRANCH  32  33
ENDBRANCH   1  32
TORSDOF 8
ENDMDL
