MODEL 1
REMARK VINA RESULT:    -3.548      0.000      0.000
REMARK INTER + INTRA:          -5.822
REMARK INTER:                  -5.103
REMARK INTRA:                  -0.719
REMARK UNBOUND:                -0.719
REMARK SMILES O=C(CO)[C@H](O)[C@@H](O)[C@@H](O)CO
REMARK SMILES IDX 7 1 9 2 11 3 12 4 10 6 5 8 2 9 1 10 3 11 4 12 6 14 8 16
REMARK H PARENT 12 5 10 7 4 13 6 15 8 17
REMARK Flexibility Score: inf
ROOT
ATOM      1  C   UNL     1      71.345  32.960  60.220  1.00  0.00     0.181 C 
ENDROOT
BRANCH   1   2
ATOM      2  C   UNL     1      70.965  33.567  58.835  1.00  0.00     0.171 C 
BRANCH   2   3
ATOM      3  C   UNL     1      70.611  35.059  58.901  1.00  0.00     0.190 C 
BRANCH   3   4
ATOM      4  O   UNL     1      69.626  35.262  59.877  1.00  0.00    -0.394 OA
ATOM      5  H   UNL     1      68.914  35.801  59.443  1.00  0.00     0.210 HD
ENDBRANCH   3   4
ENDBRANCH   2   3
BRANCH   2   6
ATOM      6  O   UNL     1      69.905  32.860  58.241  1.00  0.00    -0.388 OA
ATOM      7  H   UNL     1      70.148  31.898  58.276  1.00  0.00     0.211 HD
ENDBRANCH   2   6
ENDBRANCH   1   2
BRANCH   1   8
ATOM      8  C   UNL     1      72.120  31.620  60.150  1.00  0.00     0.214 C 
BRANCH   8   9
ATOM      9  C   UNL     1      71.216  30.404  60.220  1.00  0.00     0.189 C 
ATOM     10  O   UNL     1      70.508  30.146  59.258  1.00  0.00    -0.294 OA
BRANCH   9  11
ATOM     11  C   UNL     1      71.153  29.489  61.418  1.00  0.00     0.234 C 
BRANCH  11  12
ATOM     12  O   UNL     1      72.414  28.972  61.741  1.00  0.00    -0.388 OA
ATOM     13  H   UNL     1      72.725  28.480  60.937  1.00  0.00     0.211 HD
ENDBRANCH  11  12
ENDBRANCH   9  11
ENDBRANCH   8   9
BRANCH   8  14
ATOM     14  O   UNL     1      73.052  31.567  61.200  1.00  0.00    -0.382 OA
ATOM     15  H   UNL     1      73.492  32.457  61.243  1.00  0.00     0.211 HD
ENDBRANCH   8  14
ENDBRANCH   1   8
BRANCH   1  16
ATOM     16  O   UNL     1      72.147  33.889  60.908  1.00  0.00    -0.387 OA
ATOM     17  H   UNL     1      73.078  33.541  60.892  1.00  0.00     0.211 HD
ENDBRANCH   1  16
TORSDOF 10
ENDMDL
MODEL 2
REMARK VINA RESULT:    -3.547      1.255      2.177
REMARK INTER + INTRA:          -5.821
REMARK INTER:                  -4.902
REMARK INTRA:                  -0.919
REMARK UNBOUND:                -0.719
REMARK SMILES O=C(CO)[C@H](O)[C@@H](O)[C@@H](O)CO
REMARK SMILES IDX 7 1 9 2 11 3 12 4 10 6 5 8 2 9 1 10 3 11 4 12 6 14 8 16
REMARK H PARENT 12 5 10 7 4 13 6 15 8 17
REMARK Flexibility Score: inf
ROOT
ATOM      1  C   UNL     1      71.001  33.703  58.589  1.00  0.00     0.181 C 
ENDROOT
BRANCH   1   2
ATOM      2  C   UNL     1      70.805  35.250  58.604  1.00  0.00     0.171 C 
BRANCH   2   3
ATOM      3  C   UNL     1      69.334  35.677  58.487  1.00  0.00     0.190 C 
BRANCH   3   4
ATOM      4  O   UNL     1      68.703  35.521  59.728  1.00  0.00    -0.394 OA
ATOM      5  H   UNL     1      69.175  34.777  60.186  1.00  0.00     0.210 HD
ENDBRANCH   3   4
ENDBRANCH   2   3
BRANCH   2   6
ATOM      6  O   UNL     1      71.554  35.870  57.590  1.00  0.00    -0.388 OA
ATOM      7  H   UNL     1      72.183  36.494  58.039  1.00  0.00     0.211 HD
ENDBRANCH   2   6
ENDBRANCH   1   2
BRANCH   1   8
ATOM      8  C   UNL     1      71.654  33.120  59.869  1.00  0.00     0.214 C 
BRANCH   8   9
ATOM      9  C   UNL     1      71.679  31.604  59.887  1.00  0.00     0.189 C 
ATOM     10  O   UNL     1      71.555  31.004  58.829  1.00  0.00    -0.294 OA
BRANCH   9  11
ATOM     11  C   UNL     1      71.858  30.795  61.148  1.00  0.00     0.234 C 
BRANCH  11  12
ATOM     12  O   UNL     1      72.899  31.297  61.940  1.00  0.00    -0.388 OA
ATOM     13  H   UNL     1      73.739  30.951  61.541  1.00  0.00     0.211 HD
ENDBRANCH  11  12
ENDBRANCH   9  11
ENDBRANCH   8   9
BRANCH   8  14
ATOM     14  O   UNL     1      70.962  33.588  60.997  1.00  0.00    -0.382 OA
ATOM     15  H   UNL     1      70.884  32.825  61.628  1.00  0.00     0.211 HD
ENDBRANCH   8  14
ENDBRANCH   1   8
BRANCH   1  16
ATOM     16  O   UNL     1      69.742  33.096  58.431  1.00  0.00    -0.387 OA
ATOM     17  H   UNL     1      69.887  32.112  58.439  1.00  0.00     0.211 HD
ENDBRANCH   1  16
TORSDOF 10
ENDMDL
MODEL 3
REMARK VINA RESULT:    -3.528     20.662     22.168
REMARK INTER + INTRA:          -5.794
REMARK INTER:                  -4.681
REMARK INTRA:                  -1.113
REMARK UNBOUND:                -0.719
REMARK SMILES O=C(CO)[C@H](O)[C@@H](O)[C@@H](O)CO
REMARK SMILES IDX 7 1 9 2 11 3 12 4 10 6 5 8 2 9 1 10 3 11 4 12 6 14 8 16
REMARK H PARENT 12 5 10 7 4 13 6 15 8 17
REMARK Flexibility Score: inf
ROOT
ATOM      1  C   UNL     1      55.699  18.637  52.345  1.00  0.00     0.181 C 
ENDROOT
BRANCH   1   2
ATOM      2  C   UNL     1      57.196  18.750  51.925  1.00  0.00     0.171 C 
BRANCH   2   3
ATOM      3  C   UNL     1      57.684  17.559  51.087  1.00  0.00     0.190 C 
BRANCH   3   4
ATOM      4  O   UNL     1      56.814  17.361  50.007  1.00  0.00    -0.394 OA
ATOM      5  H   UNL     1      57.339  17.563  49.189  1.00  0.00     0.210 HD
ENDBRANCH   3   4
ENDBRANCH   2   3
BRANCH   2   6
ATOM      6  O   UNL     1      58.030  18.908  53.044  1.00  0.00    -0.388 OA
ATOM      7  H   UNL     1      57.436  19.047  53.827  1.00  0.00     0.211 HD
ENDBRANCH   2   6
ENDBRANCH   1   2
BRANCH   1   8
ATOM      8  C   UNL     1      55.270  19.603  53.480  1.00  0.00     0.214 C 
BRANCH   8   9
ATOM      9  C   UNL     1      53.779  19.880  53.494  1.00  0.00     0.189 C 
ATOM     10  O   UNL     1      53.016  18.964  53.764  1.00  0.00    -0.294 OA
BRANCH   9  11
ATOM     11  C   UNL     1      53.188  21.237  53.200  1.00  0.00     0.234 C 
BRANCH  11  12
ATOM     12  O   UNL     1      53.421  21.626  51.875  1.00  0.00    -0.388 OA
ATOM     13  H   UNL     1      52.542  21.906  51.511  1.00  0.00     0.211 HD
ENDBRANCH  11  12
ENDBRANCH   9  11
ENDBRANCH   8   9
BRANCH   8  14
ATOM     14  O   UNL     1      55.967  20.815  53.347  1.00  0.00    -0.382 OA
ATOM     15  H   UNL     1      55.541  21.315  52.602  1.00  0.00     0.211 HD
ENDBRANCH   8  14
ENDBRANCH   1   8
BRANCH   1  16
ATOM     16  O   UNL     1      54.899  18.909  51.221  1.00  0.00    -0.387 OA
ATOM     17  H   UNL     1      55.449  19.447  50.591  1.00  0.00     0.211 HD
ENDBRANCH   1  16
TORSDOF 10
ENDMDL
MODEL 4
REMARK VINA RESULT:    -3.526     20.772     22.238
REMARK INTER + INTRA:          -5.792
REMARK INTER:                  -4.819
REMARK INTRA:                  -0.973
REMARK UNBOUND:                -0.719
REMARK SMILES O=C(CO)[C@H](O)[C@@H](O)[C@@H](O)CO
REMARK SMILES IDX 7 1 9 2 11 3 12 4 10 6 5 8 2 9 1 10 3 11 4 12 6 14 8 16
REMARK H PARENT 12 5 10 7 4 13 6 15 8 17
REMARK Flexibility Score: inf
ROOT
ATOM      1  C   UNL     1      57.906  18.265  51.391  1.00  0.00     0.181 C 
ENDROOT
BRANCH   1   2
ATOM      2  C   UNL     1      58.582  18.338  49.987  1.00  0.00     0.171 C 
BRANCH   2   3
ATOM      3  C   UNL     1      58.836  16.958  49.363  1.00  0.00     0.190 C 
BRANCH   3   4
ATOM      4  O   UNL     1      57.629  16.435  48.881  1.00  0.00    -0.394 OA
ATOM      5  H   UNL     1      57.876  15.710  48.249  1.00  0.00     0.210 HD
ENDBRANCH   3   4
ENDBRANCH   2   3
BRANCH   2   6
ATOM      6  O   UNL     1      59.787  19.058  50.037  1.00  0.00    -0.388 OA
ATOM      7  H   UNL     1      60.070  19.077  50.989  1.00  0.00     0.211 HD
ENDBRANCH   2   6
ENDBRANCH   1   2
BRANCH   1   8
ATOM      8  C   UNL     1      56.393  18.603  51.400  1.00  0.00     0.214 C 
BRANCH   8   9
ATOM      9  C   UNL     1      55.808  18.679  52.798  1.00  0.00     0.189 C 
ATOM     10  O   UNL     1      56.474  18.262  53.734  1.00  0.00    -0.294 OA
BRANCH   9  11
ATOM     11  C   UNL     1      54.445  19.255  53.093  1.00  0.00     0.234 C 
BRANCH  11  12
ATOM     12  O   UNL     1      53.648  19.313  51.942  1.00  0.00    -0.388 OA
ATOM     13  H   UNL     1      53.609  18.387  51.587  1.00  0.00     0.211 HD
ENDBRANCH  11  12
ENDBRANCH   9  11
ENDBRANCH   8   9
BRANCH   8  14
ATOM     14  O   UNL     1      55.697  17.635  50.657  1.00  0.00    -0.382 OA
ATOM     15  H   UNL     1      56.329  16.888  50.490  1.00  0.00     0.211 HD
ENDBRANCH   8  14
ENDBRANCH   1   8
BRANCH   1  16
ATOM     16  O   UNL     1      58.061  16.960  51.893  1.00  0.00    -0.387 OA
ATOM     17  H   UNL     1      57.151  16.571  51.986  1.00  0.00     0.211 HD
ENDBRANCH   1  16
TORSDOF 10
ENDMDL
MODEL 5
REMARK VINA RESULT:    -3.497     12.590     14.061
REMARK INTER + INTRA:          -5.749
REMARK INTER:                  -4.798
REMARK INTRA:                  -0.952
REMARK UNBOUND:                -0.719
REMARK SMILES O=C(CO)[C@H](O)[C@@H](O)[C@@H](O)CO
REMARK SMILES IDX 7 1 9 2 11 3 12 4 10 6 5 8 2 9 1 10 3 11 4 12 6 14 8 16
REMARK H PARENT 12 5 10 7 4 13 6 15 8 17
REMARK Flexibility Score: inf
ROOT
ATOM      1  C   UNL     1      63.458  32.384  49.211  1.00  0.00     0.181 C 
ENDROOT
BRANCH   1   2
ATOM      2  C   UNL     1      62.859  31.275  50.129  1.00  0.00     0.171 C 
BRANCH   2   3
ATOM      3  C   UNL     1      63.547  29.912  49.963  1.00  0.00     0.190 C 
BRANCH   3   4
ATOM      4  O   UNL     1      63.933  29.743  48.627  1.00  0.00    -0.394 OA
ATOM      5  H   UNL     1      63.615  30.551  48.144  1.00  0.00     0.210 HD
ENDBRANCH   3   4
ENDBRANCH   2   3
BRANCH   2   6
ATOM      6  O   UNL     1      61.477  31.129  49.918  1.00  0.00    -0.388 OA
ATOM      7  H   UNL     1      61.120  32.036  49.730  1.00  0.00     0.211 HD
ENDBRANCH   2   6
ENDBRANCH   1   2
BRANCH   1   8
ATOM      8  C   UNL     1      62.675  33.722  49.216  1.00  0.00     0.214 C 
BRANCH   8   9
ATOM      9  C   UNL     1      62.516  34.314  50.603  1.00  0.00     0.189 C 
ATOM     10  O   UNL     1      63.521  34.552  51.256  1.00  0.00    -0.294 OA
BRANCH   9  11
ATOM     11  C   UNL     1      61.175  34.632  51.217  1.00  0.00     0.234 C 
BRANCH  11  12
ATOM     12  O   UNL     1      60.446  35.532  50.430  1.00  0.00    -0.388 OA
ATOM     13  H   UNL     1      61.011  36.344  50.346  1.00  0.00     0.211 HD
ENDBRANCH  11  12
ENDBRANCH   9  11
ENDBRANCH   8   9
BRANCH   8  14
ATOM     14  O   UNL     1      61.407  33.520  48.648  1.00  0.00    -0.382 OA
ATOM     15  H   UNL     1      60.912  32.907  49.252  1.00  0.00     0.211 HD
ENDBRANCH   8  14
ENDBRANCH   1   8
BRANCH   1  16
ATOM     16  O   UNL     1      64.773  32.650  49.634  1.00  0.00    -0.387 OA
ATOM     17  H   UNL     1      64.859  32.302  50.562  1.00  0.00     0.211 HD
ENDBRANCH   1  16
TORSDOF 10
ENDMDL
MODEL 6
REMARK VINA RESULT:    -3.473      1.282      4.694
REMARK INTER + INTRA:          -5.715
REMARK INTER:                  -4.583
REMARK INTRA:                  -1.132
REMARK UNBOUND:                -0.719
REMARK SMILES O=C(CO)[C@H](O)[C@@H](O)[C@@H](O)CO
REMARK SMILES IDX 7 1 9 2 11 3 12 4 10 6 5 8 2 9 1 10 3 11 4 12 6 14 8 16
REMARK H PARENT 12 5 10 7 4 13 6 15 8 17
REMARK Flexibility Score: inf
ROOT
ATOM      1  C   UNL     1      71.610  32.880  59.134  1.00  0.00     0.181 C 
ENDROOT
BRANCH   1   2
ATOM      2  C   UNL     1      71.306  31.473  59.733  1.00  0.00     0.171 C 
BRANCH   2   3
ATOM      3  C   UNL     1      72.490  30.871  60.502  1.00  0.00     0.190 C 
BRANCH   3   4
ATOM      4  O   UNL     1      72.743  31.641  61.646  1.00  0.00    -0.394 OA
ATOM      5  H   UNL     1      72.005  32.302  61.702  1.00  0.00     0.210 HD
ENDBRANCH   3   4
ENDBRANCH   2   3
BRANCH   2   6
ATOM      6  O   UNL     1      70.889  30.574  58.737  1.00  0.00    -0.388 OA
ATOM      7  H   UNL     1      71.550  29.833  58.726  1.00  0.00     0.211 HD
ENDBRANCH   2   6
ENDBRANCH   1   2
BRANCH   1   8
ATOM      8  C   UNL     1      70.634  33.336  58.019  1.00  0.00     0.214 C 
BRANCH   8   9
ATOM      9  C   UNL     1      70.553  34.844  57.877  1.00  0.00     0.189 C 
ATOM     10  O   UNL     1      71.513  35.439  57.412  1.00  0.00    -0.294 OA
BRANCH   9  11
ATOM     11  C   UNL     1      69.339  35.647  58.275  1.00  0.00     0.234 C 
BRANCH  11  12
ATOM     12  O   UNL     1      69.035  35.486  59.633  1.00  0.00    -0.388 OA
ATOM     13  H   UNL     1      68.082  35.742  59.734  1.00  0.00     0.211 HD
ENDBRANCH  11  12
ENDBRANCH   9  11
ENDBRANCH   8   9
BRANCH   8  14
ATOM     14  O   UNL     1      69.353  32.824  58.286  1.00  0.00    -0.382 OA
ATOM     15  H   UNL     1      68.719  33.304  57.692  1.00  0.00     0.211 HD
ENDBRANCH   8  14
ENDBRANCH   1   8
BRANCH   1  16
ATOM     16  O   UNL     1      71.553  33.828  60.172  1.00  0.00    -0.387 OA
ATOM     17  H   UNL     1      72.236  34.523  59.974  1.00  0.00     0.211 HD
ENDBRANCH   1  16
TORSDOF 10
ENDMDL
MODEL 7
REMARK VINA RESULT:    -3.469     11.802     13.373
REMARK INTER + INTRA:          -5.709
REMARK INTER:                  -4.900
REMARK INTRA:                  -0.809
REMARK UNBOUND:                -0.719
REMARK SMILES O=C(CO)[C@H](O)[C@@H](O)[C@@H](O)CO
REMARK SMILES IDX 7 1 9 2 11 3 12 4 10 6 5 8 2 9 1 10 3 11 4 12 6 14 8 16
REMARK H PARENT 12 5 10 7 4 13 6 15 8 17
REMARK Flexibility Score: inf
ROOT
ATOM      1  C   UNL     1      63.381  32.778  49.975  1.00  0.00     0.181 C 
ENDROOT
BRANCH   1   2
ATOM      2  C   UNL     1      62.375  33.919  49.635  1.00  0.00     0.171 C 
BRANCH   2   3
ATOM      3  C   UNL     1      61.564  34.396  50.850  1.00  0.00     0.190 C 
BRANCH   3   4
ATOM      4  O   UNL     1      60.429  35.089  50.409  1.00  0.00    -0.394 OA
ATOM      5  H   UNL     1      60.090  35.591  51.196  1.00  0.00     0.210 HD
ENDBRANCH   3   4
ENDBRANCH   2   3
BRANCH   2   6
ATOM      6  O   UNL     1      61.496  33.536  48.608  1.00  0.00    -0.388 OA
ATOM      7  H   UNL     1      60.583  33.796  48.900  1.00  0.00     0.211 HD
ENDBRANCH   2   6
ENDBRANCH   1   2
BRANCH   1   8
ATOM      8  C   UNL     1      62.735  31.501  50.572  1.00  0.00     0.214 C 
BRANCH   8   9
ATOM      9  C   UNL     1      63.720  30.359  50.742  1.00  0.00     0.189 C 
ATOM     10  O   UNL     1      64.535  30.421  51.650  1.00  0.00    -0.294 OA
BRANCH   9  11
ATOM     11  C   UNL     1      63.737  29.143  49.849  1.00  0.00     0.234 C 
BRANCH  11  12
ATOM     12  O   UNL     1      63.787  29.496  48.495  1.00  0.00    -0.388 OA
ATOM     13  H   UNL     1      64.555  30.117  48.400  1.00  0.00     0.211 HD
ENDBRANCH  11  12
ENDBRANCH   9  11
ENDBRANCH   8   9
BRANCH   8  14
ATOM     14  O   UNL     1      61.679  31.085  49.745  1.00  0.00    -0.382 OA
ATOM     15  H   UNL     1      61.230  31.906  49.412  1.00  0.00     0.211 HD
ENDBRANCH   8  14
ENDBRANCH   1   8
BRANCH   1  16
ATOM     16  O   UNL     1      64.054  32.412  48.796  1.00  0.00    -0.387 OA
ATOM     17  H   UNL     1      63.394  32.458  48.054  1.00  0.00     0.211 HD
ENDBRANCH   1  16
TORSDOF 10
ENDMDL
MODEL 8
REMARK VINA RESULT:    -3.409     13.622     15.052
REMARK INTER + INTRA:          -5.623
REMARK INTER:                  -4.272
REMARK INTRA:                  -1.351
REMARK UNBOUND:                -0.719
REMARK SMILES O=C(CO)[C@H](O)[C@@H](O)[C@@H](O)CO
REMARK SMILES IDX 7 1 9 2 11 3 12 4 10 6 5 8 2 9 1 10 3 11 4 12 6 14 8 16
REMARK H PARENT 12 5 10 7 4 13 6 15 8 17
REMARK Flexibility Score: inf
ROOT
ATOM      1  C   UNL     1      60.874  27.035  50.723  1.00  0.00     0.181 C 
ENDROOT
BRANCH   1   2
ATOM      2  C   UNL     1      59.853  26.947  49.547  1.00  0.00     0.171 C 
BRANCH   2   3
ATOM      3  C   UNL     1      58.726  27.985  49.642  1.00  0.00     0.190 C 
BRANCH   3   4
ATOM      4  O   UNL     1      59.233  29.253  49.325  1.00  0.00    -0.394 OA
ATOM      5  H   UNL     1      60.031  29.096  48.756  1.00  0.00     0.210 HD
ENDBRANCH   3   4
ENDBRANCH   2   3
BRANCH   2   6
ATOM      6  O   UNL     1      59.297  25.660  49.450  1.00  0.00    -0.388 OA
ATOM      7  H   UNL     1      58.380  25.715  49.828  1.00  0.00     0.211 HD
ENDBRANCH   2   6
ENDBRANCH   1   2
BRANCH   1   8
ATOM      8  C   UNL     1      62.285  27.537  50.321  1.00  0.00     0.214 C 
BRANCH   8   9
ATOM      9  C   UNL     1      62.748  28.729  51.137  1.00  0.00     0.189 C 
ATOM     10  O   UNL     1      63.148  28.537  52.276  1.00  0.00    -0.294 OA
BRANCH   9  11
ATOM     11  C   UNL     1      62.748  30.142  50.609  1.00  0.00     0.234 C 
BRANCH  11  12
ATOM     12  O   UNL     1      61.488  30.513  50.123  1.00  0.00    -0.388 OA
ATOM     13  H   UNL     1      61.255  31.362  50.582  1.00  0.00     0.211 HD
ENDBRANCH  11  12
ENDBRANCH   9  11
ENDBRANCH   8   9
BRANCH   8  14
ATOM     14  O   UNL     1      62.285  27.878  48.958  1.00  0.00    -0.382 OA
ATOM     15  H   UNL     1      62.029  27.062  48.454  1.00  0.00     0.211 HD
ENDBRANCH   8  14
ENDBRANCH   1   8
BRANCH   1  16
ATOM     16  O   UNL     1      60.362  27.917  51.692  1.00  0.00    -0.387 OA
ATOM     17  H   UNL     1      59.869  27.367  52.359  1.00  0.00     0.211 HD
ENDBRANCH   1  16
TORSDOF 10
ENDMDL
MODEL 9
REMARK VINA RESULT:    -3.400      1.652      2.855
REMARK INTER + INTRA:          -5.610
REMARK INTER:                  -4.327
REMARK INTRA:                  -1.283
REMARK UNBOUND:                -0.719
REMARK SMILES O=C(CO)[C@H](O)[C@@H](O)[C@@H](O)CO
REMARK SMILES IDX 7 1 9 2 11 3 12 4 10 6 5 8 2 9 1 10 3 11 4 12 6 14 8 16
REMARK H PARENT 12 5 10 7 4 13 6 15 8 17
REMARK Flexibility Score: inf
ROOT
ATOM      1  C   UNL     1      72.716  30.878  60.155  1.00  0.00     0.181 C 
ENDROOT
BRANCH   1   2
ATOM      2  C   UNL     1      71.769  32.094  60.391  1.00  0.00     0.171 C 
BRANCH   2   3
ATOM      3  C   UNL     1      71.226  32.702  59.089  1.00  0.00     0.190 C 
BRANCH   3   4
ATOM      4  O   UNL     1      70.075  32.006  58.694  1.00  0.00    -0.394 OA
ATOM      5  H   UNL     1      69.305  32.562  58.983  1.00  0.00     0.210 HD
ENDBRANCH   3   4
ENDBRANCH   2   3
BRANCH   2   6
ATOM      6  O   UNL     1      72.402  33.095  61.146  1.00  0.00    -0.388 OA
ATOM      7  H   UNL     1      73.114  33.481  60.571  1.00  0.00     0.211 HD
ENDBRANCH   2   6
ENDBRANCH   1   2
BRANCH   1   8
ATOM      8  C   UNL     1      72.551  29.720  61.174  1.00  0.00     0.214 C 
BRANCH   8   9
ATOM      9  C   UNL     1      71.628  28.622  60.682  1.00  0.00     0.189 C 
ATOM     10  O   UNL     1      72.122  27.633  60.160  1.00  0.00    -0.294 OA
BRANCH   9  11
ATOM     11  C   UNL     1      70.126  28.684  60.813  1.00  0.00     0.234 C 
BRANCH  11  12
ATOM     12  O   UNL     1      69.543  29.390  59.754  1.00  0.00    -0.388 OA
ATOM     13  H   UNL     1      69.519  28.764  58.985  1.00  0.00     0.211 HD
ENDBRANCH  11  12
ENDBRANCH   9  11
ENDBRANCH   8   9
BRANCH   8  14
ATOM     14  O   UNL     1      72.058  30.235  62.384  1.00  0.00    -0.382 OA
ATOM     15  H   UNL     1      71.978  29.470  63.013  1.00  0.00     0.211 HD
ENDBRANCH   8  14
ENDBRANCH   1   8
BRANCH   1  16
ATOM     16  O   UNL     1      72.468  30.362  58.871  1.00  0.00    -0.387 OA
ATOM     17  H   UNL     1      71.523  30.053  58.855  1.00  0.00     0.211 HD
ENDBRANCH   1  16
TORSDOF 10
ENDMDL
