MODEL 1
REMARK VINA RESULT:    -4.642      0.000      0.000
REMARK INTER + INTRA:          -4.937
REMARK INTER:                  -4.914
REMARK INTRA:                  -0.023
REMARK UNBOUND:                -0.023
REMARK SMILES O=C([O-])c1cccnc1
REMARK SMILES IDX 4 1 5 2 9 3 6 4 8 5 7 6 2 7 1 8 3 9
REMARK H PARENT
REMARK Flexibility Score: inf
ROOT
ATOM      1  C   UNL     1     117.036 -49.495  28.774  1.00  0.00     0.016 A 
ATOM      2  C   UNL     1     117.034 -50.304  27.625  1.00  0.00     0.013 A 
ATOM      3  C   UNL     1     115.826 -49.318  29.467  1.00  0.00     0.120 A 
ATOM      4  C   UNL     1     115.851 -50.910  27.196  1.00  0.00     0.021 A 
ATOM      5  N   UNL     1     114.689 -49.920  29.029  1.00  0.00    -0.264 NA
ATOM      6  C   UNL     1     114.677 -50.705  27.919  1.00  0.00     0.111 A 
ENDROOT
BRANCH   1   7
ATOM      7  C   UNL     1     118.278 -48.844  29.244  1.00  0.00     0.073 C 
ATOM      8  O   UNL     1     118.309 -48.251  30.355  1.00  0.00    -0.545 OA
ATOM      9  O   UNL     1     119.429 -48.878  28.465  1.00  0.00    -0.545 OA
ENDBRANCH   1   7
TORSDOF 1
ENDMDL
MODEL 2
REMARK VINA RESULT:    -4.544      0.917      1.604
REMARK INTER + INTRA:          -4.833
REMARK INTER:                  -4.809
REMARK INTRA:                  -0.024
REMARK UNBOUND:                -0.023
REMARK SMILES O=C([O-])c1cccnc1
REMARK SMILES IDX 4 1 5 2 9 3 6 4 8 5 7 6 2 7 1 8 3 9
REMARK H PARENT
REMARK Flexibility Score: inf
ROOT
ATOM      1  C   UNL     1     117.031 -49.558  28.837  1.00  0.00     0.016 A 
ATOM      2  C   UNL     1     115.835 -49.409  29.559  1.00  0.00     0.013 A 
ATOM      3  C   UNL     1     116.997 -50.283  27.633  1.00  0.00     0.120 A 
ATOM      4  C   UNL     1     114.651 -49.972  29.079  1.00  0.00     0.021 A 
ATOM      5  N   UNL     1     115.831 -50.820  27.187  1.00  0.00    -0.264 NA
ATOM      6  C   UNL     1     114.669 -50.681  27.879  1.00  0.00     0.111 A 
ENDROOT
BRANCH   1   7
ATOM      7  C   UNL     1     118.296 -48.970  29.328  1.00  0.00     0.073 C 
ATOM      8  O   UNL     1     118.384 -48.535  30.507  1.00  0.00    -0.545 OA
ATOM      9  O   UNL     1     119.405 -48.889  28.494  1.00  0.00    -0.545 OA
ENDBRANCH   1   7
TORSDOF 1
ENDMDL
MODEL 3
REMARK VINA RESULT:    -4.532      7.362      8.384
REMARK INTER + INTRA:          -4.820
REMARK INTER:                  -4.797
REMARK INTRA:                  -0.024
REMARK UNBOUND:                -0.023
REMARK SMILES O=C([O-])c1cccnc1
REMARK SMILES IDX 4 1 5 2 9 3 6 4 8 5 7 6 2 7 1 8 3 9
REMARK H PARENT
REMARK Flexibility Score: inf
ROOT
ATOM      1  C   UNL     1     110.126 -49.547  33.412  1.00  0.00     0.016 A 
ATOM      2  C   UNL     1     109.465 -50.753  33.697  1.00  0.00     0.013 A 
ATOM      3  C   UNL     1     110.950 -49.491  32.275  1.00  0.00     0.120 A 
ATOM      4  C   UNL     1     109.633 -51.860  32.863  1.00  0.00     0.021 A 
ATOM      5  N   UNL     1     111.096 -50.582  31.478  1.00  0.00    -0.264 NA
ATOM      6  C   UNL     1     110.461 -51.754  31.746  1.00  0.00     0.111 A 
ENDROOT
BRANCH   1   7
ATOM      7  C   UNL     1     109.961 -48.363  34.283  1.00  0.00     0.073 C 
ATOM      8  O   UNL     1     109.055 -48.334  35.159  1.00  0.00    -0.545 OA
ATOM      9  O   UNL     1     110.806 -47.267  34.149  1.00  0.00    -0.545 OA
ENDBRANCH   1   7
TORSDOF 1
ENDMDL
MODEL 4
REMARK VINA RESULT:    -4.445      7.441      8.389
REMARK INTER + INTRA:          -4.729
REMARK INTER:                  -4.705
REMARK INTRA:                  -0.023
REMARK UNBOUND:                -0.023
REMARK SMILES O=C([O-])c1cccnc1
REMARK SMILES IDX 4 1 5 2 9 3 6 4 8 5 7 6 2 7 1 8 3 9
REMARK H PARENT
REMARK Flexibility Score: inf
ROOT
ATOM      1  C   UNL     1     109.984 -48.994  32.961  1.00  0.00     0.016 A 
ATOM      2  C   UNL     1     109.862 -47.772  32.278  1.00  0.00     0.013 A 
ATOM      3  C   UNL     1     110.590 -50.073  32.294  1.00  0.00     0.120 A 
ATOM      4  C   UNL     1     110.337 -47.649  30.971  1.00  0.00     0.021 A 
ATOM      5  N   UNL     1     111.044 -49.926  31.022  1.00  0.00    -0.264 NA
ATOM      6  C   UNL     1     110.931 -48.748  30.353  1.00  0.00     0.111 A 
ENDROOT
BRANCH   1   7
ATOM      7  C   UNL     1     109.488 -49.146  34.346  1.00  0.00     0.073 C 
ATOM      8  O   UNL     1     109.245 -48.132  35.054  1.00  0.00    -0.545 OA
ATOM      9  O   UNL     1     109.281 -50.410  34.885  1.00  0.00    -0.545 OA
ENDBRANCH   1   7
TORSDOF 1
ENDMDL
MODEL 5
REMARK VINA RESULT:    -4.351      2.963      3.728
REMARK INTER + INTRA:          -4.629
REMARK INTER:                  -4.605
REMARK INTRA:                  -0.024
REMARK UNBOUND:                -0.023
REMARK SMILES O=C([O-])c1cccnc1
REMARK SMILES IDX 4 1 5 2 9 3 6 4 8 5 7 6 2 7 1 8 3 9
REMARK H PARENT
REMARK Flexibility Score: inf
ROOT
ATOM      1  C   UNL     1     115.643 -50.009  28.602  1.00  0.00     0.016 A 
ATOM      2  C   UNL     1     116.531 -50.420  27.594  1.00  0.00     0.013 A 
ATOM      3  C   UNL     1     116.176 -49.618  29.842  1.00  0.00     0.120 A 
ATOM      4  C   UNL     1     117.907 -50.434  27.834  1.00  0.00     0.021 A 
ATOM      5  N   UNL     1     117.519 -49.640  30.050  1.00  0.00    -0.264 NA
ATOM      6  C   UNL     1     118.387 -50.036  29.082  1.00  0.00     0.111 A 
ENDROOT
BRANCH   1   7
ATOM      7  C   UNL     1     114.183 -49.987  28.367  1.00  0.00     0.073 C 
ATOM      8  O   UNL     1     113.718 -50.139  27.206  1.00  0.00    -0.545 OA
ATOM      9  O   UNL     1     113.303 -49.798  29.427  1.00  0.00    -0.545 OA
ENDBRANCH   1   7
TORSDOF 1
ENDMDL
MODEL 6
REMARK VINA RESULT:    -4.319      7.369      8.281
REMARK INTER + INTRA:          -4.595
REMARK INTER:                  -4.577
REMARK INTRA:                  -0.019
REMARK UNBOUND:                -0.023
REMARK SMILES O=C([O-])c1cccnc1
REMARK SMILES IDX 4 1 5 2 9 3 6 4 8 5 7 6 2 7 1 8 3 9
REMARK H PARENT
REMARK Flexibility Score: inf
ROOT
ATOM      1  C   UNL     1     110.327 -49.601  33.590  1.00  0.00     0.016 A 
ATOM      2  C   UNL     1     110.585 -49.575  32.209  1.00  0.00     0.013 A 
ATOM      3  C   UNL     1     110.327 -50.845  34.245  1.00  0.00     0.120 A 
ATOM      4  C   UNL     1     110.833 -50.763  31.519  1.00  0.00     0.021 A 
ATOM      5  N   UNL     1     110.573 -51.987  33.550  1.00  0.00    -0.264 NA
ATOM      6  C   UNL     1     110.824 -51.972  32.214  1.00  0.00     0.111 A 
ENDROOT
BRANCH   1   7
ATOM      7  C   UNL     1     110.061 -48.354  34.338  1.00  0.00     0.073 C 
ATOM      8  O   UNL     1     109.039 -48.250  35.068  1.00  0.00    -0.545 OA
ATOM      9  O   UNL     1     110.936 -47.278  34.246  1.00  0.00    -0.545 OA
ENDBRANCH   1   7
TORSDOF 1
ENDMDL
MODEL 7
REMARK VINA RESULT:    -4.257      7.419      8.305
REMARK INTER + INTRA:          -4.529
REMARK INTER:                  -4.507
REMARK INTRA:                  -0.022
REMARK UNBOUND:                -0.023
REMARK SMILES O=C([O-])c1cccnc1
REMARK SMILES IDX 4 1 5 2 9 3 6 4 8 5 7 6 2 7 1 8 3 9
REMARK H PARENT
REMARK Flexibility Score: inf
ROOT
ATOM      1  C   UNL     1     110.014 -49.013  32.896  1.00  0.00     0.016 A 
ATOM      2  C   UNL     1     110.743 -50.038  32.271  1.00  0.00     0.013 A 
ATOM      3  C   UNL     1     109.885 -47.783  32.228  1.00  0.00     0.120 A 
ATOM      4  C   UNL     1     111.320 -49.825  31.017  1.00  0.00     0.021 A 
ATOM      5  N   UNL     1     110.456 -47.602  31.008  1.00  0.00    -0.264 NA
ATOM      6  C   UNL     1     111.163 -48.587  30.395  1.00  0.00     0.111 A 
ENDROOT
BRANCH   1   7
ATOM      7  C   UNL     1     109.396 -49.218  34.224  1.00  0.00     0.073 C 
ATOM      8  O   UNL     1     109.054 -50.372  34.600  1.00  0.00    -0.545 OA
ATOM      9  O   UNL     1     109.184 -48.141  35.076  1.00  0.00    -0.545 OA
ENDBRANCH   1   7
TORSDOF 1
ENDMDL
MODEL 8
REMARK VINA RESULT:    -4.125      1.543      2.477
REMARK INTER + INTRA:          -4.389
REMARK INTER:                  -4.366
REMARK INTRA:                  -0.023
REMARK UNBOUND:                -0.023
REMARK SMILES O=C([O-])c1cccnc1
REMARK SMILES IDX 4 1 5 2 9 3 6 4 8 5 7 6 2 7 1 8 3 9
REMARK H PARENT
REMARK Flexibility Score: inf
ROOT
ATOM      1  C   UNL     1     116.310 -50.102  28.253  1.00  0.00     0.016 A 
ATOM      2  C   UNL     1     115.946 -49.274  29.328  1.00  0.00     0.013 A 
ATOM      3  C   UNL     1     115.303 -50.532  27.372  1.00  0.00     0.120 A 
ATOM      4  C   UNL     1     114.613 -48.897  29.504  1.00  0.00     0.021 A 
ATOM      5  N   UNL     1     114.013 -50.150  27.565  1.00  0.00    -0.264 NA
ATOM      6  C   UNL     1     113.651 -49.349  28.602  1.00  0.00     0.111 A 
ENDROOT
BRANCH   1   7
ATOM      7  C   UNL     1     117.716 -50.512  28.050  1.00  0.00     0.073 C 
ATOM      8  O   UNL     1     117.998 -51.481  27.295  1.00  0.00    -0.545 OA
ATOM      9  O   UNL     1     118.747 -49.833  28.690  1.00  0.00    -0.545 OA
ENDBRANCH   1   7
TORSDOF 1
ENDMDL
MODEL 9
REMARK VINA RESULT:    -2.634      2.663      3.609
REMARK INTER + INTRA:          -2.812
REMARK INTER:                  -2.788
REMARK INTRA:                  -0.024
REMARK UNBOUND:                -0.023
REMARK SMILES O=C([O-])c1cccnc1
REMARK SMILES IDX 4 1 5 2 9 3 6 4 8 5 7 6 2 7 1 8 3 9
REMARK H PARENT
REMARK Flexibility Score: inf
ROOT
ATOM      1  C   UNL     1     116.066 -49.762  28.696  1.00  0.00     0.016 A 
ATOM      2  C   UNL     1     117.448 -49.839  28.936  1.00  0.00     0.013 A 
ATOM      3  C   UNL     1     115.281 -48.984  29.565  1.00  0.00     0.120 A 
ATOM      4  C   UNL     1     118.013 -49.155  30.015  1.00  0.00     0.021 A 
ATOM      5  N   UNL     1     115.856 -48.327  30.607  1.00  0.00    -0.264 NA
ATOM      6  C   UNL     1     117.192 -48.396  30.848  1.00  0.00     0.111 A 
ENDROOT
BRANCH   1   7
ATOM      7  C   UNL     1     115.449 -50.479  27.560  1.00  0.00     0.073 C 
ATOM      8  O   UNL     1     116.123 -51.294  26.875  1.00  0.00    -0.545 OA
ATOM      9  O   UNL     1     114.116 -50.263  27.232  1.00  0.00    -0.545 OA
ENDBRANCH   1   7
TORSDOF 1
ENDMDL
