MODEL 1
REMARK VINA RESULT:    -1.983      0.000      0.000
REMARK INTER + INTRA:          -5.036
REMARK INTER:                  -4.302
REMARK INTRA:                  -0.734
REMARK UNBOUND:                -0.734
REMARK SMILES CCCCCCCCCCCCCCCCCCCCCC(=O)[O-]
REMARK SMILES IDX 12 1 11 2 10 3 9 4 8 5 7 6 6 7 5 8 4 9 3 10 2 11 1 12 13 13
REMARK SMILES IDX 14 14 15 15 16 16 17 17 18 18 19 19 20 20 21 21 22 22 23 23
REMARK SMILES IDX 24 24
REMARK H PARENT
REMARK Flexibility Score: inf
ROOT
ATOM      1  C   UNL     1      -4.097 -22.224  16.380  1.00  0.00     0.000 C 
ENDROOT
BRANCH   1   2
ATOM      2  C   UNL     1      -2.847 -23.077  16.088  1.00  0.00     0.000 C 
BRANCH   2   3
ATOM      3  C   UNL     1      -1.509 -22.315  16.139  1.00  0.00     0.000 C 
BRANCH   3   4
ATOM      4  C   UNL     1      -0.296 -23.094  15.596  1.00  0.00    -0.000 C 
BRANCH   4   5
ATOM      5  C   UNL     1       1.043 -22.421  15.931  1.00  0.00    -0.000 C 
BRANCH   5   6
ATOM      6  C   UNL     1       1.761 -21.965  14.656  1.00  0.00    -0.000 C 
BRANCH   6   7
ATOM      7  C   UNL     1       2.559 -23.120  14.031  1.00  0.00    -0.000 C 
BRANCH   7   8
ATOM      8  C   UNL     1       4.033 -23.125  14.466  1.00  0.00    -0.000 C 
BRANCH   8   9
ATOM      9  C   UNL     1       4.979 -22.603  13.370  1.00  0.00    -0.000 C 
BRANCH   9  10
ATOM     10  C   UNL     1       6.446 -22.548  13.845  1.00  0.00    -0.000 C 
BRANCH  10  11
ATOM     11  C   UNL     1       6.609 -22.015  15.278  1.00  0.00    -0.003 C 
ATOM     12  C   UNL     1       8.056 -22.045  15.767  1.00  0.00     0.004 C 
ENDBRANCH  10  11
ENDBRANCH   9  10
ENDBRANCH   8   9
ENDBRANCH   7   8
ENDBRANCH   6   7
ENDBRANCH   5   6
ENDBRANCH   4   5
ENDBRANCH   3   4
ENDBRANCH   2   3
ENDBRANCH   1   2
BRANCH   1  13
ATOM     13  C   UNL     1      -5.441 -22.939  16.143  1.00  0.00     0.000 C 
BRANCH  13  14
ATOM     14  C   UNL     1      -6.683 -22.025  16.187  1.00  0.00     0.000 C 
BRANCH  14  15
ATOM     15  C   UNL     1      -7.437 -22.022  17.530  1.00  0.00     0.000 C 
BRANCH  15  16
ATOM     16  C   UNL     1      -8.766 -22.794  17.468  1.00  0.00     0.000 C 
BRANCH  16  17
ATOM     17  C   UNL     1      -9.947 -21.984  18.027  1.00  0.00     0.000 C 
BRANCH  17  18
ATOM     18  C   UNL     1     -10.605 -22.661  19.240  1.00  0.00     0.000 C 
BRANCH  18  19
ATOM     19  C   UNL     1     -11.029 -21.653  20.321  1.00  0.00     0.000 C 
BRANCH  19  20
ATOM     20  C   UNL     1     -10.309 -20.300  20.183  1.00  0.00     0.006 C 
BRANCH  20  21
ATOM     21  C   UNL     1     -10.772 -19.288  21.240  1.00  0.00     0.053 C 
BRANCH  21  22
ATOM     22  C   UNL     1     -10.369 -17.889  20.885  1.00  0.00     0.041 C 
ATOM     23  O   UNL     1      -9.365 -17.361  21.430  1.00  0.00    -0.550 OA
ATOM     24  O   UNL     1     -11.119 -17.159  19.971  1.00  0.00    -0.550 OA
ENDBRANCH  21  22
ENDBRANCH  20  21
ENDBRANCH  19  20
ENDBRANCH  18  19
ENDBRANCH  17  18
ENDBRANCH  16  17
ENDBRANCH  15  16
ENDBRANCH  14  15
ENDBRANCH  13  14
ENDBRANCH   1  13
TORSDOF 20
ENDMDL
MODEL 2
REMARK VINA RESULT:    -1.748      5.627     13.919
REMARK INTER + INTRA:          -4.525
REMARK INTER:                  -4.676
REMARK INTRA:                   0.151
REMARK UNBOUND:                -0.734
REMARK SMILES CCCCCCCCCCCCCCCCCCCCCC(=O)[O-]
REMARK SMILES IDX 12 1 11 2 10 3 9 4 8 5 7 6 6 7 5 8 4 9 3 10 2 11 1 12 13 13
REMARK SMILES IDX 14 14 15 15 16 16 17 17 18 18 19 19 20 20 21 21 22 22 23 23
REMARK SMILES IDX 24 24
REMARK H PARENT
REMARK Flexibility Score: inf
ROOT
ATOM      1  C   UNL     1      -3.388 -22.590  15.836  1.00  0.00     0.000 C 
ENDROOT
BRANCH   1   2
ATOM      2  C   UNL     1      -4.581 -23.078  16.682  1.00  0.00     0.000 C 
BRANCH   2   3
ATOM      3  C   UNL     1      -5.661 -22.014  16.962  1.00  0.00     0.000 C 
BRANCH   3   4
ATOM      4  C   UNL     1      -7.020 -22.276  16.287  1.00  0.00    -0.000 C 
BRANCH   4   5
ATOM      5  C   UNL     1      -7.966 -23.116  17.158  1.00  0.00    -0.000 C 
BRANCH   5   6
ATOM      6  C   UNL     1      -9.427 -22.712  16.927  1.00  0.00    -0.000 C 
BRANCH   6   7
ATOM      7  C   UNL     1      -9.711 -21.318  17.508  1.00  0.00    -0.000 C 
BRANCH   7   8
ATOM      8  C   UNL     1     -10.153 -21.367  18.979  1.00  0.00    -0.000 C 
BRANCH   8   9
ATOM      9  C   UNL     1     -10.664 -20.009  19.492  1.00  0.00    -0.000 C 
BRANCH   9  10
ATOM     10  C   UNL     1      -9.803 -19.464  20.650  1.00  0.00    -0.000 C 
BRANCH  10  11
ATOM     11  C   UNL     1     -10.193 -18.045  21.094  1.00  0.00    -0.003 C 
ATOM     12  C   UNL     1      -9.548 -17.630  22.414  1.00  0.00     0.004 C 
ENDBRANCH  10  11
ENDBRANCH   9  10
ENDBRANCH   8   9
ENDBRANCH   7   8
ENDBRANCH   6   7
ENDBRANCH   5   6
ENDBRANCH   4   5
ENDBRANCH   3   4
ENDBRANCH   2   3
ENDBRANCH   1   2
BRANCH   1  13
ATOM     13  C   UNL     1      -2.069 -22.418  16.613  1.00  0.00     0.000 C 
BRANCH  13  14
ATOM     14  C   UNL     1      -0.851 -22.026  15.753  1.00  0.00     0.000 C 
BRANCH  14  15
ATOM     15  C   UNL     1       0.275 -23.075  15.706  1.00  0.00     0.000 C 
BRANCH  15  16
ATOM     16  C   UNL     1       1.448 -22.651  14.806  1.00  0.00     0.000 C 
BRANCH  16  17
ATOM     17  C   UNL     1       2.812 -22.827  15.492  1.00  0.00     0.000 C 
BRANCH  17  18
ATOM     18  C   UNL     1       3.941 -23.125  14.491  1.00  0.00     0.000 C 
BRANCH  18  19
ATOM     19  C   UNL     1       5.326 -22.729  15.028  1.00  0.00     0.000 C 
BRANCH  19  20
ATOM     20  C   UNL     1       5.292 -22.326  16.513  1.00  0.00     0.006 C 
BRANCH  20  21
ATOM     21  C   UNL     1       6.618 -21.707  16.976  1.00  0.00     0.053 C 
BRANCH  21  22
ATOM     22  C   UNL     1       7.683 -21.824  15.929  1.00  0.00     0.041 C 
ATOM     23  O   UNL     1       7.495 -21.354  14.778  1.00  0.00    -0.550 OA
ATOM     24  O   UNL     1       8.875 -22.478  16.219  1.00  0.00    -0.550 OA
ENDBRANCH  21  22
ENDBRANCH  20  21
ENDBRANCH  19  20
ENDBRANCH  18  19
ENDBRANCH  17  18
ENDBRANCH  16  17
ENDBRANCH  15  16
ENDBRANCH  14  15
ENDBRANCH  13  14
ENDBRANCH   1  13
TORSDOF 20
ENDMDL
MODEL 3
REMARK VINA RESULT:    -1.689      5.381     13.358
REMARK INTER + INTRA:          -4.398
REMARK INTER:                  -4.121
REMARK INTRA:                  -0.276
REMARK UNBOUND:                -0.734
REMARK SMILES CCCCCCCCCCCCCCCCCCCCCC(=O)[O-]
REMARK SMILES IDX 12 1 11 2 10 3 9 4 8 5 7 6 6 7 5 8 4 9 3 10 2 11 1 12 13 13
REMARK SMILES IDX 14 14 15 15 16 16 17 17 18 18 19 19 20 20 21 21 22 22 23 23
REMARK SMILES IDX 24 24
REMARK H PARENT
REMARK Flexibility Score: inf
ROOT
ATOM      1  C   UNL     1      -5.383 -23.065  16.714  1.00  0.00     0.000 C 
ENDROOT
BRANCH   1   2
ATOM      2  C   UNL     1      -5.923 -23.122  18.156  1.00  0.00     0.000 C 
BRANCH   2   3
ATOM      3  C   UNL     1      -7.326 -22.516  18.353  1.00  0.00     0.000 C 
BRANCH   3   4
ATOM      4  C   UNL     1      -8.125 -22.292  17.055  1.00  0.00    -0.000 C 
BRANCH   4   5
ATOM      5  C   UNL     1      -9.548 -22.864  17.125  1.00  0.00    -0.000 C 
BRANCH   5   6
ATOM      6  C   UNL     1     -10.485 -21.912  17.878  1.00  0.00    -0.000 C 
BRANCH   6   7
ATOM      7  C   UNL     1      -9.687 -20.919  18.737  1.00  0.00    -0.000 C 
BRANCH   7   8
ATOM      8  C   UNL     1     -10.436 -19.596  18.963  1.00  0.00    -0.000 C 
BRANCH   8   9
ATOM      9  C   UNL     1     -11.090 -19.514  20.354  1.00  0.00    -0.000 C 
BRANCH   9  10
ATOM     10  C   UNL     1     -10.851 -18.148  21.029  1.00  0.00    -0.000 C 
BRANCH  10  11
ATOM     11  C   UNL     1      -9.873 -18.209  22.214  1.00  0.00    -0.003 C 
ATOM     12  C   UNL     1     -10.119 -19.403  23.133  1.00  0.00     0.004 C 
ENDBRANCH  10  11
ENDBRANCH   9  10
ENDBRANCH   8   9
ENDBRANCH   7   8
ENDBRANCH   6   7
ENDBRANCH   5   6
ENDBRANCH   4   5
ENDBRANCH   3   4
ENDBRANCH   2   3
ENDBRANCH   1   2
BRANCH   1  13
ATOM     13  C   UNL     1      -4.719 -21.731  16.321  1.00  0.00     0.000 C 
BRANCH  13  14
ATOM     14  C   UNL     1      -3.430 -21.865  15.485  1.00  0.00     0.000 C 
BRANCH  14  15
ATOM     15  C   UNL     1      -2.377 -22.827  16.065  1.00  0.00     0.000 C 
BRANCH  15  16
ATOM     16  C   UNL     1      -0.990 -22.178  16.205  1.00  0.00     0.000 C 
BRANCH  16  17
ATOM     17  C   UNL     1       0.149 -23.124  15.794  1.00  0.00     0.000 C 
BRANCH  17  18
ATOM     18  C   UNL     1       1.333 -22.381  15.153  1.00  0.00     0.000 C 
BRANCH  18  19
ATOM     19  C   UNL     1       1.628 -22.861  13.723  1.00  0.00     0.000 C 
BRANCH  19  20
ATOM     20  C   UNL     1       3.126 -23.125  13.485  1.00  0.00     0.006 C 
BRANCH  20  21
ATOM     21  C   UNL     1       3.957 -22.937  14.761  1.00  0.00     0.053 C 
BRANCH  21  22
ATOM     22  C   UNL     1       5.379 -22.580  14.452  1.00  0.00     0.041 C 
ATOM     23  O   UNL     1       6.258 -22.644  15.349  1.00  0.00    -0.550 OA
ATOM     24  O   UNL     1       5.727 -22.150  13.176  1.00  0.00    -0.550 OA
ENDBRANCH  21  22
ENDBRANCH  20  21
ENDBRANCH  19  20
ENDBRANCH  18  19
ENDBRANCH  17  18
ENDBRANCH  16  17
ENDBRANCH  15  16
ENDBRANCH  14  15
ENDBRANCH  13  14
ENDBRANCH   1  13
TORSDOF 20
ENDMDL
MODEL 4
REMARK VINA RESULT:    -1.677      1.931      4.465
REMARK INTER + INTRA:          -4.370
REMARK INTER:                  -3.180
REMARK INTRA:                  -1.190
REMARK UNBOUND:                -0.734
REMARK SMILES CCCCCCCCCCCCCCCCCCCCCC(=O)[O-]
REMARK SMILES IDX 12 1 11 2 10 3 9 4 8 5 7 6 6 7 5 8 4 9 3 10 2 11 1 12 13 13
REMARK SMILES IDX 14 14 15 15 16 16 17 17 18 18 19 19 20 20 21 21 22 22 23 23
REMARK SMILES IDX 24 24
REMARK H PARENT
REMARK Flexibility Score: inf
ROOT
ATOM      1  C   UNL     1       0.754 -21.677  16.252  1.00  0.00     0.000 C 
ENDROOT
BRANCH   1   2
ATOM      2  C   UNL     1       1.201 -22.925  15.467  1.00  0.00     0.000 C 
BRANCH   2   3
ATOM      3  C   UNL     1       2.727 -23.122  15.367  1.00  0.00     0.000 C 
BRANCH   3   4
ATOM      4  C   UNL     1       3.569 -21.999  15.999  1.00  0.00    -0.000 C 
BRANCH   4   5
ATOM      5  C   UNL     1       5.049 -22.378  16.152  1.00  0.00    -0.000 C 
BRANCH   5   6
ATOM      6  C   UNL     1       5.704 -21.583  17.288  1.00  0.00    -0.000 C 
BRANCH   6   7
ATOM      7  C   UNL     1       7.202 -21.911  17.396  1.00  0.00    -0.000 C 
BRANCH   7   8
ATOM      8  C   UNL     1       7.692 -22.823  16.260  1.00  0.00    -0.000 C 
BRANCH   8   9
ATOM      9  C   UNL     1       8.960 -22.286  15.573  1.00  0.00    -0.000 C 
BRANCH   9  10
ATOM     10  C   UNL     1       8.635 -21.502  14.284  1.00  0.00    -0.000 C 
BRANCH  10  11
ATOM     11  C   UNL     1       7.897 -22.337  13.225  1.00  0.00    -0.003 C 
ATOM     12  C   UNL     1       6.690 -21.615  12.628  1.00  0.00     0.004 C 
ENDBRANCH  10  11
ENDBRANCH   9  10
ENDBRANCH   8   9
ENDBRANCH   7   8
ENDBRANCH   6   7
ENDBRANCH   5   6
ENDBRANCH   4   5
ENDBRANCH   3   4
ENDBRANCH   2   3
ENDBRANCH   1   2
BRANCH   1  13
ATOM     13  C   UNL     1      -0.674 -21.750  16.829  1.00  0.00     0.000 C 
BRANCH  13  14
ATOM     14  C   UNL     1      -1.804 -21.717  15.780  1.00  0.00     0.000 C 
BRANCH  14  15
ATOM     15  C   UNL     1      -2.626 -23.014  15.673  1.00  0.00     0.000 C 
BRANCH  15  16
ATOM     16  C   UNL     1      -3.709 -23.125  16.760  1.00  0.00     0.000 C 
BRANCH  16  17
ATOM     17  C   UNL     1      -5.010 -22.404  16.373  1.00  0.00     0.000 C 
BRANCH  17  18
ATOM     18  C   UNL     1      -6.113 -22.567  17.433  1.00  0.00     0.000 C 
BRANCH  18  19
ATOM     19  C   UNL     1      -7.489 -22.858  16.813  1.00  0.00     0.000 C 
BRANCH  19  20
ATOM     20  C   UNL     1      -8.645 -22.609  17.798  1.00  0.00     0.006 C 
BRANCH  20  21
ATOM     21  C   UNL     1      -9.457 -21.358  17.436  1.00  0.00     0.053 C 
BRANCH  21  22
ATOM     22  C   UNL     1     -10.366 -20.941  18.551  1.00  0.00     0.041 C 
ATOM     23  O   UNL     1     -11.063 -19.900  18.445  1.00  0.00    -0.550 OA
ATOM     24  O   UNL     1     -10.421 -21.691  19.721  1.00  0.00    -0.550 OA
ENDBRANCH  21  22
ENDBRANCH  20  21
ENDBRANCH  19  20
ENDBRANCH  18  19
ENDBRANCH  17  18
ENDBRANCH  16  17
ENDBRANCH  15  16
ENDBRANCH  14  15
ENDBRANCH  13  14
ENDBRANCH   1  13
TORSDOF 20
ENDMDL
MODEL 5
REMARK VINA RESULT:    -1.590      5.947     14.517
REMARK INTER + INTRA:          -4.184
REMARK INTER:                  -3.658
REMARK INTRA:                  -0.525
REMARK UNBOUND:                -0.734
REMARK SMILES CCCCCCCCCCCCCCCCCCCCCC(=O)[O-]
REMARK SMILES IDX 12 1 11 2 10 3 9 4 8 5 7 6 6 7 5 8 4 9 3 10 2 11 1 12 13 13
REMARK SMILES IDX 14 14 15 15 16 16 17 17 18 18 19 19 20 20 21 21 22 22 23 23
REMARK SMILES IDX 24 24
REMARK H PARENT
REMARK Flexibility Score: inf
ROOT
ATOM      1  C   UNL     1      -0.739 -22.296  15.976  1.00  0.00     0.000 C 
ENDROOT
BRANCH   1   2
ATOM      2  C   UNL     1      -2.037 -23.125  15.956  1.00  0.00     0.000 C 
BRANCH   2   3
ATOM      3  C   UNL     1      -3.339 -22.301  15.997  1.00  0.00     0.000 C 
BRANCH   3   4
ATOM      4  C   UNL     1      -4.578 -23.068  16.494  1.00  0.00    -0.000 C 
BRANCH   4   5
ATOM      5  C   UNL     1      -5.759 -22.144  16.824  1.00  0.00    -0.000 C 
BRANCH   5   6
ATOM      6  C   UNL     1      -7.088 -22.907  16.755  1.00  0.00    -0.000 C 
BRANCH   6   7
ATOM      7  C   UNL     1      -7.997 -22.536  17.937  1.00  0.00    -0.000 C 
BRANCH   7   8
ATOM      8  C   UNL     1      -9.396 -22.084  17.490  1.00  0.00    -0.000 C 
BRANCH   8   9
ATOM      9  C   UNL     1     -10.284 -21.644  18.668  1.00  0.00    -0.000 C 
BRANCH   9  10
ATOM     10  C   UNL     1      -9.784 -20.337  19.317  1.00  0.00    -0.000 C 
BRANCH  10  11
ATOM     11  C   UNL     1     -10.917 -19.422  19.811  1.00  0.00    -0.003 C 
ATOM     12  C   UNL     1     -10.507 -18.547  20.993  1.00  0.00     0.004 C 
ENDBRANCH  10  11
ENDBRANCH   9  10
ENDBRANCH   8   9
ENDBRANCH   7   8
ENDBRANCH   6   7
ENDBRANCH   5   6
ENDBRANCH   4   5
ENDBRANCH   3   4
ENDBRANCH   2   3
ENDBRANCH   1   2
BRANCH   1  13
ATOM     13  C   UNL     1       0.561 -23.124  15.983  1.00  0.00     0.000 C 
BRANCH  13  14
ATOM     14  C   UNL     1       1.651 -22.636  15.008  1.00  0.00     0.000 C 
BRANCH  14  15
ATOM     15  C   UNL     1       3.076 -23.123  15.332  1.00  0.00     0.000 C 
BRANCH  15  16
ATOM     16  C   UNL     1       4.091 -21.972  15.430  1.00  0.00     0.000 C 
BRANCH  16  17
ATOM     17  C   UNL     1       4.896 -22.004  16.739  1.00  0.00     0.000 C 
BRANCH  17  18
ATOM     18  C   UNL     1       6.404 -22.189  16.500  1.00  0.00     0.000 C 
BRANCH  18  19
ATOM     19  C   UNL     1       6.727 -22.608  15.057  1.00  0.00     0.000 C 
BRANCH  19  20
ATOM     20  C   UNL     1       8.215 -22.429  14.709  1.00  0.00     0.006 C 
BRANCH  20  21
ATOM     21  C   UNL     1       8.527 -21.013  14.206  1.00  0.00     0.053 C 
BRANCH  21  22
ATOM     22  C   UNL     1       8.035 -20.797  12.808  1.00  0.00     0.041 C 
ATOM     23  O   UNL     1       8.012 -19.640  12.315  1.00  0.00    -0.550 OA
ATOM     24  O   UNL     1       7.575 -21.874  12.058  1.00  0.00    -0.550 OA
ENDBRANCH  21  22
ENDBRANCH  20  21
ENDBRANCH  19  20
ENDBRANCH  18  19
ENDBRANCH  17  18
ENDBRANCH  16  17
ENDBRANCH  15  16
ENDBRANCH  14  15
ENDBRANCH  13  14
ENDBRANCH   1  13
TORSDOF 20
ENDMDL
MODEL 6
REMARK VINA RESULT:    -1.538      1.444      2.260
REMARK INTER + INTRA:          -4.070
REMARK INTER:                  -3.281
REMARK INTRA:                  -0.789
REMARK UNBOUND:                -0.734
REMARK SMILES CCCCCCCCCCCCCCCCCCCCCC(=O)[O-]
REMARK SMILES IDX 12 1 11 2 10 3 9 4 8 5 7 6 6 7 5 8 4 9 3 10 2 11 1 12 13 13
REMARK SMILES IDX 14 14 15 15 16 16 17 17 18 18 19 19 20 20 21 21 22 22 23 23
REMARK SMILES IDX 24 24
REMARK H PARENT
REMARK Flexibility Score: inf
ROOT
ATOM      1  C   UNL     1      -5.921 -21.815  16.456  1.00  0.00     0.000 C 
ENDROOT
BRANCH   1   2
ATOM      2  C   UNL     1      -4.400 -21.743  16.220  1.00  0.00     0.000 C 
BRANCH   2   3
ATOM      3  C   UNL     1      -3.626 -23.036  16.546  1.00  0.00     0.000 C 
BRANCH   3   4
ATOM      4  C   UNL     1      -2.200 -23.103  15.970  1.00  0.00    -0.000 C 
BRANCH   4   5
ATOM      5  C   UNL     1      -1.225 -22.153  16.680  1.00  0.00    -0.000 C 
BRANCH   5   6
ATOM      6  C   UNL     1      -0.079 -21.745  15.747  1.00  0.00    -0.000 C 
BRANCH   6   7
ATOM      7  C   UNL     1       0.780 -22.961  15.366  1.00  0.00    -0.000 C 
BRANCH   7   8
ATOM      8  C   UNL     1       2.281 -22.722  15.598  1.00  0.00    -0.000 C 
BRANCH   8   9
ATOM      9  C   UNL     1       3.140 -23.121  14.385  1.00  0.00    -0.000 C 
BRANCH   9  10
ATOM     10  C   UNL     1       4.595 -22.625  14.516  1.00  0.00    -0.000 C 
BRANCH  10  11
ATOM     11  C   UNL     1       5.341 -22.544  13.174  1.00  0.00    -0.003 C 
ATOM     12  C   UNL     1       6.859 -22.618  13.326  1.00  0.00     0.004 C 
ENDBRANCH  10  11
ENDBRANCH   9  10
ENDBRANCH   8   9
ENDBRANCH   7   8
ENDBRANCH   6   7
ENDBRANCH   5   6
ENDBRANCH   4   5
ENDBRANCH   3   4
ENDBRANCH   2   3
ENDBRANCH   1   2
BRANCH   1  13
ATOM     13  C   UNL     1      -6.394 -23.028  17.279  1.00  0.00     0.000 C 
BRANCH  13  14
ATOM     14  C   UNL     1      -7.729 -22.830  18.025  1.00  0.00     0.000 C 
BRANCH  14  15
ATOM     15  C   UNL     1      -7.597 -22.286  19.459  1.00  0.00     0.000 C 
BRANCH  15  16
ATOM     16  C   UNL     1      -8.372 -23.125  20.489  1.00  0.00     0.000 C 
BRANCH  16  17
ATOM     17  C   UNL     1      -9.842 -22.695  20.615  1.00  0.00     0.000 C 
BRANCH  17  18
ATOM     18  C   UNL     1     -10.286 -22.530  22.078  1.00  0.00     0.000 C 
BRANCH  18  19
ATOM     19  C   UNL     1     -11.000 -21.193  22.332  1.00  0.00     0.000 C 
BRANCH  19  20
ATOM     20  C   UNL     1     -10.090 -19.978  22.077  1.00  0.00     0.006 C 
BRANCH  20  21
ATOM     21  C   UNL     1     -10.595 -18.716  22.789  1.00  0.00     0.053 C 
BRANCH  21  22
ATOM     22  C   UNL     1      -9.569 -17.624  22.781  1.00  0.00     0.041 C 
ATOM     23  O   UNL     1      -9.094 -17.193  23.863  1.00  0.00    -0.550 OA
ATOM     24  O   UNL     1      -9.158 -17.064  21.577  1.00  0.00    -0.550 OA
ENDBRANCH  21  22
ENDBRANCH  20  21
ENDBRANCH  19  20
ENDBRANCH  18  19
ENDBRANCH  17  18
ENDBRANCH  16  17
ENDBRANCH  15  16
ENDBRANCH  14  15
ENDBRANCH  13  14
ENDBRANCH   1  13
TORSDOF 20
ENDMDL
MODEL 7
REMARK VINA RESULT:    -1.400      1.660      3.311
REMARK INTER + INTRA:          -3.771
REMARK INTER:                  -2.910
REMARK INTRA:                  -0.861
REMARK UNBOUND:                -0.734
REMARK SMILES CCCCCCCCCCCCCCCCCCCCCC(=O)[O-]
REMARK SMILES IDX 12 1 11 2 10 3 9 4 8 5 7 6 6 7 5 8 4 9 3 10 2 11 1 12 13 13
REMARK SMILES IDX 14 14 15 15 16 16 17 17 18 18 19 19 20 20 21 21 22 22 23 23
REMARK SMILES IDX 24 24
REMARK H PARENT
REMARK Flexibility Score: inf
ROOT
ATOM      1  C   UNL     1      -0.384 -22.666  16.243  1.00  0.00     0.000 C 
ENDROOT
BRANCH   1   2
ATOM      2  C   UNL     1       0.328 -23.125  14.957  1.00  0.00     0.000 C 
BRANCH   2   3
ATOM      3  C   UNL     1       1.831 -22.792  14.887  1.00  0.00     0.000 C 
BRANCH   3   4
ATOM      4  C   UNL     1       2.366 -21.953  16.064  1.00  0.00    -0.000 C 
BRANCH   4   5
ATOM      5  C   UNL     1       3.842 -22.238  16.376  1.00  0.00    -0.000 C 
BRANCH   5   6
ATOM      6  C   UNL     1       4.522 -22.956  15.205  1.00  0.00    -0.000 C 
BRANCH   6   7
ATOM      7  C   UNL     1       6.027 -23.125  15.462  1.00  0.00    -0.000 C 
BRANCH   7   8
ATOM      8  C   UNL     1       6.879 -22.801  14.224  1.00  0.00    -0.000 C 
BRANCH   8   9
ATOM      9  C   UNL     1       6.129 -23.050  12.904  1.00  0.00    -0.000 C 
BRANCH   9  10
ATOM     10  C   UNL     1       6.495 -22.013  11.822  1.00  0.00    -0.000 C 
BRANCH  10  11
ATOM     11  C   UNL     1       7.831 -22.302  11.118  1.00  0.00    -0.003 C 
ATOM     12  C   UNL     1       8.974 -21.422  11.618  1.00  0.00     0.004 C 
ENDBRANCH  10  11
ENDBRANCH   9  10
ENDBRANCH   8   9
ENDBRANCH   7   8
ENDBRANCH   6   7
ENDBRANCH   5   6
ENDBRANCH   4   5
ENDBRANCH   3   4
ENDBRANCH   2   3
ENDBRANCH   1   2
BRANCH   1  13
ATOM     13  C   UNL     1      -1.800 -22.096  16.034  1.00  0.00     0.000 C 
BRANCH  13  14
ATOM     14  C   UNL     1      -2.949 -23.020  16.484  1.00  0.00     0.000 C 
BRANCH  14  15
ATOM     15  C   UNL     1      -4.360 -22.420  16.337  1.00  0.00     0.000 C 
BRANCH  15  16
ATOM     16  C   UNL     1      -5.366 -23.009  17.340  1.00  0.00     0.000 C 
BRANCH  16  17
ATOM     17  C   UNL     1      -6.576 -22.091  17.572  1.00  0.00     0.000 C 
BRANCH  17  18
ATOM     18  C   UNL     1      -7.780 -22.467  16.692  1.00  0.00     0.000 C 
BRANCH  18  19
ATOM     19  C   UNL     1      -9.051 -21.687  17.065  1.00  0.00     0.000 C 
BRANCH  19  20
ATOM     20  C   UNL     1      -9.541 -22.001  18.490  1.00  0.00     0.006 C 
BRANCH  20  21
ATOM     21  C   UNL     1     -10.682 -21.073  18.928  1.00  0.00     0.053 C 
BRANCH  21  22
ATOM     22  C   UNL     1     -10.380 -20.394  20.229  1.00  0.00     0.041 C 
ATOM     23  O   UNL     1     -10.484 -21.025  21.313  1.00  0.00    -0.550 OA
ATOM     24  O   UNL     1     -10.008 -19.055  20.246  1.00  0.00    -0.550 OA
ENDBRANCH  21  22
ENDBRANCH  20  21
ENDBRANCH  19  20
ENDBRANCH  18  19
ENDBRANCH  17  18
ENDBRANCH  16  17
ENDBRANCH  15  16
ENDBRANCH  14  15
ENDBRANCH  13  14
ENDBRANCH   1  13
TORSDOF 20
ENDMDL
MODEL 8
REMARK VINA RESULT:    -1.234      5.043     13.773
REMARK INTER + INTRA:          -3.410
REMARK INTER:                  -2.976
REMARK INTRA:                  -0.434
REMARK UNBOUND:                -0.734
REMARK SMILES CCCCCCCCCCCCCCCCCCCCCC(=O)[O-]
REMARK SMILES IDX 12 1 11 2 10 3 9 4 8 5 7 6 6 7 5 8 4 9 3 10 2 11 1 12 13 13
REMARK SMILES IDX 14 14 15 15 16 16 17 17 18 18 19 19 20 20 21 21 22 22 23 23
REMARK SMILES IDX 24 24
REMARK H PARENT
REMARK Flexibility Score: inf
ROOT
ATOM      1  C   UNL     1      -3.280 -22.431  15.802  1.00  0.00     0.000 C 
ENDROOT
BRANCH   1   2
ATOM      2  C   UNL     1      -4.364 -22.425  16.897  1.00  0.00     0.000 C 
BRANCH   2   3
ATOM      3  C   UNL     1      -5.640 -21.633  16.549  1.00  0.00     0.000 C 
BRANCH   3   4
ATOM      4  C   UNL     1      -6.953 -22.426  16.677  1.00  0.00    -0.000 C 
BRANCH   4   5
ATOM      5  C   UNL     1      -7.719 -22.107  17.969  1.00  0.00    -0.000 C 
BRANCH   5   6
ATOM      6  C   UNL     1      -8.954 -23.005  18.110  1.00  0.00    -0.000 C 
BRANCH   6   7
ATOM      7  C   UNL     1     -10.157 -22.208  18.637  1.00  0.00    -0.000 C 
BRANCH   7   8
ATOM      8  C   UNL     1     -10.056 -21.910  20.142  1.00  0.00    -0.000 C 
BRANCH   8   9
ATOM      9  C   UNL     1      -8.948 -22.722  20.836  1.00  0.00    -0.000 C 
BRANCH   9  10
ATOM     10  C   UNL     1      -8.786 -22.334  22.320  1.00  0.00    -0.000 C 
BRANCH  10  11
ATOM     11  C   UNL     1     -10.100 -21.904  22.992  1.00  0.00    -0.003 C 
ATOM     12  C   UNL     1     -10.546 -22.855  24.100  1.00  0.00     0.004 C 
ENDBRANCH  10  11
ENDBRANCH   9  10
ENDBRANCH   8   9
ENDBRANCH   7   8
ENDBRANCH   6   7
ENDBRANCH   5   6
ENDBRANCH   4   5
ENDBRANCH   3   4
ENDBRANCH   2   3
ENDBRANCH   1   2
BRANCH   1  13
ATOM     13  C   UNL     1      -1.830 -22.417  16.324  1.00  0.00     0.000 C 
BRANCH  13  14
ATOM     14  C   UNL     1      -0.755 -22.130  15.257  1.00  0.00     0.000 C 
BRANCH  14  15
ATOM     15  C   UNL     1       0.421 -23.125  15.236  1.00  0.00     0.000 C 
BRANCH  15  16
ATOM     16  C   UNL     1       1.409 -22.855  14.089  1.00  0.00     0.000 C 
BRANCH  16  17
ATOM     17  C   UNL     1       2.819 -22.508  14.593  1.00  0.00     0.000 C 
BRANCH  17  18
ATOM     18  C   UNL     1       3.926 -23.125  13.722  1.00  0.00     0.000 C 
BRANCH  18  19
ATOM     19  C   UNL     1       5.240 -22.329  13.786  1.00  0.00     0.000 C 
BRANCH  19  20
ATOM     20  C   UNL     1       6.260 -22.950  14.757  1.00  0.00     0.006 C 
BRANCH  20  21
ATOM     21  C   UNL     1       7.043 -21.883  15.534  1.00  0.00     0.053 C 
BRANCH  21  22
ATOM     22  C   UNL     1       6.475 -21.662  16.903  1.00  0.00     0.041 C 
ATOM     23  O   UNL     1       5.239 -21.782  17.103  1.00  0.00    -0.550 OA
ATOM     24  O   UNL     1       7.311 -21.298  17.952  1.00  0.00    -0.550 OA
ENDBRANCH  21  22
ENDBRANCH  20  21
ENDBRANCH  19  20
ENDBRANCH  18  19
ENDBRANCH  17  18
ENDBRANCH  16  17
ENDBRANCH  15  16
ENDBRANCH  14  15
ENDBRANCH  13  14
ENDBRANCH   1  13
TORSDOF 20
ENDMDL
