MODEL 1
REMARK VINA RESULT:    -4.372      0.000      0.000
REMARK INTER + INTRA:          -5.221
REMARK INTER:                  -5.523
REMARK INTRA:                   0.301
REMARK UNBOUND:                 0.301
REMARK SMILES O=C(C=Cc1ccc(O)cc1)c1ccc(O)cc1O
REMARK SMILES IDX 4 1 3 2 5 3 6 4 7 5 8 6 11 7 10 8 9 9 2 11 1 12 12 13 18 14
REMARK SMILES IDX 13 15 17 16 14 17 15 18 19 19 16 21
REMARK H PARENT 9 10 19 20 16 22
REMARK Flexibility Score: inf
ROOT
ATOM      1  C   UNL     1      21.309  20.498  29.732  1.00  0.00     0.012 C 
ATOM      2  C   UNL     1      21.870  21.617  30.219  1.00  0.00     0.053 C 
ENDROOT
BRANCH   1   3
ATOM      3  C   UNL     1      21.684  19.119  30.105  1.00  0.00    -0.025 A 
ATOM      4  C   UNL     1      22.233  18.268  29.135  1.00  0.00     0.012 A 
ATOM      5  C   UNL     1      22.548  16.944  29.454  1.00  0.00     0.047 A 
ATOM      6  C   UNL     1      22.296  16.451  30.742  1.00  0.00     0.115 A 
ATOM      7  C   UNL     1      21.405  18.613  31.386  1.00  0.00     0.012 A 
ATOM      8  C   UNL     1      21.720  17.288  31.705  1.00  0.00     0.047 A 
BRANCH   6   9
ATOM      9  O   UNL     1      22.607  15.134  31.073  1.00  0.00    -0.508 OA
ATOM     10  H   UNL     1      23.265  14.593  30.526  1.00  0.00     0.293 HD
ENDBRANCH   6   9
ENDBRANCH   1   3
BRANCH   2  11
ATOM     11  C   UNL     1      23.078  21.677  31.078  1.00  0.00     0.189 C 
ATOM     12  O   UNL     1      23.654  20.621  31.454  1.00  0.00    -0.289 OA
BRANCH  11  13
ATOM     13  C   UNL     1      23.636  22.977  31.506  1.00  0.00     0.064 A 
ATOM     14  C   UNL     1      24.752  23.061  32.366  1.00  0.00     0.130 A 
ATOM     15  C   UNL     1      23.018  24.159  31.066  1.00  0.00     0.020 A 
ATOM     16  C   UNL     1      25.256  24.318  32.734  1.00  0.00     0.093 A 
ATOM     17  C   UNL     1      23.522  25.406  31.443  1.00  0.00     0.047 A 
ATOM     18  C   UNL     1      24.643  25.490  32.272  1.00  0.00     0.119 A 
BRANCH  14  19
ATOM     19  O   UNL     1      25.342  21.905  32.875  1.00  0.00    -0.507 OA
ATOM     20  H   UNL     1      25.987  21.349  32.324  1.00  0.00     0.293 HD
ENDBRANCH  14  19
BRANCH  18  21
ATOM     21  O   UNL     1      25.137  26.740  32.637  1.00  0.00    -0.508 OA
ATOM     22  H   UNL     1      24.632  27.593  32.426  1.00  0.00     0.293 HD
ENDBRANCH  18  21
ENDBRANCH  11  13
ENDBRANCH   2  11
TORSDOF 6
ENDMDL
MODEL 2
REMARK VINA RESULT:    -4.118      3.206      6.317
REMARK INTER + INTRA:          -4.900
REMARK INTER:                  -4.736
REMARK INTRA:                  -0.164
REMARK UNBOUND:                 0.301
REMARK SMILES O=C(C=Cc1ccc(O)cc1)c1ccc(O)cc1O
REMARK SMILES IDX 4 1 3 2 5 3 6 4 7 5 8 6 11 7 10 8 9 9 2 11 1 12 12 13 18 14
REMARK SMILES IDX 13 15 17 16 14 17 15 18 19 19 16 21
REMARK H PARENT 9 10 19 20 16 22
REMARK Flexibility Score: inf
ROOT
ATOM      1  C   UNL     1      22.770  26.501  29.231  1.00  0.00     0.012 C 
ATOM      2  C   UNL     1      23.812  26.476  30.078  1.00  0.00     0.053 C 
ENDROOT
BRANCH   1   3
ATOM      3  C   UNL     1      21.379  26.138  29.572  1.00  0.00    -0.025 A 
ATOM      4  C   UNL     1      21.012  24.785  29.615  1.00  0.00     0.012 A 
ATOM      5  C   UNL     1      19.690  24.422  29.886  1.00  0.00     0.047 A 
ATOM      6  C   UNL     1      18.716  25.409  30.093  1.00  0.00     0.115 A 
ATOM      7  C   UNL     1      20.394  27.125  29.750  1.00  0.00     0.012 A 
ATOM      8  C   UNL     1      19.072  26.760  30.020  1.00  0.00     0.047 A 
BRANCH   6   9
ATOM      9  O   UNL     1      17.395  25.059  30.364  1.00  0.00    -0.508 OA
ATOM     10  H   UNL     1      16.749  25.717  30.782  1.00  0.00     0.293 HD
ENDBRANCH   6   9
ENDBRANCH   1   3
BRANCH   2  11
ATOM     11  C   UNL     1      23.798  25.914  31.452  1.00  0.00     0.189 C 
ATOM     12  O   UNL     1      23.624  26.661  32.452  1.00  0.00    -0.289 OA
BRANCH  11  13
ATOM     13  C   UNL     1      23.981  24.465  31.676  1.00  0.00     0.064 A 
ATOM     14  C   UNL     1      24.984  23.965  32.534  1.00  0.00     0.130 A 
ATOM     15  C   UNL     1      23.152  23.562  30.991  1.00  0.00     0.020 A 
ATOM     16  C   UNL     1      25.110  22.581  32.727  1.00  0.00     0.093 A 
ATOM     17  C   UNL     1      23.290  22.185  31.183  1.00  0.00     0.047 A 
ATOM     18  C   UNL     1      24.264  21.691  32.054  1.00  0.00     0.119 A 
BRANCH  14  19
ATOM     19  O   UNL     1      25.867  24.835  33.172  1.00  0.00    -0.507 OA
ATOM     20  H   UNL     1      26.161  25.705  32.743  1.00  0.00     0.293 HD
ENDBRANCH  14  19
BRANCH  18  21
ATOM     21  O   UNL     1      24.388  20.316  32.239  1.00  0.00    -0.508 OA
ATOM     22  H   UNL     1      24.919  19.740  31.597  1.00  0.00     0.293 HD
ENDBRANCH  18  21
ENDBRANCH  11  13
ENDBRANCH   2  11
TORSDOF 6
ENDMDL
MODEL 3
REMARK VINA RESULT:    -3.816      1.385      7.134
REMARK INTER + INTRA:          -4.519
REMARK INTER:                  -5.070
REMARK INTRA:                   0.551
REMARK UNBOUND:                 0.301
REMARK SMILES O=C(C=Cc1ccc(O)cc1)c1ccc(O)cc1O
REMARK SMILES IDX 4 1 3 2 5 3 6 4 7 5 8 6 11 7 10 8 9 9 2 11 1 12 12 13 18 14
REMARK SMILES IDX 13 15 17 16 14 17 15 18 19 19 16 21
REMARK H PARENT 9 10 19 20 16 22
REMARK Flexibility Score: inf
ROOT
ATOM      1  C   UNL     1      21.636  24.119  30.585  1.00  0.00     0.012 C 
ATOM      2  C   UNL     1      21.497  22.812  30.308  1.00  0.00     0.053 C 
ENDROOT
BRANCH   1   3
ATOM      3  C   UNL     1      22.863  24.760  31.100  1.00  0.00    -0.025 A 
ATOM      4  C   UNL     1      23.308  24.455  32.395  1.00  0.00     0.012 A 
ATOM      5  C   UNL     1      24.438  25.089  32.920  1.00  0.00     0.047 A 
ATOM      6  C   UNL     1      25.122  26.050  32.163  1.00  0.00     0.115 A 
ATOM      7  C   UNL     1      23.534  25.746  30.356  1.00  0.00     0.012 A 
ATOM      8  C   UNL     1      24.664  26.379  30.883  1.00  0.00     0.047 A 
BRANCH   6   9
ATOM      9  O   UNL     1      26.250  26.687  32.675  1.00  0.00    -0.508 OA
ATOM     10  H   UNL     1      26.204  27.250  33.516  1.00  0.00     0.293 HD
ENDBRANCH   6   9
ENDBRANCH   1   3
BRANCH   2  11
ATOM     11  C   UNL     1      22.480  21.749  30.632  1.00  0.00     0.189 C 
ATOM     12  O   UNL     1      23.615  22.040  31.096  1.00  0.00    -0.289 OA
BRANCH  11  13
ATOM     13  C   UNL     1      22.146  20.324  30.423  1.00  0.00     0.064 A 
ATOM     14  C   UNL     1      22.652  19.311  31.265  1.00  0.00     0.130 A 
ATOM     15  C   UNL     1      21.328  19.970  29.338  1.00  0.00     0.020 A 
ATOM     16  C   UNL     1      22.296  17.972  31.036  1.00  0.00     0.093 A 
ATOM     17  C   UNL     1      20.985  18.635  29.113  1.00  0.00     0.047 A 
ATOM     18  C   UNL     1      21.463  17.634  29.962  1.00  0.00     0.119 A 
BRANCH  14  19
ATOM     19  O   UNL     1      23.524  19.625  32.307  1.00  0.00    -0.507 OA
ATOM     20  H   UNL     1      24.530  19.565  32.196  1.00  0.00     0.293 HD
ENDBRANCH  14  19
BRANCH  18  21
ATOM     21  O   UNL     1      21.110  16.307  29.728  1.00  0.00    -0.508 OA
ATOM     22  H   UNL     1      21.731  15.543  29.965  1.00  0.00     0.293 HD
ENDBRANCH  18  21
ENDBRANCH  11  13
ENDBRANCH   2  11
TORSDOF 6
ENDMDL
MODEL 4
REMARK VINA RESULT:    -3.242      1.582      2.452
REMARK INTER + INTRA:          -3.794
REMARK INTER:                  -4.579
REMARK INTRA:                   0.785
REMARK UNBOUND:                 0.301
REMARK SMILES O=C(C=Cc1ccc(O)cc1)c1ccc(O)cc1O
REMARK SMILES IDX 4 1 3 2 5 3 6 4 7 5 8 6 11 7 10 8 9 9 2 11 1 12 12 13 18 14
REMARK SMILES IDX 13 15 17 16 14 17 15 18 19 19 16 21
REMARK H PARENT 9 10 19 20 16 22
REMARK Flexibility Score: inf
ROOT
ATOM      1  C   UNL     1      22.978  18.071  32.436  1.00  0.00     0.012 C 
ATOM      2  C   UNL     1      23.253  19.373  32.251  1.00  0.00     0.053 C 
ENDROOT
BRANCH   1   3
ATOM      3  C   UNL     1      22.261  17.203  31.480  1.00  0.00    -0.025 A 
ATOM      4  C   UNL     1      20.977  16.739  31.802  1.00  0.00     0.012 A 
ATOM      5  C   UNL     1      20.301  15.875  30.935  1.00  0.00     0.047 A 
ATOM      6  C   UNL     1      20.913  15.448  29.748  1.00  0.00     0.115 A 
ATOM      7  C   UNL     1      22.882  16.749  30.304  1.00  0.00     0.012 A 
ATOM      8  C   UNL     1      22.205  15.885  29.438  1.00  0.00     0.047 A 
BRANCH   6   9
ATOM      9  O   UNL     1      20.249  14.589  28.875  1.00  0.00    -0.508 OA
ATOM     10  H   UNL     1      20.060  13.625  29.123  1.00  0.00     0.293 HD
ENDBRANCH   6   9
ENDBRANCH   1   3
BRANCH   2  11
ATOM     11  C   UNL     1      22.737  20.219  31.146  1.00  0.00     0.189 C 
ATOM     12  O   UNL     1      22.091  19.708  30.192  1.00  0.00    -0.289 OA
BRANCH  11  13
ATOM     13  C   UNL     1      22.965  21.679  31.143  1.00  0.00     0.064 A 
ATOM     14  C   UNL     1      24.144  22.248  31.668  1.00  0.00     0.130 A 
ATOM     15  C   UNL     1      21.965  22.521  30.631  1.00  0.00     0.020 A 
ATOM     16  C   UNL     1      24.322  23.640  31.631  1.00  0.00     0.093 A 
ATOM     17  C   UNL     1      22.147  23.906  30.605  1.00  0.00     0.047 A 
ATOM     18  C   UNL     1      23.326  24.469  31.099  1.00  0.00     0.119 A 
BRANCH  14  19
ATOM     19  O   UNL     1      25.124  21.442  32.248  1.00  0.00    -0.507 OA
ATOM     20  H   UNL     1      24.987  20.446  32.373  1.00  0.00     0.293 HD
ENDBRANCH  14  19
BRANCH  18  21
ATOM     21  O   UNL     1      23.496  25.851  31.063  1.00  0.00    -0.508 OA
ATOM     22  H   UNL     1      23.574  26.353  30.186  1.00  0.00     0.293 HD
ENDBRANCH  18  21
ENDBRANCH  11  13
ENDBRANCH   2  11
TORSDOF 6
ENDMDL
MODEL 5
REMARK VINA RESULT:    -3.228      2.990      7.232
REMARK INTER + INTRA:          -3.776
REMARK INTER:                  -3.969
REMARK INTRA:                   0.193
REMARK UNBOUND:                 0.301
REMARK SMILES O=C(C=Cc1ccc(O)cc1)c1ccc(O)cc1O
REMARK SMILES IDX 4 1 3 2 5 3 6 4 7 5 8 6 11 7 10 8 9 9 2 11 1 12 12 13 18 14
REMARK SMILES IDX 13 15 17 16 14 17 15 18 19 19 16 21
REMARK H PARENT 9 10 19 20 16 22
REMARK Flexibility Score: inf
ROOT
ATOM      1  C   UNL     1      22.679  24.082  31.181  1.00  0.00     0.012 C 
ATOM      2  C   UNL     1      22.872  22.753  31.153  1.00  0.00     0.053 C 
ENDROOT
BRANCH   1   3
ATOM      3  C   UNL     1      21.543  24.796  30.563  1.00  0.00    -0.025 A 
ATOM      4  C   UNL     1      21.793  25.788  29.604  1.00  0.00     0.012 A 
ATOM      5  C   UNL     1      20.735  26.510  29.044  1.00  0.00     0.047 A 
ATOM      6  C   UNL     1      19.418  26.263  29.455  1.00  0.00     0.115 A 
ATOM      7  C   UNL     1      20.224  24.572  30.995  1.00  0.00     0.012 A 
ATOM      8  C   UNL     1      19.167  25.295  30.434  1.00  0.00     0.047 A 
BRANCH   6   9
ATOM      9  O   UNL     1      18.355  26.975  28.904  1.00  0.00    -0.508 OA
ATOM     10  H   UNL     1      18.257  27.088  27.902  1.00  0.00     0.293 HD
ENDBRANCH   6   9
ENDBRANCH   1   3
BRANCH   2  11
ATOM     11  C   UNL     1      22.087  21.780  30.354  1.00  0.00     0.189 C 
ATOM     12  O   UNL     1      21.362  22.168  29.399  1.00  0.00    -0.289 OA
BRANCH  11  13
ATOM     13  C   UNL     1      22.143  20.335  30.657  1.00  0.00     0.064 A 
ATOM     14  C   UNL     1      21.410  19.389  29.909  1.00  0.00     0.130 A 
ATOM     15  C   UNL     1      22.926  19.897  31.737  1.00  0.00     0.020 A 
ATOM     16  C   UNL     1      21.506  18.025  30.224  1.00  0.00     0.093 A 
ATOM     17  C   UNL     1      23.010  18.538  32.049  1.00  0.00     0.047 A 
ATOM     18  C   UNL     1      22.306  17.598  31.292  1.00  0.00     0.119 A 
BRANCH  14  19
ATOM     19  O   UNL     1      20.569  19.801  28.875  1.00  0.00    -0.507 OA
ATOM     20  H   UNL     1      20.154  20.726  28.863  1.00  0.00     0.293 HD
ENDBRANCH  14  19
BRANCH  18  21
ATOM     21  O   UNL     1      22.402  16.246  31.612  1.00  0.00    -0.508 OA
ATOM     22  H   UNL     1      22.482  15.536  30.893  1.00  0.00     0.293 HD
ENDBRANCH  18  21
ENDBRANCH  11  13
ENDBRANCH   2  11
TORSDOF 6
ENDMDL
MODEL 6
REMARK VINA RESULT:    -2.912      2.503      3.378
REMARK INTER + INTRA:          -3.377
REMARK INTER:                  -3.259
REMARK INTRA:                  -0.119
REMARK UNBOUND:                 0.301
REMARK SMILES O=C(C=Cc1ccc(O)cc1)c1ccc(O)cc1O
REMARK SMILES IDX 4 1 3 2 5 3 6 4 7 5 8 6 11 7 10 8 9 9 2 11 1 12 12 13 18 14
REMARK SMILES IDX 13 15 17 16 14 17 15 18 19 19 16 21
REMARK H PARENT 9 10 19 20 16 22
REMARK Flexibility Score: inf
ROOT
ATOM      1  C   UNL     1      22.942  18.797  32.175  1.00  0.00     0.012 C 
ATOM      2  C   UNL     1      22.942  20.045  31.680  1.00  0.00     0.053 C 
ENDROOT
BRANCH   1   3
ATOM      3  C   UNL     1      22.380  17.607  31.504  1.00  0.00    -0.025 A 
ATOM      4  C   UNL     1      23.144  16.937  30.537  1.00  0.00     0.012 A 
ATOM      5  C   UNL     1      22.611  15.841  29.853  1.00  0.00     0.047 A 
ATOM      6  C   UNL     1      21.300  15.417  30.114  1.00  0.00     0.115 A 
ATOM      7  C   UNL     1      21.056  17.198  31.741  1.00  0.00     0.012 A 
ATOM      8  C   UNL     1      20.525  16.101  31.057  1.00  0.00     0.047 A 
BRANCH   6   9
ATOM      9  O   UNL     1      20.759  14.324  29.440  1.00  0.00    -0.508 OA
ATOM     10  H   UNL     1      20.055  13.734  29.869  1.00  0.00     0.293 HD
ENDBRANCH   6   9
ENDBRANCH   1   3
BRANCH   2  11
ATOM     11  C   UNL     1      22.226  20.491  30.459  1.00  0.00     0.189 C 
ATOM     12  O   UNL     1      21.959  19.677  29.535  1.00  0.00    -0.289 OA
BRANCH  11  13
ATOM     13  C   UNL     1      21.805  21.899  30.303  1.00  0.00     0.064 A 
ATOM     14  C   UNL     1      20.671  22.257  29.543  1.00  0.00     0.130 A 
ATOM     15  C   UNL     1      22.574  22.908  30.905  1.00  0.00     0.020 A 
ATOM     16  C   UNL     1      20.302  23.607  29.435  1.00  0.00     0.093 A 
ATOM     17  C   UNL     1      22.203  24.250  30.786  1.00  0.00     0.047 A 
ATOM     18  C   UNL     1      21.066  24.603  30.057  1.00  0.00     0.119 A 
BRANCH  14  19
ATOM     19  O   UNL     1      19.929  21.283  28.876  1.00  0.00    -0.507 OA
ATOM     20  H   UNL     1      19.016  21.484  28.484  1.00  0.00     0.293 HD
ENDBRANCH  14  19
BRANCH  18  21
ATOM     21  O   UNL     1      20.705  25.944  29.950  1.00  0.00    -0.508 OA
ATOM     22  H   UNL     1      19.956  26.245  29.338  1.00  0.00     0.293 HD
ENDBRANCH  18  21
ENDBRANCH  11  13
ENDBRANCH   2  11
TORSDOF 6
ENDMDL
MODEL 7
REMARK VINA RESULT:    -2.880      1.966      7.239
REMARK INTER + INTRA:          -3.337
REMARK INTER:                  -4.949
REMARK INTRA:                   1.612
REMARK UNBOUND:                 0.301
REMARK SMILES O=C(C=Cc1ccc(O)cc1)c1ccc(O)cc1O
REMARK SMILES IDX 4 1 3 2 5 3 6 4 7 5 8 6 11 7 10 8 9 9 2 11 1 12 12 13 18 14
REMARK SMILES IDX 13 15 17 16 14 17 15 18 19 19 16 21
REMARK H PARENT 9 10 19 20 16 22
REMARK Flexibility Score: inf
ROOT
ATOM      1  C   UNL     1      24.147  23.103  31.851  1.00  0.00     0.012 C 
ATOM      2  C   UNL     1      23.872  21.790  31.780  1.00  0.00     0.053 C 
ENDROOT
BRANCH   1   3
ATOM      3  C   UNL     1      23.381  24.176  31.186  1.00  0.00    -0.025 A 
ATOM      4  C   UNL     1      22.001  24.017  30.991  1.00  0.00     0.012 A 
ATOM      5  C   UNL     1      21.266  24.999  30.320  1.00  0.00     0.047 A 
ATOM      6  C   UNL     1      21.908  26.139  29.816  1.00  0.00     0.115 A 
ATOM      7  C   UNL     1      24.026  25.306  30.654  1.00  0.00     0.012 A 
ATOM      8  C   UNL     1      23.290  26.287  29.983  1.00  0.00     0.047 A 
BRANCH   6   9
ATOM      9  O   UNL     1      21.186  27.124  29.147  1.00  0.00    -0.508 OA
ATOM     10  H   UNL     1      21.389  28.109  29.277  1.00  0.00     0.293 HD
ENDBRANCH   6   9
ENDBRANCH   1   3
BRANCH   2  11
ATOM     11  C   UNL     1      22.866  21.163  30.887  1.00  0.00     0.189 C 
ATOM     12  O   UNL     1      22.312  21.830  29.972  1.00  0.00    -0.289 OA
BRANCH  11  13
ATOM     13  C   UNL     1      22.497  19.741  31.047  1.00  0.00     0.064 A 
ATOM     14  C   UNL     1      21.794  19.038  30.046  1.00  0.00     0.130 A 
ATOM     15  C   UNL     1      22.829  19.084  32.243  1.00  0.00     0.020 A 
ATOM     16  C   UNL     1      21.477  17.684  30.237  1.00  0.00     0.093 A 
ATOM     17  C   UNL     1      22.503  17.738  32.427  1.00  0.00     0.047 A 
ATOM     18  C   UNL     1      21.832  17.033  31.425  1.00  0.00     0.119 A 
BRANCH  14  19
ATOM     19  O   UNL     1      21.388  19.684  28.879  1.00  0.00    -0.507 OA
ATOM     20  H   UNL     1      22.012  20.295  28.364  1.00  0.00     0.293 HD
ENDBRANCH  14  19
BRANCH  18  21
ATOM     21  O   UNL     1      21.517  15.691  31.621  1.00  0.00    -0.508 OA
ATOM     22  H   UNL     1      20.781  15.236  31.094  1.00  0.00     0.293 HD
ENDBRANCH  18  21
ENDBRANCH  11  13
ENDBRANCH   2  11
TORSDOF 6
ENDMDL
