MODEL 1
REMARK VINA RESULT:    -3.817      0.000      0.000
REMARK INTER + INTRA:          -5.760
REMARK INTER:                  -5.379
REMARK INTRA:                  -0.381
REMARK UNBOUND:                -0.381
REMARK SMILES CCCCCCCCC(=O)[O-]
REMARK SMILES IDX 6 1 7 2 8 3 9 4 10 5 11 6 5 7 4 8 3 9 2 10 1 11
REMARK H PARENT
REMARK Flexibility Score: inf
ROOT
ATOM      1  C   UNL     1       7.657  19.374   1.901  1.00  0.00     0.000 C 
ENDROOT
BRANCH   1   2
ATOM      2  C   UNL     1       7.271  19.375   3.390  1.00  0.00     0.006 C 
BRANCH   2   3
ATOM      3  C   UNL     1       7.316  20.783   3.999  1.00  0.00     0.053 C 
BRANCH   3   4
ATOM      4  C   UNL     1       5.947  21.383   4.114  1.00  0.00     0.041 C 
ATOM      5  O   UNL     1       4.975  20.868   3.501  1.00  0.00    -0.550 OA
ATOM      6  O   UNL     1       5.742  22.495   4.920  1.00  0.00    -0.550 OA
ENDBRANCH   3   4
ENDBRANCH   2   3
ENDBRANCH   1   2
BRANCH   1   7
ATOM      7  C   UNL     1       6.964  18.254   1.102  1.00  0.00     0.000 C 
BRANCH   7   8
ATOM      8  C   UNL     1       5.965  18.736   0.036  1.00  0.00    -0.000 C 
BRANCH   8   9
ATOM      9  C   UNL     1       5.627  20.230   0.162  1.00  0.00    -0.000 C 
BRANCH   9  10
ATOM     10  C   UNL     1       4.798  20.709  -1.035  1.00  0.00    -0.003 C 
ATOM     11  C   UNL     1       5.564  21.737  -1.861  1.00  0.00     0.004 C 
ENDBRANCH   9  10
ENDBRANCH   8   9
ENDBRANCH   7   8
ENDBRANCH   1   7
TORSDOF 7
ENDMDL
MODEL 2
REMARK VINA RESULT:    -3.812      2.509      4.756
REMARK INTER + INTRA:          -5.752
REMARK INTER:                  -5.322
REMARK INTRA:                  -0.430
REMARK UNBOUND:                -0.381
REMARK SMILES CCCCCCCCC(=O)[O-]
REMARK SMILES IDX 6 1 7 2 8 3 9 4 10 5 11 6 5 7 4 8 3 9 2 10 1 11
REMARK H PARENT
REMARK Flexibility Score: inf
ROOT
ATOM      1  C   UNL     1       6.967  18.748   0.856  1.00  0.00     0.000 C 
ENDROOT
BRANCH   1   2
ATOM      2  C   UNL     1       5.894  19.838   0.692  1.00  0.00     0.006 C 
BRANCH   2   3
ATOM      3  C   UNL     1       5.133  19.708  -0.634  1.00  0.00     0.053 C 
BRANCH   3   4
ATOM      4  C   UNL     1       4.809  21.047  -1.224  1.00  0.00     0.041 C 
ATOM      5  O   UNL     1       5.660  21.653  -1.928  1.00  0.00    -0.550 OA
ATOM      6  O   UNL     1       3.558  21.613  -1.017  1.00  0.00    -0.550 OA
ENDBRANCH   3   4
ENDBRANCH   2   3
ENDBRANCH   1   2
BRANCH   1   7
ATOM      7  C   UNL     1       7.665  18.794   2.228  1.00  0.00     0.000 C 
BRANCH   7   8
ATOM      8  C   UNL     1       6.803  19.342   3.380  1.00  0.00    -0.000 C 
BRANCH   8   9
ATOM      9  C   UNL     1       7.582  20.274   4.321  1.00  0.00    -0.000 C 
BRANCH   9  10
ATOM     10  C   UNL     1       6.682  21.395   4.853  1.00  0.00    -0.003 C 
ATOM     11  C   UNL     1       5.406  21.518   4.026  1.00  0.00     0.004 C 
ENDBRANCH   9  10
ENDBRANCH   8   9
ENDBRANCH   7   8
ENDBRANCH   1   7
TORSDOF 7
ENDMDL
MODEL 3
REMARK VINA RESULT:    -3.619     13.498     14.358
REMARK INTER + INTRA:          -5.481
REMARK INTER:                  -4.731
REMARK INTRA:                  -0.750
REMARK UNBOUND:                -0.381
REMARK SMILES CCCCCCCCC(=O)[O-]
REMARK SMILES IDX 6 1 7 2 8 3 9 4 10 5 11 6 5 7 4 8 3 9 2 10 1 11
REMARK H PARENT
REMARK Flexibility Score: inf
ROOT
ATOM      1  C   UNL     1      -6.307  16.673   1.693  1.00  0.00     0.000 C 
ENDROOT
BRANCH   1   2
ATOM      2  C   UNL     1      -6.360  18.028   2.420  1.00  0.00     0.006 C 
BRANCH   2   3
ATOM      3  C   UNL     1      -6.532  17.866   3.936  1.00  0.00     0.053 C 
BRANCH   3   4
ATOM      4  C   UNL     1      -6.703  19.188   4.621  1.00  0.00     0.041 C 
ATOM      5  O   UNL     1      -7.347  20.114   4.061  1.00  0.00    -0.550 OA
ATOM      6  O   UNL     1      -6.172  19.387   5.888  1.00  0.00    -0.550 OA
ENDBRANCH   3   4
ENDBRANCH   2   3
ENDBRANCH   1   2
BRANCH   1   7
ATOM      7  C   UNL     1      -7.425  16.509   0.647  1.00  0.00     0.000 C 
BRANCH   7   8
ATOM      8  C   UNL     1      -8.521  15.494   1.017  1.00  0.00    -0.000 C 
BRANCH   8   9
ATOM      9  C   UNL     1      -9.408  15.966   2.179  1.00  0.00    -0.000 C 
BRANCH   9  10
ATOM     10  C   UNL     1     -10.091  17.297   1.843  1.00  0.00    -0.003 C 
ATOM     11  C   UNL     1     -10.182  18.197   3.072  1.00  0.00     0.004 C 
ENDBRANCH   9  10
ENDBRANCH   8   9
ENDBRANCH   7   8
ENDBRANCH   1   7
TORSDOF 7
ENDMDL
MODEL 4
REMARK VINA RESULT:    -3.565     15.361     16.773
REMARK INTER + INTRA:          -5.405
REMARK INTER:                  -5.026
REMARK INTRA:                  -0.379
REMARK UNBOUND:                -0.381
REMARK SMILES CCCCCCCCC(=O)[O-]
REMARK SMILES IDX 6 1 7 2 8 3 9 4 10 5 11 6 5 7 4 8 3 9 2 10 1 11
REMARK H PARENT
REMARK Flexibility Score: inf
ROOT
ATOM      1  C   UNL     1      -9.453  16.039  -0.038  1.00  0.00     0.000 C 
ENDROOT
BRANCH   1   2
ATOM      2  C   UNL     1      -9.928  16.920  -1.207  1.00  0.00     0.006 C 
BRANCH   2   3
ATOM      3  C   UNL     1      -8.816  17.165  -2.236  1.00  0.00     0.053 C 
BRANCH   3   4
ATOM      4  C   UNL     1      -8.333  15.886  -2.849  1.00  0.00     0.041 C 
ATOM      5  O   UNL     1      -9.051  15.272  -3.682  1.00  0.00    -0.550 OA
ATOM      6  O   UNL     1      -7.080  15.388  -2.520  1.00  0.00    -0.550 OA
ENDBRANCH   3   4
ENDBRANCH   2   3
ENDBRANCH   1   2
BRANCH   1   7
ATOM      7  C   UNL     1      -8.389  16.725   0.838  1.00  0.00     0.000 C 
BRANCH   7   8
ATOM      8  C   UNL     1      -8.800  16.958   2.302  1.00  0.00    -0.000 C 
BRANCH   8   9
ATOM      9  C   UNL     1     -10.266  17.394   2.451  1.00  0.00    -0.000 C 
BRANCH   9  10
ATOM     10  C   UNL     1     -10.373  18.691   3.262  1.00  0.00    -0.003 C 
ATOM     11  C   UNL     1     -11.821  19.161   3.362  1.00  0.00     0.004 C 
ENDBRANCH   9  10
ENDBRANCH   8   9
ENDBRANCH   7   8
ENDBRANCH   1   7
TORSDOF 7
ENDMDL
MODEL 5
REMARK VINA RESULT:    -3.534     14.216     16.118
REMARK INTER + INTRA:          -5.361
REMARK INTER:                  -5.076
REMARK INTRA:                  -0.285
REMARK UNBOUND:                -0.381
REMARK SMILES CCCCCCCCC(=O)[O-]
REMARK SMILES IDX 6 1 7 2 8 3 9 4 10 5 11 6 5 7 4 8 3 9 2 10 1 11
REMARK H PARENT
REMARK Flexibility Score: inf
ROOT
ATOM      1  C   UNL     1      -8.712  16.799  -2.541  1.00  0.00     0.000 C 
ENDROOT
BRANCH   1   2
ATOM      2  C   UNL     1      -8.593  15.517  -3.384  1.00  0.00     0.006 C 
BRANCH   2   3
ATOM      3  C   UNL     1      -8.589  15.811  -4.890  1.00  0.00     0.053 C 
BRANCH   3   4
ATOM      4  C   UNL     1      -7.451  15.130  -5.587  1.00  0.00     0.041 C 
ATOM      5  O   UNL     1      -7.088  15.512  -6.731  1.00  0.00    -0.550 OA
ATOM      6  O   UNL     1      -6.775  14.092  -4.961  1.00  0.00    -0.550 OA
ENDBRANCH   3   4
ENDBRANCH   2   3
ENDBRANCH   1   2
BRANCH   1   7
ATOM      7  C   UNL     1      -9.249  16.536  -1.122  1.00  0.00     0.000 C 
BRANCH   7   8
ATOM      8  C   UNL     1      -8.230  16.753   0.011  1.00  0.00    -0.000 C 
BRANCH   8   9
ATOM      9  C   UNL     1      -7.113  15.699   0.023  1.00  0.00    -0.000 C 
BRANCH   9  10
ATOM     10  C   UNL     1      -6.001  16.087   1.004  1.00  0.00    -0.003 C 
ATOM     11  C   UNL     1      -6.402  17.297   1.842  1.00  0.00     0.004 C 
ENDBRANCH   9  10
ENDBRANCH   8   9
ENDBRANCH   7   8
ENDBRANCH   1   7
TORSDOF 7
ENDMDL
MODEL 6
REMARK VINA RESULT:    -3.534     14.313     15.426
REMARK INTER + INTRA:          -5.360
REMARK INTER:                  -4.642
REMARK INTRA:                  -0.718
REMARK UNBOUND:                -0.381
REMARK SMILES CCCCCCCCC(=O)[O-]
REMARK SMILES IDX 6 1 7 2 8 3 9 4 10 5 11 6 5 7 4 8 3 9 2 10 1 11
REMARK H PARENT
REMARK Flexibility Score: inf
ROOT
ATOM      1  C   UNL     1      -8.383  16.328   0.190  1.00  0.00     0.000 C 
ENDROOT
BRANCH   1   2
ATOM      2  C   UNL     1      -7.197  15.999   1.114  1.00  0.00     0.006 C 
BRANCH   2   3
ATOM      3  C   UNL     1      -6.501  17.263   1.636  1.00  0.00     0.053 C 
BRANCH   3   4
ATOM      4  C   UNL     1      -6.570  17.360   3.129  1.00  0.00     0.041 C 
ATOM      5  O   UNL     1      -6.350  18.459   3.704  1.00  0.00    -0.550 OA
ATOM      6  O   UNL     1      -6.904  16.243   3.883  1.00  0.00    -0.550 OA
ENDBRANCH   3   4
ENDBRANCH   2   3
ENDBRANCH   1   2
BRANCH   1   7
ATOM      7  C   UNL     1      -9.583  16.929   0.945  1.00  0.00     0.000 C 
BRANCH   7   8
ATOM      8  C   UNL     1     -10.080  16.101   2.144  1.00  0.00    -0.000 C 
BRANCH   8   9
ATOM      9  C   UNL     1     -10.405  16.962   3.374  1.00  0.00    -0.000 C 
BRANCH   9  10
ATOM     10  C   UNL     1     -10.361  18.455   3.027  1.00  0.00    -0.003 C 
ATOM     11  C   UNL     1     -11.696  19.130   3.324  1.00  0.00     0.004 C 
ENDBRANCH   9  10
ENDBRANCH   8   9
ENDBRANCH   7   8
ENDBRANCH   1   7
TORSDOF 7
ENDMDL
MODEL 7
REMARK VINA RESULT:    -3.520     15.591     16.997
REMARK INTER + INTRA:          -5.340
REMARK INTER:                  -4.779
REMARK INTRA:                  -0.561
REMARK UNBOUND:                -0.381
REMARK SMILES CCCCCCCCC(=O)[O-]
REMARK SMILES IDX 6 1 7 2 8 3 9 4 10 5 11 6 5 7 4 8 3 9 2 10 1 11
REMARK H PARENT
REMARK Flexibility Score: inf
ROOT
ATOM      1  C   UNL     1      -8.131  14.508  -4.203  1.00  0.00     0.000 C 
ENDROOT
BRANCH   1   2
ATOM      2  C   UNL     1      -8.368  15.466  -5.384  1.00  0.00     0.006 C 
BRANCH   2   3
ATOM      3  C   UNL     1      -7.269  15.354  -6.449  1.00  0.00     0.053 C 
BRANCH   3   4
ATOM      4  C   UNL     1      -7.638  14.383  -7.529  1.00  0.00     0.041 C 
ATOM      5  O   UNL     1      -7.328  13.167  -7.421  1.00  0.00    -0.550 OA
ATOM      6  O   UNL     1      -8.346  14.817  -8.641  1.00  0.00    -0.550 OA
ENDBRANCH   3   4
ENDBRANCH   2   3
ENDBRANCH   1   2
BRANCH   1   7
ATOM      7  C   UNL     1      -6.719  14.632  -3.603  1.00  0.00     0.000 C 
BRANCH   7   8
ATOM      8  C   UNL     1      -6.673  14.819  -2.076  1.00  0.00    -0.000 C 
BRANCH   8   9
ATOM      9  C   UNL     1      -8.064  15.023  -1.455  1.00  0.00    -0.000 C 
BRANCH   9  10
ATOM     10  C   UNL     1      -8.247  16.470  -0.981  1.00  0.00    -0.003 C 
ATOM     11  C   UNL     1      -8.997  17.300  -2.018  1.00  0.00     0.004 C 
ENDBRANCH   9  10
ENDBRANCH   8   9
ENDBRANCH   7   8
ENDBRANCH   1   7
TORSDOF 7
ENDMDL
MODEL 8
REMARK VINA RESULT:    -3.483     14.906     16.382
REMARK INTER + INTRA:          -5.289
REMARK INTER:                  -4.603
REMARK INTRA:                  -0.686
REMARK UNBOUND:                -0.381
REMARK SMILES CCCCCCCCC(=O)[O-]
REMARK SMILES IDX 6 1 7 2 8 3 9 4 10 5 11 6 5 7 4 8 3 9 2 10 1 11
REMARK H PARENT
REMARK Flexibility Score: inf
ROOT
ATOM      1  C   UNL     1      -9.171  14.938  -3.160  1.00  0.00     0.000 C 
ENDROOT
BRANCH   1   2
ATOM      2  C   UNL     1      -8.188  13.912  -3.752  1.00  0.00     0.006 C 
BRANCH   2   3
ATOM      3  C   UNL     1      -6.812  14.528  -4.040  1.00  0.00     0.053 C 
BRANCH   3   4
ATOM      4  C   UNL     1      -6.458  14.445  -5.494  1.00  0.00     0.041 C 
ATOM      5  O   UNL     1      -6.921  15.286  -6.309  1.00  0.00    -0.550 OA
ATOM      6  O   UNL     1      -5.596  13.453  -5.943  1.00  0.00    -0.550 OA
ENDBRANCH   3   4
ENDBRANCH   2   3
ENDBRANCH   1   2
BRANCH   1   7
ATOM      7  C   UNL     1      -8.673  16.389  -3.287  1.00  0.00     0.000 C 
BRANCH   7   8
ATOM      8  C   UNL     1      -8.923  17.275  -2.054  1.00  0.00    -0.000 C 
BRANCH   8   9
ATOM      9  C   UNL     1      -9.149  16.463  -0.769  1.00  0.00    -0.000 C 
BRANCH   9  10
ATOM     10  C   UNL     1      -7.926  16.541   0.153  1.00  0.00    -0.003 C 
ATOM     11  C   UNL     1      -6.941  15.414  -0.142  1.00  0.00     0.004 C 
ENDBRANCH   9  10
ENDBRANCH   8   9
ENDBRANCH   7   8
ENDBRANCH   1   7
TORSDOF 7
ENDMDL
MODEL 9
REMARK VINA RESULT:    -3.477     14.065     15.607
REMARK INTER + INTRA:          -5.280
REMARK INTER:                  -4.893
REMARK INTRA:                  -0.388
REMARK UNBOUND:                -0.381
REMARK SMILES CCCCCCCCC(=O)[O-]
REMARK SMILES IDX 6 1 7 2 8 3 9 4 10 5 11 6 5 7 4 8 3 9 2 10 1 11
REMARK H PARENT
REMARK Flexibility Score: inf
ROOT
ATOM      1  C   UNL     1      -8.633  16.584   0.262  1.00  0.00     0.000 C 
ENDROOT
BRANCH   1   2
ATOM      2  C   UNL     1      -9.502  16.526  -1.006  1.00  0.00     0.006 C 
BRANCH   2   3
ATOM      3  C   UNL     1      -8.735  16.982  -2.255  1.00  0.00     0.053 C 
BRANCH   3   4
ATOM      4  C   UNL     1      -8.678  15.907  -3.297  1.00  0.00     0.041 C 
ATOM      5  O   UNL     1      -8.639  16.210  -4.519  1.00  0.00    -0.550 OA
ATOM      6  O   UNL     1      -8.641  14.573  -2.916  1.00  0.00    -0.550 OA
ENDBRANCH   3   4
ENDBRANCH   2   3
ENDBRANCH   1   2
BRANCH   1   7
ATOM      7  C   UNL     1      -7.274  15.881   0.092  1.00  0.00     0.000 C 
BRANCH   7   8
ATOM      8  C   UNL     1      -6.233  16.201   1.180  1.00  0.00    -0.000 C 
BRANCH   8   9
ATOM      9  C   UNL     1      -6.440  17.583   1.820  1.00  0.00    -0.000 C 
BRANCH   9  10
ATOM     10  C   UNL     1      -6.516  17.475   3.347  1.00  0.00    -0.003 C 
ATOM     11  C   UNL     1      -7.110  18.739   3.961  1.00  0.00     0.004 C 
ENDBRANCH   9  10
ENDBRANCH   8   9
ENDBRANCH   7   8
ENDBRANCH   1   7
TORSDOF 7
ENDMDL
