MODEL 1
REMARK VINA RESULT:    -4.199      0.000      0.000
REMARK INTER + INTRA:         -13.248
REMARK INTER:                  -9.600
REMARK INTRA:                  -3.648
REMARK UNBOUND:                -3.648
REMARK SMILES CCCCCCCCCCCCCCCCCCCCCCCC(=O)[O-]
REMARK SMILES IDX 13 1 14 2 15 3 16 4 17 5 18 6 19 7 20 8 21 9 22 10 23 11
REMARK SMILES IDX 24 12 25 13 26 14 12 15 11 16 10 17 9 18 8 19 7 20 6 21 5 22
REMARK SMILES IDX 4 23 3 24 2 25 1 26
REMARK H PARENT
REMARK Flexibility Score: inf
ROOT
ATOM      1  C   UNL     1      -5.495 -11.319 -17.227  1.00  0.00     0.000 C 
ENDROOT
BRANCH   1   2
ATOM      2  C   UNL     1      -4.234 -11.992 -17.779  1.00  0.00     0.000 C 
BRANCH   2   3
ATOM      3  C   UNL     1      -3.193 -10.945 -18.207  1.00  0.00     0.000 C 
BRANCH   3   4
ATOM      4  C   UNL     1      -1.932 -10.975 -17.331  1.00  0.00     0.000 C 
BRANCH   4   5
ATOM      5  C   UNL     1      -0.639 -10.815 -18.149  1.00  0.00     0.000 C 
BRANCH   5   6
ATOM      6  C   UNL     1      -0.852 -10.005 -19.438  1.00  0.00     0.000 C 
BRANCH   6   7
ATOM      7  C   UNL     1      -0.036  -8.703 -19.459  1.00  0.00     0.000 C 
BRANCH   7   8
ATOM      8  C   UNL     1      -0.711  -7.643 -20.342  1.00  0.00     0.000 C 
BRANCH   8   9
ATOM      9  C   UNL     1      -2.052  -8.119 -20.930  1.00  0.00     0.000 C 
BRANCH   9  10
ATOM     10  C   UNL     1      -2.244  -7.835 -22.435  1.00  0.00     0.006 C 
BRANCH  10  11
ATOM     11  C   UNL     1      -1.394  -8.715 -23.364  1.00  0.00     0.053 C 
BRANCH  11  12
ATOM     12  C   UNL     1      -2.202  -9.286 -24.489  1.00  0.00     0.041 C 
ATOM     13  O   UNL     1      -3.154 -10.075 -24.248  1.00  0.00    -0.550 OA
ATOM     14  O   UNL     1      -1.926  -8.922 -25.801  1.00  0.00    -0.550 OA
ENDBRANCH  11  12
ENDBRANCH  10  11
ENDBRANCH   9  10
ENDBRANCH   8   9
ENDBRANCH   7   8
ENDBRANCH   6   7
ENDBRANCH   5   6
ENDBRANCH   4   5
ENDBRANCH   3   4
ENDBRANCH   2   3
ENDBRANCH   1   2
BRANCH   1  15
ATOM     15  C   UNL     1      -5.985 -12.029 -15.957  1.00  0.00     0.000 C 
BRANCH  15  16
ATOM     16  C   UNL     1      -6.687 -11.079 -14.968  1.00  0.00     0.000 C 
BRANCH  16  17
ATOM     17  C   UNL     1      -5.751 -10.173 -14.148  1.00  0.00     0.000 C 
BRANCH  17  18
ATOM     18  C   UNL     1      -5.857  -8.689 -14.540  1.00  0.00    -0.000 C 
BRANCH  18  19
ATOM     19  C   UNL     1      -4.752  -8.241 -15.516  1.00  0.00    -0.000 C 
BRANCH  19  20
ATOM     20  C   UNL     1      -5.182  -7.199 -16.565  1.00  0.00    -0.000 C 
BRANCH  20  21
ATOM     21  C   UNL     1      -4.067  -6.860 -17.570  1.00  0.00    -0.000 C 
BRANCH  21  22
ATOM     22  C   UNL     1      -2.741  -7.577 -17.237  1.00  0.00    -0.000 C 
BRANCH  22  23
ATOM     23  C   UNL     1      -1.652  -6.642 -16.685  1.00  0.00    -0.000 C 
BRANCH  23  24
ATOM     24  C   UNL     1      -0.654  -7.363 -15.765  1.00  0.00    -0.000 C 
BRANCH  24  25
ATOM     25  C   UNL     1      -1.263  -7.718 -14.400  1.00  0.00    -0.003 C 
ATOM     26  C   UNL     1      -1.351  -9.226 -14.165  1.00  0.00     0.004 C 
ENDBRANCH  24  25
ENDBRANCH  23  24
ENDBRANCH  22  23
ENDBRANCH  21  22
ENDBRANCH  20  21
ENDBRANCH  19  20
ENDBRANCH  18  19
ENDBRANCH  17  18
ENDBRANCH  16  17
ENDBRANCH  15  16
ENDBRANCH   1  15
TORSDOF 22
ENDMDL
MODEL 2
REMARK VINA RESULT:    -4.106      1.500      4.139
REMARK INTER + INTRA:         -13.036
REMARK INTER:                  -8.965
REMARK INTRA:                  -4.071
REMARK UNBOUND:                -3.648
REMARK SMILES CCCCCCCCCCCCCCCCCCCCCCCC(=O)[O-]
REMARK SMILES IDX 13 1 14 2 15 3 16 4 17 5 18 6 19 7 20 8 21 9 22 10 23 11
REMARK SMILES IDX 24 12 25 13 26 14 12 15 11 16 10 17 9 18 8 19 7 20 6 21 5 22
REMARK SMILES IDX 4 23 3 24 2 25 1 26
REMARK H PARENT
REMARK Flexibility Score: inf
ROOT
ATOM      1  C   UNL     1      -4.086  -6.880 -17.543  1.00  0.00     0.000 C 
ENDROOT
BRANCH   1   2
ATOM      2  C   UNL     1      -2.585  -6.831 -17.241  1.00  0.00     0.000 C 
BRANCH   2   3
ATOM      3  C   UNL     1      -1.759  -7.191 -18.486  1.00  0.00     0.000 C 
BRANCH   3   4
ATOM      4  C   UNL     1      -0.701  -8.268 -18.200  1.00  0.00     0.000 C 
BRANCH   4   5
ATOM      5  C   UNL     1      -0.169  -8.930 -19.484  1.00  0.00     0.000 C 
BRANCH   5   6
ATOM      6  C   UNL     1      -0.435  -8.083 -20.739  1.00  0.00     0.000 C 
BRANCH   6   7
ATOM      7  C   UNL     1      -1.215  -8.853 -21.816  1.00  0.00     0.000 C 
BRANCH   7   8
ATOM      8  C   UNL     1      -1.433 -10.315 -21.399  1.00  0.00     0.000 C 
BRANCH   8   9
ATOM      9  C   UNL     1      -0.789 -11.319 -22.374  1.00  0.00     0.000 C 
BRANCH   9  10
ATOM     10  C   UNL     1      -0.544 -10.781 -23.799  1.00  0.00     0.006 C 
BRANCH  10  11
ATOM     11  C   UNL     1      -1.468 -11.375 -24.874  1.00  0.00     0.053 C 
BRANCH  11  12
ATOM     12  C   UNL     1      -2.419 -10.355 -25.420  1.00  0.00     0.041 C 
ATOM     13  O   UNL     1      -2.409 -10.073 -26.647  1.00  0.00    -0.550 OA
ATOM     14  O   UNL     1      -3.339  -9.738 -24.581  1.00  0.00    -0.550 OA
ENDBRANCH  11  12
ENDBRANCH  10  11
ENDBRANCH   9  10
ENDBRANCH   8   9
ENDBRANCH   7   8
ENDBRANCH   6   7
ENDBRANCH   5   6
ENDBRANCH   4   5
ENDBRANCH   3   4
ENDBRANCH   2   3
ENDBRANCH   1   2
BRANCH   1  15
ATOM     15  C   UNL     1      -4.360  -7.642 -18.848  1.00  0.00     0.000 C 
BRANCH  15  16
ATOM     16  C   UNL     1      -4.953  -9.044 -18.615  1.00  0.00     0.000 C 
BRANCH  16  17
ATOM     17  C   UNL     1      -3.939 -10.202 -18.654  1.00  0.00     0.000 C 
BRANCH  17  18
ATOM     18  C   UNL     1      -4.383 -11.418 -17.821  1.00  0.00    -0.000 C 
BRANCH  18  19
ATOM     19  C   UNL     1      -3.487 -11.667 -16.592  1.00  0.00    -0.000 C 
BRANCH  19  20
ATOM     20  C   UNL     1      -2.356 -10.643 -16.383  1.00  0.00    -0.000 C 
BRANCH  20  21
ATOM     21  C   UNL     1      -2.488  -9.859 -15.065  1.00  0.00    -0.000 C 
BRANCH  21  22
ATOM     22  C   UNL     1      -3.898  -9.982 -14.451  1.00  0.00    -0.000 C 
BRANCH  22  23
ATOM     23  C   UNL     1      -4.800  -8.765 -14.720  1.00  0.00    -0.000 C 
BRANCH  23  24
ATOM     24  C   UNL     1      -6.224  -9.159 -15.146  1.00  0.00    -0.000 C 
BRANCH  24  25
ATOM     25  C   UNL     1      -6.865 -10.173 -14.187  1.00  0.00    -0.003 C 
ATOM     26  C   UNL     1      -7.212 -11.496 -14.870  1.00  0.00     0.004 C 
ENDBRANCH  24  25
ENDBRANCH  23  24
ENDBRANCH  22  23
ENDBRANCH  21  22
ENDBRANCH  20  21
ENDBRANCH  19  20
ENDBRANCH  18  19
ENDBRANCH  17  18
ENDBRANCH  16  17
ENDBRANCH  15  16
ENDBRANCH   1  15
TORSDOF 22
ENDMDL
MODEL 3
REMARK VINA RESULT:    -4.087      1.405      2.089
REMARK INTER + INTRA:         -12.992
REMARK INTER:                  -9.771
REMARK INTRA:                  -3.221
REMARK UNBOUND:                -3.648
REMARK SMILES CCCCCCCCCCCCCCCCCCCCCCCC(=O)[O-]
REMARK SMILES IDX 13 1 14 2 15 3 16 4 17 5 18 6 19 7 20 8 21 9 22 10 23 11
REMARK SMILES IDX 24 12 25 13 26 14 12 15 11 16 10 17 9 18 8 19 7 20 6 21 5 22
REMARK SMILES IDX 4 23 3 24 2 25 1 26
REMARK H PARENT
REMARK Flexibility Score: inf
ROOT
ATOM      1  C   UNL     1      -5.728 -11.474 -16.502  1.00  0.00     0.000 C 
ENDROOT
BRANCH   1   2
ATOM      2  C   UNL     1      -4.199 -11.505 -16.405  1.00  0.00     0.000 C 
BRANCH   2   3
ATOM      3  C   UNL     1      -3.553 -11.026 -17.715  1.00  0.00     0.000 C 
BRANCH   3   4
ATOM      4  C   UNL     1      -4.525 -10.222 -18.592  1.00  0.00     0.000 C 
BRANCH   4   5
ATOM      5  C   UNL     1      -3.801  -9.375 -19.653  1.00  0.00     0.000 C 
BRANCH   5   6
ATOM      6  C   UNL     1      -2.306  -9.715 -19.762  1.00  0.00     0.000 C 
BRANCH   6   7
ATOM      7  C   UNL     1      -1.711  -9.329 -21.125  1.00  0.00     0.000 C 
BRANCH   7   8
ATOM      8  C   UNL     1      -0.989 -10.522 -21.769  1.00  0.00     0.000 C 
BRANCH   8   9
ATOM      9  C   UNL     1      -1.088 -10.525 -23.305  1.00  0.00     0.000 C 
BRANCH   9  10
ATOM     10  C   UNL     1      -2.523 -10.602 -23.868  1.00  0.00     0.006 C 
BRANCH  10  11
ATOM     11  C   UNL     1      -2.889  -9.470 -24.841  1.00  0.00     0.053 C 
BRANCH  11  12
ATOM     12  C   UNL     1      -2.089  -9.539 -26.105  1.00  0.00     0.041 C 
ATOM     13  O   UNL     1      -1.383  -8.559 -26.463  1.00  0.00    -0.550 OA
ATOM     14  O   UNL     1      -2.098 -10.696 -26.874  1.00  0.00    -0.550 OA
ENDBRANCH  11  12
ENDBRANCH  10  11
ENDBRANCH   9  10
ENDBRANCH   8   9
ENDBRANCH   7   8
ENDBRANCH   6   7
ENDBRANCH   5   6
ENDBRANCH   4   5
ENDBRANCH   3   4
ENDBRANCH   2   3
ENDBRANCH   1   2
BRANCH   1  15
ATOM     15  C   UNL     1      -6.367 -11.433 -15.107  1.00  0.00     0.000 C 
BRANCH  15  16
ATOM     16  C   UNL     1      -7.032 -10.081 -14.787  1.00  0.00     0.000 C 
BRANCH  16  17
ATOM     17  C   UNL     1      -6.062  -8.927 -14.478  1.00  0.00     0.000 C 
BRANCH  17  18
ATOM     18  C   UNL     1      -5.795  -8.022 -15.694  1.00  0.00    -0.000 C 
BRANCH  18  19
ATOM     19  C   UNL     1      -4.298  -7.734 -15.915  1.00  0.00    -0.000 C 
BRANCH  19  20
ATOM     20  C   UNL     1      -3.970  -6.857 -17.137  1.00  0.00    -0.000 C 
BRANCH  20  21
ATOM     21  C   UNL     1      -2.462  -6.595 -17.305  1.00  0.00    -0.000 C 
BRANCH  21  22
ATOM     22  C   UNL     1      -1.604  -7.758 -16.762  1.00  0.00    -0.000 C 
BRANCH  22  23
ATOM     23  C   UNL     1      -0.700  -7.362 -15.581  1.00  0.00    -0.000 C 
BRANCH  23  24
ATOM     24  C   UNL     1      -1.050  -8.111 -14.285  1.00  0.00    -0.000 C 
BRANCH  24  25
ATOM     25  C   UNL     1      -1.486  -9.561 -14.542  1.00  0.00    -0.003 C 
ATOM     26  C   UNL     1      -1.350 -10.448 -13.304  1.00  0.00     0.004 C 
ENDBRANCH  24  25
ENDBRANCH  23  24
ENDBRANCH  22  23
ENDBRANCH  21  22
ENDBRANCH  20  21
ENDBRANCH  19  20
ENDBRANCH  18  19
ENDBRANCH  17  18
ENDBRANCH  16  17
ENDBRANCH  15  16
ENDBRANCH   1  15
TORSDOF 22
ENDMDL
MODEL 4
REMARK VINA RESULT:    -4.018      1.694      2.929
REMARK INTER + INTRA:         -12.834
REMARK INTER:                  -9.406
REMARK INTRA:                  -3.429
REMARK UNBOUND:                -3.648
REMARK SMILES CCCCCCCCCCCCCCCCCCCCCCCC(=O)[O-]
REMARK SMILES IDX 13 1 14 2 15 3 16 4 17 5 18 6 19 7 20 8 21 9 22 10 23 11
REMARK SMILES IDX 24 12 25 13 26 14 12 15 11 16 10 17 9 18 8 19 7 20 6 21 5 22
REMARK SMILES IDX 4 23 3 24 2 25 1 26
REMARK H PARENT
REMARK Flexibility Score: inf
ROOT
ATOM      1  C   UNL     1      -5.465 -10.479 -17.830  1.00  0.00     0.000 C 
ENDROOT
BRANCH   1   2
ATOM      2  C   UNL     1      -4.176 -10.491 -18.660  1.00  0.00     0.000 C 
BRANCH   2   3
ATOM      3  C   UNL     1      -3.247 -11.632 -18.219  1.00  0.00     0.000 C 
BRANCH   3   4
ATOM      4  C   UNL     1      -1.935 -11.665 -19.017  1.00  0.00     0.000 C 
BRANCH   4   5
ATOM      5  C   UNL     1      -1.807 -10.484 -19.995  1.00  0.00     0.000 C 
BRANCH   5   6
ATOM      6  C   UNL     1      -0.686 -10.689 -21.027  1.00  0.00     0.000 C 
BRANCH   6   7
ATOM      7  C   UNL     1      -0.943 -11.895 -21.944  1.00  0.00     0.000 C 
BRANCH   7   8
ATOM      8  C   UNL     1      -0.287 -11.691 -23.318  1.00  0.00     0.000 C 
BRANCH   8   9
ATOM      9  C   UNL     1      -1.309 -11.619 -24.467  1.00  0.00     0.000 C 
BRANCH   9  10
ATOM     10  C   UNL     1      -2.413 -10.554 -24.295  1.00  0.00     0.006 C 
BRANCH  10  11
ATOM     11  C   UNL     1      -2.801  -9.823 -25.590  1.00  0.00     0.053 C 
BRANCH  11  12
ATOM     12  C   UNL     1      -1.623  -9.157 -26.231  1.00  0.00     0.041 C 
ATOM     13  O   UNL     1      -1.057  -8.186 -25.663  1.00  0.00    -0.550 OA
ATOM     14  O   UNL     1      -1.128  -9.628 -27.441  1.00  0.00    -0.550 OA
ENDBRANCH  11  12
ENDBRANCH  10  11
ENDBRANCH   9  10
ENDBRANCH   8   9
ENDBRANCH   7   8
ENDBRANCH   6   7
ENDBRANCH   5   6
ENDBRANCH   4   5
ENDBRANCH   3   4
ENDBRANCH   2   3
ENDBRANCH   1   2
BRANCH   1  15
ATOM     15  C   UNL     1      -5.508 -11.673 -16.865  1.00  0.00     0.000 C 
BRANCH  15  16
ATOM     16  C   UNL     1      -5.910 -11.276 -15.432  1.00  0.00     0.000 C 
BRANCH  16  17
ATOM     17  C   UNL     1      -6.334  -9.808 -15.250  1.00  0.00     0.000 C 
BRANCH  17  18
ATOM     18  C   UNL     1      -5.218  -8.928 -14.660  1.00  0.00    -0.000 C 
BRANCH  18  19
ATOM     19  C   UNL     1      -3.867  -9.660 -14.552  1.00  0.00    -0.000 C 
BRANCH  19  20
ATOM     20  C   UNL     1      -2.626  -8.804 -14.869  1.00  0.00    -0.000 C 
BRANCH  20  21
ATOM     21  C   UNL     1      -1.552  -9.569 -15.664  1.00  0.00    -0.000 C 
BRANCH  21  22
ATOM     22  C   UNL     1      -1.043  -8.765 -16.879  1.00  0.00    -0.000 C 
BRANCH  22  23
ATOM     23  C   UNL     1      -1.752  -7.413 -17.070  1.00  0.00    -0.000 C 
BRANCH  23  24
ATOM     24  C   UNL     1      -2.171  -7.159 -18.527  1.00  0.00    -0.000 C 
BRANCH  24  25
ATOM     25  C   UNL     1      -3.696  -7.176 -18.712  1.00  0.00    -0.003 C 
ATOM     26  C   UNL     1      -4.453  -6.843 -17.426  1.00  0.00     0.004 C 
ENDBRANCH  24  25
ENDBRANCH  23  24
ENDBRANCH  22  23
ENDBRANCH  21  22
ENDBRANCH  20  21
ENDBRANCH  19  20
ENDBRANCH  18  19
ENDBRANCH  17  18
ENDBRANCH  16  17
ENDBRANCH  15  16
ENDBRANCH   1  15
TORSDOF 22
ENDMDL
MODEL 5
REMARK VINA RESULT:    -3.984      1.285      4.324
REMARK INTER + INTRA:         -12.756
REMARK INTER:                  -8.970
REMARK INTRA:                  -3.786
REMARK UNBOUND:                -3.648
REMARK SMILES CCCCCCCCCCCCCCCCCCCCCCCC(=O)[O-]
REMARK SMILES IDX 13 1 14 2 15 3 16 4 17 5 18 6 19 7 20 8 21 9 22 10 23 11
REMARK SMILES IDX 24 12 25 13 26 14 12 15 11 16 10 17 9 18 8 19 7 20 6 21 5 22
REMARK SMILES IDX 4 23 3 24 2 25 1 26
REMARK H PARENT
REMARK Flexibility Score: inf
ROOT
ATOM      1  C   UNL     1      -4.315  -6.824 -17.193  1.00  0.00     0.000 C 
ENDROOT
BRANCH   1   2
ATOM      2  C   UNL     1      -4.354  -7.346 -18.634  1.00  0.00     0.000 C 
BRANCH   2   3
ATOM      3  C   UNL     1      -4.757  -8.828 -18.672  1.00  0.00     0.000 C 
BRANCH   3   4
ATOM      4  C   UNL     1      -3.718  -9.703 -19.390  1.00  0.00     0.000 C 
BRANCH   4   5
ATOM      5  C   UNL     1      -3.153 -10.813 -18.486  1.00  0.00     0.000 C 
BRANCH   5   6
ATOM      6  C   UNL     1      -1.723 -10.516 -18.009  1.00  0.00     0.000 C 
BRANCH   6   7
ATOM      7  C   UNL     1      -0.991  -9.519 -18.922  1.00  0.00     0.000 C 
BRANCH   7   8
ATOM      8  C   UNL     1      -0.089 -10.251 -19.926  1.00  0.00     0.000 C 
BRANCH   8   9
ATOM      9  C   UNL     1      -0.707 -10.340 -21.334  1.00  0.00     0.000 C 
BRANCH   9  10
ATOM     10  C   UNL     1      -0.927  -8.985 -22.038  1.00  0.00     0.006 C 
BRANCH  10  11
ATOM     11  C   UNL     1      -2.311  -8.820 -22.687  1.00  0.00     0.053 C 
BRANCH  11  12
ATOM     12  C   UNL     1      -2.293  -9.174 -24.142  1.00  0.00     0.041 C 
ATOM     13  O   UNL     1      -1.296  -8.880 -24.853  1.00  0.00    -0.550 OA
ATOM     14  O   UNL     1      -3.362  -9.858 -24.707  1.00  0.00    -0.550 OA
ENDBRANCH  11  12
ENDBRANCH  10  11
ENDBRANCH   9  10
ENDBRANCH   8   9
ENDBRANCH   7   8
ENDBRANCH   6   7
ENDBRANCH   5   6
ENDBRANCH   4   5
ENDBRANCH   3   4
ENDBRANCH   2   3
ENDBRANCH   1   2
BRANCH   1  15
ATOM     15  C   UNL     1      -3.156  -7.458 -16.410  1.00  0.00     0.000 C 
BRANCH  15  16
ATOM     16  C   UNL     1      -1.791  -6.821 -16.731  1.00  0.00     0.000 C 
BRANCH  16  17
ATOM     17  C   UNL     1      -0.763  -6.856 -15.586  1.00  0.00     0.000 C 
BRANCH  17  18
ATOM     18  C   UNL     1      -0.087  -8.229 -15.427  1.00  0.00    -0.000 C 
BRANCH  18  19
ATOM     19  C   UNL     1      -0.560  -8.994 -14.177  1.00  0.00    -0.000 C 
BRANCH  19  20
ATOM     20  C   UNL     1      -0.628 -10.526 -14.327  1.00  0.00    -0.000 C 
BRANCH  20  21
ATOM     21  C   UNL     1      -2.010 -11.106 -13.979  1.00  0.00    -0.000 C 
BRANCH  21  22
ATOM     22  C   UNL     1      -3.163 -10.241 -14.532  1.00  0.00    -0.000 C 
BRANCH  22  23
ATOM     23  C   UNL     1      -4.480 -11.012 -14.724  1.00  0.00    -0.000 C 
BRANCH  23  24
ATOM     24  C   UNL     1      -5.491 -10.260 -15.604  1.00  0.00    -0.000 C 
BRANCH  24  25
ATOM     25  C   UNL     1      -6.476  -9.417 -14.779  1.00  0.00    -0.003 C 
ATOM     26  C   UNL     1      -7.626 -10.243 -14.204  1.00  0.00     0.004 C 
ENDBRANCH  24  25
ENDBRANCH  23  24
ENDBRANCH  22  23
ENDBRANCH  21  22
ENDBRANCH  20  21
ENDBRANCH  19  20
ENDBRANCH  18  19
ENDBRANCH  17  18
ENDBRANCH  16  17
ENDBRANCH  15  16
ENDBRANCH   1  15
TORSDOF 22
ENDMDL
MODEL 6
REMARK VINA RESULT:    -3.929      1.206      2.593
REMARK INTER + INTRA:         -12.630
REMARK INTER:                  -9.048
REMARK INTRA:                  -3.582
REMARK UNBOUND:                -3.648
REMARK SMILES CCCCCCCCCCCCCCCCCCCCCCCC(=O)[O-]
REMARK SMILES IDX 13 1 14 2 15 3 16 4 17 5 18 6 19 7 20 8 21 9 22 10 23 11
REMARK SMILES IDX 24 12 25 13 26 14 12 15 11 16 10 17 9 18 8 19 7 20 6 21 5 22
REMARK SMILES IDX 4 23 3 24 2 25 1 26
REMARK H PARENT
REMARK Flexibility Score: inf
ROOT
ATOM      1  C   UNL     1      -4.684 -10.666 -18.058  1.00  0.00     0.000 C 
ENDROOT
BRANCH   1   2
ATOM      2  C   UNL     1      -3.286 -11.197 -18.394  1.00  0.00     0.000 C 
BRANCH   2   3
ATOM      3  C   UNL     1      -2.562 -10.262 -19.375  1.00  0.00     0.000 C 
BRANCH   3   4
ATOM      4  C   UNL     1      -1.067 -10.589 -19.508  1.00  0.00     0.000 C 
BRANCH   4   5
ATOM      5  C   UNL     1      -0.225  -9.361 -19.894  1.00  0.00     0.000 C 
BRANCH   5   6
ATOM      6  C   UNL     1      -1.071  -8.085 -20.038  1.00  0.00     0.000 C 
BRANCH   6   7
ATOM      7  C   UNL     1      -0.675  -7.249 -21.265  1.00  0.00     0.000 C 
BRANCH   7   8
ATOM      8  C   UNL     1      -1.657  -7.471 -22.424  1.00  0.00     0.000 C 
BRANCH   8   9
ATOM      9  C   UNL     1      -1.204  -8.581 -23.390  1.00  0.00     0.000 C 
BRANCH   9  10
ATOM     10  C   UNL     1      -2.242  -9.695 -23.639  1.00  0.00     0.006 C 
BRANCH  10  11
ATOM     11  C   UNL     1      -2.984  -9.588 -24.981  1.00  0.00     0.053 C 
BRANCH  11  12
ATOM     12  C   UNL     1      -2.113  -9.981 -26.135  1.00  0.00     0.041 C 
ATOM     13  O   UNL     1      -2.111 -11.170 -26.551  1.00  0.00    -0.550 OA
ATOM     14  O   UNL     1      -1.327  -9.029 -26.772  1.00  0.00    -0.550 OA
ENDBRANCH  11  12
ENDBRANCH  10  11
ENDBRANCH   9  10
ENDBRANCH   8   9
ENDBRANCH   7   8
ENDBRANCH   6   7
ENDBRANCH   5   6
ENDBRANCH   4   5
ENDBRANCH   3   4
ENDBRANCH   2   3
ENDBRANCH   1   2
BRANCH   1  15
ATOM     15  C   UNL     1      -5.299 -11.443 -16.885  1.00  0.00     0.000 C 
BRANCH  15  16
ATOM     16  C   UNL     1      -6.217 -10.576 -16.002  1.00  0.00     0.000 C 
BRANCH  16  17
ATOM     17  C   UNL     1      -5.652 -10.223 -14.614  1.00  0.00     0.000 C 
BRANCH  17  18
ATOM     18  C   UNL     1      -4.343  -9.419 -14.684  1.00  0.00    -0.000 C 
BRANCH  18  19
ATOM     19  C   UNL     1      -3.088 -10.290 -14.480  1.00  0.00    -0.000 C 
BRANCH  19  20
ATOM     20  C   UNL     1      -1.747  -9.533 -14.521  1.00  0.00    -0.000 C 
BRANCH  20  21
ATOM     21  C   UNL     1      -1.026  -9.657 -15.876  1.00  0.00    -0.000 C 
BRANCH  21  22
ATOM     22  C   UNL     1      -0.476  -8.302 -16.370  1.00  0.00    -0.000 C 
BRANCH  22  23
ATOM     23  C   UNL     1      -1.353  -7.099 -15.982  1.00  0.00    -0.000 C 
BRANCH  23  24
ATOM     24  C   UNL     1      -2.136  -6.522 -17.172  1.00  0.00    -0.000 C 
BRANCH  24  25
ATOM     25  C   UNL     1      -3.635  -6.851 -17.106  1.00  0.00    -0.003 C 
ATOM     26  C   UNL     1      -4.243  -7.124 -18.481  1.00  0.00     0.004 C 
ENDBRANCH  24  25
ENDBRANCH  23  24
ENDBRANCH  22  23
ENDBRANCH  21  22
ENDBRANCH  20  21
ENDBRANCH  19  20
ENDBRANCH  18  19
ENDBRANCH  17  18
ENDBRANCH  16  17
ENDBRANCH  15  16
ENDBRANCH   1  15
TORSDOF 22
ENDMDL
MODEL 7
REMARK VINA RESULT:    -3.791      1.557      3.246
REMARK INTER + INTRA:         -12.315
REMARK INTER:                  -8.938
REMARK INTRA:                  -3.377
REMARK UNBOUND:                -3.648
REMARK SMILES CCCCCCCCCCCCCCCCCCCCCCCC(=O)[O-]
REMARK SMILES IDX 13 1 14 2 15 3 16 4 17 5 18 6 19 7 20 8 21 9 22 10 23 11
REMARK SMILES IDX 24 12 25 13 26 14 12 15 11 16 10 17 9 18 8 19 7 20 6 21 5 22
REMARK SMILES IDX 4 23 3 24 2 25 1 26
REMARK H PARENT
REMARK Flexibility Score: inf
ROOT
ATOM      1  C   UNL     1      -4.942  -7.058 -16.722  1.00  0.00     0.000 C 
ENDROOT
BRANCH   1   2
ATOM      2  C   UNL     1      -4.374  -7.428 -18.097  1.00  0.00     0.000 C 
BRANCH   2   3
ATOM      3  C   UNL     1      -4.664  -8.899 -18.435  1.00  0.00     0.000 C 
BRANCH   3   4
ATOM      4  C   UNL     1      -3.415  -9.649 -18.923  1.00  0.00     0.000 C 
BRANCH   4   5
ATOM      5  C   UNL     1      -3.454 -11.148 -18.579  1.00  0.00     0.000 C 
BRANCH   5   6
ATOM      6  C   UNL     1      -2.147 -11.872 -18.942  1.00  0.00     0.000 C 
BRANCH   6   7
ATOM      7  C   UNL     1      -1.076 -10.916 -19.489  1.00  0.00     0.000 C 
BRANCH   7   8
ATOM      8  C   UNL     1      -1.351 -10.562 -20.958  1.00  0.00     0.000 C 
BRANCH   8   9
ATOM      9  C   UNL     1      -0.792 -11.607 -21.941  1.00  0.00     0.000 C 
BRANCH   9  10
ATOM     10  C   UNL     1      -0.721 -11.149 -23.413  1.00  0.00     0.006 C 
BRANCH  10  11
ATOM     11  C   UNL     1      -2.056 -11.228 -24.170  1.00  0.00     0.053 C 
BRANCH  11  12
ATOM     12  C   UNL     1      -2.536  -9.876 -24.600  1.00  0.00     0.041 C 
ATOM     13  O   UNL     1      -3.155  -9.740 -25.688  1.00  0.00    -0.550 OA
ATOM     14  O   UNL     1      -2.330  -8.770 -23.784  1.00  0.00    -0.550 OA
ENDBRANCH  11  12
ENDBRANCH  10  11
ENDBRANCH   9  10
ENDBRANCH   8   9
ENDBRANCH   7   8
ENDBRANCH   6   7
ENDBRANCH   5   6
ENDBRANCH   4   5
ENDBRANCH   3   4
ENDBRANCH   2   3
ENDBRANCH   1   2
BRANCH   1  15
ATOM     15  C   UNL     1      -4.509  -8.074 -15.656  1.00  0.00     0.000 C 
BRANCH  15  16
ATOM     16  C   UNL     1      -5.622  -8.395 -14.641  1.00  0.00     0.000 C 
BRANCH  16  17
ATOM     17  C   UNL     1      -6.630  -9.469 -15.088  1.00  0.00     0.000 C 
BRANCH  17  18
ATOM     18  C   UNL     1      -6.320 -10.862 -14.512  1.00  0.00    -0.000 C 
BRANCH  18  19
ATOM     19  C   UNL     1      -5.210 -11.601 -15.283  1.00  0.00    -0.000 C 
BRANCH  19  20
ATOM     20  C   UNL     1      -3.935 -11.904 -14.474  1.00  0.00    -0.000 C 
BRANCH  20  21
ATOM     21  C   UNL     1      -2.685 -11.201 -15.032  1.00  0.00    -0.000 C 
BRANCH  21  22
ATOM     22  C   UNL     1      -2.031 -10.261 -13.996  1.00  0.00    -0.000 C 
BRANCH  22  23
ATOM     23  C   UNL     1      -1.141  -9.173 -14.621  1.00  0.00    -0.000 C 
BRANCH  23  24
ATOM     24  C   UNL     1      -0.972  -9.338 -16.139  1.00  0.00    -0.000 C 
BRANCH  24  25
ATOM     25  C   UNL     1      -0.800  -7.994 -16.862  1.00  0.00    -0.003 C 
ATOM     26  C   UNL     1      -1.121  -6.796 -15.969  1.00  0.00     0.004 C 
ENDBRANCH  24  25
ENDBRANCH  23  24
ENDBRANCH  22  23
ENDBRANCH  21  22
ENDBRANCH  20  21
ENDBRANCH  19  20
ENDBRANCH  18  19
ENDBRANCH  17  18
ENDBRANCH  16  17
ENDBRANCH  15  16
ENDBRANCH   1  15
TORSDOF 22
ENDMDL
MODEL 8
REMARK VINA RESULT:    -3.786      1.806      2.960
REMARK INTER + INTRA:         -12.304
REMARK INTER:                  -8.791
REMARK INTRA:                  -3.512
REMARK UNBOUND:                -3.648
REMARK SMILES CCCCCCCCCCCCCCCCCCCCCCCC(=O)[O-]
REMARK SMILES IDX 13 1 14 2 15 3 16 4 17 5 18 6 19 7 20 8 21 9 22 10 23 11
REMARK SMILES IDX 24 12 25 13 26 14 12 15 11 16 10 17 9 18 8 19 7 20 6 21 5 22
REMARK SMILES IDX 4 23 3 24 2 25 1 26
REMARK H PARENT
REMARK Flexibility Score: inf
ROOT
ATOM      1  C   UNL     1      -5.371 -10.787 -17.563  1.00  0.00     0.000 C 
ENDROOT
BRANCH   1   2
ATOM      2  C   UNL     1      -4.080 -10.674 -18.381  1.00  0.00     0.000 C 
BRANCH   2   3
ATOM      3  C   UNL     1      -2.916 -11.389 -17.678  1.00  0.00     0.000 C 
BRANCH   3   4
ATOM      4  C   UNL     1      -1.550 -11.023 -18.277  1.00  0.00     0.000 C 
BRANCH   4   5
ATOM      5  C   UNL     1      -1.673 -10.150 -19.539  1.00  0.00     0.000 C 
BRANCH   5   6
ATOM      6  C   UNL     1      -0.570 -10.443 -20.569  1.00  0.00     0.000 C 
BRANCH   6   7
ATOM      7  C   UNL     1      -0.951 -11.577 -21.534  1.00  0.00     0.000 C 
BRANCH   7   8
ATOM      8  C   UNL     1      -1.245 -11.029 -22.939  1.00  0.00     0.000 C 
BRANCH   8   9
ATOM      9  C   UNL     1      -0.546  -9.686 -23.217  1.00  0.00     0.000 C 
BRANCH   9  10
ATOM     10  C   UNL     1      -1.477  -8.549 -23.688  1.00  0.00     0.006 C 
BRANCH  10  11
ATOM     11  C   UNL     1      -2.296  -7.888 -22.568  1.00  0.00     0.053 C 
BRANCH  11  12
ATOM     12  C   UNL     1      -1.575  -6.724 -21.959  1.00  0.00     0.041 C 
ATOM     13  O   UNL     1      -1.579  -5.605 -22.536  1.00  0.00    -0.550 OA
ATOM     14  O   UNL     1      -0.927  -6.866 -20.739  1.00  0.00    -0.550 OA
ENDBRANCH  11  12
ENDBRANCH  10  11
ENDBRANCH   9  10
ENDBRANCH   8   9
ENDBRANCH   7   8
ENDBRANCH   6   7
ENDBRANCH   5   6
ENDBRANCH   4   5
ENDBRANCH   3   4
ENDBRANCH   2   3
ENDBRANCH   1   2
BRANCH   1  15
ATOM     15  C   UNL     1      -5.430 -12.124 -16.811  1.00  0.00     0.000 C 
BRANCH  15  16
ATOM     16  C   UNL     1      -5.761 -11.962 -15.316  1.00  0.00     0.000 C 
BRANCH  16  17
ATOM     17  C   UNL     1      -7.160 -11.396 -15.009  1.00  0.00     0.000 C 
BRANCH  17  18
ATOM     18  C   UNL     1      -7.145  -9.890 -14.697  1.00  0.00    -0.000 C 
BRANCH  18  19
ATOM     19  C   UNL     1      -5.875  -9.442 -13.948  1.00  0.00    -0.000 C 
BRANCH  19  20
ATOM     20  C   UNL     1      -4.889  -8.594 -14.773  1.00  0.00    -0.000 C 
BRANCH  20  21
ATOM     21  C   UNL     1      -3.470  -9.189 -14.814  1.00  0.00    -0.000 C 
BRANCH  21  22
ATOM     22  C   UNL     1      -2.388  -8.106 -15.019  1.00  0.00    -0.000 C 
BRANCH  22  23
ATOM     23  C   UNL     1      -2.018  -7.871 -16.494  1.00  0.00    -0.000 C 
BRANCH  23  24
ATOM     24  C   UNL     1      -2.647  -6.593 -17.071  1.00  0.00    -0.000 C 
BRANCH  24  25
ATOM     25  C   UNL     1      -4.034  -6.844 -17.682  1.00  0.00    -0.003 C 
ATOM     26  C   UNL     1      -3.972  -7.198 -19.167  1.00  0.00     0.004 C 
ENDBRANCH  24  25
ENDBRANCH  23  24
ENDBRANCH  22  23
ENDBRANCH  21  22
ENDBRANCH  20  21
ENDBRANCH  19  20
ENDBRANCH  18  19
ENDBRANCH  17  18
ENDBRANCH  16  17
ENDBRANCH  15  16
ENDBRANCH   1  15
TORSDOF 22
ENDMDL
MODEL 9
REMARK VINA RESULT:    -3.640      1.308      2.611
REMARK INTER + INTRA:         -11.970
REMARK INTER:                  -8.459
REMARK INTRA:                  -3.511
REMARK UNBOUND:                -3.648
REMARK SMILES CCCCCCCCCCCCCCCCCCCCCCCC(=O)[O-]
REMARK SMILES IDX 13 1 14 2 15 3 16 4 17 5 18 6 19 7 20 8 21 9 22 10 23 11
REMARK SMILES IDX 24 12 25 13 26 14 12 15 11 16 10 17 9 18 8 19 7 20 6 21 5 22
REMARK SMILES IDX 4 23 3 24 2 25 1 26
REMARK H PARENT
REMARK Flexibility Score: inf
ROOT
ATOM      1  C   UNL     1      -3.159 -10.865 -17.949  1.00  0.00     0.000 C 
ENDROOT
BRANCH   1   2
ATOM      2  C   UNL     1      -2.163 -11.311 -19.025  1.00  0.00     0.000 C 
BRANCH   2   3
ATOM      3  C   UNL     1      -1.510 -10.099 -19.709  1.00  0.00     0.000 C 
BRANCH   3   4
ATOM      4  C   UNL     1      -2.495  -8.939 -19.917  1.00  0.00     0.000 C 
BRANCH   4   5
ATOM      5  C   UNL     1      -1.870  -7.569 -19.599  1.00  0.00     0.000 C 
BRANCH   5   6
ATOM      6  C   UNL     1      -1.350  -6.851 -20.855  1.00  0.00     0.000 C 
BRANCH   6   7
ATOM      7  C   UNL     1      -2.039  -7.336 -22.140  1.00  0.00     0.000 C 
BRANCH   7   8
ATOM      8  C   UNL     1      -1.006  -7.667 -23.228  1.00  0.00     0.000 C 
BRANCH   8   9
ATOM      9  C   UNL     1      -0.714  -9.175 -23.338  1.00  0.00     0.000 C 
BRANCH   9  10
ATOM     10  C   UNL     1      -1.961 -10.075 -23.473  1.00  0.00     0.006 C 
BRANCH  10  11
ATOM     11  C   UNL     1      -1.850 -11.161 -24.554  1.00  0.00     0.053 C 
BRANCH  11  12
ATOM     12  C   UNL     1      -2.058 -10.606 -25.929  1.00  0.00     0.041 C 
ATOM     13  O   UNL     1      -1.240 -10.871 -26.849  1.00  0.00    -0.550 OA
ATOM     14  O   UNL     1      -3.171  -9.822 -26.205  1.00  0.00    -0.550 OA
ENDBRANCH  11  12
ENDBRANCH  10  11
ENDBRANCH   9  10
ENDBRANCH   8   9
ENDBRANCH   7   8
ENDBRANCH   6   7
ENDBRANCH   5   6
ENDBRANCH   4   5
ENDBRANCH   3   4
ENDBRANCH   2   3
ENDBRANCH   1   2
BRANCH   1  15
ATOM     15  C   UNL     1      -4.519 -11.552 -18.141  1.00  0.00     0.000 C 
BRANCH  15  16
ATOM     16  C   UNL     1      -5.522 -11.228 -17.018  1.00  0.00     0.000 C 
BRANCH  16  17
ATOM     17  C   UNL     1      -5.050 -11.576 -15.594  1.00  0.00     0.000 C 
BRANCH  17  18
ATOM     18  C   UNL     1      -5.492 -10.541 -14.545  1.00  0.00    -0.000 C 
BRANCH  18  19
ATOM     19  C   UNL     1      -6.091  -9.267 -15.169  1.00  0.00    -0.000 C 
BRANCH  19  20
ATOM     20  C   UNL     1      -5.198  -8.014 -15.097  1.00  0.00    -0.000 C 
BRANCH  20  21
ATOM     21  C   UNL     1      -4.372  -7.787 -16.376  1.00  0.00    -0.000 C 
BRANCH  21  22
ATOM     22  C   UNL     1      -2.854  -7.765 -16.095  1.00  0.00    -0.000 C 
BRANCH  22  23
ATOM     23  C   UNL     1      -2.458  -8.450 -14.775  1.00  0.00    -0.000 C 
BRANCH  23  24
ATOM     24  C   UNL     1      -1.657  -9.744 -14.990  1.00  0.00    -0.000 C 
BRANCH  24  25
ATOM     25  C   UNL     1      -1.253 -10.413 -13.668  1.00  0.00    -0.003 C 
ATOM     26  C   UNL     1      -2.116 -11.630 -13.332  1.00  0.00     0.004 C 
ENDBRANCH  24  25
ENDBRANCH  23  24
ENDBRANCH  22  23
ENDBRANCH  21  22
ENDBRANCH  20  21
ENDBRANCH  19  20
ENDBRANCH  18  19
ENDBRANCH  17  18
ENDBRANCH  16  17
ENDBRANCH  15  16
ENDBRANCH   1  15
TORSDOF 22
ENDMDL
