MODEL 1
REMARK VINA RESULT:    -3.678      0.000      0.000
REMARK INTER + INTRA:          -5.051
REMARK INTER:                  -4.431
REMARK INTRA:                  -0.620
REMARK UNBOUND:                -0.620
REMARK SMILES O=c1ccn([C@H]2O[C@H](CO)[C@H](O)[C@@H]2O)c(=O)[nH]1
REMARK SMILES IDX 6 1 13 2 11 3 8 4 7 5 5 6 3 7 4 8 2 9 17 10 1 11 15 12 16 14
REMARK SMILES IDX 14 15 12 17 9 19 10 20
REMARK H PARENT 17 13 14 16 12 18 10 21
REMARK Flexibility Score: inf
ROOT
ATOM      1  C   UNL     1     172.254 163.090 174.956  1.00  0.00     0.255 C 
ATOM      2  C   UNL     1     171.165 163.531 173.980  1.00  0.00     0.196 C 
ATOM      3  C   UNL     1     170.190 164.241 174.886  1.00  0.00     0.179 C 
ATOM      4  C   UNL     1     171.129 164.808 175.948  1.00  0.00     0.178 C 
ATOM      5  O   UNL     1     172.238 163.946 176.083  1.00  0.00    -0.347 OA
ENDROOT
BRANCH   1   6
ATOM      6  N   UNL     1     173.580 163.102 174.305  1.00  0.00    -0.271 N 
ATOM      7  C   UNL     1     175.046 163.958 172.607  1.00  0.00     0.090 A 
ATOM      8  C   UNL     1     173.813 163.949 173.254  1.00  0.00     0.099 A 
ATOM      9  C   UNL     1     176.031 163.078 173.040  1.00  0.00     0.253 A 
ATOM     10  N   UNL     1     175.775 162.230 174.070  1.00  0.00    -0.274 N 
ATOM     11  O   UNL     1     177.157 163.064 172.473  1.00  0.00    -0.269 OA
ATOM     12  C   UNL     1     174.565 162.228 174.696  1.00  0.00     0.330 A 
ATOM     13  H   UNL     1     176.519 161.564 174.383  1.00  0.00     0.175 HD
ATOM     14  O   UNL     1     174.362 161.410 175.636  1.00  0.00    -0.248 OA
ENDBRANCH   1   6
BRANCH   2  15
ATOM     15  O   UNL     1     170.592 162.427 173.331  1.00  0.00    -0.386 OA
ATOM     16  H   UNL     1     169.908 162.791 172.710  1.00  0.00     0.211 HD
ENDBRANCH   2  15
BRANCH   3  17
ATOM     17  O   UNL     1     169.281 163.327 175.452  1.00  0.00    -0.387 OA
ATOM     18  H   UNL     1     169.800 162.759 176.079  1.00  0.00     0.211 HD
ENDBRANCH   3  17
BRANCH   4  19
ATOM     19  C   UNL     1     170.455 165.025 177.312  1.00  0.00     0.191 C 
BRANCH  19  20
ATOM     20  O   UNL     1     170.490 163.844 178.066  1.00  0.00    -0.394 OA
ATOM     21  H   UNL     1     170.479 163.091 177.418  1.00  0.00     0.210 HD
ENDBRANCH  19  20
ENDBRANCH   4  19
TORSDOF 5
ENDMDL
MODEL 2
REMARK VINA RESULT:    -3.678     17.080     18.840
REMARK INTER + INTRA:          -5.050
REMARK INTER:                  -4.439
REMARK INTRA:                  -0.611
REMARK UNBOUND:                -0.620
REMARK SMILES O=c1ccn([C@H]2O[C@H](CO)[C@H](O)[C@@H]2O)c(=O)[nH]1
REMARK SMILES IDX 6 1 13 2 11 3 8 4 7 5 5 6 3 7 4 8 2 9 17 10 1 11 15 12 16 14
REMARK SMILES IDX 14 15 12 17 9 19 10 20
REMARK H PARENT 17 13 14 16 12 18 10 21
REMARK Flexibility Score: inf
ROOT
ATOM      1  C   UNL     1     163.158 172.273 162.188  1.00  0.00     0.255 C 
ATOM      2  C   UNL     1     163.641 171.187 163.146  1.00  0.00     0.196 C 
ATOM      3  C   UNL     1     164.345 170.228 162.218  1.00  0.00     0.179 C 
ATOM      4  C   UNL     1     164.870 171.183 161.148  1.00  0.00     0.178 C 
ATOM      5  O   UNL     1     163.986 172.277 161.040  1.00  0.00    -0.347 OA
ENDROOT
BRANCH   1   6
ATOM      6  N   UNL     1     163.164 173.596 162.845  1.00  0.00    -0.271 N 
ATOM      7  C   UNL     1     164.045 175.072 164.520  1.00  0.00     0.090 A 
ATOM      8  C   UNL     1     164.041 173.842 163.867  1.00  0.00     0.099 A 
ATOM      9  C   UNL     1     163.129 176.040 164.124  1.00  0.00     0.253 A 
ATOM     10  N   UNL     1     162.252 175.770 163.123  1.00  0.00    -0.274 N 
ATOM     11  O   UNL     1     163.110 177.162 164.697  1.00  0.00    -0.269 OA
ATOM     12  C   UNL     1     162.254 174.564 162.490  1.00  0.00     0.330 A 
ATOM     13  H   UNL     1     161.559 176.500 162.836  1.00  0.00     0.175 HD
ATOM     14  O   UNL     1     161.409 174.347 161.578  1.00  0.00    -0.248 OA
ENDBRANCH   1   6
BRANCH   2  15
ATOM     15  O   UNL     1     162.563 170.592 163.819  1.00  0.00    -0.386 OA
ATOM     16  H   UNL     1     162.293 171.227 164.533  1.00  0.00     0.211 HD
ENDBRANCH   2  15
BRANCH   3  17
ATOM     17  O   UNL     1     163.433 169.307 161.670  1.00  0.00    -0.387 OA
ATOM     18  H   UNL     1     163.105 169.701 160.820  1.00  0.00     0.211 HD
ENDBRANCH   3  17
BRANCH   4  19
ATOM     19  C   UNL     1     165.064 170.519 159.775  1.00  0.00     0.191 C 
BRANCH  19  20
ATOM     20  O   UNL     1     163.835 170.398 159.114  1.00  0.00    -0.394 OA
ATOM     21  H   UNL     1     163.227 169.911 159.729  1.00  0.00     0.210 HD
ENDBRANCH  19  20
ENDBRANCH   4  19
TORSDOF 5
ENDMDL
MODEL 3
REMARK VINA RESULT:    -3.677      9.277     10.042
REMARK INTER + INTRA:          -5.049
REMARK INTER:                  -4.425
REMARK INTRA:                  -0.624
REMARK UNBOUND:                -0.620
REMARK SMILES O=c1ccn([C@H]2O[C@H](CO)[C@H](O)[C@@H]2O)c(=O)[nH]1
REMARK SMILES IDX 6 1 13 2 11 3 8 4 7 5 5 6 3 7 4 8 2 9 17 10 1 11 15 12 16 14
REMARK SMILES IDX 14 15 12 17 9 19 10 20
REMARK H PARENT 17 13 14 16 12 18 10 21
REMARK Flexibility Score: inf
ROOT
ATOM      1  C   UNL     1     163.187 164.870 174.962  1.00  0.00     0.255 C 
ATOM      2  C   UNL     1     163.674 165.952 174.002  1.00  0.00     0.196 C 
ATOM      3  C   UNL     1     164.344 166.932 174.934  1.00  0.00     0.179 C 
ATOM      4  C   UNL     1     164.860 165.997 176.026  1.00  0.00     0.178 C 
ATOM      5  O   UNL     1     163.990 164.891 176.127  1.00  0.00    -0.347 OA
ENDROOT
BRANCH   1   6
ATOM      6  N   UNL     1     163.226 163.540 174.320  1.00  0.00    -0.271 N 
ATOM      7  C   UNL     1     164.202 162.042 172.719  1.00  0.00     0.090 A 
ATOM      8  C   UNL     1     164.165 163.279 173.358  1.00  0.00     0.099 A 
ATOM      9  C   UNL     1     163.257 161.083 173.067  1.00  0.00     0.253 A 
ATOM     10  N   UNL     1     162.321 161.369 174.008  1.00  0.00    -0.274 N 
ATOM     11  O   UNL     1     163.268 159.955 172.505  1.00  0.00    -0.269 OA
ATOM     12  C   UNL     1     162.291 162.581 174.628  1.00  0.00     0.330 A 
ATOM     13  H   UNL     1     161.607 160.645 174.258  1.00  0.00     0.175 HD
ATOM     14  O   UNL     1     161.391 162.812 175.482  1.00  0.00    -0.248 OA
ENDBRANCH   1   6
BRANCH   2  15
ATOM     15  O   UNL     1     162.602 166.524 173.300  1.00  0.00    -0.386 OA
ATOM     16  H   UNL     1     162.934 167.385 172.934  1.00  0.00     0.211 HD
ENDBRANCH   2  15
BRANCH   3  17
ATOM     17  O   UNL     1     163.407 167.845 175.452  1.00  0.00    -0.387 OA
ATOM     18  H   UNL     1     162.789 167.325 176.028  1.00  0.00     0.211 HD
ENDBRANCH   3  17
BRANCH   4  19
ATOM     19  C   UNL     1     165.015 166.678 177.394  1.00  0.00     0.191 C 
BRANCH  19  20
ATOM     20  O   UNL     1     163.785 166.713 178.064  1.00  0.00    -0.394 OA
ATOM     21  H   UNL     1     163.080 166.739 177.365  1.00  0.00     0.210 HD
ENDBRANCH  19  20
ENDBRANCH   4  19
TORSDOF 5
ENDMDL
MODEL 4
REMARK VINA RESULT:    -3.672     12.000     14.282
REMARK INTER + INTRA:          -5.044
REMARK INTER:                  -4.420
REMARK INTRA:                  -0.623
REMARK UNBOUND:                -0.620
REMARK SMILES O=c1ccn([C@H]2O[C@H](CO)[C@H](O)[C@@H]2O)c(=O)[nH]1
REMARK SMILES IDX 6 1 13 2 11 3 8 4 7 5 5 6 3 7 4 8 2 9 17 10 1 11 15 12 16 14
REMARK SMILES IDX 14 15 12 17 9 19 10 20
REMARK H PARENT 17 13 14 16 12 18 10 21
REMARK Flexibility Score: inf
ROOT
ATOM      1  C   UNL     1     165.029 174.080 174.956  1.00  0.00     0.255 C 
ATOM      2  C   UNL     1     166.101 173.657 173.955  1.00  0.00     0.196 C 
ATOM      3  C   UNL     1     167.115 172.973 174.838  1.00  0.00     0.179 C 
ATOM      4  C   UNL     1     166.215 172.392 175.927  1.00  0.00     0.178 C 
ATOM      5  O   UNL     1     165.092 173.231 176.086  1.00  0.00    -0.347 OA
ENDROOT
BRANCH   1   6
ATOM      6  N   UNL     1     163.686 174.036 174.340  1.00  0.00    -0.271 N 
ATOM      7  C   UNL     1     162.187 173.115 172.707  1.00  0.00     0.090 A 
ATOM      8  C   UNL     1     163.436 173.154 173.322  1.00  0.00     0.099 A 
ATOM      9  C   UNL     1     161.204 174.000 173.137  1.00  0.00     0.253 A 
ATOM     10  N   UNL     1     161.479 174.881 174.134  1.00  0.00    -0.274 N 
ATOM     11  O   UNL     1     160.065 173.986 172.599  1.00  0.00    -0.269 OA
ATOM     12  C   UNL     1     162.703 174.913 174.729  1.00  0.00     0.330 A 
ATOM     13  H   UNL     1     160.736 175.550 174.445  1.00  0.00     0.175 HD
ATOM     14  O   UNL     1     162.922 175.762 175.637  1.00  0.00    -0.248 OA
ENDBRANCH   1   6
BRANCH   2  15
ATOM     15  O   UNL     1     166.634 174.770 173.285  1.00  0.00    -0.386 OA
ATOM     16  H   UNL     1     166.155 175.565 173.639  1.00  0.00     0.211 HD
ENDBRANCH   2  15
BRANCH   3  17
ATOM     17  O   UNL     1     168.018 173.910 175.376  1.00  0.00    -0.387 OA
ATOM     18  H   UNL     1     168.418 173.490 176.182  1.00  0.00     0.211 HD
ENDBRANCH   3  17
BRANCH   4  19
ATOM     19  C   UNL     1     166.929 172.197 177.274  1.00  0.00     0.191 C 
BRANCH  19  20
ATOM     20  O   UNL     1     166.849 173.367 178.041  1.00  0.00    -0.394 OA
ATOM     21  H   UNL     1     166.583 174.097 177.422  1.00  0.00     0.210 HD
ENDBRANCH  19  20
ENDBRANCH   4  19
TORSDOF 5
ENDMDL
MODEL 5
REMARK VINA RESULT:    -3.668     15.114     16.473
REMARK INTER + INTRA:          -5.039
REMARK INTER:                  -4.416
REMARK INTRA:                  -0.623
REMARK UNBOUND:                -0.620
REMARK SMILES O=c1ccn([C@H]2O[C@H](CO)[C@H](O)[C@@H]2O)c(=O)[nH]1
REMARK SMILES IDX 6 1 13 2 11 3 8 4 7 5 5 6 3 7 4 8 2 9 17 10 1 11 15 12 16 14
REMARK SMILES IDX 14 15 12 17 9 19 10 20
REMARK H PARENT 17 13 14 16 12 18 10 21
REMARK Flexibility Score: inf
ROOT
ATOM      1  C   UNL     1     172.209 174.105 162.244  1.00  0.00     0.255 C 
ATOM      2  C   UNL     1     171.122 173.700 163.236  1.00  0.00     0.196 C 
ATOM      3  C   UNL     1     170.119 173.005 162.349  1.00  0.00     0.179 C 
ATOM      4  C   UNL     1     171.033 172.405 161.282  1.00  0.00     0.178 C 
ATOM      5  O   UNL     1     172.160 173.240 161.126  1.00  0.00    -0.347 OA
ENDROOT
BRANCH   1   6
ATOM      6  N   UNL     1     173.543 174.068 162.879  1.00  0.00    -0.271 N 
ATOM      7  C   UNL     1     175.016 173.172 164.548  1.00  0.00     0.090 A 
ATOM      8  C   UNL     1     173.776 173.204 163.916  1.00  0.00     0.099 A 
ATOM      9  C   UNL     1     176.008 174.046 164.117  1.00  0.00     0.253 A 
ATOM     10  N   UNL     1     175.751 174.910 163.101  1.00  0.00    -0.274 N 
ATOM     11  O   UNL     1     177.140 174.037 164.671  1.00  0.00    -0.269 OA
ATOM     12  C   UNL     1     174.534 174.936 162.489  1.00  0.00     0.330 A 
ATOM     13  H   UNL     1     176.499 175.571 162.788  1.00  0.00     0.175 HD
ATOM     14  O   UNL     1     174.331 175.769 161.563  1.00  0.00    -0.248 OA
ENDBRANCH   1   6
BRANCH   2  15
ATOM     15  O   UNL     1     170.583 174.824 163.881  1.00  0.00    -0.386 OA
ATOM     16  H   UNL     1     170.560 175.551 163.205  1.00  0.00     0.211 HD
ENDBRANCH   2  15
BRANCH   3  17
ATOM     17  O   UNL     1     169.226 173.935 161.785  1.00  0.00    -0.387 OA
ATOM     18  H   UNL     1     168.310 173.603 161.975  1.00  0.00     0.211 HD
ENDBRANCH   3  17
BRANCH   4  19
ATOM     19  C   UNL     1     170.338 172.192 159.928  1.00  0.00     0.191 C 
BRANCH  19  20
ATOM     20  O   UNL     1     170.408 173.359 159.155  1.00  0.00    -0.394 OA
ATOM     21  H   UNL     1     169.665 173.945 159.455  1.00  0.00     0.210 HD
ENDBRANCH  19  20
ENDBRANCH   4  19
TORSDOF 5
ENDMDL
MODEL 6
REMARK VINA RESULT:    -3.668      9.299     10.116
REMARK INTER + INTRA:          -5.038
REMARK INTER:                  -4.415
REMARK INTRA:                  -0.623
REMARK UNBOUND:                -0.620
REMARK SMILES O=c1ccn([C@H]2O[C@H](CO)[C@H](O)[C@@H]2O)c(=O)[nH]1
REMARK SMILES IDX 6 1 13 2 11 3 8 4 7 5 5 6 3 7 4 8 2 9 17 10 1 11 15 12 16 14
REMARK SMILES IDX 14 15 12 17 9 19 10 20
REMARK H PARENT 17 13 14 16 12 18 10 21
REMARK Flexibility Score: inf
ROOT
ATOM      1  C   UNL     1     174.090 172.212 174.968  1.00  0.00     0.255 C 
ATOM      2  C   UNL     1     173.653 171.129 173.985  1.00  0.00     0.196 C 
ATOM      3  C   UNL     1     172.956 170.139 174.885  1.00  0.00     0.179 C 
ATOM      4  C   UNL     1     172.387 171.065 175.959  1.00  0.00     0.178 C 
ATOM      5  O   UNL     1     173.241 172.179 176.099  1.00  0.00    -0.347 OA
ENDROOT
BRANCH   1   6
ATOM      6  N   UNL     1     174.064 173.544 174.329  1.00  0.00    -0.271 N 
ATOM      7  C   UNL     1     173.172 175.024 172.663  1.00  0.00     0.090 A 
ATOM      8  C   UNL     1     173.194 173.785 173.299  1.00  0.00     0.099 A 
ATOM      9  C   UNL     1     174.061 176.006 173.085  1.00  0.00     0.253 A 
ATOM     10  N   UNL     1     174.931 175.741 174.094  1.00  0.00    -0.274 N 
ATOM     11  O   UNL     1     174.062 177.136 172.528  1.00  0.00    -0.269 OA
ATOM     12  C   UNL     1     174.947 174.526 174.710  1.00  0.00     0.330 A 
ATOM     13  H   UNL     1     175.604 176.482 174.399  1.00  0.00     0.175 HD
ATOM     14  O   UNL     1     175.785 174.315 175.629  1.00  0.00    -0.248 OA
ENDBRANCH   1   6
BRANCH   2  15
ATOM     15  O   UNL     1     174.758 170.570 173.325  1.00  0.00    -0.386 OA
ATOM     16  H   UNL     1     174.852 169.644 173.670  1.00  0.00     0.211 HD
ENDBRANCH   2  15
BRANCH   3  17
ATOM     17  O   UNL     1     173.880 169.233 175.439  1.00  0.00    -0.387 OA
ATOM     18  H   UNL     1     173.723 169.227 176.418  1.00  0.00     0.211 HD
ENDBRANCH   3  17
BRANCH   4  19
ATOM     19  C   UNL     1     172.183 170.377 177.318  1.00  0.00     0.191 C 
BRANCH  19  20
ATOM     20  O   UNL     1     173.359 170.440 178.077  1.00  0.00    -0.394 OA
ATOM     21  H   UNL     1     174.000 170.999 177.565  1.00  0.00     0.210 HD
ENDBRANCH  19  20
ENDBRANCH   4  19
TORSDOF 5
ENDMDL
MODEL 7
REMARK VINA RESULT:    -3.652     11.857     13.548
REMARK INTER + INTRA:          -5.019
REMARK INTER:                  -4.310
REMARK INTRA:                  -0.709
REMARK UNBOUND:                -0.620
REMARK SMILES O=c1ccn([C@H]2O[C@H](CO)[C@H](O)[C@@H]2O)c(=O)[nH]1
REMARK SMILES IDX 6 1 13 2 11 3 8 4 7 5 5 6 3 7 4 8 2 9 17 10 1 11 15 12 16 14
REMARK SMILES IDX 14 15 12 17 9 19 10 20
REMARK H PARENT 17 13 14 16 12 18 10 21
REMARK Flexibility Score: inf
ROOT
ATOM      1  C   UNL     1     174.977 165.708 162.293  1.00  0.00     0.255 C 
ATOM      2  C   UNL     1     176.002 164.729 161.726  1.00  0.00     0.196 C 
ATOM      3  C   UNL     1     177.235 165.053 162.533  1.00  0.00     0.179 C 
ATOM      4  C   UNL     1     176.616 165.485 163.861  1.00  0.00     0.178 C 
ATOM      5  O   UNL     1     175.354 166.063 163.609  1.00  0.00    -0.347 OA
ENDROOT
BRANCH   1   6
ATOM      6  N   UNL     1     173.621 165.118 162.276  1.00  0.00    -0.271 N 
ATOM      7  C   UNL     1     171.918 163.814 163.351  1.00  0.00     0.090 A 
ATOM      8  C   UNL     1     173.180 164.402 163.356  1.00  0.00     0.099 A 
ATOM      9  C   UNL     1     171.121 163.954 162.220  1.00  0.00     0.253 A 
ATOM     10  N   UNL     1     171.585 164.651 161.150  1.00  0.00    -0.274 N 
ATOM     11  O   UNL     1     169.975 163.433 162.188  1.00  0.00    -0.269 OA
ATOM     12  C   UNL     1     172.822 165.222 161.163  1.00  0.00     0.330 A 
ATOM     13  H   UNL     1     170.984 164.744 160.299  1.00  0.00     0.175 HD
ATOM     14  O   UNL     1     173.222 165.843 160.139  1.00  0.00    -0.248 OA
ENDBRANCH   1   6
BRANCH   2  15
ATOM     15  O   UNL     1     176.190 164.934 160.351  1.00  0.00    -0.386 OA
ATOM     16  H   UNL     1     175.419 165.477 160.041  1.00  0.00     0.211 HD
ENDBRANCH   2  15
BRANCH   3  17
ATOM     17  O   UNL     1     177.952 166.111 161.943  1.00  0.00    -0.387 OA
ATOM     18  H   UNL     1     178.576 165.703 161.288  1.00  0.00     0.211 HD
ENDBRANCH   3  17
BRANCH   4  19
ATOM     19  C   UNL     1     177.497 166.456 164.662  1.00  0.00     0.191 C 
BRANCH  19  20
ATOM     20  O   UNL     1     177.191 167.782 164.325  1.00  0.00    -0.394 OA
ATOM     21  H   UNL     1     176.487 168.082 164.957  1.00  0.00     0.210 HD
ENDBRANCH  19  20
ENDBRANCH   4  19
TORSDOF 5
ENDMDL
MODEL 8
REMARK VINA RESULT:    -3.620     13.305     15.241
REMARK INTER + INTRA:          -4.980
REMARK INTER:                  -4.265
REMARK INTRA:                  -0.715
REMARK UNBOUND:                -0.620
REMARK SMILES O=c1ccn([C@H]2O[C@H](CO)[C@H](O)[C@@H]2O)c(=O)[nH]1
REMARK SMILES IDX 6 1 13 2 11 3 8 4 7 5 5 6 3 7 4 8 2 9 17 10 1 11 15 12 16 14
REMARK SMILES IDX 14 15 12 17 9 19 10 20
REMARK H PARENT 17 13 14 16 12 18 10 21
REMARK Flexibility Score: inf
ROOT
ATOM      1  C   UNL     1     165.617 162.333 162.288  1.00  0.00     0.255 C 
ATOM      2  C   UNL     1     164.691 161.329 161.608  1.00  0.00     0.196 C 
ATOM      3  C   UNL     1     164.982 160.058 162.366  1.00  0.00     0.179 C 
ATOM      4  C   UNL     1     165.320 160.609 163.750  1.00  0.00     0.178 C 
ATOM      5  O   UNL     1     165.895 161.889 163.602  1.00  0.00    -0.347 OA
ENDROOT
BRANCH   1   6
ATOM      6  N   UNL     1     165.011 163.681 162.306  1.00  0.00    -0.271 N 
ATOM      7  C   UNL     1     163.599 165.301 163.375  1.00  0.00     0.090 A 
ATOM      8  C   UNL     1     164.204 164.047 163.351  1.00  0.00     0.099 A 
ATOM      9  C   UNL     1     163.817 166.168 162.309  1.00  0.00     0.253 A 
ATOM     10  N   UNL     1     164.603 165.778 161.273  1.00  0.00    -0.274 N 
ATOM     11  O   UNL     1     163.282 167.308 162.306  1.00  0.00    -0.269 OA
ATOM     12  C   UNL     1     165.190 164.549 161.256  1.00  0.00     0.330 A 
ATOM     13  H   UNL     1     164.755 166.432 160.470  1.00  0.00     0.175 HD
ATOM     14  O   UNL     1     165.896 164.219 160.263  1.00  0.00    -0.248 OA
ENDBRANCH   1   6
BRANCH   2  15
ATOM     15  O   UNL     1     164.984 161.218 160.239  1.00  0.00    -0.386 OA
ATOM     16  H   UNL     1     164.712 162.078 159.824  1.00  0.00     0.211 HD
ENDBRANCH   2  15
BRANCH   3  17
ATOM     17  O   UNL     1     166.085 159.386 161.807  1.00  0.00    -0.387 OA
ATOM     18  H   UNL     1     165.840 159.166 160.871  1.00  0.00     0.211 HD
ENDBRANCH   3  17
BRANCH   4  19
ATOM     19  C   UNL     1     166.253 159.697 164.563  1.00  0.00     0.191 C 
BRANCH  19  20
ATOM     20  O   UNL     1     167.593 160.011 164.298  1.00  0.00    -0.394 OA
ATOM     21  H   UNL     1     167.627 160.358 163.368  1.00  0.00     0.210 HD
ENDBRANCH  19  20
ENDBRANCH   4  19
TORSDOF 5
ENDMDL
MODEL 9
REMARK VINA RESULT:    -3.614      8.201     10.586
REMARK INTER + INTRA:          -4.973
REMARK INTER:                  -4.267
REMARK INTRA:                  -0.707
REMARK UNBOUND:                -0.620
REMARK SMILES O=c1ccn([C@H]2O[C@H](CO)[C@H](O)[C@@H]2O)c(=O)[nH]1
REMARK SMILES IDX 6 1 13 2 11 3 8 4 7 5 5 6 3 7 4 8 2 9 17 10 1 11 15 12 16 14
REMARK SMILES IDX 14 15 12 17 9 19 10 20
REMARK H PARENT 17 13 14 16 12 18 10 21
REMARK Flexibility Score: inf
ROOT
ATOM      1  C   UNL     1     162.275 165.621 174.953  1.00  0.00     0.255 C 
ATOM      2  C   UNL     1     161.271 164.659 175.581  1.00  0.00     0.196 C 
ATOM      3  C   UNL     1     160.016 164.945 174.794  1.00  0.00     0.179 C 
ATOM      4  C   UNL     1     160.598 165.330 173.436  1.00  0.00     0.178 C 
ATOM      5  O   UNL     1     161.862 165.925 173.634  1.00  0.00    -0.347 OA
ENDROOT
BRANCH   1   6
ATOM      6  N   UNL     1     163.634 165.041 174.957  1.00  0.00    -0.271 N 
ATOM      7  C   UNL     1     165.316 163.700 173.892  1.00  0.00     0.090 A 
ATOM      8  C   UNL     1     164.050 164.281 173.897  1.00  0.00     0.099 A 
ATOM      9  C   UNL     1     166.143 163.895 174.993  1.00  0.00     0.253 A 
ATOM     10  N   UNL     1     165.704 164.634 176.044  1.00  0.00    -0.274 N 
ATOM     11  O   UNL     1     167.294 163.381 175.015  1.00  0.00    -0.269 OA
ATOM     12  C   UNL     1     164.464 165.197 176.041  1.00  0.00     0.330 A 
ATOM     13  H   UNL     1     166.329 164.768 176.873  1.00  0.00     0.175 HD
ATOM     14  O   UNL     1     164.088 165.860 177.048  1.00  0.00    -0.248 OA
ENDBRANCH   1   6
BRANCH   2  15
ATOM     15  O   UNL     1     161.116 164.913 176.952  1.00  0.00    -0.386 OA
ATOM     16  H   UNL     1     162.006 165.199 177.286  1.00  0.00     0.211 HD
ENDBRANCH   2  15
BRANCH   3  17
ATOM     17  O   UNL     1     159.307 166.020 175.363  1.00  0.00    -0.387 OA
ATOM     18  H   UNL     1     158.363 165.725 175.451  1.00  0.00     0.211 HD
ENDBRANCH   3  17
BRANCH   4  19
ATOM     19  C   UNL     1     159.691 166.267 172.622  1.00  0.00     0.191 C 
BRANCH  19  20
ATOM     20  O   UNL     1     160.021 167.605 172.874  1.00  0.00    -0.394 OA
ATOM     21  H   UNL     1     159.611 168.142 172.147  1.00  0.00     0.210 HD
ENDBRANCH  19  20
ENDBRANCH   4  19
TORSDOF 5
ENDMDL
