MODEL 1
REMARK VINA RESULT:    -3.796      0.000      0.000
REMARK INTER + INTRA:          -3.796
REMARK INTER:                  -3.796
REMARK INTRA:                   0.000
REMARK UNBOUND:                 0.000
REMARK SMILES CC1(C)C(=O)[C@@]2(C)CC[C@@H]1C2
REMARK SMILES IDX 1 1 2 2 10 3 9 4 8 5 6 6 11 7 4 8 5 9 7 10 3 11
REMARK H PARENT
REMARK Flexibility Score: inf
ROOT
ATOM      1  C   UNL     1      10.879  -5.512  -4.865  1.00  0.00     0.020 C 
ATOM      2  C   UNL     1      10.935  -4.692  -3.559  1.00  0.00     0.027 C 
ATOM      3  C   UNL     1      10.811  -5.611  -2.291  1.00  0.00     0.003 C 
ATOM      4  C   UNL     1      10.684  -4.765  -0.998  1.00  0.00     0.005 C 
ATOM      5  C   UNL     1      12.080  -4.112  -0.870  1.00  0.00     0.015 C 
ATOM      6  C   UNL     1      12.854  -4.743  -2.043  1.00  0.00     0.027 C 
ATOM      7  C   UNL     1      12.238  -6.125  -2.108  1.00  0.00     0.019 C 
ATOM      8  C   UNL     1      12.315  -4.150  -3.316  1.00  0.00     0.144 C 
ATOM      9  O   UNL     1      12.875  -3.307  -4.001  1.00  0.00    -0.298 OA
ATOM     10  C   UNL     1      14.379  -4.726  -1.908  1.00  0.00     0.020 C 
ATOM     11  C   UNL     1       9.887  -3.559  -3.628  1.00  0.00     0.020 C 
ENDROOT
TORSDOF 0
ENDMDL
MODEL 2
REMARK VINA RESULT:    -3.370      1.716      2.120
REMARK INTER + INTRA:          -3.370
REMARK INTER:                  -3.370
REMARK INTRA:                   0.000
REMARK UNBOUND:                 0.000
REMARK SMILES CC1(C)C(=O)[C@@]2(C)CC[C@@H]1C2
REMARK SMILES IDX 1 1 2 2 10 3 9 4 8 5 6 6 11 7 4 8 5 9 7 10 3 11
REMARK H PARENT
REMARK Flexibility Score: inf
ROOT
ATOM      1  C   UNL     1       8.371  -5.879  -4.259  1.00  0.00     0.020 C 
ATOM      2  C   UNL     1       8.928  -5.134  -3.028  1.00  0.00     0.027 C 
ATOM      3  C   UNL     1       9.871  -6.054  -2.172  1.00  0.00     0.003 C 
ATOM      4  C   UNL     1      10.277  -5.359  -0.846  1.00  0.00     0.005 C 
ATOM      5  C   UNL     1      11.187  -4.204  -1.322  1.00  0.00     0.015 C 
ATOM      6  C   UNL     1      11.267  -4.444  -2.842  1.00  0.00     0.027 C 
ATOM      7  C   UNL     1      11.201  -5.955  -2.917  1.00  0.00     0.019 C 
ATOM      8  C   UNL     1       9.929  -4.089  -3.431  1.00  0.00     0.144 C 
ATOM      9  O   UNL     1       9.678  -3.077  -4.069  1.00  0.00    -0.298 OA
ATOM     10  C   UNL     1      12.476  -3.820  -3.542  1.00  0.00     0.020 C 
ATOM     11  C   UNL     1       7.754  -4.517  -2.237  1.00  0.00     0.020 C 
ENDROOT
TORSDOF 0
ENDMDL
MODEL 3
REMARK VINA RESULT:    -3.283      9.485     11.201
REMARK INTER + INTRA:          -3.283
REMARK INTER:                  -3.283
REMARK INTRA:                   0.000
REMARK UNBOUND:                 0.000
REMARK SMILES CC1(C)C(=O)[C@@]2(C)CC[C@@H]1C2
REMARK SMILES IDX 1 1 2 2 10 3 9 4 8 5 6 6 11 7 4 8 5 9 7 10 3 11
REMARK H PARENT
REMARK Flexibility Score: inf
ROOT
ATOM      1  C   UNL     1       7.665   5.772 -10.019  1.00  0.00     0.020 C 
ATOM      2  C   UNL     1       8.764   4.957  -9.306  1.00  0.00     0.027 C 
ATOM      3  C   UNL     1       8.445   4.765  -7.780  1.00  0.00     0.003 C 
ATOM      4  C   UNL     1       9.637   4.108  -7.038  1.00  0.00     0.005 C 
ATOM      5  C   UNL     1       9.660   2.674  -7.616  1.00  0.00     0.015 C 
ATOM      6  C   UNL     1       8.423   2.662  -8.534  1.00  0.00     0.027 C 
ATOM      7  C   UNL     1       7.479   3.582  -7.787  1.00  0.00     0.019 C 
ATOM      8  C   UNL     1       8.736   3.517  -9.731  1.00  0.00     0.144 C 
ATOM      9  O   UNL     1       9.000   3.104 -10.851  1.00  0.00    -0.298 OA
ATOM     10  C   UNL     1       7.853   1.277  -8.849  1.00  0.00     0.020 C 
ATOM     11  C   UNL     1      10.138   5.604  -9.591  1.00  0.00     0.020 C 
ENDROOT
TORSDOF 0
ENDMDL
MODEL 4
REMARK VINA RESULT:    -3.281      9.422     10.791
REMARK INTER + INTRA:          -3.281
REMARK INTER:                  -3.281
REMARK INTRA:                   0.000
REMARK UNBOUND:                 0.000
REMARK SMILES CC1(C)C(=O)[C@@]2(C)CC[C@@H]1C2
REMARK SMILES IDX 1 1 2 2 10 3 9 4 8 5 6 6 11 7 4 8 5 9 7 10 3 11
REMARK H PARENT
REMARK Flexibility Score: inf
ROOT
ATOM      1  C   UNL     1       6.084   1.871  -8.562  1.00  0.00     0.020 C 
ATOM      2  C   UNL     1       7.280   2.637  -9.167  1.00  0.00     0.027 C 
ATOM      3  C   UNL     1       7.153   4.185  -8.936  1.00  0.00     0.003 C 
ATOM      4  C   UNL     1       8.258   4.957  -9.702  1.00  0.00     0.005 C 
ATOM      5  C   UNL     1       9.548   4.556  -8.951  1.00  0.00     0.015 C 
ATOM      6  C   UNL     1       9.009   3.691  -7.795  1.00  0.00     0.027 C 
ATOM      7  C   UNL     1       7.677   4.356  -7.512  1.00  0.00     0.019 C 
ATOM      8  C   UNL     1       8.537   2.389  -8.383  1.00  0.00     0.144 C 
ATOM      9  O   UNL     1       9.121   1.319  -8.300  1.00  0.00    -0.298 OA
ATOM     10  C   UNL     1       9.934   3.565  -6.583  1.00  0.00     0.020 C 
ATOM     11  C   UNL     1       7.447   2.226 -10.646  1.00  0.00     0.020 C 
ENDROOT
TORSDOF 0
ENDMDL
MODEL 5
REMARK VINA RESULT:    -3.143     10.172     12.079
REMARK INTER + INTRA:          -3.143
REMARK INTER:                  -3.143
REMARK INTRA:                   0.000
REMARK UNBOUND:                 0.000
REMARK SMILES CC1(C)C(=O)[C@@]2(C)CC[C@@H]1C2
REMARK SMILES IDX 1 1 2 2 10 3 9 4 8 5 6 6 11 7 4 8 5 9 7 10 3 11
REMARK H PARENT
REMARK Flexibility Score: inf
ROOT
ATOM      1  C   UNL     1       9.871   3.254  -7.291  1.00  0.00     0.020 C 
ATOM      2  C   UNL     1       8.706   3.956  -8.021  1.00  0.00     0.027 C 
ATOM      3  C   UNL     1       8.625   5.481  -7.650  1.00  0.00     0.003 C 
ATOM      4  C   UNL     1       7.349   6.133  -8.242  1.00  0.00     0.005 C 
ATOM      5  C   UNL     1       7.622   6.115  -9.764  1.00  0.00     0.015 C 
ATOM      6  C   UNL     1       9.053   5.552  -9.842  1.00  0.00     0.027 C 
ATOM      7  C   UNL     1       9.670   6.106  -8.574  1.00  0.00     0.019 C 
ATOM      8  C   UNL     1       8.988   4.091  -9.490  1.00  0.00     0.144 C 
ATOM      9  O   UNL     1       9.073   3.164 -10.282  1.00  0.00    -0.298 OA
ATOM     10  C   UNL     1       9.820   5.883 -11.124  1.00  0.00     0.020 C 
ATOM     11  C   UNL     1       7.402   3.170  -7.765  1.00  0.00     0.020 C 
ENDROOT
TORSDOF 0
ENDMDL
MODEL 6
REMARK VINA RESULT:    -3.123     10.205     11.553
REMARK INTER + INTRA:          -3.123
REMARK INTER:                  -3.123
REMARK INTRA:                   0.000
REMARK UNBOUND:                 0.000
REMARK SMILES CC1(C)C(=O)[C@@]2(C)CC[C@@H]1C2
REMARK SMILES IDX 1 1 2 2 10 3 9 4 8 5 6 6 11 7 4 8 5 9 7 10 3 11
REMARK H PARENT
REMARK Flexibility Score: inf
ROOT
ATOM      1  C   UNL     1      10.098   5.795  -9.343  1.00  0.00     0.020 C 
ATOM      2  C   UNL     1       9.019   4.692  -9.304  1.00  0.00     0.027 C 
ATOM      3  C   UNL     1       9.429   3.514  -8.349  1.00  0.00     0.003 C 
ATOM      4  C   UNL     1       8.429   2.334  -8.456  1.00  0.00     0.005 C 
ATOM      5  C   UNL     1       7.139   2.911  -7.831  1.00  0.00     0.015 C 
ATOM      6  C   UNL     1       7.590   4.305  -7.356  1.00  0.00     0.027 C 
ATOM      7  C   UNL     1       9.033   4.045  -6.972  1.00  0.00     0.019 C 
ATOM      8  C   UNL     1       7.790   5.160  -8.578  1.00  0.00     0.144 C 
ATOM      9  O   UNL     1       7.034   6.042  -8.960  1.00  0.00    -0.298 OA
ATOM     10  C   UNL     1       6.736   4.931  -6.251  1.00  0.00     0.020 C 
ATOM     11  C   UNL     1       8.690   4.254 -10.748  1.00  0.00     0.020 C 
ENDROOT
TORSDOF 0
ENDMDL
MODEL 7
REMARK VINA RESULT:    -3.070      9.704     11.742
REMARK INTER + INTRA:          -3.070
REMARK INTER:                  -3.070
REMARK INTRA:                   0.000
REMARK UNBOUND:                 0.000
REMARK SMILES CC1(C)C(=O)[C@@]2(C)CC[C@@H]1C2
REMARK SMILES IDX 1 1 2 2 10 3 9 4 8 5 6 6 11 7 4 8 5 9 7 10 3 11
REMARK H PARENT
REMARK Flexibility Score: inf
ROOT
ATOM      1  C   UNL     1       8.202   2.063  -8.462  1.00  0.00     0.020 C 
ATOM      2  C   UNL     1       8.816   3.425  -8.072  1.00  0.00     0.027 C 
ATOM      3  C   UNL     1       9.104   4.313  -9.335  1.00  0.00     0.003 C 
ATOM      4  C   UNL     1       9.885   5.596  -8.950  1.00  0.00     0.005 C 
ATOM      5  C   UNL     1       8.848   6.403  -8.134  1.00  0.00     0.015 C 
ATOM      6  C   UNL     1       7.583   5.531  -8.242  1.00  0.00     0.027 C 
ATOM      7  C   UNL     1       7.739   4.935  -9.626  1.00  0.00     0.019 C 
ATOM      8  C   UNL     1       7.802   4.305  -7.398  1.00  0.00     0.144 C 
ATOM      9  O   UNL     1       7.297   4.094  -6.305  1.00  0.00    -0.298 OA
ATOM     10  C   UNL     1       6.260   6.261  -8.003  1.00  0.00     0.020 C 
ATOM     11  C   UNL     1      10.046   3.185  -7.170  1.00  0.00     0.020 C 
ENDROOT
TORSDOF 0
ENDMDL
MODEL 8
REMARK VINA RESULT:    -3.068      1.552      3.386
REMARK INTER + INTRA:          -3.068
REMARK INTER:                  -3.068
REMARK INTRA:                   0.000
REMARK UNBOUND:                 0.000
REMARK SMILES CC1(C)C(=O)[C@@]2(C)CC[C@@H]1C2
REMARK SMILES IDX 1 1 2 2 10 3 9 4 8 5 6 6 11 7 4 8 5 9 7 10 3 11
REMARK H PARENT
REMARK Flexibility Score: inf
ROOT
ATOM      1  C   UNL     1      12.825  -3.868  -2.635  1.00  0.00     0.020 C 
ATOM      2  C   UNL     1      11.845  -4.973  -2.187  1.00  0.00     0.027 C 
ATOM      3  C   UNL     1      10.667  -4.389  -1.327  1.00  0.00     0.003 C 
ATOM      4  C   UNL     1       9.794  -5.523  -0.731  1.00  0.00     0.005 C 
ATOM      5  C   UNL     1       9.106  -6.124  -1.977  1.00  0.00     0.015 C 
ATOM      6  C   UNL     1       9.591  -5.199  -3.109  1.00  0.00     0.027 C 
ATOM      7  C   UNL     1       9.702  -3.870  -2.391  1.00  0.00     0.019 C 
ATOM      8  C   UNL     1      11.047  -5.495  -3.347  1.00  0.00     0.144 C 
ATOM      9  O   UNL     1      11.499  -6.125  -4.291  1.00  0.00    -0.298 OA
ATOM     10  C   UNL     1       8.714  -5.180  -4.363  1.00  0.00     0.020 C 
ATOM     11  C   UNL     1      12.639  -6.102  -1.493  1.00  0.00     0.020 C 
ENDROOT
TORSDOF 0
ENDMDL
MODEL 9
REMARK VINA RESULT:    -3.057      9.638     11.214
REMARK INTER + INTRA:          -3.057
REMARK INTER:                  -3.057
REMARK INTRA:                   0.000
REMARK UNBOUND:                 0.000
REMARK SMILES CC1(C)C(=O)[C@@]2(C)CC[C@@H]1C2
REMARK SMILES IDX 1 1 2 2 10 3 9 4 8 5 6 6 11 7 4 8 5 9 7 10 3 11
REMARK H PARENT
REMARK Flexibility Score: inf
ROOT
ATOM      1  C   UNL     1       9.938   3.544  -6.580  1.00  0.00     0.020 C 
ATOM      2  C   UNL     1       8.969   4.160  -7.611  1.00  0.00     0.027 C 
ATOM      3  C   UNL     1       8.892   3.296  -8.922  1.00  0.00     0.003 C 
ATOM      4  C   UNL     1       8.062   4.015 -10.017  1.00  0.00     0.005 C 
ATOM      5  C   UNL     1       6.627   3.984  -9.444  1.00  0.00     0.015 C 
ATOM      6  C   UNL     1       6.799   3.168  -8.149  1.00  0.00     0.027 C 
ATOM      7  C   UNL     1       7.897   2.201  -8.541  1.00  0.00     0.019 C 
ATOM      8  C   UNL     1       7.542   4.028  -7.163  1.00  0.00     0.144 C 
ATOM      9  O   UNL     1       7.048   4.591  -6.197  1.00  0.00    -0.298 OA
ATOM     10  C   UNL     1       5.526   2.509  -7.614  1.00  0.00     0.020 C 
ATOM     11  C   UNL     1       9.353   5.638  -7.847  1.00  0.00     0.020 C 
ENDROOT
TORSDOF 0
ENDMDL
