MODEL 1
REMARK VINA RESULT:    -4.272      0.000      0.000
REMARK INTER + INTRA:          -4.541
REMARK INTER:                  -4.521
REMARK INTRA:                  -0.019
REMARK UNBOUND:                -0.019
REMARK SMILES O=C([O-])c1cccnc1
REMARK SMILES IDX 4 1 5 2 9 3 6 4 8 5 7 6 2 7 1 8 3 9
REMARK H PARENT
REMARK Flexibility Score: inf
ROOT
ATOM      1  C   UNL     1      -8.996   3.682  -0.566  1.00  0.00     0.016 A 
ATOM      2  C   UNL     1      -7.783   4.292  -0.210  1.00  0.00     0.013 A 
ATOM      3  C   UNL     1      -9.661   2.906   0.400  1.00  0.00     0.120 A 
ATOM      4  C   UNL     1      -7.263   4.124   1.075  1.00  0.00     0.021 A 
ATOM      5  N   UNL     1      -9.133   2.757   1.644  1.00  0.00    -0.264 NA
ATOM      6  C   UNL     1      -7.960   3.345   1.998  1.00  0.00     0.111 A 
ENDROOT
BRANCH   1   7
ATOM      7  C   UNL     1      -9.557   3.852  -1.923  1.00  0.00     0.073 C 
ATOM      8  O   UNL     1     -10.772   4.143  -2.083  1.00  0.00    -0.545 OA
ATOM      9  O   UNL     1      -8.748   3.694  -3.044  1.00  0.00    -0.545 OA
ENDBRANCH   1   7
TORSDOF 1
ENDMDL
MODEL 2
REMARK VINA RESULT:    -4.132      0.930      1.930
REMARK INTER + INTRA:          -4.393
REMARK INTER:                  -4.373
REMARK INTRA:                  -0.020
REMARK UNBOUND:                -0.019
REMARK SMILES O=C([O-])c1cccnc1
REMARK SMILES IDX 4 1 5 2 9 3 6 4 8 5 7 6 2 7 1 8 3 9
REMARK H PARENT
REMARK Flexibility Score: inf
ROOT
ATOM      1  C   UNL     1      -8.951   3.691  -0.558  1.00  0.00     0.016 A 
ATOM      2  C   UNL     1      -9.629   2.966   0.435  1.00  0.00     0.013 A 
ATOM      3  C   UNL     1      -7.731   4.304  -0.223  1.00  0.00     0.120 A 
ATOM      4  C   UNL     1      -9.091   2.864   1.719  1.00  0.00     0.021 A 
ATOM      5  N   UNL     1      -7.229   4.190   1.036  1.00  0.00    -0.264 NA
ATOM      6  C   UNL     1      -7.878   3.489   2.004  1.00  0.00     0.111 A 
ENDROOT
BRANCH   1   7
ATOM      7  C   UNL     1      -9.511   3.807  -1.922  1.00  0.00     0.073 C 
ATOM      8  O   UNL     1      -8.761   3.723  -2.932  1.00  0.00    -0.545 OA
ATOM      9  O   UNL     1     -10.874   4.008  -2.109  1.00  0.00    -0.545 OA
ENDBRANCH   1   7
TORSDOF 1
ENDMDL
MODEL 3
REMARK VINA RESULT:    -3.969      2.046      2.703
REMARK INTER + INTRA:          -4.221
REMARK INTER:                  -4.198
REMARK INTRA:                  -0.023
REMARK UNBOUND:                -0.019
REMARK SMILES O=C([O-])c1cccnc1
REMARK SMILES IDX 4 1 5 2 9 3 6 4 8 5 7 6 2 7 1 8 3 9
REMARK H PARENT
REMARK Flexibility Score: inf
ROOT
ATOM      1  C   UNL     1     -10.163   3.354  -2.744  1.00  0.00     0.016 A 
ATOM      2  C   UNL     1      -9.438   4.533  -2.505  1.00  0.00     0.013 A 
ATOM      3  C   UNL     1     -10.122   2.337  -1.774  1.00  0.00     0.120 A 
ATOM      4  C   UNL     1      -8.700   4.677  -1.329  1.00  0.00     0.021 A 
ATOM      5  N   UNL     1      -9.395   2.502  -0.637  1.00  0.00    -0.264 NA
ATOM      6  C   UNL     1      -8.691   3.639  -0.397  1.00  0.00     0.111 A 
ENDROOT
BRANCH   1   7
ATOM      7  C   UNL     1     -10.948   3.190  -3.986  1.00  0.00     0.073 C 
ATOM      8  O   UNL     1     -11.302   2.044  -4.374  1.00  0.00    -0.545 OA
ATOM      9  O   UNL     1     -11.308   4.300  -4.743  1.00  0.00    -0.545 OA
ENDBRANCH   1   7
TORSDOF 1
ENDMDL
MODEL 4
REMARK VINA RESULT:    -3.910      2.764      4.013
REMARK INTER + INTRA:          -4.158
REMARK INTER:                  -4.136
REMARK INTRA:                  -0.022
REMARK UNBOUND:                -0.019
REMARK SMILES O=C([O-])c1cccnc1
REMARK SMILES IDX 4 1 5 2 9 3 6 4 8 5 7 6 2 7 1 8 3 9
REMARK H PARENT
REMARK Flexibility Score: inf
ROOT
ATOM      1  C   UNL     1      -9.169   3.505  -1.000  1.00  0.00     0.016 A 
ATOM      2  C   UNL     1      -9.943   2.382  -1.332  1.00  0.00     0.013 A 
ATOM      3  C   UNL     1      -9.133   4.582  -1.903  1.00  0.00     0.120 A 
ATOM      4  C   UNL     1     -10.655   2.350  -2.533  1.00  0.00     0.021 A 
ATOM      5  N   UNL     1      -9.835   4.526  -3.067  1.00  0.00    -0.264 NA
ATOM      6  C   UNL     1     -10.588   3.443  -3.396  1.00  0.00     0.111 A 
ENDROOT
BRANCH   1   7
ATOM      7  C   UNL     1      -8.411   3.551   0.268  1.00  0.00     0.073 C 
ATOM      8  O   UNL     1      -8.789   2.880   1.266  1.00  0.00    -0.545 OA
ATOM      9  O   UNL     1      -7.267   4.335   0.377  1.00  0.00    -0.545 OA
ENDBRANCH   1   7
TORSDOF 1
ENDMDL
MODEL 5
REMARK VINA RESULT:    -3.870     10.212     10.719
REMARK INTER + INTRA:          -4.116
REMARK INTER:                  -4.098
REMARK INTRA:                  -0.017
REMARK UNBOUND:                -0.019
REMARK SMILES O=C([O-])c1cccnc1
REMARK SMILES IDX 4 1 5 2 9 3 6 4 8 5 7 6 2 7 1 8 3 9
REMARK H PARENT
REMARK Flexibility Score: inf
ROOT
ATOM      1  C   UNL     1      -8.851  -6.994   0.386  1.00  0.00     0.016 A 
ATOM      2  C   UNL     1      -9.363  -6.552   1.615  1.00  0.00     0.013 A 
ATOM      3  C   UNL     1      -7.565  -6.570   0.007  1.00  0.00     0.120 A 
ATOM      4  C   UNL     1      -8.603  -5.711   2.431  1.00  0.00     0.021 A 
ATOM      5  N   UNL     1      -6.845  -5.751   0.819  1.00  0.00    -0.264 NA
ATOM      6  C   UNL     1      -7.333  -5.318   2.012  1.00  0.00     0.111 A 
ENDROOT
BRANCH   1   7
ATOM      7  C   UNL     1      -9.646  -7.884  -0.487  1.00  0.00     0.073 C 
ATOM      8  O   UNL     1     -10.710  -7.472  -1.023  1.00  0.00    -0.545 OA
ATOM      9  O   UNL     1      -9.230  -9.188  -0.730  1.00  0.00    -0.545 OA
ENDBRANCH   1   7
TORSDOF 1
ENDMDL
MODEL 6
REMARK VINA RESULT:    -3.799      2.421      3.726
REMARK INTER + INTRA:          -4.040
REMARK INTER:                  -4.023
REMARK INTRA:                  -0.017
REMARK UNBOUND:                -0.019
REMARK SMILES O=C([O-])c1cccnc1
REMARK SMILES IDX 4 1 5 2 9 3 6 4 8 5 7 6 2 7 1 8 3 9
REMARK H PARENT
REMARK Flexibility Score: inf
ROOT
ATOM      1  C   UNL     1      -9.183   3.838  -0.972  1.00  0.00     0.016 A 
ATOM      2  C   UNL     1      -9.206   4.433  -2.243  1.00  0.00     0.013 A 
ATOM      3  C   UNL     1      -9.802   2.586  -0.810  1.00  0.00     0.120 A 
ATOM      4  C   UNL     1      -9.830   3.785  -3.311  1.00  0.00     0.021 A 
ATOM      5  N   UNL     1     -10.404   1.976  -1.866  1.00  0.00    -0.264 NA
ATOM      6  C   UNL     1     -10.430   2.544  -3.100  1.00  0.00     0.111 A 
ENDROOT
BRANCH   1   7
ATOM      7  C   UNL     1      -8.526   4.515   0.166  1.00  0.00     0.073 C 
ATOM      8  O   UNL     1      -7.269   4.571   0.239  1.00  0.00    -0.545 OA
ATOM      9  O   UNL     1      -9.287   5.101   1.172  1.00  0.00    -0.545 OA
ENDBRANCH   1   7
TORSDOF 1
ENDMDL
MODEL 7
REMARK VINA RESULT:    -3.796      2.936      4.203
REMARK INTER + INTRA:          -4.037
REMARK INTER:                  -4.020
REMARK INTRA:                  -0.017
REMARK UNBOUND:                -0.019
REMARK SMILES O=C([O-])c1cccnc1
REMARK SMILES IDX 4 1 5 2 9 3 6 4 8 5 7 6 2 7 1 8 3 9
REMARK H PARENT
REMARK Flexibility Score: inf
ROOT
ATOM      1  C   UNL     1     -10.033   3.153  -2.007  1.00  0.00     0.016 A 
ATOM      2  C   UNL     1     -10.441   1.971  -1.369  1.00  0.00     0.013 A 
ATOM      3  C   UNL     1     -10.407   3.351  -3.348  1.00  0.00     0.120 A 
ATOM      4  C   UNL     1     -11.199   1.025  -2.062  1.00  0.00     0.021 A 
ATOM      5  N   UNL     1     -11.145   2.414  -4.001  1.00  0.00    -0.264 NA
ATOM      6  C   UNL     1     -11.545   1.267  -3.391  1.00  0.00     0.111 A 
ENDROOT
BRANCH   1   7
ATOM      7  C   UNL     1      -9.231   4.162  -1.284  1.00  0.00     0.073 C 
ATOM      8  O   UNL     1      -9.693   5.315  -1.068  1.00  0.00    -0.545 OA
ATOM      9  O   UNL     1      -7.953   3.852  -0.831  1.00  0.00    -0.545 OA
ENDBRANCH   1   7
TORSDOF 1
ENDMDL
MODEL 8
REMARK VINA RESULT:    -3.761     10.047     10.803
REMARK INTER + INTRA:          -4.000
REMARK INTER:                  -3.976
REMARK INTRA:                  -0.024
REMARK UNBOUND:                -0.019
REMARK SMILES O=C([O-])c1cccnc1
REMARK SMILES IDX 4 1 5 2 9 3 6 4 8 5 7 6 2 7 1 8 3 9
REMARK H PARENT
REMARK Flexibility Score: inf
ROOT
ATOM      1  C   UNL     1      -8.418  -6.320   1.148  1.00  0.00     0.016 A 
ATOM      2  C   UNL     1      -9.408  -7.034   1.842  1.00  0.00     0.013 A 
ATOM      3  C   UNL     1      -8.434  -6.350  -0.258  1.00  0.00     0.120 A 
ATOM      4  C   UNL     1     -10.378  -7.752   1.139  1.00  0.00     0.021 A 
ATOM      5  N   UNL     1      -9.389  -7.057  -0.918  1.00  0.00    -0.264 NA
ATOM      6  C   UNL     1     -10.352  -7.752  -0.255  1.00  0.00     0.111 A 
ENDROOT
BRANCH   1   7
ATOM      7  C   UNL     1      -7.386  -5.557   1.881  1.00  0.00     0.073 C 
ATOM      8  O   UNL     1      -7.337  -5.590   3.140  1.00  0.00    -0.545 OA
ATOM      9  O   UNL     1      -6.451  -4.793   1.189  1.00  0.00    -0.545 OA
ENDBRANCH   1   7
TORSDOF 1
ENDMDL
MODEL 9
REMARK VINA RESULT:    -3.731     12.977     13.910
REMARK INTER + INTRA:          -3.969
REMARK INTER:                  -3.947
REMARK INTRA:                  -0.022
REMARK UNBOUND:                -0.019
REMARK SMILES O=C([O-])c1cccnc1
REMARK SMILES IDX 4 1 5 2 9 3 6 4 8 5 7 6 2 7 1 8 3 9
REMARK H PARENT
REMARK Flexibility Score: inf
ROOT
ATOM      1  C   UNL     1      -9.987  -6.638  -9.077  1.00  0.00     0.016 A 
ATOM      2  C   UNL     1     -10.665  -5.451  -8.757  1.00  0.00     0.013 A 
ATOM      3  C   UNL     1      -9.062  -6.615 -10.135  1.00  0.00     0.120 A 
ATOM      4  C   UNL     1     -10.414  -4.283  -9.480  1.00  0.00     0.021 A 
ATOM      5  N   UNL     1      -8.836  -5.464 -10.824  1.00  0.00    -0.264 NA
ATOM      6  C   UNL     1      -9.487  -4.309 -10.521  1.00  0.00     0.111 A 
ENDROOT
BRANCH   1   7
ATOM      7  C   UNL     1     -10.245  -7.881  -8.319  1.00  0.00     0.073 C 
ATOM      8  O   UNL     1     -10.087  -9.007  -8.863  1.00  0.00    -0.545 OA
ATOM      9  O   UNL     1     -10.662  -7.824  -6.994  1.00  0.00    -0.545 OA
ENDBRANCH   1   7
TORSDOF 1
ENDMDL
