MODEL 1
REMARK VINA RESULT:    -0.216      0.000      0.000
REMARK INTER + INTRA:           0.396
REMARK INTER:                  -0.266
REMARK INTRA:                   0.662
REMARK UNBOUND:                 0.662
REMARK SMILES C=C1CC[C@@H]2[C@H]([C@@H]3[C@@H](C)CC[C@@H]13)C2(C)C
REMARK SMILES IDX 3 1 2 2 1 3 12 4 9 5 8 6 10 7 7 8 11 9 4 11 5 12 6 13 13 14
REMARK SMILES IDX 14 16 15 17
REMARK H PARENT
REMARK Flexibility Score: 80.00
ROOT
ATOM      1  C   UNL     1       3.748  13.345  13.553  1.00  0.00     0.031 C 
ENDROOT
BRANCH   1   2
ATOM      2  C   UNL     1       3.279  14.076  12.314  1.00  0.00    -0.074 C 
ATOM      3  C   UNL     1       3.806  15.271  12.003  1.00  0.00     0.008 C 
BRANCH   2   4
ATOM      4  C   UNL     1       2.278  13.440  11.365  1.00  0.00     0.018 C 
ATOM      5  C   UNL     1      -0.085  10.504  11.399  1.00  0.00     0.008 C 
ATOM      6  C   UNL     1       0.698  11.713  10.875  1.00  0.00    -0.010 C 
ATOM      7  C   UNL     1      -0.096  13.024  10.982  1.00  0.00     0.004 C 
ATOM      8  C   UNL     1       1.986  11.971  11.662  1.00  0.00     0.003 CG0
ATOM      9  C   UNL     1       0.905  14.108  11.394  1.00  0.00     0.008 C 
ATOM     10  G   UNL     1       3.153  11.082  11.193  1.00  0.00     0.000 G0
ENDBRANCH   2   4
ENDBRANCH   1   2
BRANCH   1  11
ATOM     11  C   UNL     1       4.701  12.174  13.244  1.00  0.00     0.009 C 
BRANCH  11  12
ATOM     12  C   UNL     1       4.500  11.336  11.947  1.00  0.00    -0.001 C 
ATOM     13  C   UNL     1       3.167  11.112  11.201  1.00  0.00     0.002 CG0
ATOM     14  C   UNL     1       3.738  10.001  12.094  1.00  0.00    -0.029 C 
ATOM     15  G   UNL     1       1.956  11.960  11.635  1.00  0.00     0.000 G0
ATOM     16  C   UNL     1       2.989   9.639  13.391  1.00  0.00     0.011 C 
ATOM     17  C   UNL     1       4.317   8.815  11.314  1.00  0.00     0.011 C 
ENDBRANCH  11  12
ENDBRANCH   1  11
TORSDOF 0
ENDMDL
MODEL 2
REMARK VINA RESULT:     2.105      4.097      6.617
REMARK INTER + INTRA:           3.259
REMARK INTER:                   2.554
REMARK INTRA:                   0.705
REMARK UNBOUND:                 0.662
REMARK SMILES C=C1CC[C@@H]2[C@H]([C@@H]3[C@@H](C)CC[C@@H]13)C2(C)C
REMARK SMILES IDX 3 1 2 2 1 3 12 4 9 5 8 6 10 7 7 8 11 9 4 11 5 12 6 13 13 14
REMARK SMILES IDX 14 16 15 17
REMARK H PARENT
REMARK Flexibility Score: 80.00
ROOT
ATOM      1  C   UNL     1       5.559   4.876  12.436  1.00  0.00     0.031 C 
ENDROOT
BRANCH   1   2
ATOM      2  C   UNL     1       4.284   5.609  12.793  1.00  0.00    -0.074 C 
ATOM      3  C   UNL     1       3.218   4.921  13.232  1.00  0.00     0.008 C 
BRANCH   2   4
ATOM      4  C   UNL     1       4.216   7.125  12.744  1.00  0.00     0.018 C 
ATOM      5  C   UNL     1       5.992   9.917  10.939  1.00  0.00     0.008 C 
ATOM      6  C   UNL     1       5.045   9.209  11.914  1.00  0.00    -0.010 C 
ATOM      7  C   UNL     1       3.629   9.035  11.342  1.00  0.00     0.004 C 
ATOM      8  C   UNL     1       5.503   7.790  12.262  1.00  0.00     0.003 CG0
ATOM      9  C   UNL     1       3.143   7.655  11.795  1.00  0.00     0.008 C 
ATOM     10  G   UNL     1       6.571   7.770  13.371  1.00  0.00     0.000 G0
ENDBRANCH   2   4
ENDBRANCH   1   2
BRANCH   1  11
ATOM     11  C   UNL     1       6.675   5.052  13.483  1.00  0.00     0.009 C 
BRANCH  11  12
ATOM     12  C   UNL     1       7.047   6.480  13.983  1.00  0.00    -0.001 C 
ATOM     13  C   UNL     1       6.584   7.816  13.361  1.00  0.00     0.002 CG0
ATOM     14  C   UNL     1       8.005   7.300  13.091  1.00  0.00    -0.029 C 
ATOM     15  G   UNL     1       5.481   7.757  12.287  1.00  0.00     0.000 G0
ATOM     16  C   UNL     1       8.365   6.846  11.664  1.00  0.00     0.011 C 
ATOM     17  C   UNL     1       9.099   8.081  13.831  1.00  0.00     0.011 C 
ENDBRANCH  11  12
ENDBRANCH   1  11
TORSDOF 0
ENDMDL
MODEL 3
REMARK VINA RESULT:     2.252      1.547      2.860
REMARK INTER + INTRA:           3.441
REMARK INTER:                   2.801
REMARK INTRA:                   0.639
REMARK UNBOUND:                 0.662
REMARK SMILES C=C1CC[C@@H]2[C@H]([C@@H]3[C@@H](C)CC[C@@H]13)C2(C)C
REMARK SMILES IDX 3 1 2 2 1 3 12 4 9 5 8 6 10 7 7 8 11 9 4 11 5 12 6 13 13 14
REMARK SMILES IDX 14 16 15 17
REMARK H PARENT
REMARK Flexibility Score: 80.00
ROOT
ATOM      1  C   UNL     1       3.233  12.824  14.661  1.00  0.00     0.031 C 
ENDROOT
BRANCH   1   2
ATOM      2  C   UNL     1       4.137  13.487  13.645  1.00  0.00    -0.074 C 
ATOM      3  C   UNL     1       5.454  13.585  13.885  1.00  0.00     0.008 C 
BRANCH   2   4
ATOM      4  C   UNL     1       3.590  13.969  12.313  1.00  0.00     0.018 C 
ATOM      5  C   UNL     1       0.234  14.906  10.875  1.00  0.00     0.008 C 
ATOM      6  C   UNL     1       1.736  14.605  10.943  1.00  0.00    -0.010 C 
ATOM      7  C   UNL     1       2.583  15.869  11.158  1.00  0.00     0.004 C 
ATOM      8  C   UNL     1       2.104  13.685  12.110  1.00  0.00     0.003 CG0
ATOM      9  C   UNL     1       3.713  15.479  12.117  1.00  0.00     0.008 C 
ATOM     10  G   UNL     1       1.877  12.197  11.782  1.00  0.00     0.000 G0
ENDBRANCH   2   4
ENDBRANCH   1   2
BRANCH   1  11
ATOM     11  C   UNL     1       2.775  11.415  14.241  1.00  0.00     0.009 C 
BRANCH  11  12
ATOM     12  C   UNL     1       2.347  11.149  12.767  1.00  0.00    -0.001 C 
ATOM     13  C   UNL     1       1.900  12.211  11.739  1.00  0.00     0.002 CG0
ATOM     14  C   UNL     1       0.850  11.332  12.436  1.00  0.00    -0.029 C 
ATOM     15  G   UNL     1       2.096  13.692  12.116  1.00  0.00     0.000 G0
ATOM     16  C   UNL     1      -0.121  11.994  13.432  1.00  0.00     0.011 C 
ATOM     17  C   UNL     1       0.234  10.264  11.525  1.00  0.00     0.011 C 
ENDBRANCH  11  12
ENDBRANCH   1  11
TORSDOF 0
ENDMDL
MODEL 4
REMARK VINA RESULT:     2.318      3.131      6.573
REMARK INTER + INTRA:           3.522
REMARK INTER:                   2.922
REMARK INTRA:                   0.600
REMARK UNBOUND:                 0.662
REMARK SMILES C=C1CC[C@@H]2[C@H]([C@@H]3[C@@H](C)CC[C@@H]13)C2(C)C
REMARK SMILES IDX 3 1 2 2 1 3 12 4 9 5 8 6 10 7 7 8 11 9 4 11 5 12 6 13 13 14
REMARK SMILES IDX 14 16 15 17
REMARK H PARENT
REMARK Flexibility Score: 80.00
ROOT
ATOM      1  C   UNL     1       3.343   7.231  13.707  1.00  0.00     0.031 C 
ENDROOT
BRANCH   1   2
ATOM      2  C   UNL     1       4.082   6.174  12.917  1.00  0.00    -0.074 C 
ATOM      3  C   UNL     1       3.508   4.980  12.698  1.00  0.00     0.008 C 
BRANCH   2   4
ATOM      4  C   UNL     1       5.433   6.470  12.292  1.00  0.00     0.018 C 
ATOM      5  C   UNL     1       8.187   9.007  12.728  1.00  0.00     0.008 C 
ATOM      6  C   UNL     1       7.390   7.837  12.140  1.00  0.00    -0.010 C 
ATOM      7  C   UNL     1       7.841   6.476  12.693  1.00  0.00     0.004 C 
ATOM      8  C   UNL     1       5.896   7.915  12.465  1.00  0.00     0.003 CG0
ATOM      9  C   UNL     1       6.571   5.640  12.882  1.00  0.00     0.008 C 
ATOM     10  G   UNL     1       5.131   8.847  11.505  1.00  0.00     0.000 G0
ENDBRANCH   2   4
ENDBRANCH   1   2
BRANCH   1  11
ATOM     11  C   UNL     1       2.754   8.349  12.826  1.00  0.00     0.009 C 
BRANCH  11  12
ATOM     12  C   UNL     1       3.590   8.920  11.641  1.00  0.00    -0.001 C 
ATOM     13  C   UNL     1       5.124   8.838  11.482  1.00  0.00     0.002 CG0
ATOM     14  C   UNL     1       4.472  10.151  11.944  1.00  0.00    -0.029 C 
ATOM     15  G   UNL     1       5.894   7.928  12.458  1.00  0.00     0.000 G0
ATOM     16  C   UNL     1       4.721  10.629  13.387  1.00  0.00     0.011 C 
ATOM     17  C   UNL     1       4.470  11.250  10.875  1.00  0.00     0.011 C 
ENDBRANCH  11  12
ENDBRANCH   1  11
TORSDOF 0
ENDMDL
MODEL 5
REMARK VINA RESULT:     2.510      1.209      4.270
REMARK INTER + INTRA:           3.759
REMARK INTER:                   3.158
REMARK INTRA:                   0.601
REMARK UNBOUND:                 0.662
REMARK SMILES C=C1CC[C@@H]2[C@H]([C@@H]3[C@@H](C)CC[C@@H]13)C2(C)C
REMARK SMILES IDX 3 1 2 2 1 3 12 4 9 5 8 6 10 7 7 8 11 9 4 11 5 12 6 13 13 14
REMARK SMILES IDX 14 16 15 17
REMARK H PARENT
REMARK Flexibility Score: 80.00
ROOT
ATOM      1  C   UNL     1       0.734  11.652  12.709  1.00  0.00     0.031 C 
ENDROOT
BRANCH   1   2
ATOM      2  C   UNL     1       0.979  10.707  11.552  1.00  0.00    -0.074 C 
ATOM      3  C   UNL     1      -0.062  10.190  10.880  1.00  0.00     0.008 C 
BRANCH   2   4
ATOM      4  C   UNL     1       2.389  10.400  11.082  1.00  0.00     0.018 C 
ATOM      5  C   UNL     1       5.888  10.693  12.452  1.00  0.00     0.008 C 
ATOM      6  C   UNL     1       4.750  10.426  11.460  1.00  0.00    -0.010 C 
ATOM      7  C   UNL     1       4.321   8.951  11.435  1.00  0.00     0.004 C 
ATOM      8  C   UNL     1       3.473  11.199  11.801  1.00  0.00     0.003 CG0
ATOM      9  C   UNL     1       2.796   8.943  11.293  1.00  0.00     0.008 C 
ATOM     10  G   UNL     1       3.507  12.650  11.287  1.00  0.00     0.000 G0
ENDBRANCH   2   4
ENDBRANCH   1   2
BRANCH   1  11
ATOM     11  C   UNL     1       0.995  13.128  12.355  1.00  0.00     0.009 C 
BRANCH  11  12
ATOM     12  C   UNL     1       2.228  13.506  11.482  1.00  0.00    -0.001 C 
ATOM     13  C   UNL     1       3.503  12.657  11.282  1.00  0.00     0.002 CG0
ATOM     14  C   UNL     1       3.530  13.862  12.234  1.00  0.00    -0.029 C 
ATOM     15  G   UNL     1       3.482  11.208  11.807  1.00  0.00     0.000 G0
ATOM     16  C   UNL     1       3.683  13.603  13.745  1.00  0.00     0.011 C 
ATOM     17  C   UNL     1       4.307  15.066  11.688  1.00  0.00     0.011 C 
ENDBRANCH  11  12
ENDBRANCH   1  11
TORSDOF 0
ENDMDL
MODEL 6
REMARK VINA RESULT:     2.632      1.705      3.264
REMARK INTER + INTRA:           3.910
REMARK INTER:                   3.268
REMARK INTRA:                   0.642
REMARK UNBOUND:                 0.662
REMARK SMILES C=C1CC[C@@H]2[C@H]([C@@H]3[C@@H](C)CC[C@@H]13)C2(C)C
REMARK SMILES IDX 3 1 2 2 1 3 12 4 9 5 8 6 10 7 7 8 11 9 4 11 5 12 6 13 13 14
REMARK SMILES IDX 14 16 15 17
REMARK H PARENT
REMARK Flexibility Score: 80.00
ROOT
ATOM      1  C   UNL     1       4.317  11.715  11.404  1.00  0.00     0.031 C 
ENDROOT
BRANCH   1   2
ATOM      2  C   UNL     1       3.967  13.150  11.733  1.00  0.00    -0.074 C 
ATOM      3  C   UNL     1       4.322  14.135  10.892  1.00  0.00     0.008 C 
BRANCH   2   4
ATOM      4  C   UNL     1       3.142  13.489  12.962  1.00  0.00     0.018 C 
ATOM      5  C   UNL     1       2.081  11.768  16.143  1.00  0.00     0.008 C 
ATOM      6  C   UNL     1       2.181  12.842  15.054  1.00  0.00    -0.010 C 
ATOM      7  C   UNL     1       3.250  13.902  15.365  1.00  0.00     0.004 C 
ATOM      8  C   UNL     1       2.583  12.271  13.692  1.00  0.00     0.003 CG0
ATOM      9  C   UNL     1       3.930  14.239  14.035  1.00  0.00     0.008 C 
ATOM     10  G   UNL     1       1.385  11.682  12.923  1.00  0.00     0.000 G0
ENDBRANCH   2   4
ENDBRANCH   1   2
BRANCH   1  11
ATOM     11  C   UNL     1       3.120  10.903  10.875  1.00  0.00     0.009 C 
BRANCH  11  12
ATOM     12  C   UNL     1       1.709  11.111  11.500  1.00  0.00    -0.001 C 
ATOM     13  C   UNL     1       1.406  11.671  12.908  1.00  0.00     0.002 CG0
ATOM     14  C   UNL     1       1.312  10.159  12.650  1.00  0.00    -0.029 C 
ATOM     15  G   UNL     1       2.577  12.288  13.695  1.00  0.00     0.000 G0
ATOM     16  C   UNL     1       2.344   9.232  13.321  1.00  0.00     0.011 C 
ATOM     17  C   UNL     1      -0.125   9.625  12.607  1.00  0.00     0.011 C 
ENDBRANCH  11  12
ENDBRANCH   1  11
TORSDOF 0
ENDMDL
