MODEL 1
REMARK VINA RESULT:    12.323      0.000      0.000
REMARK INTER + INTRA:          13.661
REMARK INTER:                  13.763
REMARK INTRA:                  -0.102
REMARK UNBOUND:                -0.102
REMARK SMILES COc1cc2ccc(=O)oc2cc1OC
REMARK SMILES IDX 3 1 13 2 12 3 11 4 5 5 4 6 6 7 7 8 8 9 9 10 10 11 2 12 1 13
REMARK SMILES IDX 14 14 15 15
REMARK H PARENT
REMARK Flexibility Score: inf
ROOT
ATOM      1  C   UNL     1      54.108 -11.324  20.163  1.00  0.00     0.161 A 
ATOM      2  C   UNL     1      54.119 -12.687  19.820  1.00  0.00     0.164 A 
ATOM      3  C   UNL     1      54.124 -13.067  18.464  1.00  0.00     0.098 A 
ATOM      4  C   UNL     1      54.117 -12.098  17.457  1.00  0.00     0.142 A 
ATOM      5  C   UNL     1      54.106 -10.731  17.801  1.00  0.00     0.022 A 
ATOM      6  C   UNL     1      54.102 -10.347  19.147  1.00  0.00     0.062 A 
ATOM      7  C   UNL     1      54.101  -9.784  16.770  1.00  0.00     0.019 A 
ATOM      8  C   UNL     1      54.105 -10.216  15.445  1.00  0.00     0.094 A 
ATOM      9  C   UNL     1      54.116 -11.590  15.180  1.00  0.00     0.336 A 
ATOM     10  O   UNL     1      54.121 -12.000  13.989  1.00  0.00    -0.246 OA
ATOM     11  O   UNL     1      54.122 -12.467  16.179  1.00  0.00    -0.423 OA
ENDROOT
BRANCH   1  12
ATOM     12  O   UNL     1      54.104 -10.982  21.525  1.00  0.00    -0.493 OA
ATOM     13  C   UNL     1      54.107  -9.647  22.023  1.00  0.00     0.278 C 
ENDBRANCH   1  12
BRANCH   2  14
ATOM     14  O   UNL     1      54.124 -13.633  20.857  1.00  0.00    -0.493 OA
ATOM     15  C   UNL     1      53.750 -14.999  20.706  1.00  0.00     0.278 C 
ENDBRANCH   2  14
TORSDOF 2
ENDMDL
