MODEL 1
REMARK VINA RESULT:    -3.679      0.000      0.000
REMARK INTER + INTRA:          -5.030
REMARK INTER:                  -4.755
REMARK INTRA:                  -0.275
REMARK UNBOUND:                -0.275
REMARK SMILES CCCCCCC(=O)[O-]
REMARK SMILES IDX 5 1 6 2 7 3 8 4 9 5 4 6 3 7 2 8 1 9
REMARK H PARENT
REMARK Flexibility Score: inf
ROOT
ATOM      1  C   UNL     1     -11.083  -4.267  -3.048  1.00  0.00     0.006 C 
ENDROOT
BRANCH   1   2
ATOM      2  C   UNL     1     -10.476  -3.349  -1.982  1.00  0.00     0.053 C 
BRANCH   2   3
ATOM      3  C   UNL     1      -8.996  -3.550  -1.898  1.00  0.00     0.041 C 
ATOM      4  O   UNL     1      -8.519  -4.710  -1.791  1.00  0.00    -0.550 OA
ATOM      5  O   UNL     1      -8.140  -2.460  -1.987  1.00  0.00    -0.550 OA
ENDBRANCH   2   3
ENDBRANCH   1   2
BRANCH   1   6
ATOM      6  C   UNL     1     -10.903  -3.671  -4.452  1.00  0.00     0.000 C 
BRANCH   6   7
ATOM      7  C   UNL     1     -10.813  -4.748  -5.545  1.00  0.00    -0.000 C 
BRANCH   7   8
ATOM      8  C   UNL     1     -10.400  -6.120  -4.992  1.00  0.00    -0.003 C 
ATOM      9  C   UNL     1      -9.097  -6.598  -5.624  1.00  0.00     0.004 C 
ENDBRANCH   7   8
ENDBRANCH   6   7
ENDBRANCH   1   6
TORSDOF 5
ENDMDL
MODEL 2
REMARK VINA RESULT:    -3.562      0.918      1.571
REMARK INTER + INTRA:          -4.879
REMARK INTER:                  -4.667
REMARK INTRA:                  -0.212
REMARK UNBOUND:                -0.275
REMARK SMILES CCCCCCC(=O)[O-]
REMARK SMILES IDX 5 1 6 2 7 3 8 4 9 5 4 6 3 7 2 8 1 9
REMARK H PARENT
REMARK Flexibility Score: inf
ROOT
ATOM      1  C   UNL     1     -10.028  -4.617  -4.242  1.00  0.00     0.006 C 
ENDROOT
BRANCH   1   2
ATOM      2  C   UNL     1     -10.323  -4.130  -2.820  1.00  0.00     0.053 C 
BRANCH   2   3
ATOM      3  C   UNL     1      -9.049  -3.881  -2.076  1.00  0.00     0.041 C 
ATOM      4  O   UNL     1      -8.394  -4.845  -1.601  1.00  0.00    -0.550 OA
ATOM      5  O   UNL     1      -8.559  -2.587  -1.950  1.00  0.00    -0.550 OA
ENDBRANCH   2   3
ENDBRANCH   1   2
BRANCH   1   6
ATOM      6  C   UNL     1     -10.727  -5.956  -4.520  1.00  0.00     0.000 C 
BRANCH   6   7
ATOM      7  C   UNL     1      -9.943  -6.840  -5.503  1.00  0.00    -0.000 C 
BRANCH   7   8
ATOM      8  C   UNL     1      -8.529  -6.309  -5.778  1.00  0.00    -0.003 C 
ATOM      9  C   UNL     1      -7.468  -7.288  -5.283  1.00  0.00     0.004 C 
ENDBRANCH   7   8
ENDBRANCH   6   7
ENDBRANCH   1   6
TORSDOF 5
ENDMDL
MODEL 3
REMARK VINA RESULT:    -3.531      0.698      1.337
REMARK INTER + INTRA:          -4.838
REMARK INTER:                  -4.674
REMARK INTRA:                  -0.164
REMARK UNBOUND:                -0.275
REMARK SMILES CCCCCCC(=O)[O-]
REMARK SMILES IDX 5 1 6 2 7 3 8 4 9 5 4 6 3 7 2 8 1 9
REMARK H PARENT
REMARK Flexibility Score: inf
ROOT
ATOM      1  C   UNL     1     -11.094  -3.794  -3.386  1.00  0.00     0.006 C 
ENDROOT
BRANCH   1   2
ATOM      2  C   UNL     1     -10.580  -3.682  -1.947  1.00  0.00     0.053 C 
BRANCH   2   3
ATOM      3  C   UNL     1      -9.084  -3.679  -1.924  1.00  0.00     0.041 C 
ATOM      4  O   UNL     1      -8.448  -2.641  -2.246  1.00  0.00    -0.550 OA
ATOM      5  O   UNL     1      -8.393  -4.806  -1.498  1.00  0.00    -0.550 OA
ENDBRANCH   2   3
ENDBRANCH   1   2
BRANCH   1   6
ATOM      6  C   UNL     1     -11.011  -5.244  -3.887  1.00  0.00     0.000 C 
BRANCH   6   7
ATOM      7  C   UNL     1     -10.303  -5.361  -5.246  1.00  0.00    -0.000 C 
BRANCH   7   8
ATOM      8  C   UNL     1      -9.835  -6.791  -5.548  1.00  0.00    -0.003 C 
ATOM      9  C   UNL     1      -8.313  -6.872  -5.600  1.00  0.00     0.004 C 
ENDBRANCH   7   8
ENDBRANCH   6   7
ENDBRANCH   1   6
TORSDOF 5
ENDMDL
MODEL 4
REMARK VINA RESULT:    -3.437      2.787      4.387
REMARK INTER + INTRA:          -4.717
REMARK INTER:                  -4.474
REMARK INTRA:                  -0.242
REMARK UNBOUND:                -0.275
REMARK SMILES CCCCCCC(=O)[O-]
REMARK SMILES IDX 5 1 6 2 7 3 8 4 9 5 4 6 3 7 2 8 1 9
REMARK H PARENT
REMARK Flexibility Score: inf
ROOT
ATOM      1  C   UNL     1     -10.053  -6.521  -5.283  1.00  0.00     0.006 C 
ENDROOT
BRANCH   1   2
ATOM      2  C   UNL     1      -8.616  -6.008  -5.140  1.00  0.00     0.053 C 
BRANCH   2   3
ATOM      3  C   UNL     1      -7.686  -6.807  -5.998  1.00  0.00     0.041 C 
ATOM      4  O   UNL     1      -7.816  -6.800  -7.250  1.00  0.00    -0.550 OA
ATOM      5  O   UNL     1      -6.646  -7.521  -5.418  1.00  0.00    -0.550 OA
ENDBRANCH   2   3
ENDBRANCH   1   2
BRANCH   1   6
ATOM      6  C   UNL     1     -11.020  -5.688  -4.429  1.00  0.00     0.000 C 
BRANCH   6   7
ATOM      7  C   UNL     1     -10.438  -4.321  -4.037  1.00  0.00    -0.000 C 
BRANCH   7   8
ATOM      8  C   UNL     1     -10.564  -4.032  -2.535  1.00  0.00    -0.003 C 
ATOM      9  C   UNL     1      -9.192  -3.959  -1.872  1.00  0.00     0.004 C 
ENDBRANCH   7   8
ENDBRANCH   6   7
ENDBRANCH   1   6
TORSDOF 5
ENDMDL
MODEL 5
REMARK VINA RESULT:    -3.198      1.655      1.851
REMARK INTER + INTRA:          -4.408
REMARK INTER:                  -4.209
REMARK INTRA:                  -0.199
REMARK UNBOUND:                -0.275
REMARK SMILES CCCCCCC(=O)[O-]
REMARK SMILES IDX 5 1 6 2 7 3 8 4 9 5 4 6 3 7 2 8 1 9
REMARK H PARENT
REMARK Flexibility Score: inf
ROOT
ATOM      1  C   UNL     1      -9.238  -4.114  -3.549  1.00  0.00     0.006 C 
ENDROOT
BRANCH   1   2
ATOM      2  C   UNL     1      -9.272  -4.098  -2.017  1.00  0.00     0.053 C 
BRANCH   2   3
ATOM      3  C   UNL     1     -10.459  -3.330  -1.527  1.00  0.00     0.041 C 
ATOM      4  O   UNL     1     -11.080  -3.711  -0.500  1.00  0.00    -0.550 OA
ATOM      5  O   UNL     1     -10.850  -2.165  -2.175  1.00  0.00    -0.550 OA
ENDBRANCH   2   3
ENDBRANCH   1   2
BRANCH   1   6
ATOM      6  C   UNL     1     -10.313  -5.056  -4.112  1.00  0.00     0.000 C 
BRANCH   6   7
ATOM      7  C   UNL     1     -10.099  -5.376  -5.600  1.00  0.00    -0.000 C 
BRANCH   7   8
ATOM      8  C   UNL     1      -9.644  -6.823  -5.835  1.00  0.00    -0.003 C 
ATOM      9  C   UNL     1      -8.138  -6.966  -5.631  1.00  0.00     0.004 C 
ENDBRANCH   7   8
ENDBRANCH   6   7
ENDBRANCH   1   6
TORSDOF 5
ENDMDL
MODEL 6
REMARK VINA RESULT:    -3.115      2.557      4.447
REMARK INTER + INTRA:          -4.301
REMARK INTER:                  -4.114
REMARK INTRA:                  -0.187
REMARK UNBOUND:                -0.275
REMARK SMILES CCCCCCC(=O)[O-]
REMARK SMILES IDX 5 1 6 2 7 3 8 4 9 5 4 6 3 7 2 8 1 9
REMARK H PARENT
REMARK Flexibility Score: inf
ROOT
ATOM      1  C   UNL     1     -10.881  -4.911  -4.431  1.00  0.00     0.006 C 
ENDROOT
BRANCH   1   2
ATOM      2  C   UNL     1      -9.430  -5.254  -4.783  1.00  0.00     0.053 C 
BRANCH   2   3
ATOM      3  C   UNL     1      -9.347  -6.617  -5.397  1.00  0.00     0.041 C 
ATOM      4  O   UNL     1      -8.379  -7.375  -5.127  1.00  0.00    -0.550 OA
ATOM      5  O   UNL     1     -10.363  -7.067  -6.230  1.00  0.00    -0.550 OA
ENDBRANCH   2   3
ENDBRANCH   1   2
BRANCH   1   6
ATOM      6  C   UNL     1     -11.014  -4.550  -2.944  1.00  0.00     0.000 C 
BRANCH   6   7
ATOM      7  C   UNL     1      -9.728  -3.938  -2.367  1.00  0.00    -0.000 C 
BRANCH   7   8
ATOM      8  C   UNL     1      -9.721  -3.916  -0.831  1.00  0.00    -0.003 C 
ATOM      9  C   UNL     1     -11.123  -3.679  -0.279  1.00  0.00     0.004 C 
ENDBRANCH   7   8
ENDBRANCH   6   7
ENDBRANCH   1   6
TORSDOF 5
ENDMDL
MODEL 7
REMARK VINA RESULT:    -3.109     16.008     16.654
REMARK INTER + INTRA:          -4.293
REMARK INTER:                  -4.198
REMARK INTRA:                  -0.095
REMARK UNBOUND:                -0.275
REMARK SMILES CCCCCCC(=O)[O-]
REMARK SMILES IDX 5 1 6 2 7 3 8 4 9 5 4 6 3 7 2 8 1 9
REMARK H PARENT
REMARK Flexibility Score: inf
ROOT
ATOM      1  C   UNL     1      -7.051   6.771   7.859  1.00  0.00     0.006 C 
ENDROOT
BRANCH   1   2
ATOM      2  C   UNL     1      -5.952   7.753   8.278  1.00  0.00     0.053 C 
BRANCH   2   3
ATOM      3  C   UNL     1      -4.676   7.452   7.557  1.00  0.00     0.041 C 
ATOM      4  O   UNL     1      -4.412   8.028   6.469  1.00  0.00    -0.550 OA
ATOM      5  O   UNL     1      -3.755   6.572   8.111  1.00  0.00    -0.550 OA
ENDBRANCH   2   3
ENDBRANCH   1   2
BRANCH   1   6
ATOM      6  C   UNL     1      -8.420   7.223   8.388  1.00  0.00     0.000 C 
BRANCH   6   7
ATOM      7  C   UNL     1      -9.554   6.977   7.379  1.00  0.00    -0.000 C 
BRANCH   7   8
ATOM      8  C   UNL     1     -10.540   8.152   7.301  1.00  0.00    -0.003 C 
ATOM      9  C   UNL     1     -10.991   8.396   5.864  1.00  0.00     0.004 C 
ENDBRANCH   7   8
ENDBRANCH   6   7
ENDBRANCH   1   6
TORSDOF 5
ENDMDL
MODEL 8
REMARK VINA RESULT:    -2.883      4.438      5.526
REMARK INTER + INTRA:          -4.001
REMARK INTER:                  -3.621
REMARK INTRA:                  -0.379
REMARK UNBOUND:                -0.275
REMARK SMILES CCCCCCC(=O)[O-]
REMARK SMILES IDX 5 1 6 2 7 3 8 4 9 5 4 6 3 7 2 8 1 9
REMARK H PARENT
REMARK Flexibility Score: inf
ROOT
ATOM      1  C   UNL     1      -9.871  -5.191  -7.546  1.00  0.00     0.006 C 
ENDROOT
BRANCH   1   2
ATOM      2  C   UNL     1      -9.300  -5.323  -8.962  1.00  0.00     0.053 C 
BRANCH   2   3
ATOM      3  C   UNL     1      -7.908  -5.872  -8.917  1.00  0.00     0.041 C 
ATOM      4  O   UNL     1      -7.678  -7.045  -9.312  1.00  0.00    -0.550 OA
ATOM      5  O   UNL     1      -6.859  -5.072  -8.485  1.00  0.00    -0.550 OA
ENDBRANCH   2   3
ENDBRANCH   1   2
BRANCH   1   6
ATOM      6  C   UNL     1     -10.297  -6.560  -6.996  1.00  0.00     0.000 C 
BRANCH   6   7
ATOM      7  C   UNL     1      -9.744  -6.831  -5.588  1.00  0.00    -0.000 C 
BRANCH   7   8
ATOM      8  C   UNL     1      -8.333  -6.261  -5.386  1.00  0.00    -0.003 C 
ATOM      9  C   UNL     1      -7.289  -7.373  -5.358  1.00  0.00     0.004 C 
ENDBRANCH   7   8
ENDBRANCH   6   7
ENDBRANCH   1   6
TORSDOF 5
ENDMDL
