MODEL 1
REMARK VINA RESULT:    16.310      0.000      0.000
REMARK INTER + INTRA:          28.919
REMARK INTER:                  29.658
REMARK INTRA:                  -0.740
REMARK UNBOUND:                -0.740
REMARK SMILES CCCCCCCCCCCCCCCC(=O)[O-]
REMARK SMILES IDX 9 1 10 2 11 3 12 4 13 5 14 6 15 7 16 8 17 9 18 10 8 11 7 12
REMARK SMILES IDX 6 13 5 14 4 15 3 16 2 17 1 18
REMARK H PARENT
REMARK Flexibility Score: inf
ROOT
ATOM      1  C   UNL     1      55.722  45.921  20.961  1.00  0.00     0.000 C 
ENDROOT
BRANCH   1   2
ATOM      2  C   UNL     1      55.540  44.855  19.868  1.00  0.00     0.000 C 
BRANCH   2   3
ATOM      3  C   UNL     1      56.496  43.664  20.041  1.00  0.00     0.000 C 
BRANCH   3   4
ATOM      4  C   UNL     1      56.106  42.756  21.221  1.00  0.00     0.000 C 
BRANCH   4   5
ATOM      5  C   UNL     1      54.864  41.900  20.922  1.00  0.00     0.000 C 
BRANCH   5   6
ATOM      6  C   UNL     1      55.035  40.439  21.361  1.00  0.00     0.006 C 
BRANCH   6   7
ATOM      7  C   UNL     1      55.821  39.642  20.315  1.00  0.00     0.053 C 
BRANCH   7   8
ATOM      8  C   UNL     1      56.881  38.817  20.973  1.00  0.00     0.041 C 
ATOM      9  O   UNL     1      56.564  37.886  21.760  1.00  0.00    -0.550 OA
ATOM     10  O   UNL     1      58.222  39.105  20.755  1.00  0.00    -0.550 OA
ENDBRANCH   7   8
ENDBRANCH   6   7
ENDBRANCH   5   6
ENDBRANCH   4   5
ENDBRANCH   3   4
ENDBRANCH   2   3
ENDBRANCH   1   2
BRANCH   1  11
ATOM     11  C   UNL     1      56.590  47.107  20.499  1.00  0.00     0.000 C 
BRANCH  11  12
ATOM     12  C   UNL     1      56.181  47.730  19.149  1.00  0.00    -0.000 C 
BRANCH  12  13
ATOM     13  C   UNL     1      57.233  47.617  18.029  1.00  0.00    -0.000 C 
BRANCH  13  14
ATOM     14  C   UNL     1      57.134  48.695  16.934  1.00  0.00    -0.000 C 
BRANCH  14  15
ATOM     15  C   UNL     1      55.705  49.229  16.752  1.00  0.00    -0.000 C 
BRANCH  15  16
ATOM     16  C   UNL     1      55.686  50.431  15.800  1.00  0.00    -0.000 C 
BRANCH  16  17
ATOM     17  C   UNL     1      54.409  50.439  14.950  1.00  0.00    -0.003 C 
ATOM     18  C   UNL     1      53.253  49.768  15.686  1.00  0.00     0.004 C 
ENDBRANCH  16  17
ENDBRANCH  15  16
ENDBRANCH  14  15
ENDBRANCH  13  14
ENDBRANCH  12  13
ENDBRANCH  11  12
ENDBRANCH   1  11
TORSDOF 14
ENDMDL
MODEL 2
REMARK VINA RESULT:    17.433      4.712      8.874
REMARK INTER + INTRA:          30.960
REMARK INTER:                  31.843
REMARK INTRA:                  -0.883
REMARK UNBOUND:                -0.740
REMARK SMILES CCCCCCCCCCCCCCCC(=O)[O-]
REMARK SMILES IDX 9 1 10 2 11 3 12 4 13 5 14 6 15 7 16 8 17 9 18 10 8 11 7 12
REMARK SMILES IDX 6 13 5 14 4 15 3 16 2 17 1 18
REMARK H PARENT
REMARK Flexibility Score: inf
ROOT
ATOM      1  C   UNL     1      56.795  47.252  22.910  1.00  0.00     0.000 C 
ENDROOT
BRANCH   1   2
ATOM      2  C   UNL     1      56.596  48.109  21.649  1.00  0.00     0.000 C 
BRANCH   2   3
ATOM      3  C   UNL     1      56.208  47.269  20.421  1.00  0.00     0.000 C 
BRANCH   3   4
ATOM      4  C   UNL     1      55.983  48.127  19.163  1.00  0.00     0.000 C 
BRANCH   4   5
ATOM      5  C   UNL     1      57.155  48.037  18.171  1.00  0.00     0.000 C 
BRANCH   5   6
ATOM      6  C   UNL     1      56.767  48.490  16.756  1.00  0.00     0.006 C 
BRANCH   6   7
ATOM      7  C   UNL     1      55.416  49.212  16.765  1.00  0.00     0.053 C 
BRANCH   7   8
ATOM      8  C   UNL     1      55.407  50.321  15.761  1.00  0.00     0.041 C 
ATOM      9  O   UNL     1      54.478  50.402  14.914  1.00  0.00    -0.550 OA
ATOM     10  O   UNL     1      56.450  51.237  15.728  1.00  0.00    -0.550 OA
ENDBRANCH   7   8
ENDBRANCH   6   7
ENDBRANCH   5   6
ENDBRANCH   4   5
ENDBRANCH   3   4
ENDBRANCH   2   3
ENDBRANCH   1   2
BRANCH   1  11
ATOM     11  C   UNL     1      57.652  46.000  22.651  1.00  0.00     0.000 C 
BRANCH  11  12
ATOM     12  C   UNL     1      56.909  44.657  22.803  1.00  0.00    -0.000 C 
BRANCH  12  13
ATOM     13  C   UNL     1      57.021  43.704  21.596  1.00  0.00    -0.000 C 
BRANCH  13  14
ATOM     14  C   UNL     1      55.852  43.781  20.598  1.00  0.00    -0.000 C 
BRANCH  14  15
ATOM     15  C   UNL     1      55.324  42.396  20.192  1.00  0.00    -0.000 C 
BRANCH  15  16
ATOM     16  C   UNL     1      55.231  41.467  21.408  1.00  0.00    -0.000 C 
BRANCH  16  17
ATOM     17  C   UNL     1      55.180  39.997  20.974  1.00  0.00    -0.003 C 
ATOM     18  C   UNL     1      56.577  39.386  20.930  1.00  0.00     0.004 C 
ENDBRANCH  16  17
ENDBRANCH  15  16
ENDBRANCH  14  15
ENDBRANCH  13  14
ENDBRANCH  12  13
ENDBRANCH  11  12
ENDBRANCH   1  11
TORSDOF 14
ENDMDL
MODEL 3
REMARK VINA RESULT:    17.493      1.570      2.323
REMARK INTER + INTRA:          31.069
REMARK INTER:                  31.656
REMARK INTRA:                  -0.587
REMARK UNBOUND:                -0.740
REMARK SMILES CCCCCCCCCCCCCCCC(=O)[O-]
REMARK SMILES IDX 9 1 10 2 11 3 12 4 13 5 14 6 15 7 16 8 17 9 18 10 8 11 7 12
REMARK SMILES IDX 6 13 5 14 4 15 3 16 2 17 1 18
REMARK H PARENT
REMARK Flexibility Score: inf
ROOT
ATOM      1  C   UNL     1      57.690  47.946  22.008  1.00  0.00     0.000 C 
ENDROOT
BRANCH   1   2
ATOM      2  C   UNL     1      57.774  46.736  22.953  1.00  0.00     0.000 C 
BRANCH   2   3
ATOM      3  C   UNL     1      56.635  45.729  22.723  1.00  0.00     0.000 C 
BRANCH   3   4
ATOM      4  C   UNL     1      57.139  44.372  22.201  1.00  0.00     0.000 C 
BRANCH   4   5
ATOM      5  C   UNL     1      56.354  43.885  20.971  1.00  0.00     0.000 C 
BRANCH   5   6
ATOM      6  C   UNL     1      56.448  42.365  20.775  1.00  0.00     0.006 C 
BRANCH   6   7
ATOM      7  C   UNL     1      55.189  41.667  21.301  1.00  0.00     0.053 C 
BRANCH   7   8
ATOM      8  C   UNL     1      55.127  40.257  20.806  1.00  0.00     0.041 C 
ATOM      9  O   UNL     1      56.131  39.505  20.909  1.00  0.00    -0.550 OA
ATOM     10  O   UNL     1      53.975  39.787  20.189  1.00  0.00    -0.550 OA
ENDBRANCH   7   8
ENDBRANCH   6   7
ENDBRANCH   5   6
ENDBRANCH   4   5
ENDBRANCH   3   4
ENDBRANCH   2   3
ENDBRANCH   1   2
BRANCH   1  11
ATOM     11  C   UNL     1      56.358  48.013  21.239  1.00  0.00     0.000 C 
BRANCH  11  12
ATOM     12  C   UNL     1      56.370  47.343  19.850  1.00  0.00    -0.000 C 
BRANCH  12  13
ATOM     13  C   UNL     1      56.040  48.276  18.668  1.00  0.00    -0.000 C 
BRANCH  13  14
ATOM     14  C   UNL     1      57.036  48.217  17.496  1.00  0.00    -0.000 C 
BRANCH  14  15
ATOM     15  C   UNL     1      56.739  49.261  16.409  1.00  0.00    -0.000 C 
BRANCH  15  16
ATOM     16  C   UNL     1      55.249  49.619  16.384  1.00  0.00    -0.000 C 
BRANCH  16  17
ATOM     17  C   UNL     1      54.886  50.375  15.101  1.00  0.00    -0.003 C 
ATOM     18  C   UNL     1      53.379  50.593  14.997  1.00  0.00     0.004 C 
ENDBRANCH  16  17
ENDBRANCH  15  16
ENDBRANCH  14  15
ENDBRANCH  13  14
ENDBRANCH  12  13
ENDBRANCH  11  12
ENDBRANCH   1  11
TORSDOF 14
ENDMDL
MODEL 4
REMARK VINA RESULT:    17.896      4.420      9.690
REMARK INTER + INTRA:          31.802
REMARK INTER:                  31.005
REMARK INTRA:                   0.797
REMARK UNBOUND:                -0.740
REMARK SMILES CCCCCCCCCCCCCCCC(=O)[O-]
REMARK SMILES IDX 9 1 10 2 11 3 12 4 13 5 14 6 15 7 16 8 17 9 18 10 8 11 7 12
REMARK SMILES IDX 6 13 5 14 4 15 3 16 2 17 1 18
REMARK H PARENT
REMARK Flexibility Score: inf
ROOT
ATOM      1  C   UNL     1      56.317  46.503  21.019  1.00  0.00     0.000 C 
ENDROOT
BRANCH   1   2
ATOM      2  C   UNL     1      56.472  47.927  20.460  1.00  0.00     0.000 C 
BRANCH   2   3
ATOM      3  C   UNL     1      55.780  48.105  19.099  1.00  0.00     0.000 C 
BRANCH   3   4
ATOM      4  C   UNL     1      56.781  48.250  17.939  1.00  0.00     0.000 C 
BRANCH   4   5
ATOM      5  C   UNL     1      56.124  48.787  16.657  1.00  0.00     0.000 C 
BRANCH   5   6
ATOM      6  C   UNL     1      56.426  50.274  16.418  1.00  0.00     0.006 C 
BRANCH   6   7
ATOM      7  C   UNL     1      55.587  50.823  15.260  1.00  0.00     0.053 C 
BRANCH   7   8
ATOM      8  C   UNL     1      54.252  50.148  15.214  1.00  0.00     0.041 C 
ATOM      9  O   UNL     1      54.160  48.911  15.427  1.00  0.00    -0.550 OA
ATOM     10  O   UNL     1      53.115  50.877  14.890  1.00  0.00    -0.550 OA
ENDBRANCH   7   8
ENDBRANCH   6   7
ENDBRANCH   5   6
ENDBRANCH   4   5
ENDBRANCH   3   4
ENDBRANCH   2   3
ENDBRANCH   1   2
BRANCH   1  11
ATOM     11  C   UNL     1      55.578  45.560  20.053  1.00  0.00     0.000 C 
BRANCH  11  12
ATOM     12  C   UNL     1      56.109  44.112  20.018  1.00  0.00    -0.000 C 
BRANCH  12  13
ATOM     13  C   UNL     1      55.089  43.028  20.418  1.00  0.00    -0.000 C 
BRANCH  13  14
ATOM     14  C   UNL     1      55.682  41.825  21.173  1.00  0.00    -0.000 C 
BRANCH  14  15
ATOM     15  C   UNL     1      55.033  40.492  20.772  1.00  0.00    -0.000 C 
BRANCH  15  16
ATOM     16  C   UNL     1      55.633  39.327  21.568  1.00  0.00    -0.000 C 
BRANCH  16  17
ATOM     17  C   UNL     1      56.987  38.902  20.986  1.00  0.00    -0.003 C 
ATOM     18  C   UNL     1      57.216  37.404  21.163  1.00  0.00     0.004 C 
ENDBRANCH  16  17
ENDBRANCH  15  16
ENDBRANCH  14  15
ENDBRANCH  13  14
ENDBRANCH  12  13
ENDBRANCH  11  12
ENDBRANCH   1  11
TORSDOF 14
ENDMDL
MODEL 5
REMARK VINA RESULT:    18.751      7.688      9.553
REMARK INTER + INTRA:          33.357
REMARK INTER:                  33.610
REMARK INTRA:                  -0.254
REMARK UNBOUND:                -0.740
REMARK SMILES CCCCCCCCCCCCCCCC(=O)[O-]
REMARK SMILES IDX 9 1 10 2 11 3 12 4 13 5 14 6 15 7 16 8 17 9 18 10 8 11 7 12
REMARK SMILES IDX 6 13 5 14 4 15 3 16 2 17 1 18
REMARK H PARENT
REMARK Flexibility Score: inf
ROOT
ATOM      1  C   UNL     1      53.835  52.925  21.705  1.00  0.00     0.000 C 
ENDROOT
BRANCH   1   2
ATOM      2  C   UNL     1      54.960  52.951  20.658  1.00  0.00     0.000 C 
BRANCH   2   3
ATOM      3  C   UNL     1      55.918  51.757  20.792  1.00  0.00     0.000 C 
BRANCH   3   4
ATOM      4  C   UNL     1      55.248  50.416  20.444  1.00  0.00     0.000 C 
BRANCH   4   5
ATOM      5  C   UNL     1      56.033  49.207  20.979  1.00  0.00     0.000 C 
BRANCH   5   6
ATOM      6  C   UNL     1      55.684  47.904  20.244  1.00  0.00     0.006 C 
BRANCH   6   7
ATOM      7  C   UNL     1      56.602  46.762  20.691  1.00  0.00     0.053 C 
BRANCH   7   8
ATOM      8  C   UNL     1      57.215  47.071  22.020  1.00  0.00     0.041 C 
ATOM      9  O   UNL     1      58.443  47.337  22.105  1.00  0.00    -0.550 OA
ATOM     10  O   UNL     1      56.441  47.020  23.171  1.00  0.00    -0.550 OA
ENDBRANCH   7   8
ENDBRANCH   6   7
ENDBRANCH   5   6
ENDBRANCH   4   5
ENDBRANCH   3   4
ENDBRANCH   2   3
ENDBRANCH   1   2
BRANCH   1  11
ATOM     11  C   UNL     1      53.302  54.329  22.045  1.00  0.00     0.000 C 
BRANCH  11  12
ATOM     12  C   UNL     1      53.403  54.724  23.533  1.00  0.00    -0.000 C 
BRANCH  12  13
ATOM     13  C   UNL     1      53.761  56.200  23.797  1.00  0.00    -0.000 C 
BRANCH  13  14
ATOM     14  C   UNL     1      53.949  56.566  25.281  1.00  0.00    -0.000 C 
BRANCH  14  15
ATOM     15  C   UNL     1      55.399  56.944  25.621  1.00  0.00    -0.000 C 
BRANCH  15  16
ATOM     16  C   UNL     1      56.389  56.010  24.918  1.00  0.00    -0.000 C 
BRANCH  16  17
ATOM     17  C   UNL     1      57.638  55.783  25.778  1.00  0.00    -0.003 C 
ATOM     18  C   UNL     1      58.337  57.102  26.094  1.00  0.00     0.004 C 
ENDBRANCH  16  17
ENDBRANCH  15  16
ENDBRANCH  14  15
ENDBRANCH  13  14
ENDBRANCH  12  13
ENDBRANCH  11  12
ENDBRANCH   1  11
TORSDOF 14
ENDMDL
MODEL 6
REMARK VINA RESULT:    19.288      8.533     11.664
REMARK INTER + INTRA:          34.334
REMARK INTER:                  35.085
REMARK INTRA:                  -0.751
REMARK UNBOUND:                -0.740
REMARK SMILES CCCCCCCCCCCCCCCC(=O)[O-]
REMARK SMILES IDX 9 1 10 2 11 3 12 4 13 5 14 6 15 7 16 8 17 9 18 10 8 11 7 12
REMARK SMILES IDX 6 13 5 14 4 15 3 16 2 17 1 18
REMARK H PARENT
REMARK Flexibility Score: inf
ROOT
ATOM      1  C   UNL     1      54.799  52.532  20.733  1.00  0.00     0.000 C 
ENDROOT
BRANCH   1   2
ATOM      2  C   UNL     1      53.683  52.588  21.789  1.00  0.00     0.000 C 
BRANCH   2   3
ATOM      3  C   UNL     1      53.268  54.028  22.133  1.00  0.00     0.000 C 
BRANCH   3   4
ATOM      4  C   UNL     1      53.882  54.523  23.454  1.00  0.00     0.000 C 
BRANCH   4   5
ATOM      5  C   UNL     1      53.142  55.743  24.028  1.00  0.00     0.000 C 
BRANCH   5   6
ATOM      6  C   UNL     1      54.091  56.898  24.377  1.00  0.00     0.006 C 
BRANCH   6   7
ATOM      7  C   UNL     1      55.022  56.511  25.531  1.00  0.00     0.053 C 
BRANCH   7   8
ATOM      8  C   UNL     1      56.437  56.425  25.056  1.00  0.00     0.041 C 
ATOM      9  O   UNL     1      57.389  56.581  25.866  1.00  0.00    -0.550 OA
ATOM     10  O   UNL     1      56.708  56.220  23.709  1.00  0.00    -0.550 OA
ENDBRANCH   7   8
ENDBRANCH   6   7
ENDBRANCH   5   6
ENDBRANCH   4   5
ENDBRANCH   3   4
ENDBRANCH   2   3
ENDBRANCH   1   2
BRANCH   1  11
ATOM     11  C   UNL     1      55.527  51.176  20.704  1.00  0.00     0.000 C 
BRANCH  11  12
ATOM     12  C   UNL     1      54.617  49.949  20.488  1.00  0.00    -0.000 C 
BRANCH  12  13
ATOM     13  C   UNL     1      55.142  48.912  19.476  1.00  0.00    -0.000 C 
BRANCH  13  14
ATOM     14  C   UNL     1      56.428  48.182  19.902  1.00  0.00    -0.000 C 
BRANCH  14  15
ATOM     15  C   UNL     1      56.153  46.971  20.807  1.00  0.00    -0.000 C 
BRANCH  15  16
ATOM     16  C   UNL     1      56.632  47.236  22.239  1.00  0.00    -0.000 C 
BRANCH  16  17
ATOM     17  C   UNL     1      57.776  48.256  22.257  1.00  0.00    -0.003 C 
ATOM     18  C   UNL     1      59.134  47.561  22.272  1.00  0.00     0.004 C 
ENDBRANCH  16  17
ENDBRANCH  15  16
ENDBRANCH  14  15
ENDBRANCH  13  14
ENDBRANCH  12  13
ENDBRANCH  11  12
ENDBRANCH   1  11
TORSDOF 14
ENDMDL
