MODEL 1
REMARK VINA RESULT:    -5.463      0.000      0.000
REMARK INTER + INTRA:         -13.954
REMARK INTER:                 -11.532
REMARK INTRA:                  -2.422
REMARK UNBOUND:                -2.422
REMARK SMILES CCC(=O)CCCCC[C@@H]1NC(=O)[C@H]2CCCCN2C(=O)[C@H]([C@H](C)CC)NC(=O)[C@H](Cc2cn(OC)c3ccccc23)NC1=O
REMARK SMILES IDX 9 1 10 2 44 3 43 4 45 6 30 7 28 8 27 9 29 11 22 12 23 14
REMARK SMILES IDX 24 15 25 16 26 17 31 18 32 19 33 20 42 21 34 22 37 23 41 24
REMARK SMILES IDX 38 25 40 26 39 27 35 28 36 29 11 30 12 31 13 33 14 34 19 35
REMARK SMILES IDX 15 36 18 37 16 38 17 39 20 40 21 41 8 43 7 44 6 45 5 46 3 47
REMARK SMILES IDX 4 48 2 49 1 50
REMARK H PARENT 43 5 27 10 11 32
REMARK Flexibility Score: 80.00
ROOT
ATOM      1  C   UNL     1     -23.525  -0.305  25.486  1.00  0.00     0.035 C 
ENDROOT
BRANCH   1   2
ATOM      2  C   UNL     1     -24.364  -1.346  24.716  1.00  0.00     0.171 C 
BRANCH   2   3
ATOM      3  C   UNL     1     -24.426  -2.671  25.430  1.00  0.00     0.243 C 
ATOM      4  N   UNL     1     -23.514  -3.722  25.078  1.00  0.00    -0.342 N 
ATOM      5  H   UNL     1     -22.620  -3.455  24.606  1.00  0.00     0.164 HD
ATOM      6  O   UNL     1     -25.292  -2.853  26.327  1.00  0.00    -0.273 OA
BRANCH   4   7
ATOM      7  C   UNL     1     -23.888  -5.141  25.070  1.00  0.00     0.175 C 
BRANCH   7   8
ATOM      8  C   UNL     1     -25.132  -5.338  24.232  1.00  0.00     0.243 C 
ATOM      9  N   UNL     1     -26.437  -4.982  24.723  1.00  0.00    -0.342 N 
ATOM     10  H   UNL     1     -26.584  -4.882  25.753  1.00  0.00     0.164 HD
ATOM     11  O   UNL     1     -25.000  -5.745  23.045  1.00  0.00    -0.273 OA
BRANCH   9  12
ATOM     12  C   UNL     1     -27.622  -4.905  23.857  1.00  0.00     0.174 CG0
ATOM     13  G   UNL     1     -28.361  -3.622  24.176  1.00  0.00     0.000 G0
BRANCH  12  14
ATOM     14  C   UNL     1     -28.555  -6.152  24.032  1.00  0.00     0.018 C 
ATOM     15  C   UNL     1     -27.994  -7.181  25.033  1.00  0.00     0.010 C 
BRANCH  14  16
ATOM     16  C   UNL     1     -28.803  -6.837  22.663  1.00  0.00     0.002 C 
ATOM     17  C   UNL     1     -28.311  -8.284  22.616  1.00  0.00     0.004 C 
ENDBRANCH  14  16
ENDBRANCH  12  14
ENDBRANCH   9  12
ENDBRANCH   7   8
BRANCH   7  18
ATOM     18  C   UNL     1     -24.008  -5.724  26.492  1.00  0.00     0.073 C 
BRANCH  18  19
ATOM     19  C   UNL     1     -23.163  -6.956  26.649  1.00  0.00    -0.016 A 
ATOM     20  C   UNL     1     -23.072  -8.006  25.749  1.00  0.00     0.134 A 
ATOM     21  C   UNL     1     -22.373  -7.310  27.723  1.00  0.00     0.006 A 
ATOM     22  N   UNL     1     -22.242  -8.961  26.220  1.00  0.00    -0.191 N 
ATOM     23  C   UNL     1     -21.811  -8.537  27.438  1.00  0.00     0.087 A 
ATOM     24  C   UNL     1     -22.126  -6.638  28.921  1.00  0.00     0.011 A 
ATOM     25  C   UNL     1     -20.960  -9.161  28.365  1.00  0.00     0.030 A 
ATOM     26  C   UNL     1     -21.270  -7.245  29.851  1.00  0.00     0.001 A 
ATOM     27  C   UNL     1     -20.691  -8.498  29.574  1.00  0.00     0.002 A 
BRANCH  22  28
ATOM     28  O   UNL     1     -21.950 -10.107  25.494  1.00  0.00    -0.417 OA
ATOM     29  C   UNL     1     -21.262 -10.125  24.251  1.00  0.00     0.313 C 
ENDBRANCH  22  28
ENDBRANCH  18  19
ENDBRANCH   7  18
ENDBRANCH   4   7
ENDBRANCH   2   3
BRANCH   2  30
ATOM     30  N   UNL     1     -25.725  -0.867  24.450  1.00  0.00    -0.343 N 
ATOM     31  C   UNL     1     -26.484  -1.374  23.343  1.00  0.00     0.243 C 
ATOM     32  H   UNL     1     -26.198  -0.228  25.129  1.00  0.00     0.164 HD
ATOM     33  O   UNL     1     -25.891  -1.889  22.355  1.00  0.00    -0.273 OA
BRANCH  31  34
ATOM     34  C   UNL     1     -27.986  -1.258  23.338  1.00  0.00     0.174 C 
ATOM     35  N   UNL     1     -28.625  -2.586  23.222  1.00  0.00    -0.329 N 
ATOM     36  C   UNL     1     -28.423  -0.340  22.184  1.00  0.00     0.035 C 
ATOM     37  C   UNL     1     -29.812  -2.754  22.371  1.00  0.00     0.120 C 
ATOM     38  C   UNL     1     -29.954  -0.209  22.111  1.00  0.00     0.004 C 
ATOM     39  C   UNL     1     -30.705  -1.512  22.453  1.00  0.00     0.022 C 
BRANCH  35  40
ATOM     40  C   UNL     1     -28.335  -3.595  24.206  1.00  0.00     0.246 CG0
ATOM     41  O   UNL     1     -28.633  -3.376  25.414  1.00  0.00    -0.272 OA
ATOM     42  G   UNL     1     -27.628  -4.880  23.828  1.00  0.00     0.000 G0
ENDBRANCH  35  40
ENDBRANCH  31  34
ENDBRANCH   2  30
ENDBRANCH   1   2
BRANCH   1  43
ATOM     43  C   UNL     1     -22.129  -0.045  24.891  1.00  0.00     0.003 C 
BRANCH  43  44
ATOM     44  C   UNL     1     -22.189   0.044  23.363  1.00  0.00     0.001 C 
BRANCH  44  45
ATOM     45  C   UNL     1     -20.970   0.797  22.810  1.00  0.00     0.008 C 
BRANCH  45  46
ATOM     46  C   UNL     1     -21.373   1.880  21.797  1.00  0.00     0.075 C 
BRANCH  46  47
ATOM     47  C   UNL     1     -22.733   2.501  22.066  1.00  0.00     0.132 C 
ATOM     48  O   UNL     1     -23.013   2.872  23.196  1.00  0.00    -0.300 OA
BRANCH  47  49
ATOM     49  C   UNL     1     -23.801   2.622  21.001  1.00  0.00     0.072 C 
ATOM     50  C   UNL     1     -24.985   1.667  21.164  1.00  0.00     0.012 C 
ENDBRANCH  47  49
ENDBRANCH  46  47
ENDBRANCH  45  46
ENDBRANCH  44  45
ENDBRANCH  43  44
ENDBRANCH   1  43
TORSDOF 12
ENDMDL
MODEL 2
REMARK VINA RESULT:    -4.204      2.501      7.895
REMARK INTER + INTRA:         -11.295
REMARK INTER:                  -9.645
REMARK INTRA:                  -1.650
REMARK UNBOUND:                -2.422
REMARK SMILES CCC(=O)CCCCC[C@@H]1NC(=O)[C@H]2CCCCN2C(=O)[C@H]([C@H](C)CC)NC(=O)[C@H](Cc2cn(OC)c3ccccc23)NC1=O
REMARK SMILES IDX 9 1 10 2 44 3 43 4 45 6 30 7 28 8 27 9 29 11 22 12 23 14
REMARK SMILES IDX 24 15 25 16 26 17 31 18 32 19 33 20 42 21 34 22 37 23 41 24
REMARK SMILES IDX 38 25 40 26 39 27 35 28 36 29 11 30 12 31 13 33 14 34 19 35
REMARK SMILES IDX 15 36 18 37 16 38 17 39 20 40 21 41 8 43 7 44 6 45 5 46 3 47
REMARK SMILES IDX 4 48 2 49 1 50
REMARK H PARENT 43 5 27 10 11 32
REMARK Flexibility Score: 80.00
ROOT
ATOM      1  C   UNL     1     -22.765  -7.099  26.636  1.00  0.00     0.035 C 
ENDROOT
BRANCH   1   2
ATOM      2  C   UNL     1     -23.584  -6.460  25.495  1.00  0.00     0.171 C 
BRANCH   2   3
ATOM      3  C   UNL     1     -24.951  -7.076  25.357  1.00  0.00     0.243 C 
ATOM      4  N   UNL     1     -25.186  -8.094  24.374  1.00  0.00    -0.342 N 
ATOM      5  H   UNL     1     -24.363  -8.634  24.023  1.00  0.00     0.164 HD
ATOM      6  O   UNL     1     -25.887  -6.681  26.103  1.00  0.00    -0.273 OA
BRANCH   4   7
ATOM      7  C   UNL     1     -26.445  -8.215  23.628  1.00  0.00     0.175 C 
BRANCH   7   8
ATOM      8  C   UNL     1     -26.767  -6.902  22.951  1.00  0.00     0.243 C 
ATOM      9  N   UNL     1     -27.409  -5.825  23.658  1.00  0.00    -0.342 N 
ATOM     10  H   UNL     1     -27.938  -6.035  24.534  1.00  0.00     0.164 HD
ATOM     11  O   UNL     1     -26.381  -6.727  21.763  1.00  0.00    -0.273 OA
BRANCH   9  12
ATOM     12  C   UNL     1     -27.496  -4.459  23.123  1.00  0.00     0.174 CG0
ATOM     13  G   UNL     1     -27.004  -3.500  24.189  1.00  0.00     0.000 G0
BRANCH  12  14
ATOM     14  C   UNL     1     -28.952  -4.099  22.670  1.00  0.00     0.018 C 
ATOM     15  C   UNL     1     -29.507  -5.076  21.615  1.00  0.00     0.010 C 
BRANCH  14  16
ATOM     16  C   UNL     1     -29.003  -2.650  22.118  1.00  0.00     0.002 C 
ATOM     17  C   UNL     1     -30.094  -1.797  22.766  1.00  0.00     0.004 C 
ENDBRANCH  14  16
ENDBRANCH  12  14
ENDBRANCH   9  12
ENDBRANCH   7   8
BRANCH   7  18
ATOM     18  C   UNL     1     -27.596  -8.752  24.503  1.00  0.00     0.073 C 
BRANCH  18  19
ATOM     19  C   UNL     1     -28.933  -8.440  23.896  1.00  0.00    -0.016 A 
ATOM     20  C   UNL     1     -29.428  -8.944  22.702  1.00  0.00     0.134 A 
ATOM     21  C   UNL     1     -29.891  -7.564  24.360  1.00  0.00     0.006 A 
ATOM     22  N   UNL     1     -30.650  -8.432  22.445  1.00  0.00    -0.191 N 
ATOM     23  C   UNL     1     -30.938  -7.579  23.463  1.00  0.00     0.087 A 
ATOM     24  C   UNL     1     -29.898  -6.758  25.501  1.00  0.00     0.011 A 
ATOM     25  C   UNL     1     -32.063  -6.764  23.671  1.00  0.00     0.030 A 
ATOM     26  C   UNL     1     -31.021  -5.948  25.726  1.00  0.00     0.001 A 
ATOM     27  C   UNL     1     -32.096  -5.952  24.818  1.00  0.00     0.002 A 
BRANCH  22  28
ATOM     28  O   UNL     1     -31.382  -8.801  21.325  1.00  0.00    -0.417 OA
ATOM     29  C   UNL     1     -31.865 -10.112  21.069  1.00  0.00     0.313 C 
ENDBRANCH  22  28
ENDBRANCH  18  19
ENDBRANCH   7  18
ENDBRANCH   4   7
ENDBRANCH   2   3
BRANCH   2  30
ATOM     30  N   UNL     1     -23.713  -5.008  25.658  1.00  0.00    -0.343 N 
ATOM     31  C   UNL     1     -24.076  -4.168  24.552  1.00  0.00     0.243 C 
ATOM     32  H   UNL     1     -23.646  -4.579  26.610  1.00  0.00     0.164 HD
ATOM     33  O   UNL     1     -23.876  -4.562  23.370  1.00  0.00    -0.273 OA
BRANCH  31  34
ATOM     34  C   UNL     1     -24.660  -2.801  24.798  1.00  0.00     0.174 C 
ATOM     35  N   UNL     1     -25.905  -2.604  24.027  1.00  0.00    -0.329 N 
ATOM     36  C   UNL     1     -23.618  -1.730  24.434  1.00  0.00     0.035 C 
ATOM     37  C   UNL     1     -26.170  -1.309  23.384  1.00  0.00     0.120 C 
ATOM     38  C   UNL     1     -24.170  -0.308  24.636  1.00  0.00     0.004 C 
ATOM     39  C   UNL     1     -25.661  -0.164  24.266  1.00  0.00     0.022 C 
BRANCH  35  40
ATOM     40  C   UNL     1     -27.003  -3.514  24.219  1.00  0.00     0.246 CG0
ATOM     41  O   UNL     1     -27.558  -3.574  25.351  1.00  0.00    -0.272 OA
ATOM     42  G   UNL     1     -27.459  -4.440  23.109  1.00  0.00     0.000 G0
ENDBRANCH  35  40
ENDBRANCH  31  34
ENDBRANCH   2  30
ENDBRANCH   1   2
BRANCH   1  43
ATOM     43  C   UNL     1     -22.831  -8.636  26.684  1.00  0.00     0.003 C 
BRANCH  43  44
ATOM     44  C   UNL     1     -21.459  -9.236  27.009  1.00  0.00     0.001 C 
BRANCH  44  45
ATOM     45  C   UNL     1     -21.524 -10.092  28.282  1.00  0.00     0.008 C 
BRANCH  45  46
ATOM     46  C   UNL     1     -22.023  -9.287  29.493  1.00  0.00     0.075 C 
BRANCH  46  47
ATOM     47  C   UNL     1     -20.925  -8.895  30.467  1.00  0.00     0.132 C 
ATOM     48  O   UNL     1     -20.953  -9.324  31.611  1.00  0.00    -0.300 OA
BRANCH  47  49
ATOM     49  C   UNL     1     -19.818  -7.929  30.105  1.00  0.00     0.072 C 
ATOM     50  C   UNL     1     -18.488  -8.179  30.816  1.00  0.00     0.012 C 
ENDBRANCH  47  49
ENDBRANCH  46  47
ENDBRANCH  45  46
ENDBRANCH  44  45
ENDBRANCH  43  44
ENDBRANCH   1  43
TORSDOF 12
ENDMDL
MODEL 3
REMARK VINA RESULT:    -3.945      9.568     14.284
REMARK INTER + INTRA:         -10.748
REMARK INTER:                  -9.676
REMARK INTRA:                  -1.072
REMARK UNBOUND:                -2.422
REMARK SMILES CCC(=O)CCCCC[C@@H]1NC(=O)[C@H]2CCCCN2C(=O)[C@H]([C@H](C)CC)NC(=O)[C@H](Cc2cn(OC)c3ccccc23)NC1=O
REMARK SMILES IDX 9 1 10 2 44 3 43 4 45 6 30 7 28 8 27 9 29 11 22 12 23 14
REMARK SMILES IDX 24 15 25 16 26 17 31 18 32 19 33 20 42 21 34 22 37 23 41 24
REMARK SMILES IDX 38 25 40 26 39 27 35 28 36 29 11 30 12 31 13 33 14 34 19 35
REMARK SMILES IDX 15 36 18 37 16 38 17 39 20 40 21 41 8 43 7 44 6 45 5 46 3 47
REMARK SMILES IDX 4 48 2 49 1 50
REMARK H PARENT 43 5 27 10 11 32
REMARK Flexibility Score: 80.00
ROOT
ATOM      1  C   UNL     1     -18.572  -2.067  32.329  1.00  0.00     0.035 C 
ENDROOT
BRANCH   1   2
ATOM      2  C   UNL     1     -17.372  -3.025  32.488  1.00  0.00     0.171 C 
BRANCH   2   3
ATOM      3  C   UNL     1     -16.569  -2.734  33.728  1.00  0.00     0.243 C 
ATOM      4  N   UNL     1     -15.183  -3.101  33.791  1.00  0.00    -0.342 N 
ATOM      5  H   UNL     1     -14.671  -3.232  32.889  1.00  0.00     0.164 HD
ATOM      6  O   UNL     1     -17.126  -2.178  34.712  1.00  0.00    -0.273 OA
BRANCH   4   7
ATOM      7  C   UNL     1     -14.535  -3.587  35.016  1.00  0.00     0.175 C 
BRANCH   7   8
ATOM      8  C   UNL     1     -13.964  -4.968  34.780  1.00  0.00     0.243 C 
ATOM      9  N   UNL     1     -14.813  -6.121  34.637  1.00  0.00    -0.342 N 
ATOM     10  H   UNL     1     -15.792  -6.081  35.001  1.00  0.00     0.164 HD
ATOM     11  O   UNL     1     -12.718  -5.084  34.620  1.00  0.00    -0.273 OA
BRANCH   9  12
ATOM     12  C   UNL     1     -14.322  -7.416  34.147  1.00  0.00     0.174 CG0
ATOM     13  G   UNL     1     -14.710  -7.549  32.687  1.00  0.00     0.000 G0
BRANCH  12  14
ATOM     14  C   UNL     1     -14.884  -8.612  34.989  1.00  0.00     0.018 C 
ATOM     15  C   UNL     1     -15.996  -8.182  35.967  1.00  0.00     0.010 C 
BRANCH  14  16
ATOM     16  C   UNL     1     -13.739  -9.305  35.774  1.00  0.00     0.002 C 
ATOM     17  C   UNL     1     -13.395  -8.598  37.085  1.00  0.00     0.004 C 
ENDBRANCH  14  16
ENDBRANCH  12  14
ENDBRANCH   9  12
ENDBRANCH   7   8
BRANCH   7  18
ATOM     18  C   UNL     1     -15.466  -3.509  36.242  1.00  0.00     0.073 C 
BRANCH  18  19
ATOM     19  C   UNL     1     -14.926  -4.316  37.387  1.00  0.00    -0.016 A 
ATOM     20  C   UNL     1     -13.613  -4.328  37.833  1.00  0.00     0.134 A 
ATOM     21  C   UNL     1     -15.598  -5.231  38.171  1.00  0.00     0.006 A 
ATOM     22  N   UNL     1     -13.473  -5.187  38.865  1.00  0.00    -0.191 N 
ATOM     23  C   UNL     1     -14.694  -5.748  39.074  1.00  0.00     0.087 A 
ATOM     24  C   UNL     1     -16.933  -5.640  38.135  1.00  0.00     0.011 A 
ATOM     25  C   UNL     1     -15.095  -6.724  40.002  1.00  0.00     0.030 A 
ATOM     26  C   UNL     1     -17.349  -6.606  39.062  1.00  0.00     0.001 A 
ATOM     27  C   UNL     1     -16.436  -7.144  39.990  1.00  0.00     0.002 A 
BRANCH  22  28
ATOM     28  O   UNL     1     -12.261  -5.363  39.517  1.00  0.00    -0.417 OA
ATOM     29  C   UNL     1     -11.931  -4.798  40.779  1.00  0.00     0.313 C 
ENDBRANCH  22  28
ENDBRANCH  18  19
ENDBRANCH   7  18
ENDBRANCH   4   7
ENDBRANCH   2   3
BRANCH   2  30
ATOM     30  N   UNL     1     -17.789  -4.431  32.491  1.00  0.00    -0.343 N 
ATOM     31  C   UNL     1     -16.851  -5.480  32.207  1.00  0.00     0.243 C 
ATOM     32  H   UNL     1     -18.751  -4.693  32.806  1.00  0.00     0.164 HD
ATOM     33  O   UNL     1     -15.805  -5.229  31.548  1.00  0.00    -0.273 OA
BRANCH  31  34
ATOM     34  C   UNL     1     -17.133  -6.890  32.659  1.00  0.00     0.174 C 
ATOM     35  N   UNL     1     -16.056  -7.811  32.239  1.00  0.00    -0.329 N 
ATOM     36  C   UNL     1     -18.490  -7.344  32.097  1.00  0.00     0.035 C 
ATOM     37  C   UNL     1     -16.395  -9.155  31.748  1.00  0.00     0.120 C 
ATOM     38  C   UNL     1     -18.818  -8.791  32.501  1.00  0.00     0.004 C 
ATOM     39  C   UNL     1     -17.587  -9.721  32.527  1.00  0.00     0.022 C 
BRANCH  35  40
ATOM     40  C   UNL     1     -14.705  -7.552  32.657  1.00  0.00     0.246 CG0
ATOM     41  O   UNL     1     -13.793  -7.500  31.786  1.00  0.00    -0.272 OA
ATOM     42  G   UNL     1     -14.352  -7.403  34.124  1.00  0.00     0.000 G0
ENDBRANCH  35  40
ENDBRANCH  31  34
ENDBRANCH   2  30
ENDBRANCH   1   2
BRANCH   1  43
ATOM     43  C   UNL     1     -19.152  -2.002  30.905  1.00  0.00     0.003 C 
BRANCH  43  44
ATOM     44  C   UNL     1     -20.681  -1.910  30.937  1.00  0.00     0.001 C 
BRANCH  44  45
ATOM     45  C   UNL     1     -21.310  -2.910  29.955  1.00  0.00     0.008 C 
BRANCH  45  46
ATOM     46  C   UNL     1     -22.583  -2.351  29.300  1.00  0.00     0.075 C 
BRANCH  46  47
ATOM     47  C   UNL     1     -23.508  -3.419  28.740  1.00  0.00     0.132 C 
ATOM     48  O   UNL     1     -23.464  -4.552  29.194  1.00  0.00    -0.300 OA
BRANCH  47  49
ATOM     49  C   UNL     1     -24.447  -3.160  27.582  1.00  0.00     0.072 C 
ATOM     50  C   UNL     1     -25.571  -2.165  27.874  1.00  0.00     0.012 C 
ENDBRANCH  47  49
ENDBRANCH  46  47
ENDBRANCH  45  46
ENDBRANCH  44  45
ENDBRANCH  43  44
ENDBRANCH   1  43
TORSDOF 12
ENDMDL
MODEL 4
REMARK VINA RESULT:    -3.903     11.596     17.435
REMARK INTER + INTRA:         -10.661
REMARK INTER:                  -8.817
REMARK INTRA:                  -1.844
REMARK UNBOUND:                -2.422
REMARK SMILES CCC(=O)CCCCC[C@@H]1NC(=O)[C@H]2CCCCN2C(=O)[C@H]([C@H](C)CC)NC(=O)[C@H](Cc2cn(OC)c3ccccc23)NC1=O
REMARK SMILES IDX 9 1 10 2 44 3 43 4 45 6 30 7 28 8 27 9 29 11 22 12 23 14
REMARK SMILES IDX 24 15 25 16 26 17 31 18 32 19 33 20 42 21 34 22 37 23 41 24
REMARK SMILES IDX 38 25 40 26 39 27 35 28 36 29 11 30 12 31 13 33 14 34 19 35
REMARK SMILES IDX 15 36 18 37 16 38 17 39 20 40 21 41 8 43 7 44 6 45 5 46 3 47
REMARK SMILES IDX 4 48 2 49 1 50
REMARK H PARENT 43 5 27 10 11 32
REMARK Flexibility Score: 80.00
ROOT
ATOM      1  C   UNL     1     -12.561  -5.523  39.702  1.00  0.00     0.035 C 
ENDROOT
BRANCH   1   2
ATOM      2  C   UNL     1     -13.400  -5.905  38.465  1.00  0.00     0.171 C 
BRANCH   2   3
ATOM      3  C   UNL     1     -13.900  -4.697  37.718  1.00  0.00     0.243 C 
ATOM      4  N   UNL     1     -15.285  -4.327  37.790  1.00  0.00    -0.342 N 
ATOM      5  H   UNL     1     -15.838  -4.667  38.610  1.00  0.00     0.164 HD
ATOM      6  O   UNL     1     -13.096  -4.023  37.020  1.00  0.00    -0.273 OA
BRANCH   4   7
ATOM      7  C   UNL     1     -16.027  -3.765  36.655  1.00  0.00     0.175 C 
BRANCH   7   8
ATOM      8  C   UNL     1     -15.777  -4.597  35.417  1.00  0.00     0.243 C 
ATOM      9  N   UNL     1     -14.741  -4.260  34.477  1.00  0.00    -0.342 N 
ATOM     10  H   UNL     1     -14.364  -3.286  34.463  1.00  0.00     0.164 HD
ATOM     11  O   UNL     1     -16.441  -5.659  35.262  1.00  0.00    -0.273 OA
BRANCH   9  12
ATOM     12  C   UNL     1     -14.294  -5.177  33.420  1.00  0.00     0.174 CG0
ATOM     13  G   UNL     1     -13.042  -5.883  33.902  1.00  0.00     0.000 G0
BRANCH  12  14
ATOM     14  C   UNL     1     -14.032  -4.429  32.068  1.00  0.00     0.018 C 
ATOM     15  C   UNL     1     -13.616  -2.959  32.271  1.00  0.00     0.010 C 
BRANCH  14  16
ATOM     16  C   UNL     1     -15.290  -4.494  31.163  1.00  0.00     0.002 C 
ATOM     17  C   UNL     1     -16.545  -4.950  31.909  1.00  0.00     0.004 C 
ENDBRANCH  14  16
ENDBRANCH  12  14
ENDBRANCH   9  12
ENDBRANCH   7   8
BRANCH   7  18
ATOM     18  C   UNL     1     -15.740  -2.264  36.453  1.00  0.00     0.073 C 
BRANCH  18  19
ATOM     19  C   UNL     1     -16.916  -1.563  35.836  1.00  0.00    -0.016 A 
ATOM     20  C   UNL     1     -17.456  -1.816  34.585  1.00  0.00     0.134 A 
ATOM     21  C   UNL     1     -17.643  -0.510  36.354  1.00  0.00     0.006 A 
ATOM     22  N   UNL     1     -18.490  -0.983  34.339  1.00  0.00    -0.191 N 
ATOM     23  C   UNL     1     -18.606  -0.175  35.426  1.00  0.00     0.087 A 
ATOM     24  C   UNL     1     -17.507   0.168  37.567  1.00  0.00     0.011 A 
ATOM     25  C   UNL     1     -19.495   0.884  35.676  1.00  0.00     0.030 A 
ATOM     26  C   UNL     1     -18.395   1.220  37.833  1.00  0.00     0.001 A 
ATOM     27  C   UNL     1     -19.382   1.575  36.895  1.00  0.00     0.002 A 
BRANCH  22  28
ATOM     28  O   UNL     1     -19.228  -1.051  33.166  1.00  0.00    -0.417 OA
ATOM     29  C   UNL     1     -18.839  -1.773  32.006  1.00  0.00     0.313 C 
ENDBRANCH  22  28
ENDBRANCH  18  19
ENDBRANCH   7  18
ENDBRANCH   4   7
ENDBRANCH   2   3
BRANCH   2  30
ATOM     30  N   UNL     1     -12.660  -6.779  37.547  1.00  0.00    -0.343 N 
ATOM     31  C   UNL     1     -13.333  -7.482  36.492  1.00  0.00     0.243 C 
ATOM     32  H   UNL     1     -11.616  -6.816  37.585  1.00  0.00     0.164 HD
ATOM     33  O   UNL     1     -14.570  -7.716  36.579  1.00  0.00    -0.273 OA
BRANCH  31  34
ATOM     34  C   UNL     1     -12.559  -7.978  35.299  1.00  0.00     0.174 C 
ATOM     35  N   UNL     1     -13.051  -7.363  34.048  1.00  0.00    -0.329 N 
ATOM     36  C   UNL     1     -12.658  -9.512  35.228  1.00  0.00     0.035 C 
ATOM     37  C   UNL     1     -13.168  -8.177  32.830  1.00  0.00     0.120 C 
ATOM     38  C   UNL     1     -11.910 -10.074  34.008  1.00  0.00     0.004 C 
ATOM     39  C   UNL     1     -12.016  -9.185  32.751  1.00  0.00     0.022 C 
BRANCH  35  40
ATOM     40  C   UNL     1     -13.048  -5.930  33.921  1.00  0.00     0.246 CG0
ATOM     41  O   UNL     1     -12.034  -5.283  34.303  1.00  0.00    -0.272 OA
ATOM     42  G   UNL     1     -14.260  -5.186  33.396  1.00  0.00     0.000 G0
ENDBRANCH  35  40
ENDBRANCH  31  34
ENDBRANCH   2  30
ENDBRANCH   1   2
BRANCH   1  43
ATOM     43  C   UNL     1     -11.875  -6.712  40.399  1.00  0.00     0.003 C 
BRANCH  43  44
ATOM     44  C   UNL     1     -12.900  -7.591  41.124  1.00  0.00     0.001 C 
BRANCH  44  45
ATOM     45  C   UNL     1     -13.666  -8.473  40.127  1.00  0.00     0.008 C 
BRANCH  45  46
ATOM     46  C   UNL     1     -15.178  -8.476  40.405  1.00  0.00     0.075 C 
BRANCH  46  47
ATOM     47  C   UNL     1     -16.019  -8.939  39.227  1.00  0.00     0.132 C 
ATOM     48  O   UNL     1     -15.782 -10.017  38.704  1.00  0.00    -0.300 OA
BRANCH  47  49
ATOM     49  C   UNL     1     -17.112  -8.086  38.618  1.00  0.00     0.072 C 
ATOM     50  C   UNL     1     -17.376  -6.766  39.342  1.00  0.00     0.012 C 
ENDBRANCH  47  49
ENDBRANCH  46  47
ENDBRANCH  45  46
ENDBRANCH  44  45
ENDBRANCH  43  44
ENDBRANCH   1  43
TORSDOF 12
ENDMDL
MODEL 5
REMARK VINA RESULT:    -3.807      3.410      8.401
REMARK INTER + INTRA:         -10.457
REMARK INTER:                 -10.170
REMARK INTRA:                  -0.286
REMARK UNBOUND:                -2.422
REMARK SMILES CCC(=O)CCCCC[C@@H]1NC(=O)[C@H]2CCCCN2C(=O)[C@H]([C@H](C)CC)NC(=O)[C@H](Cc2cn(OC)c3ccccc23)NC1=O
REMARK SMILES IDX 9 1 10 2 44 3 43 4 45 6 30 7 28 8 27 9 29 11 22 12 23 14
REMARK SMILES IDX 24 15 25 16 26 17 31 18 32 19 33 20 42 21 34 22 37 23 41 24
REMARK SMILES IDX 38 25 40 26 39 27 35 28 36 29 11 30 12 31 13 33 14 34 19 35
REMARK SMILES IDX 15 36 18 37 16 38 17 39 20 40 21 41 8 43 7 44 6 45 5 46 3 47
REMARK SMILES IDX 4 48 2 49 1 50
REMARK H PARENT 43 5 27 10 11 32
REMARK Flexibility Score: 80.00
ROOT
ATOM      1  C   UNL     1     -22.642  -2.753  28.461  1.00  0.00     0.035 C 
ENDROOT
BRANCH   1   2
ATOM      2  C   UNL     1     -24.112  -3.222  28.497  1.00  0.00     0.171 C 
BRANCH   2   3
ATOM      3  C   UNL     1     -25.058  -2.177  27.967  1.00  0.00     0.243 C 
ATOM      4  N   UNL     1     -26.476  -2.385  28.044  1.00  0.00    -0.342 N 
ATOM      5  H   UNL     1     -26.833  -3.059  28.758  1.00  0.00     0.164 HD
ATOM      6  O   UNL     1     -24.595  -1.128  27.445  1.00  0.00    -0.273 OA
BRANCH   4   7
ATOM      7  C   UNL     1     -27.411  -1.943  27.001  1.00  0.00     0.175 C 
BRANCH   7   8
ATOM      8  C   UNL     1     -27.860  -3.131  26.180  1.00  0.00     0.243 C 
ATOM      9  N   UNL     1     -26.972  -3.795  25.263  1.00  0.00    -0.342 N 
ATOM     10  H   UNL     1     -26.125  -3.290  24.919  1.00  0.00     0.164 HD
ATOM     11  O   UNL     1     -29.017  -3.595  26.377  1.00  0.00    -0.273 OA
BRANCH   9  12
ATOM     12  C   UNL     1     -27.280  -5.097  24.655  1.00  0.00     0.174 CG0
ATOM     13  G   UNL     1     -25.977  -5.739  24.223  1.00  0.00     0.000 G0
BRANCH  12  14
ATOM     14  C   UNL     1     -28.268  -4.961  23.447  1.00  0.00     0.018 C 
ATOM     15  C   UNL     1     -29.023  -3.617  23.443  1.00  0.00     0.010 C 
BRANCH  14  16
ATOM     16  C   UNL     1     -29.286  -6.131  23.447  1.00  0.00     0.002 C 
ATOM     17  C   UNL     1     -30.014  -6.295  24.783  1.00  0.00     0.004 C 
ENDBRANCH  14  16
ENDBRANCH  12  14
ENDBRANCH   9  12
ENDBRANCH   7   8
BRANCH   7  18
ATOM     18  C   UNL     1     -26.839  -0.791  26.150  1.00  0.00     0.073 C 
BRANCH  18  19
ATOM     19  C   UNL     1     -27.755  -0.448  25.012  1.00  0.00    -0.016 A 
ATOM     20  C   UNL     1     -29.063  -0.000  25.120  1.00  0.00     0.134 A 
ATOM     21  C   UNL     1     -27.508  -0.563  23.659  1.00  0.00     0.006 A 
ATOM     22  N   UNL     1     -29.601   0.185  23.896  1.00  0.00    -0.191 N 
ATOM     23  C   UNL     1     -28.646  -0.164  22.993  1.00  0.00     0.087 A 
ATOM     24  C   UNL     1     -26.364  -1.000  22.987  1.00  0.00     0.011 A 
ATOM     25  C   UNL     1     -28.694  -0.188  21.589  1.00  0.00     0.030 A 
ATOM     26  C   UNL     1     -26.394  -1.019  21.585  1.00  0.00     0.001 A 
ATOM     27  C   UNL     1     -27.551  -0.615  20.891  1.00  0.00     0.002 A 
BRANCH  22  28
ATOM     28  O   UNL     1     -30.892   0.663  23.724  1.00  0.00    -0.417 OA
ATOM     29  C   UNL     1     -32.016  -0.141  23.393  1.00  0.00     0.313 C 
ENDBRANCH  22  28
ENDBRANCH  18  19
ENDBRANCH   7  18
ENDBRANCH   4   7
ENDBRANCH   2   3
BRANCH   2  30
ATOM     30  N   UNL     1     -24.306  -4.478  27.764  1.00  0.00    -0.343 N 
ATOM     31  C   UNL     1     -24.134  -4.537  26.340  1.00  0.00     0.243 C 
ATOM     32  H   UNL     1     -24.466  -5.370  28.285  1.00  0.00     0.164 HD
ATOM     33  O   UNL     1     -24.240  -3.487  25.648  1.00  0.00    -0.273 OA
BRANCH  31  34
ATOM     34  C   UNL     1     -23.866  -5.856  25.663  1.00  0.00     0.174 C 
ATOM     35  N   UNL     1     -25.118  -6.469  25.172  1.00  0.00    -0.329 N 
ATOM     36  C   UNL     1     -23.148  -6.796  26.647  1.00  0.00     0.035 C 
ATOM     37  C   UNL     1     -25.324  -7.919  25.306  1.00  0.00     0.120 C 
ATOM     38  C   UNL     1     -22.876  -8.174  26.020  1.00  0.00     0.004 C 
ATOM     39  C   UNL     1     -24.004  -8.665  25.089  1.00  0.00     0.022 C 
BRANCH  35  40
ATOM     40  C   UNL     1     -25.942  -5.740  24.246  1.00  0.00     0.246 CG0
ATOM     41  O   UNL     1     -25.536  -5.577  23.061  1.00  0.00    -0.272 OA
ATOM     42  G   UNL     1     -27.252  -5.116  24.683  1.00  0.00     0.000 G0
ENDBRANCH  35  40
ENDBRANCH  31  34
ENDBRANCH   2  30
ENDBRANCH   1   2
BRANCH   1  43
ATOM     43  C   UNL     1     -21.935  -2.768  29.828  1.00  0.00     0.003 C 
BRANCH  43  44
ATOM     44  C   UNL     1     -20.540  -2.140  29.734  1.00  0.00     0.001 C 
BRANCH  44  45
ATOM     45  C   UNL     1     -19.974  -1.853  31.132  1.00  0.00     0.008 C 
BRANCH  45  46
ATOM     46  C   UNL     1     -18.440  -1.950  31.164  1.00  0.00     0.075 C 
BRANCH  46  47
ATOM     47  C   UNL     1     -17.849  -1.919  32.563  1.00  0.00     0.132 C 
ATOM     48  O   UNL     1     -18.585  -2.039  33.530  1.00  0.00    -0.300 OA
BRANCH  47  49
ATOM     49  C   UNL     1     -16.379  -1.674  32.824  1.00  0.00     0.072 C 
ATOM     50  C   UNL     1     -15.427  -2.584  32.045  1.00  0.00     0.012 C 
ENDBRANCH  47  49
ENDBRANCH  46  47
ENDBRANCH  45  46
ENDBRANCH  44  45
ENDBRANCH  43  44
ENDBRANCH   1  43
TORSDOF 12
ENDMDL
MODEL 6
REMARK VINA RESULT:    -3.803      2.497      7.046
REMARK INTER + INTRA:         -10.448
REMARK INTER:                  -7.304
REMARK INTRA:                  -3.145
REMARK UNBOUND:                -2.422
REMARK SMILES CCC(=O)CCCCC[C@@H]1NC(=O)[C@H]2CCCCN2C(=O)[C@H]([C@H](C)CC)NC(=O)[C@H](Cc2cn(OC)c3ccccc23)NC1=O
REMARK SMILES IDX 9 1 10 2 44 3 43 4 45 6 30 7 28 8 27 9 29 11 22 12 23 14
REMARK SMILES IDX 24 15 25 16 26 17 31 18 32 19 33 20 42 21 34 22 37 23 41 24
REMARK SMILES IDX 38 25 40 26 39 27 35 28 36 29 11 30 12 31 13 33 14 34 19 35
REMARK SMILES IDX 15 36 18 37 16 38 17 39 20 40 21 41 8 43 7 44 6 45 5 46 3 47
REMARK SMILES IDX 4 48 2 49 1 50
REMARK H PARENT 43 5 27 10 11 32
REMARK Flexibility Score: 80.00
ROOT
ATOM      1  C   UNL     1     -30.841  -6.126  21.254  1.00  0.00     0.035 C 
ENDROOT
BRANCH   1   2
ATOM      2  C   UNL     1     -30.368  -5.162  22.364  1.00  0.00     0.171 C 
BRANCH   2   3
ATOM      3  C   UNL     1     -28.899  -5.307  22.659  1.00  0.00     0.243 C 
ATOM      4  N   UNL     1     -28.467  -5.927  23.880  1.00  0.00    -0.342 N 
ATOM      5  H   UNL     1     -29.135  -6.569  24.364  1.00  0.00     0.164 HD
ATOM      6  O   UNL     1     -28.054  -4.869  21.834  1.00  0.00    -0.273 OA
BRANCH   4   7
ATOM      7  C   UNL     1     -27.283  -5.489  24.628  1.00  0.00     0.175 C 
BRANCH   7   8
ATOM      8  C   UNL     1     -27.295  -3.982  24.769  1.00  0.00     0.243 C 
ATOM      9  N   UNL     1     -26.630  -3.130  23.819  1.00  0.00    -0.342 N 
ATOM     10  H   UNL     1     -25.880  -3.532  23.212  1.00  0.00     0.164 HD
ATOM     11  O   UNL     1     -27.980  -3.470  25.696  1.00  0.00    -0.273 OA
BRANCH   9  12
ATOM     12  C   UNL     1     -26.839  -1.677  23.768  1.00  0.00     0.174 CG0
ATOM     13  G   UNL     1     -27.962  -1.393  22.790  1.00  0.00     0.000 G0
BRANCH  12  14
ATOM     14  C   UNL     1     -25.533  -0.911  23.364  1.00  0.00     0.018 C 
ATOM     15  C   UNL     1     -24.459  -1.839  22.764  1.00  0.00     0.010 C 
BRANCH  14  16
ATOM     16  C   UNL     1     -24.948  -0.158  24.587  1.00  0.00     0.002 C 
ATOM     17  C   UNL     1     -23.687   0.641  24.255  1.00  0.00     0.004 C 
ENDBRANCH  14  16
ENDBRANCH  12  14
ENDBRANCH   9  12
ENDBRANCH   7   8
BRANCH   7  18
ATOM     18  C   UNL     1     -25.973  -6.038  24.028  1.00  0.00     0.073 C 
BRANCH  18  19
ATOM     19  C   UNL     1     -24.963  -6.329  25.100  1.00  0.00    -0.016 A 
ATOM     20  C   UNL     1     -24.425  -5.411  25.989  1.00  0.00     0.134 A 
ATOM     21  C   UNL     1     -24.337  -7.528  25.372  1.00  0.00     0.006 A 
ATOM     22  N   UNL     1     -23.525  -6.009  26.799  1.00  0.00    -0.191 N 
ATOM     23  C   UNL     1     -23.467  -7.314  26.420  1.00  0.00     0.087 A 
ATOM     24  C   UNL     1     -24.475  -8.775  24.760  1.00  0.00     0.011 A 
ATOM     25  C   UNL     1     -22.673  -8.364  26.911  1.00  0.00     0.030 A 
ATOM     26  C   UNL     1     -23.696  -9.835  25.247  1.00  0.00     0.001 A 
ATOM     27  C   UNL     1     -22.802  -9.631  26.315  1.00  0.00     0.002 A 
BRANCH  22  28
ATOM     28  O   UNL     1     -22.865  -5.317  27.804  1.00  0.00    -0.417 OA
ATOM     29  C   UNL     1     -23.500  -4.506  28.782  1.00  0.00     0.313 C 
ENDBRANCH  22  28
ENDBRANCH  18  19
ENDBRANCH   7  18
ENDBRANCH   4   7
ENDBRANCH   2   3
BRANCH   2  30
ATOM     30  N   UNL     1     -30.669  -3.763  22.041  1.00  0.00    -0.343 N 
ATOM     31  C   UNL     1     -30.628  -2.746  23.053  1.00  0.00     0.243 C 
ATOM     32  H   UNL     1     -30.814  -3.474  21.047  1.00  0.00     0.164 HD
ATOM     33  O   UNL     1     -30.760  -3.060  24.268  1.00  0.00    -0.273 OA
BRANCH  31  34
ATOM     34  C   UNL     1     -30.466  -1.299  22.665  1.00  0.00     0.174 C 
ATOM     35  N   UNL     1     -29.186  -0.752  23.161  1.00  0.00    -0.329 N 
ATOM     36  C   UNL     1     -31.654  -0.489  23.212  1.00  0.00     0.035 C 
ATOM     37  C   UNL     1     -29.138   0.612  23.710  1.00  0.00     0.120 C 
ATOM     38  C   UNL     1     -31.528   1.006  22.872  1.00  0.00     0.004 C 
ATOM     39  C   UNL     1     -30.079   1.533  22.927  1.00  0.00     0.022 C 
BRANCH  35  40
ATOM     40  C   UNL     1     -27.953  -1.379  22.768  1.00  0.00     0.246 CG0
ATOM     41  O   UNL     1     -27.796  -1.718  21.562  1.00  0.00    -0.272 OA
ATOM     42  G   UNL     1     -26.873  -1.692  23.783  1.00  0.00     0.000 G0
ENDBRANCH  35  40
ENDBRANCH  31  34
ENDBRANCH   2  30
ENDBRANCH   1   2
BRANCH   1  43
ATOM     43  C   UNL     1     -32.002  -7.049  21.664  1.00  0.00     0.003 C 
BRANCH  43  44
ATOM     44  C   UNL     1     -31.844  -8.441  21.044  1.00  0.00     0.001 C 
BRANCH  44  45
ATOM     45  C   UNL     1     -30.360  -8.803  20.882  1.00  0.00     0.008 C 
BRANCH  45  46
ATOM     46  C   UNL     1     -29.899  -9.828  21.931  1.00  0.00     0.075 C 
BRANCH  46  47
ATOM     47  C   UNL     1     -28.949  -9.259  22.971  1.00  0.00     0.132 C 
ATOM     48  O   UNL     1     -29.382  -8.925  24.063  1.00  0.00    -0.300 OA
BRANCH  47  49
ATOM     49  C   UNL     1     -27.481  -9.020  22.693  1.00  0.00     0.072 C 
ATOM     50  C   UNL     1     -26.863  -9.950  21.649  1.00  0.00     0.012 C 
ENDBRANCH  47  49
ENDBRANCH  46  47
ENDBRANCH  45  46
ENDBRANCH  44  45
ENDBRANCH  43  44
ENDBRANCH   1  43
TORSDOF 12
ENDMDL
MODEL 7
REMARK VINA RESULT:    -3.628     11.366     15.057
REMARK INTER + INTRA:         -10.080
REMARK INTER:                 -10.360
REMARK INTRA:                   0.280
REMARK UNBOUND:                -2.422
REMARK SMILES CCC(=O)CCCCC[C@@H]1NC(=O)[C@H]2CCCCN2C(=O)[C@H]([C@H](C)CC)NC(=O)[C@H](Cc2cn(OC)c3ccccc23)NC1=O
REMARK SMILES IDX 9 1 10 2 44 3 43 4 45 6 30 7 28 8 27 9 29 11 22 12 23 14
REMARK SMILES IDX 24 15 25 16 26 17 31 18 32 19 33 20 42 21 34 22 37 23 41 24
REMARK SMILES IDX 38 25 40 26 39 27 35 28 36 29 11 30 12 31 13 33 14 34 19 35
REMARK SMILES IDX 15 36 18 37 16 38 17 39 20 40 21 41 8 43 7 44 6 45 5 46 3 47
REMARK SMILES IDX 4 48 2 49 1 50
REMARK H PARENT 43 5 27 10 11 32
REMARK Flexibility Score: 80.00
ROOT
ATOM      1  C   UNL     1     -17.208  -2.268  31.936  1.00  0.00     0.035 C 
ENDROOT
BRANCH   1   2
ATOM      2  C   UNL     1     -16.388  -3.543  32.223  1.00  0.00     0.171 C 
BRANCH   2   3
ATOM      3  C   UNL     1     -15.669  -3.475  33.544  1.00  0.00     0.243 C 
ATOM      4  N   UNL     1     -14.343  -2.930  33.616  1.00  0.00    -0.342 N 
ATOM      5  H   UNL     1     -14.039  -2.283  32.853  1.00  0.00     0.164 HD
ATOM      6  O   UNL     1     -16.236  -3.910  34.582  1.00  0.00    -0.273 OA
BRANCH   4   7
ATOM      7  C   UNL     1     -13.307  -3.452  34.516  1.00  0.00     0.175 C 
BRANCH   7   8
ATOM      8  C   UNL     1     -13.218  -4.956  34.376  1.00  0.00     0.243 C 
ATOM      9  N   UNL     1     -14.364  -5.803  34.578  1.00  0.00    -0.342 N 
ATOM     10  H   UNL     1     -15.178  -5.437  35.121  1.00  0.00     0.164 HD
ATOM     11  O   UNL     1     -12.128  -5.460  33.988  1.00  0.00    -0.273 OA
BRANCH   9  12
ATOM     12  C   UNL     1     -14.385  -7.221  34.194  1.00  0.00     0.174 CG0
ATOM     13  G   UNL     1     -15.831  -7.663  34.090  1.00  0.00     0.000 G0
BRANCH  12  14
ATOM     14  C   UNL     1     -13.596  -8.114  35.211  1.00  0.00     0.018 C 
ATOM     15  C   UNL     1     -12.099  -7.752  35.286  1.00  0.00     0.010 C 
BRANCH  14  16
ATOM     16  C   UNL     1     -13.752  -9.614  34.847  1.00  0.00     0.002 C 
ATOM     17  C   UNL     1     -12.656 -10.123  33.909  1.00  0.00     0.004 C 
ENDBRANCH  14  16
ENDBRANCH  12  14
ENDBRANCH   9  12
ENDBRANCH   7   8
BRANCH   7  18
ATOM     18  C   UNL     1     -13.505  -2.983  35.971  1.00  0.00     0.073 C 
BRANCH  18  19
ATOM     19  C   UNL     1     -13.540  -4.148  36.919  1.00  0.00    -0.016 A 
ATOM     20  C   UNL     1     -12.448  -4.885  37.351  1.00  0.00     0.134 A 
ATOM     21  C   UNL     1     -14.646  -4.743  37.490  1.00  0.00     0.006 A 
ATOM     22  N   UNL     1     -12.845  -5.877  38.177  1.00  0.00    -0.191 N 
ATOM     23  C   UNL     1     -14.199  -5.793  38.262  1.00  0.00     0.087 A 
ATOM     24  C   UNL     1     -16.001  -4.429  37.369  1.00  0.00     0.011 A 
ATOM     25  C   UNL     1     -15.113  -6.600  38.961  1.00  0.00     0.030 A 
ATOM     26  C   UNL     1     -16.923  -5.220  38.069  1.00  0.00     0.001 A 
ATOM     27  C   UNL     1     -16.482  -6.297  38.860  1.00  0.00     0.002 A 
BRANCH  22  28
ATOM     28  O   UNL     1     -11.941  -6.742  38.776  1.00  0.00    -0.417 OA
ATOM     29  C   UNL     1     -12.046  -8.159  38.765  1.00  0.00     0.313 C 
ENDBRANCH  22  28
ENDBRANCH  18  19
ENDBRANCH   7  18
ENDBRANCH   4   7
ENDBRANCH   2   3
BRANCH   2  30
ATOM     30  N   UNL     1     -17.217  -4.752  32.176  1.00  0.00    -0.343 N 
ATOM     31  C   UNL     1     -16.680  -6.000  31.713  1.00  0.00     0.243 C 
ATOM     32  H   UNL     1     -18.181  -4.743  32.582  1.00  0.00     0.164 HD
ATOM     33  O   UNL     1     -15.670  -6.009  30.956  1.00  0.00    -0.273 OA
BRANCH  31  34
ATOM     34  C   UNL     1     -17.342  -7.298  32.096  1.00  0.00     0.174 C 
ATOM     35  N   UNL     1     -16.425  -8.156  32.876  1.00  0.00    -0.329 N 
ATOM     36  C   UNL     1     -17.817  -8.022  30.825  1.00  0.00     0.035 C 
ATOM     37  C   UNL     1     -16.395  -9.606  32.631  1.00  0.00     0.120 C 
ATOM     38  C   UNL     1     -18.476  -9.373  31.152  1.00  0.00     0.004 C 
ATOM     39  C   UNL     1     -17.804 -10.122  32.322  1.00  0.00     0.022 C 
BRANCH  35  40
ATOM     40  C   UNL     1     -15.862  -7.654  34.100  1.00  0.00     0.246 CG0
ATOM     41  O   UNL     1     -16.606  -7.535  35.113  1.00  0.00    -0.272 OA
ATOM     42  G   UNL     1     -14.415  -7.210  34.175  1.00  0.00     0.000 G0
ENDBRANCH  35  40
ENDBRANCH  31  34
ENDBRANCH   2  30
ENDBRANCH   1   2
BRANCH   1  43
ATOM     43  C   UNL     1     -18.630  -2.279  32.524  1.00  0.00     0.003 C 
BRANCH  43  44
ATOM     44  C   UNL     1     -18.877  -1.039  33.391  1.00  0.00     0.001 C 
BRANCH  44  45
ATOM     45  C   UNL     1     -18.298  -1.233  34.800  1.00  0.00     0.008 C 
BRANCH  45  46
ATOM     46  C   UNL     1     -17.279  -0.139  35.160  1.00  0.00     0.075 C 
BRANCH  46  47
ATOM     47  C   UNL     1     -17.783   0.857  36.190  1.00  0.00     0.132 C 
ATOM     48  O   UNL     1     -17.828   2.045  35.907  1.00  0.00    -0.300 OA
BRANCH  47  49
ATOM     49  C   UNL     1     -18.175   0.453  37.595  1.00  0.00     0.072 C 
ATOM     50  C   UNL     1     -17.466  -0.793  38.127  1.00  0.00     0.012 C 
ENDBRANCH  47  49
ENDBRANCH  46  47
ENDBRANCH  45  46
ENDBRANCH  44  45
ENDBRANCH  43  44
ENDBRANCH   1  43
TORSDOF 12
ENDMDL
MODEL 8
REMARK VINA RESULT:    -3.581      2.172      6.960
REMARK INTER + INTRA:          -9.981
REMARK INTER:                  -7.731
REMARK INTRA:                  -2.250
REMARK UNBOUND:                -2.422
REMARK SMILES CCC(=O)CCCCC[C@@H]1NC(=O)[C@H]2CCCCN2C(=O)[C@H]([C@H](C)CC)NC(=O)[C@H](Cc2cn(OC)c3ccccc23)NC1=O
REMARK SMILES IDX 9 1 10 2 44 3 43 4 45 6 30 7 28 8 27 9 29 11 22 12 23 14
REMARK SMILES IDX 24 15 25 16 26 17 31 18 32 19 33 20 42 21 34 22 37 23 41 24
REMARK SMILES IDX 38 25 40 26 39 27 35 28 36 29 11 30 12 31 13 33 14 34 19 35
REMARK SMILES IDX 15 36 18 37 16 38 17 39 20 40 21 41 8 43 7 44 6 45 5 46 3 47
REMARK SMILES IDX 4 48 2 49 1 50
REMARK H PARENT 43 5 27 10 11 32
REMARK Flexibility Score: 80.00
ROOT
ATOM      1  C   UNL     1     -24.454  -2.640  28.698  1.00  0.00     0.035 C 
ENDROOT
BRANCH   1   2
ATOM      2  C   UNL     1     -24.256  -2.685  27.168  1.00  0.00     0.171 C 
BRANCH   2   3
ATOM      3  C   UNL     1     -25.452  -3.256  26.453  1.00  0.00     0.243 C 
ATOM      4  N   UNL     1     -25.333  -4.483  25.718  1.00  0.00    -0.342 N 
ATOM      5  H   UNL     1     -24.551  -5.130  25.970  1.00  0.00     0.164 HD
ATOM      6  O   UNL     1     -26.551  -2.643  26.496  1.00  0.00    -0.273 OA
BRANCH   4   7
ATOM      7  C   UNL     1     -26.046  -4.739  24.461  1.00  0.00     0.175 C 
BRANCH   7   8
ATOM      8  C   UNL     1     -25.930  -3.534  23.552  1.00  0.00     0.243 C 
ATOM      9  N   UNL     1     -26.950  -2.520  23.509  1.00  0.00    -0.342 N 
ATOM     10  H   UNL     1     -27.909  -2.748  23.855  1.00  0.00     0.164 HD
ATOM     11  O   UNL     1     -24.869  -3.384  22.886  1.00  0.00    -0.273 OA
BRANCH   9  12
ATOM     12  C   UNL     1     -26.755  -1.220  22.853  1.00  0.00     0.174 CG0
ATOM     13  G   UNL     1     -25.924  -0.345  23.769  1.00  0.00     0.000 G0
BRANCH  12  14
ATOM     14  C   UNL     1     -28.118  -0.532  22.500  1.00  0.00     0.018 C 
ATOM     15  C   UNL     1     -29.232  -0.863  23.513  1.00  0.00     0.010 C 
BRANCH  14  16
ATOM     16  C   UNL     1     -28.573  -0.936  21.073  1.00  0.00     0.002 C 
ATOM     17  C   UNL     1     -29.771  -1.887  21.070  1.00  0.00     0.004 C 
ENDBRANCH  14  16
ENDBRANCH  12  14
ENDBRANCH   9  12
ENDBRANCH   7   8
BRANCH   7  18
ATOM     18  C   UNL     1     -27.501  -5.193  24.694  1.00  0.00     0.073 C 
BRANCH  18  19
ATOM     19  C   UNL     1     -27.934  -6.187  23.656  1.00  0.00    -0.016 A 
ATOM     20  C   UNL     1     -28.940  -6.006  22.718  1.00  0.00     0.134 A 
ATOM     21  C   UNL     1     -27.471  -7.472  23.467  1.00  0.00     0.006 A 
ATOM     22  N   UNL     1     -29.082  -7.113  21.959  1.00  0.00    -0.191 N 
ATOM     23  C   UNL     1     -28.180  -8.020  22.420  1.00  0.00     0.087 A 
ATOM     24  C   UNL     1     -26.486  -8.185  24.154  1.00  0.00     0.011 A 
ATOM     25  C   UNL     1     -27.932  -9.339  22.006  1.00  0.00     0.030 A 
ATOM     26  C   UNL     1     -26.221  -9.499  23.745  1.00  0.00     0.001 A 
ATOM     27  C   UNL     1     -26.938 -10.072  22.678  1.00  0.00     0.002 A 
BRANCH  22  28
ATOM     28  O   UNL     1     -30.001  -7.182  20.922  1.00  0.00    -0.417 OA
ATOM     29  C   UNL     1     -31.403  -7.343  21.091  1.00  0.00     0.313 C 
ENDBRANCH  22  28
ENDBRANCH  18  19
ENDBRANCH   7  18
ENDBRANCH   4   7
ENDBRANCH   2   3
BRANCH   2  30
ATOM     30  N   UNL     1     -23.939  -1.363  26.617  1.00  0.00    -0.343 N 
ATOM     31  C   UNL     1     -23.439  -1.220  25.279  1.00  0.00     0.243 C 
ATOM     32  H   UNL     1     -24.176  -0.499  27.156  1.00  0.00     0.164 HD
ATOM     33  O   UNL     1     -22.866  -2.192  24.714  1.00  0.00    -0.273 OA
BRANCH  31  34
ATOM     34  C   UNL     1     -23.561   0.099  24.562  1.00  0.00     0.174 C 
ATOM     35  N   UNL     1     -24.557   0.025  23.472  1.00  0.00    -0.329 N 
ATOM     36  C   UNL     1     -22.184   0.511  24.014  1.00  0.00     0.035 C 
ATOM     37  C   UNL     1     -24.289   0.693  22.190  1.00  0.00     0.120 C 
ATOM     38  C   UNL     1     -22.253   1.840  23.242  1.00  0.00     0.004 C 
ATOM     39  C   UNL     1     -23.549   2.014  22.423  1.00  0.00     0.022 C 
BRANCH  35  40
ATOM     40  C   UNL     1     -25.910  -0.354  23.780  1.00  0.00     0.246 CG0
ATOM     41  O   UNL     1     -26.402  -0.017  24.893  1.00  0.00    -0.272 OA
ATOM     42  G   UNL     1     -26.726  -1.199  22.823  1.00  0.00     0.000 G0
ENDBRANCH  35  40
ENDBRANCH  31  34
ENDBRANCH   2  30
ENDBRANCH   1   2
BRANCH   1  43
ATOM     43  C   UNL     1     -24.118  -3.956  29.423  1.00  0.00     0.003 C 
BRANCH  43  44
ATOM     44  C   UNL     1     -23.021  -4.729  28.682  1.00  0.00     0.001 C 
BRANCH  44  45
ATOM     45  C   UNL     1     -22.710  -6.054  29.393  1.00  0.00     0.008 C 
BRANCH  45  46
ATOM     46  C   UNL     1     -21.795  -6.958  28.552  1.00  0.00     0.075 C 
BRANCH  46  47
ATOM     47  C   UNL     1     -22.445  -8.262  28.121  1.00  0.00     0.132 C 
ATOM     48  O   UNL     1     -22.638  -9.141  28.947  1.00  0.00    -0.300 OA
BRANCH  47  49
ATOM     49  C   UNL     1     -22.808  -8.557  26.682  1.00  0.00     0.072 C 
ATOM     50  C   UNL     1     -23.544  -7.429  25.959  1.00  0.00     0.012 C 
ENDBRANCH  47  49
ENDBRANCH  46  47
ENDBRANCH  45  46
ENDBRANCH  44  45
ENDBRANCH  43  44
ENDBRANCH   1  43
TORSDOF 12
ENDMDL
MODEL 9
REMARK VINA RESULT:    -3.406      1.938      6.372
REMARK INTER + INTRA:          -9.611
REMARK INTER:                  -8.583
REMARK INTRA:                  -1.028
REMARK UNBOUND:                -2.422
REMARK SMILES CCC(=O)CCCCC[C@@H]1NC(=O)[C@H]2CCCCN2C(=O)[C@H]([C@H](C)CC)NC(=O)[C@H](Cc2cn(OC)c3ccccc23)NC1=O
REMARK SMILES IDX 9 1 10 2 44 3 43 4 45 6 30 7 28 8 27 9 29 11 22 12 23 14
REMARK SMILES IDX 24 15 25 16 26 17 31 18 32 19 33 20 42 21 34 22 37 23 41 24
REMARK SMILES IDX 38 25 40 26 39 27 35 28 36 29 11 30 12 31 13 33 14 34 19 35
REMARK SMILES IDX 15 36 18 37 16 38 17 39 20 40 21 41 8 43 7 44 6 45 5 46 3 47
REMARK SMILES IDX 4 48 2 49 1 50
REMARK H PARENT 43 5 27 10 11 32
REMARK Flexibility Score: 80.00
ROOT
ATOM      1  C   UNL     1     -26.786  -6.357  22.312  1.00  0.00     0.035 C 
ENDROOT
BRANCH   1   2
ATOM      2  C   UNL     1     -26.916  -5.399  23.515  1.00  0.00     0.171 C 
BRANCH   2   3
ATOM      3  C   UNL     1     -25.589  -5.121  24.171  1.00  0.00     0.243 C 
ATOM      4  N   UNL     1     -25.357  -5.528  25.527  1.00  0.00    -0.342 N 
ATOM      5  H   UNL     1     -25.949  -6.297  25.915  1.00  0.00     0.164 HD
ATOM      6  O   UNL     1     -24.691  -4.520  23.524  1.00  0.00    -0.273 OA
BRANCH   4   7
ATOM      7  C   UNL     1     -24.560  -4.741  26.477  1.00  0.00     0.175 C 
BRANCH   7   8
ATOM      8  C   UNL     1     -24.839  -3.267  26.281  1.00  0.00     0.243 C 
ATOM      9  N   UNL     1     -24.472  -2.583  25.070  1.00  0.00    -0.342 N 
ATOM     10  H   UNL     1     -23.741  -3.002  24.451  1.00  0.00     0.164 HD
ATOM     11  O   UNL     1     -25.488  -2.654  27.174  1.00  0.00    -0.273 OA
BRANCH   9  12
ATOM     12  C   UNL     1     -24.957  -1.238  24.734  1.00  0.00     0.174 CG0
ATOM     13  G   UNL     1     -26.190  -1.381  23.865  1.00  0.00     0.000 G0
BRANCH  12  14
ATOM     14  C   UNL     1     -23.859  -0.381  24.017  1.00  0.00     0.018 C 
ATOM     15  C   UNL     1     -22.452  -0.599  24.608  1.00  0.00     0.010 C 
BRANCH  14  16
ATOM     16  C   UNL     1     -24.222   1.125  24.079  1.00  0.00     0.002 C 
ATOM     17  C   UNL     1     -23.006   2.031  24.274  1.00  0.00     0.004 C 
ENDBRANCH  14  16
ENDBRANCH  12  14
ENDBRANCH   9  12
ENDBRANCH   7   8
BRANCH   7  18
ATOM     18  C   UNL     1     -23.061  -5.094  26.418  1.00  0.00     0.073 C 
BRANCH  18  19
ATOM     19  C   UNL     1     -22.837  -6.561  26.648  1.00  0.00    -0.016 A 
ATOM     20  C   UNL     1     -23.094  -7.580  25.744  1.00  0.00     0.134 A 
ATOM     21  C   UNL     1     -22.397  -7.181  27.799  1.00  0.00     0.006 A 
ATOM     22  N   UNL     1     -22.803  -8.780  26.290  1.00  0.00    -0.191 N 
ATOM     23  C   UNL     1     -22.376  -8.538  27.557  1.00  0.00     0.087 A 
ATOM     24  C   UNL     1     -22.029  -6.637  29.031  1.00  0.00     0.011 A 
ATOM     25  C   UNL     1     -21.979  -9.433  28.565  1.00  0.00     0.030 A 
ATOM     26  C   UNL     1     -21.621  -7.519  30.043  1.00  0.00     0.001 A 
ATOM     27  C   UNL     1     -21.595  -8.907  29.811  1.00  0.00     0.002 A 
BRANCH  22  28
ATOM     28  O   UNL     1     -22.940  -9.964  25.580  1.00  0.00    -0.417 OA
ATOM     29  C   UNL     1     -23.649 -10.098  24.356  1.00  0.00     0.313 C 
ENDBRANCH  22  28
ENDBRANCH  18  19
ENDBRANCH   7  18
ENDBRANCH   4   7
ENDBRANCH   2   3
BRANCH   2  30
ATOM     30  N   UNL     1     -27.554  -4.132  23.141  1.00  0.00    -0.343 N 
ATOM     31  C   UNL     1     -28.387  -3.422  24.070  1.00  0.00     0.243 C 
ATOM     32  H   UNL     1     -27.322  -3.676  22.229  1.00  0.00     0.164 HD
ATOM     33  O   UNL     1     -28.932  -4.038  25.027  1.00  0.00    -0.273 OA
BRANCH  31  34
ATOM     34  C   UNL     1     -28.646  -1.949  23.882  1.00  0.00     0.174 C 
ATOM     35  N   UNL     1     -27.519  -1.139  24.389  1.00  0.00    -0.329 N 
ATOM     36  C   UNL     1     -29.956  -1.567  24.593  1.00  0.00     0.035 C 
ATOM     37  C   UNL     1     -27.786   0.108  25.120  1.00  0.00     0.120 C 
ATOM     38  C   UNL     1     -30.256  -0.065  24.461  1.00  0.00     0.004 C 
ATOM     39  C   UNL     1     -28.999   0.827  24.521  1.00  0.00     0.022 C 
BRANCH  35  40
ATOM     40  C   UNL     1     -26.202  -1.354  23.853  1.00  0.00     0.246 CG0
ATOM     41  O   UNL     1     -26.078  -1.663  22.635  1.00  0.00    -0.272 OA
ATOM     42  G   UNL     1     -24.972  -1.275  24.736  1.00  0.00     0.000 G0
ENDBRANCH  35  40
ENDBRANCH  31  34
ENDBRANCH   2  30
ENDBRANCH   1   2
BRANCH   1  43
ATOM     43  C   UNL     1     -27.183  -7.814  22.612  1.00  0.00     0.003 C 
BRANCH  43  44
ATOM     44  C   UNL     1     -27.582  -8.551  21.330  1.00  0.00     0.001 C 
BRANCH  44  45
ATOM     45  C   UNL     1     -28.990  -8.140  20.878  1.00  0.00     0.008 C 
BRANCH  45  46
ATOM     46  C   UNL     1     -30.071  -9.088  21.423  1.00  0.00     0.075 C 
BRANCH  46  47
ATOM     47  C   UNL     1     -31.037  -8.428  22.392  1.00  0.00     0.132 C 
ATOM     48  O   UNL     1     -31.981  -9.067  22.831  1.00  0.00    -0.300 OA
BRANCH  47  49
ATOM     49  C   UNL     1     -30.924  -6.973  22.795  1.00  0.00     0.072 C 
ATOM     50  C   UNL     1     -30.421  -6.736  24.219  1.00  0.00     0.012 C 
ENDBRANCH  47  49
ENDBRANCH  46  47
ENDBRANCH  45  46
ENDBRANCH  44  45
ENDBRANCH  43  44
ENDBRANCH   1  43
TORSDOF 12
ENDMDL
