MODEL 1
REMARK VINA RESULT:    -6.082      0.000      0.000
REMARK INTER + INTRA:         -12.554
REMARK INTER:                 -10.526
REMARK INTRA:                  -2.028
REMARK UNBOUND:                -2.028
REMARK SMILES OC[C@@H]1O[C@@H](O[C@@H]2[C@H](O)[C@@H](O)[C@H](O[C@H]3[C@@H](O)[C@@H](O)[C@@H](O)O[C@@H]3CO)O[C@H]2CO)[C@H](O)[C@H](O)[C@@H]1O
REMARK SMILES IDX 7 1 26 2 25 3 12 4 10 5 8 6 6 7 5 8 3 9 33 10 4 11 31 12
REMARK SMILES IDX 29 13 2 14 1 15 34 17 32 19 30 21 27 23 28 24 9 26 11 28
REMARK SMILES IDX 13 30 14 31 22 32 15 33 21 34 17 35 19 36 23 37 24 38 16 40
REMARK SMILES IDX 18 42 20 44
REMARK H PARENT 1 16 34 18 32 20 30 22 28 25 9 27 11 29 24 39 16 41 18 43
REMARK H PARENT 20 45
REMARK Flexibility Score: inf
ROOT
ATOM      1  C   UNL     1      19.621   1.784 -14.760  1.00  0.00     0.184 C 
ATOM      2  C   UNL     1      20.043   2.034 -13.289  1.00  0.00     0.178 C 
ATOM      3  O   UNL     1      19.126   1.555 -12.317  1.00  0.00    -0.341 OA
ATOM      4  C   UNL     1      17.762   1.484 -12.709  1.00  0.00     0.282 C 
ATOM      5  C   UNL     1      17.384   2.552 -13.757  1.00  0.00     0.202 C 
ATOM      6  C   UNL     1      18.225   2.398 -15.044  1.00  0.00     0.180 C 
ENDROOT
BRANCH   1   7
ATOM      7  O   UNL     1      20.586   2.387 -15.611  1.00  0.00    -0.341 OA
BRANCH   7   8
ATOM      8  C   UNL     1      20.953   1.616 -16.744  1.00  0.00     0.282 C 
ATOM      9  C   UNL     1      20.224   1.215 -18.967  1.00  0.00     0.178 C 
ATOM     10  C   UNL     1      19.850  -0.277 -18.704  1.00  0.00     0.177 C 
ATOM     11  O   UNL     1      20.083   2.011 -17.802  1.00  0.00    -0.341 OA
ATOM     12  C   UNL     1      19.686  -0.558 -17.190  1.00  0.00     0.179 C 
ATOM     13  C   UNL     1      20.793   0.115 -16.362  1.00  0.00     0.202 C 
BRANCH   9  14
ATOM     14  C   UNL     1      21.567   1.473 -19.686  1.00  0.00     0.191 C 
BRANCH  14  15
ATOM     15  O   UNL     1      21.380   2.410 -20.711  1.00  0.00    -0.394 OA
ATOM     16  H   UNL     1      20.431   2.334 -20.982  1.00  0.00     0.210 HD
ENDBRANCH  14  15
ENDBRANCH   9  14
BRANCH  10  17
ATOM     17  O   UNL     1      20.718  -1.184 -19.345  1.00  0.00    -0.387 OA
ATOM     18  H   UNL     1      21.593  -1.172 -18.877  1.00  0.00     0.211 HD
ENDBRANCH  10  17
BRANCH  12  19
ATOM     19  O   UNL     1      19.653  -1.934 -16.928  1.00  0.00    -0.387 OA
ATOM     20  H   UNL     1      19.605  -2.037 -15.944  1.00  0.00     0.211 HD
ENDBRANCH  12  19
BRANCH  13  21
ATOM     21  O   UNL     1      22.019  -0.551 -16.533  1.00  0.00    -0.385 OA
ATOM     22  H   UNL     1      22.595   0.027 -17.096  1.00  0.00     0.211 HD
ENDBRANCH  13  21
ENDBRANCH   7   8
ENDBRANCH   1   7
BRANCH   2  23
ATOM     23  C   UNL     1      21.405   1.399 -12.997  1.00  0.00     0.191 C 
BRANCH  23  24
ATOM     24  O   UNL     1      22.432   2.176 -13.550  1.00  0.00    -0.394 OA
ATOM     25  H   UNL     1      22.261   2.194 -14.529  1.00  0.00     0.210 HD
ENDBRANCH  23  24
ENDBRANCH   2  23
BRANCH   6  26
ATOM     26  O   UNL     1      18.316   3.640 -15.710  1.00  0.00    -0.387 OA
ATOM     27  H   UNL     1      18.953   3.537 -16.466  1.00  0.00     0.211 HD
ENDBRANCH   6  26
BRANCH   5  28
ATOM     28  O   UNL     1      16.014   2.503 -14.060  1.00  0.00    -0.385 OA
ATOM     29  H   UNL     1      15.584   3.296 -13.640  1.00  0.00     0.211 HD
ENDBRANCH   5  28
BRANCH   4  30
ATOM     30  O   UNL     1      16.959   1.711 -11.563  1.00  0.00    -0.341 OA
BRANCH  30  31
ATOM     31  C   UNL     1      16.464   0.515 -10.974  1.00  0.00     0.184 C 
ATOM     32  C   UNL     1      15.048   0.809 -10.405  1.00  0.00     0.178 C 
ATOM     33  C   UNL     1      17.407  -0.005  -9.846  1.00  0.00     0.180 C 
ATOM     34  O   UNL     1      14.524  -0.302  -9.692  1.00  0.00    -0.342 OA
ATOM     35  C   UNL     1      16.711  -1.065  -8.975  1.00  0.00     0.201 C 
ATOM     36  C   UNL     1      15.305  -0.608  -8.549  1.00  0.00     0.279 C 
BRANCH  32  37
ATOM     37  C   UNL     1      14.060   1.155 -11.523  1.00  0.00     0.191 C 
BRANCH  37  38
ATOM     38  O   UNL     1      14.286   2.471 -11.945  1.00  0.00    -0.394 OA
ATOM     39  H   UNL     1      13.641   3.039 -11.451  1.00  0.00     0.210 HD
ENDBRANCH  37  38
ENDBRANCH  32  37
BRANCH  33  40
ATOM     40  O   UNL     1      17.937   1.033  -9.058  1.00  0.00    -0.387 OA
ATOM     41  H   UNL     1      18.638   1.503  -9.573  1.00  0.00     0.211 HD
ENDBRANCH  33  40
BRANCH  35  42
ATOM     42  O   UNL     1      17.503  -1.437  -7.877  1.00  0.00    -0.385 OA
ATOM     43  H   UNL     1      17.861  -2.349  -8.044  1.00  0.00     0.211 HD
ENDBRANCH  35  42
BRANCH  36  44
ATOM     44  O   UNL     1      15.362   0.480  -7.653  1.00  0.00    -0.366 OA
ATOM     45  H   UNL     1      16.307   0.783  -7.640  1.00  0.00     0.213 HD
ENDBRANCH  36  44
ENDBRANCH  30  31
ENDBRANCH   4  30
TORSDOF 18
ENDMDL
MODEL 2
REMARK VINA RESULT:    -6.047      3.518      6.328
REMARK INTER + INTRA:         -12.494
REMARK INTER:                 -10.547
REMARK INTRA:                  -1.947
REMARK UNBOUND:                -2.028
REMARK SMILES OC[C@@H]1O[C@@H](O[C@@H]2[C@H](O)[C@@H](O)[C@H](O[C@H]3[C@@H](O)[C@@H](O)[C@@H](O)O[C@@H]3CO)O[C@H]2CO)[C@H](O)[C@H](O)[C@@H]1O
REMARK SMILES IDX 7 1 26 2 25 3 12 4 10 5 8 6 6 7 5 8 3 9 33 10 4 11 31 12
REMARK SMILES IDX 29 13 2 14 1 15 34 17 32 19 30 21 27 23 28 24 9 26 11 28
REMARK SMILES IDX 13 30 14 31 22 32 15 33 21 34 17 35 19 36 23 37 24 38 16 40
REMARK SMILES IDX 18 42 20 44
REMARK H PARENT 1 16 34 18 32 20 30 22 28 25 9 27 11 29 24 39 16 41 18 43
REMARK H PARENT 20 45
REMARK Flexibility Score: inf
ROOT
ATOM      1  C   UNL     1      17.220   2.151 -13.473  1.00  0.00     0.184 C 
ATOM      2  C   UNL     1      15.893   1.736 -12.787  1.00  0.00     0.178 C 
ATOM      3  O   UNL     1      15.068   0.875 -13.557  1.00  0.00    -0.341 OA
ATOM      4  C   UNL     1      15.188   0.975 -14.969  1.00  0.00     0.282 C 
ATOM      5  C   UNL     1      15.583   2.391 -15.438  1.00  0.00     0.202 C 
ATOM      6  C   UNL     1      16.944   2.819 -14.846  1.00  0.00     0.180 C 
ENDROOT
BRANCH   1   7
ATOM      7  O   UNL     1      17.895   3.071 -12.625  1.00  0.00    -0.341 OA
BRANCH   7   8
ATOM      8  C   UNL     1      19.279   2.818 -12.446  1.00  0.00     0.282 C 
ATOM      9  C   UNL     1      20.842   1.053 -12.722  1.00  0.00     0.178 C 
ATOM     10  C   UNL     1      21.136   0.913 -11.196  1.00  0.00     0.177 C 
ATOM     11  O   UNL     1      19.524   1.515 -12.968  1.00  0.00    -0.341 OA
ATOM     12  C   UNL     1      20.019   1.567 -10.345  1.00  0.00     0.179 C 
ATOM     13  C   UNL     1      19.582   2.922 -10.923  1.00  0.00     0.202 C 
BRANCH   9  14
ATOM     14  C   UNL     1      21.890   1.820 -13.558  1.00  0.00     0.191 C 
BRANCH  14  15
ATOM     15  O   UNL     1      23.142   1.204 -13.426  1.00  0.00    -0.394 OA
ATOM     16  H   UNL     1      23.316   0.750 -14.288  1.00  0.00     0.210 HD
ENDBRANCH  14  15
ENDBRANCH   9  14
BRANCH  10  17
ATOM     17  O   UNL     1      22.429   1.348 -10.841  1.00  0.00    -0.387 OA
ATOM     18  H   UNL     1      22.845   0.665 -10.254  1.00  0.00     0.211 HD
ENDBRANCH  10  17
BRANCH  12  19
ATOM     19  O   UNL     1      20.417   1.713  -9.009  1.00  0.00    -0.387 OA
ATOM     20  H   UNL     1      20.868   0.871  -8.751  1.00  0.00     0.211 HD
ENDBRANCH  12  19
BRANCH  13  21
ATOM     21  O   UNL     1      20.567   3.900 -10.701  1.00  0.00    -0.385 OA
ATOM     22  H   UNL     1      20.101   4.758 -10.532  1.00  0.00     0.211 HD
ENDBRANCH  13  21
ENDBRANCH   7   8
ENDBRANCH   1   7
BRANCH   2  23
ATOM     23  C   UNL     1      16.165   1.045 -11.448  1.00  0.00     0.191 C 
BRANCH  23  24
ATOM     24  O   UNL     1      16.192   1.989 -10.411  1.00  0.00    -0.394 OA
ATOM     25  H   UNL     1      15.300   2.427 -10.420  1.00  0.00     0.210 HD
ENDBRANCH  23  24
ENDBRANCH   2  23
BRANCH   6  26
ATOM     26  O   UNL     1      17.016   4.228 -14.775  1.00  0.00    -0.387 OA
ATOM     27  H   UNL     1      16.575   4.600 -15.584  1.00  0.00     0.211 HD
ENDBRANCH   6  26
BRANCH   5  28
ATOM     28  O   UNL     1      15.614   2.471 -16.840  1.00  0.00    -0.385 OA
ATOM     29  H   UNL     1      16.477   2.080 -17.145  1.00  0.00     0.211 HD
ENDBRANCH   5  28
BRANCH   4  30
ATOM     30  O   UNL     1      13.927   0.673 -15.543  1.00  0.00    -0.341 OA
BRANCH  30  31
ATOM     31  C   UNL     1      13.042   0.010 -14.649  1.00  0.00     0.184 C 
ATOM     32  C   UNL     1      12.649  -1.353 -15.283  1.00  0.00     0.178 C 
ATOM     33  C   UNL     1      11.769   0.864 -14.359  1.00  0.00     0.180 C 
ATOM     34  O   UNL     1      11.671  -2.032 -14.508  1.00  0.00    -0.342 OA
ATOM     35  C   UNL     1      10.663   0.021 -13.702  1.00  0.00     0.201 C 
ATOM     36  C   UNL     1      10.453  -1.309 -14.448  1.00  0.00     0.279 C 
BRANCH  32  37
ATOM     37  C   UNL     1      13.865  -2.276 -15.416  1.00  0.00     0.191 C 
BRANCH  37  38
ATOM     38  O   UNL     1      14.516  -2.006 -16.625  1.00  0.00    -0.394 OA
ATOM     39  H   UNL     1      15.457  -1.798 -16.396  1.00  0.00     0.210 HD
ENDBRANCH  37  38
ENDBRANCH  32  37
BRANCH  33  40
ATOM     40  O   UNL     1      11.290   1.531 -15.501  1.00  0.00    -0.387 OA
ATOM     41  H   UNL     1      11.899   1.351 -16.259  1.00  0.00     0.211 HD
ENDBRANCH  33  40
BRANCH  35  42
ATOM     42  O   UNL     1       9.469   0.746 -13.566  1.00  0.00    -0.385 OA
ATOM     43  H   UNL     1       9.585   1.626 -14.014  1.00  0.00     0.211 HD
ENDBRANCH  35  42
BRANCH  36  44
ATOM     44  O   UNL     1       9.907  -1.104 -15.732  1.00  0.00    -0.366 OA
ATOM     45  H   UNL     1       9.084  -1.656 -15.779  1.00  0.00     0.213 HD
ENDBRANCH  36  44
ENDBRANCH  30  31
ENDBRANCH   4  30
TORSDOF 18
ENDMDL
MODEL 3
REMARK VINA RESULT:    -6.020      1.924      8.743
REMARK INTER + INTRA:         -12.446
REMARK INTER:                 -10.435
REMARK INTRA:                  -2.011
REMARK UNBOUND:                -2.028
REMARK SMILES OC[C@@H]1O[C@@H](O[C@@H]2[C@H](O)[C@@H](O)[C@H](O[C@H]3[C@@H](O)[C@@H](O)[C@@H](O)O[C@@H]3CO)O[C@H]2CO)[C@H](O)[C@H](O)[C@@H]1O
REMARK SMILES IDX 7 1 26 2 25 3 12 4 10 5 8 6 6 7 5 8 3 9 33 10 4 11 31 12
REMARK SMILES IDX 29 13 2 14 1 15 34 17 32 19 30 21 27 23 28 24 9 26 11 28
REMARK SMILES IDX 13 30 14 31 22 32 15 33 21 34 17 35 19 36 23 37 24 38 16 40
REMARK SMILES IDX 18 42 20 44
REMARK H PARENT 1 16 34 18 32 20 30 22 28 25 9 27 11 29 24 39 16 41 18 43
REMARK H PARENT 20 45
REMARK Flexibility Score: inf
ROOT
ATOM      1  C   UNL     1      16.388   2.274 -12.560  1.00  0.00     0.184 C 
ATOM      2  C   UNL     1      16.021   2.460 -14.055  1.00  0.00     0.178 C 
ATOM      3  O   UNL     1      16.781   1.672 -14.958  1.00  0.00    -0.341 OA
ATOM      4  C   UNL     1      18.091   1.313 -14.542  1.00  0.00     0.282 C 
ATOM      5  C   UNL     1      18.732   2.362 -13.608  1.00  0.00     0.202 C 
ATOM      6  C   UNL     1      17.896   2.556 -12.324  1.00  0.00     0.180 C 
ENDROOT
BRANCH   1   7
ATOM      7  O   UNL     1      15.610   3.181 -11.791  1.00  0.00    -0.341 OA
BRANCH   7   8
ATOM      8  C   UNL     1      15.120   2.661 -10.565  1.00  0.00     0.282 C 
ATOM      9  C   UNL     1      15.810   2.409  -8.308  1.00  0.00     0.178 C 
ATOM     10  C   UNL     1      15.850   0.851  -8.368  1.00  0.00     0.177 C 
ATOM     11  O   UNL     1      16.083   2.996  -9.570  1.00  0.00    -0.341 OA
ATOM     12  C   UNL     1      15.908   0.345  -9.831  1.00  0.00     0.179 C 
ATOM     13  C   UNL     1      14.947   1.125 -10.742  1.00  0.00     0.202 C 
BRANCH   9  14
ATOM     14  C   UNL     1      14.573   3.041  -7.632  1.00  0.00     0.191 C 
BRANCH  14  15
ATOM     15  O   UNL     1      14.588   2.756  -6.259  1.00  0.00    -0.394 OA
ATOM     16  H   UNL     1      15.455   3.092  -5.920  1.00  0.00     0.210 HD
ENDBRANCH  14  15
ENDBRANCH   9  14
BRANCH  10  17
ATOM     17  O   UNL     1      14.828   0.243  -7.612  1.00  0.00    -0.387 OA
ATOM     18  H   UNL     1      14.796   0.670  -6.717  1.00  0.00     0.211 HD
ENDBRANCH  10  17
BRANCH  12  19
ATOM     19  O   UNL     1      15.641  -1.029  -9.905  1.00  0.00    -0.387 OA
ATOM     20  H   UNL     1      16.381  -1.490  -9.435  1.00  0.00     0.211 HD
ENDBRANCH  12  19
BRANCH  13  21
ATOM     21  O   UNL     1      13.613   0.765 -10.484  1.00  0.00    -0.385 OA
ATOM     22  H   UNL     1      13.136   0.751 -11.353  1.00  0.00     0.211 HD
ENDBRANCH  13  21
ENDBRANCH   7   8
ENDBRANCH   1   7
BRANCH   2  23
ATOM     23  C   UNL     1      14.542   2.149 -14.296  1.00  0.00     0.191 C 
BRANCH  23  24
ATOM     24  O   UNL     1      14.113   2.727 -15.500  1.00  0.00    -0.394 OA
ATOM     25  H   UNL     1      13.311   2.210 -15.778  1.00  0.00     0.210 HD
ENDBRANCH  23  24
ENDBRANCH   2  23
BRANCH   6  26
ATOM     26  O   UNL     1      18.118   3.846 -11.795  1.00  0.00    -0.387 OA
ATOM     27  H   UNL     1      18.762   3.763 -11.043  1.00  0.00     0.211 HD
ENDBRANCH   6  26
BRANCH   5  28
ATOM     28  O   UNL     1      20.052   2.013 -13.283  1.00  0.00    -0.385 OA
ATOM     29  H   UNL     1      20.645   2.387 -13.990  1.00  0.00     0.211 HD
ENDBRANCH   5  28
BRANCH   4  30
ATOM     30  O   UNL     1      18.911   1.214 -15.695  1.00  0.00    -0.341 OA
BRANCH  30  31
ATOM     31  C   UNL     1      19.105  -0.124 -16.138  1.00  0.00     0.184 C 
ATOM     32  C   UNL     1      20.580  -0.266 -16.606  1.00  0.00     0.178 C 
ATOM     33  C   UNL     1      18.127  -0.496 -17.294  1.00  0.00     0.180 C 
ATOM     34  O   UNL     1      20.831  -1.543 -17.177  1.00  0.00    -0.342 OA
ATOM     35  C   UNL     1      18.567  -1.784 -18.011  1.00  0.00     0.201 C 
ATOM     36  C   UNL     1      20.067  -1.753 -18.352  1.00  0.00     0.279 C 
BRANCH  32  37
ATOM     37  C   UNL     1      21.555  -0.074 -15.440  1.00  0.00     0.191 C 
BRANCH  37  38
ATOM     38  O   UNL     1      20.978  -0.582 -14.270  1.00  0.00    -0.394 OA
ATOM     39  H   UNL     1      21.494  -1.393 -14.032  1.00  0.00     0.210 HD
ENDBRANCH  37  38
ENDBRANCH  32  37
BRANCH  33  40
ATOM     40  O   UNL     1      17.940   0.557 -18.208  1.00  0.00    -0.387 OA
ATOM     41  H   UNL     1      17.221   1.148 -17.877  1.00  0.00     0.211 HD
ENDBRANCH  33  40
BRANCH  35  42
ATOM     42  O   UNL     1      17.773  -2.049 -19.138  1.00  0.00    -0.385 OA
ATOM     43  H   UNL     1      18.374  -2.180 -19.919  1.00  0.00     0.211 HD
ENDBRANCH  35  42
BRANCH  36  44
ATOM     44  O   UNL     1      20.355  -0.786 -19.338  1.00  0.00    -0.366 OA
ATOM     45  H   UNL     1      21.208  -1.064 -19.763  1.00  0.00     0.213 HD
ENDBRANCH  36  44
ENDBRANCH  30  31
ENDBRANCH   4  30
TORSDOF 18
ENDMDL
MODEL 4
REMARK VINA RESULT:    -5.954      1.886      2.836
REMARK INTER + INTRA:         -12.333
REMARK INTER:                 -10.432
REMARK INTRA:                  -1.901
REMARK UNBOUND:                -2.028
REMARK SMILES OC[C@@H]1O[C@@H](O[C@@H]2[C@H](O)[C@@H](O)[C@H](O[C@H]3[C@@H](O)[C@@H](O)[C@@H](O)O[C@@H]3CO)O[C@H]2CO)[C@H](O)[C@H](O)[C@@H]1O
REMARK SMILES IDX 7 1 26 2 25 3 12 4 10 5 8 6 6 7 5 8 3 9 33 10 4 11 31 12
REMARK SMILES IDX 29 13 2 14 1 15 34 17 32 19 30 21 27 23 28 24 9 26 11 28
REMARK SMILES IDX 13 30 14 31 22 32 15 33 21 34 17 35 19 36 23 37 24 38 16 40
REMARK SMILES IDX 18 42 20 44
REMARK H PARENT 1 16 34 18 32 20 30 22 28 25 9 27 11 29 24 39 16 41 18 43
REMARK H PARENT 20 45
REMARK Flexibility Score: inf
ROOT
ATOM      1  C   UNL     1      17.342   2.347 -15.445  1.00  0.00     0.184 C 
ATOM      2  C   UNL     1      16.845   3.417 -14.438  1.00  0.00     0.178 C 
ATOM      3  O   UNL     1      16.493   2.913 -13.159  1.00  0.00    -0.341 OA
ATOM      4  C   UNL     1      16.049   1.564 -13.107  1.00  0.00     0.282 C 
ATOM      5  C   UNL     1      15.343   1.115 -14.404  1.00  0.00     0.202 C 
ATOM      6  C   UNL     1      16.284   1.226 -15.623  1.00  0.00     0.180 C 
ENDROOT
BRANCH   1   7
ATOM      7  O   UNL     1      17.575   2.982 -16.694  1.00  0.00    -0.341 OA
BRANCH   7   8
ATOM      8  C   UNL     1      18.853   2.739 -17.262  1.00  0.00     0.282 C 
ATOM      9  C   UNL     1      19.834   1.503 -19.035  1.00  0.00     0.178 C 
ATOM     10  C   UNL     1      20.634   0.553 -18.091  1.00  0.00     0.177 C 
ATOM     11  O   UNL     1      18.633   1.960 -18.435  1.00  0.00    -0.341 OA
ATOM     12  C   UNL     1      20.054   0.569 -16.654  1.00  0.00     0.179 C 
ATOM     13  C   UNL     1      19.706   1.994 -16.196  1.00  0.00     0.202 C 
BRANCH   9  14
ATOM     14  C   UNL     1      20.630   2.655 -19.688  1.00  0.00     0.191 C 
BRANCH  14  15
ATOM     15  O   UNL     1      21.399   2.155 -20.748  1.00  0.00    -0.394 OA
ATOM     16  H   UNL     1      22.063   1.546 -20.340  1.00  0.00     0.210 HD
ENDBRANCH  14  15
ENDBRANCH   9  14
BRANCH  10  17
ATOM     17  O   UNL     1      22.024   0.778 -18.129  1.00  0.00    -0.387 OA
ATOM     18  H   UNL     1      22.225   1.402 -18.875  1.00  0.00     0.211 HD
ENDBRANCH  10  17
BRANCH  12  19
ATOM     19  O   UNL     1      20.934  -0.033 -15.744  1.00  0.00    -0.387 OA
ATOM     20  H   UNL     1      21.826   0.366 -15.902  1.00  0.00     0.211 HD
ENDBRANCH  12  19
BRANCH  13  21
ATOM     21  O   UNL     1      20.873   2.729 -15.923  1.00  0.00    -0.385 OA
ATOM     22  H   UNL     1      21.642   2.201 -16.259  1.00  0.00     0.211 HD
ENDBRANCH  13  21
ENDBRANCH   7   8
ENDBRANCH   1   7
BRANCH   2  23
ATOM     23  C   UNL     1      17.902   4.506 -14.234  1.00  0.00     0.191 C 
BRANCH  23  24
ATOM     24  O   UNL     1      17.945   4.895 -12.888  1.00  0.00    -0.394 OA
ATOM     25  H   UNL     1      18.596   5.645 -12.843  1.00  0.00     0.210 HD
ENDBRANCH  23  24
ENDBRANCH   2  23
BRANCH   6  26
ATOM     26  O   UNL     1      15.526   1.393 -16.803  1.00  0.00    -0.387 OA
ATOM     27  H   UNL     1      15.744   0.643 -17.417  1.00  0.00     0.211 HD
ENDBRANCH   6  26
BRANCH   5  28
ATOM     28  O   UNL     1      14.849  -0.194 -14.285  1.00  0.00    -0.385 OA
ATOM     29  H   UNL     1      13.901  -0.187 -14.589  1.00  0.00     0.211 HD
ENDBRANCH   5  28
BRANCH   4  30
ATOM     30  O   UNL     1      15.112   1.447 -12.050  1.00  0.00    -0.341 OA
BRANCH  30  31
ATOM     31  C   UNL     1      15.714   1.234 -10.779  1.00  0.00     0.184 C 
ATOM     32  C   UNL     1      14.883   0.159 -10.025  1.00  0.00     0.178 C 
ATOM     33  C   UNL     1      15.785   2.551  -9.947  1.00  0.00     0.180 C 
ATOM     34  O   UNL     1      15.347  -0.030  -8.696  1.00  0.00    -0.342 OA
ATOM     35  C   UNL     1      16.091   2.266  -8.467  1.00  0.00     0.201 C 
ATOM     36  C   UNL     1      15.196   1.143  -7.914  1.00  0.00     0.279 C 
BRANCH  32  37
ATOM     37  C   UNL     1      14.944  -1.194 -10.740  1.00  0.00     0.191 C 
BRANCH  37  38
ATOM     38  O   UNL     1      13.925  -1.255 -11.698  1.00  0.00    -0.394 OA
ATOM     39  H   UNL     1      13.409  -0.413 -11.612  1.00  0.00     0.210 HD
ENDBRANCH  37  38
ENDBRANCH  32  37
BRANCH  33  40
ATOM     40  O   UNL     1      14.632   3.344 -10.085  1.00  0.00    -0.387 OA
ATOM     41  H   UNL     1      13.887   2.779 -10.405  1.00  0.00     0.211 HD
ENDBRANCH  33  40
BRANCH  35  42
ATOM     42  O   UNL     1      16.020   3.432  -7.688  1.00  0.00    -0.385 OA
ATOM     43  H   UNL     1      15.553   4.132  -8.217  1.00  0.00     0.211 HD
ENDBRANCH  35  42
BRANCH  36  44
ATOM     44  O   UNL     1      13.846   1.545  -7.837  1.00  0.00    -0.366 OA
ATOM     45  H   UNL     1      13.581   1.815  -8.754  1.00  0.00     0.213 HD
ENDBRANCH  36  44
ENDBRANCH  30  31
ENDBRANCH   4  30
TORSDOF 18
ENDMDL
MODEL 5
REMARK VINA RESULT:    -5.950      2.019      8.821
REMARK INTER + INTRA:         -12.325
REMARK INTER:                 -10.593
REMARK INTRA:                  -1.733
REMARK UNBOUND:                -2.028
REMARK SMILES OC[C@@H]1O[C@@H](O[C@@H]2[C@H](O)[C@@H](O)[C@H](O[C@H]3[C@@H](O)[C@@H](O)[C@@H](O)O[C@@H]3CO)O[C@H]2CO)[C@H](O)[C@H](O)[C@@H]1O
REMARK SMILES IDX 7 1 26 2 25 3 12 4 10 5 8 6 6 7 5 8 3 9 33 10 4 11 31 12
REMARK SMILES IDX 29 13 2 14 1 15 34 17 32 19 30 21 27 23 28 24 9 26 11 28
REMARK SMILES IDX 13 30 14 31 22 32 15 33 21 34 17 35 19 36 23 37 24 38 16 40
REMARK SMILES IDX 18 42 20 44
REMARK H PARENT 1 16 34 18 32 20 30 22 28 25 9 27 11 29 24 39 16 41 18 43
REMARK H PARENT 20 45
REMARK Flexibility Score: inf
ROOT
ATOM      1  C   UNL     1      18.392   2.636 -11.380  1.00  0.00     0.184 C 
ATOM      2  C   UNL     1      18.835   3.542 -12.558  1.00  0.00     0.178 C 
ATOM      3  O   UNL     1      19.209   2.845 -13.737  1.00  0.00    -0.341 OA
ATOM      4  C   UNL     1      19.718   1.530 -13.564  1.00  0.00     0.282 C 
ATOM      5  C   UNL     1      20.447   1.341 -12.217  1.00  0.00     0.202 C 
ATOM      6  C   UNL     1      19.503   1.612 -11.025  1.00  0.00     0.180 C 
ENDROOT
BRANCH   1   7
ATOM      7  O   UNL     1      18.130   3.461 -10.254  1.00  0.00    -0.341 OA
BRANCH   7   8
ATOM      8  C   UNL     1      16.841   3.305  -9.681  1.00  0.00     0.282 C 
ATOM      9  C   UNL     1      15.793   2.174  -7.877  1.00  0.00     0.178 C 
ATOM     10  C   UNL     1      14.942   1.244  -8.796  1.00  0.00     0.177 C 
ATOM     11  O   UNL     1      17.017   2.547  -8.487  1.00  0.00    -0.341 OA
ATOM     12  C   UNL     1      15.521   1.188 -10.231  1.00  0.00     0.179 C 
ATOM     13  C   UNL     1      15.947   2.578 -10.728  1.00  0.00     0.202 C 
BRANCH   9  14
ATOM     14  C   UNL     1      15.062   3.386  -7.257  1.00  0.00     0.191 C 
BRANCH  14  15
ATOM     15  O   UNL     1      14.272   2.960  -6.180  1.00  0.00    -0.394 OA
ATOM     16  H   UNL     1      14.902   2.739  -5.449  1.00  0.00     0.210 HD
ENDBRANCH  14  15
ENDBRANCH   9  14
BRANCH  10  17
ATOM     17  O   UNL     1      13.566   1.547  -8.765  1.00  0.00    -0.387 OA
ATOM     18  H   UNL     1      13.081   0.882  -9.319  1.00  0.00     0.211 HD
ENDBRANCH  10  17
BRANCH  12  19
ATOM     19  O   UNL     1      14.610   0.611 -11.126  1.00  0.00    -0.387 OA
ATOM     20  H   UNL     1      14.723   1.079 -11.991  1.00  0.00     0.211 HD
ENDBRANCH  12  19
BRANCH  13  21
ATOM     21  O   UNL     1      14.823   3.369 -11.022  1.00  0.00    -0.385 OA
ATOM     22  H   UNL     1      14.991   4.273 -10.652  1.00  0.00     0.211 HD
ENDBRANCH  13  21
ENDBRANCH   7   8
ENDBRANCH   1   7
BRANCH   2  23
ATOM     23  C   UNL     1      17.727   4.529 -12.933  1.00  0.00     0.191 C 
BRANCH  23  24
ATOM     24  O   UNL     1      17.438   4.439 -14.302  1.00  0.00    -0.394 OA
ATOM     25  H   UNL     1      18.254   4.755 -14.772  1.00  0.00     0.210 HD
ENDBRANCH  23  24
ENDBRANCH   2  23
BRANCH   6  26
ATOM     26  O   UNL     1      20.253   2.013  -9.898  1.00  0.00    -0.387 OA
ATOM     27  H   UNL     1      19.626   2.403  -9.234  1.00  0.00     0.211 HD
ENDBRANCH   6  26
BRANCH   5  28
ATOM     28  O   UNL     1      21.003   0.056 -12.117  1.00  0.00    -0.385 OA
ATOM     29  H   UNL     1      21.737   0.097 -11.446  1.00  0.00     0.211 HD
ENDBRANCH   5  28
BRANCH   4  30
ATOM     30  O   UNL     1      20.658   1.280 -14.596  1.00  0.00    -0.341 OA
BRANCH  30  31
ATOM     31  C   UNL     1      20.064   0.825 -15.805  1.00  0.00     0.184 C 
ATOM     32  C   UNL     1      20.972  -0.289 -16.398  1.00  0.00     0.178 C 
ATOM     33  C   UNL     1      19.886   1.986 -16.831  1.00  0.00     0.180 C 
ATOM     34  O   UNL     1      20.514  -0.719 -17.672  1.00  0.00    -0.342 OA
ATOM     35  C   UNL     1      19.593   1.449 -18.243  1.00  0.00     0.201 C 
ATOM     36  C   UNL     1      20.568   0.324 -18.630  1.00  0.00     0.279 C 
BRANCH  32  37
ATOM     37  C   UNL     1      21.020  -1.514 -15.479  1.00  0.00     0.191 C 
BRANCH  37  38
ATOM     38  O   UNL     1      22.088  -1.375 -14.584  1.00  0.00    -0.394 OA
ATOM     39  H   UNL     1      21.930  -0.532 -14.087  1.00  0.00     0.210 HD
ENDBRANCH  37  38
ENDBRANCH  32  37
BRANCH  33  40
ATOM     40  O   UNL     1      20.975   2.876 -16.841  1.00  0.00    -0.387 OA
ATOM     41  H   UNL     1      20.903   3.466 -17.631  1.00  0.00     0.211 HD
ENDBRANCH  33  40
BRANCH  35  42
ATOM     42  O   UNL     1      19.568   2.480 -19.196  1.00  0.00    -0.385 OA
ATOM     43  H   UNL     1      20.481   2.575 -19.577  1.00  0.00     0.211 HD
ENDBRANCH  35  42
BRANCH  36  44
ATOM     44  O   UNL     1      21.882   0.809 -18.795  1.00  0.00    -0.366 OA
ATOM     45  H   UNL     1      22.482   0.021 -18.738  1.00  0.00     0.213 HD
ENDBRANCH  36  44
ENDBRANCH  30  31
ENDBRANCH   4  30
TORSDOF 18
ENDMDL
MODEL 6
REMARK VINA RESULT:    -5.785      2.687      8.763
REMARK INTER + INTRA:         -12.039
REMARK INTER:                  -9.807
REMARK INTRA:                  -2.232
REMARK UNBOUND:                -2.028
REMARK SMILES OC[C@@H]1O[C@@H](O[C@@H]2[C@H](O)[C@@H](O)[C@H](O[C@H]3[C@@H](O)[C@@H](O)[C@@H](O)O[C@@H]3CO)O[C@H]2CO)[C@H](O)[C@H](O)[C@@H]1O
REMARK SMILES IDX 7 1 26 2 25 3 12 4 10 5 8 6 6 7 5 8 3 9 33 10 4 11 31 12
REMARK SMILES IDX 29 13 2 14 1 15 34 17 32 19 30 21 27 23 28 24 9 26 11 28
REMARK SMILES IDX 13 30 14 31 22 32 15 33 21 34 17 35 19 36 23 37 24 38 16 40
REMARK SMILES IDX 18 42 20 44
REMARK H PARENT 1 16 34 18 32 20 30 22 28 25 9 27 11 29 24 39 16 41 18 43
REMARK H PARENT 20 45
REMARK Flexibility Score: inf
ROOT
ATOM      1  C   UNL     1      15.343   0.037 -12.093  1.00  0.00     0.184 C 
ATOM      2  C   UNL     1      15.176  -1.285 -12.887  1.00  0.00     0.178 C 
ATOM      3  O   UNL     1      16.026  -1.413 -14.016  1.00  0.00    -0.341 OA
ATOM      4  C   UNL     1      16.441  -0.206 -14.640  1.00  0.00     0.282 C 
ATOM      5  C   UNL     1      15.403   0.928 -14.502  1.00  0.00     0.202 C 
ATOM      6  C   UNL     1      15.133   1.265 -13.019  1.00  0.00     0.180 C 
ENDROOT
BRANCH   1   7
ATOM      7  O   UNL     1      14.377   0.059 -11.051  1.00  0.00    -0.341 OA
BRANCH   7   8
ATOM      8  C   UNL     1      14.828   0.617  -9.827  1.00  0.00     0.282 C 
ATOM      9  C   UNL     1      14.799   2.689  -8.669  1.00  0.00     0.178 C 
ATOM     10  C   UNL     1      16.344   2.891  -8.745  1.00  0.00     0.177 C 
ATOM     11  O   UNL     1      14.306   1.942  -9.770  1.00  0.00    -0.341 OA
ATOM     12  C   UNL     1      16.974   2.001  -9.845  1.00  0.00     0.179 C 
ATOM     13  C   UNL     1      16.384   0.583  -9.840  1.00  0.00     0.202 C 
BRANCH   9  14
ATOM     14  C   UNL     1      14.236   2.178  -7.324  1.00  0.00     0.191 C 
BRANCH  14  15
ATOM     15  O   UNL     1      14.260   3.213  -6.379  1.00  0.00    -0.394 OA
ATOM     16  H   UNL     1      14.128   2.782  -5.498  1.00  0.00     0.210 HD
ENDBRANCH  14  15
ENDBRANCH   9  14
BRANCH  10  17
ATOM     17  O   UNL     1      16.980   2.758  -7.494  1.00  0.00    -0.387 OA
ATOM     18  H   UNL     1      17.163   1.796  -7.330  1.00  0.00     0.211 HD
ENDBRANCH  10  17
BRANCH  12  19
ATOM     19  O   UNL     1      18.369   1.947  -9.719  1.00  0.00    -0.387 OA
ATOM     20  H   UNL     1      18.688   2.883  -9.662  1.00  0.00     0.211 HD
ENDBRANCH  12  19
BRANCH  13  21
ATOM     21  O   UNL     1      16.851  -0.148  -8.734  1.00  0.00    -0.385 OA
ATOM     22  H   UNL     1      16.353   0.168  -7.937  1.00  0.00     0.211 HD
ENDBRANCH  13  21
ENDBRANCH   7   8
ENDBRANCH   1   7
BRANCH   2  23
ATOM     23  C   UNL     1      15.416  -2.497 -11.983  1.00  0.00     0.191 C 
BRANCH  23  24
ATOM     24  O   UNL     1      14.279  -2.756 -11.205  1.00  0.00    -0.394 OA
ATOM     25  H   UNL     1      14.455  -2.339 -10.321  1.00  0.00     0.210 HD
ENDBRANCH  23  24
ENDBRANCH   2  23
BRANCH   6  26
ATOM     26  O   UNL     1      13.843   1.822 -12.879  1.00  0.00    -0.387 OA
ATOM     27  H   UNL     1      13.727   2.510 -13.586  1.00  0.00     0.211 HD
ENDBRANCH   6  26
BRANCH   5  28
ATOM     28  O   UNL     1      15.812   2.078 -15.197  1.00  0.00    -0.385 OA
ATOM     29  H   UNL     1      15.788   1.866 -16.169  1.00  0.00     0.211 HD
ENDBRANCH   5  28
BRANCH   4  30
ATOM     30  O   UNL     1      16.613  -0.459 -16.024  1.00  0.00    -0.341 OA
BRANCH  30  31
ATOM     31  C   UNL     1      17.965  -0.360 -16.455  1.00  0.00     0.184 C 
ATOM     32  C   UNL     1      17.965   0.072 -17.948  1.00  0.00     0.178 C 
ATOM     33  C   UNL     1      18.726  -1.709 -16.278  1.00  0.00     0.180 C 
ATOM     34  O   UNL     1      19.276   0.081 -18.494  1.00  0.00    -0.342 OA
ATOM     35  C   UNL     1      20.049  -1.716 -17.063  1.00  0.00     0.201 C 
ATOM     36  C   UNL     1      19.850  -1.215 -18.504  1.00  0.00     0.279 C 
BRANCH  32  37
ATOM     37  C   UNL     1      17.375   1.476 -18.121  1.00  0.00     0.191 C 
BRANCH  37  38
ATOM     38  O   UNL     1      15.979   1.400 -18.051  1.00  0.00    -0.394 OA
ATOM     39  H   UNL     1      15.753   0.436 -17.999  1.00  0.00     0.210 HD
ENDBRANCH  37  38
ENDBRANCH  32  37
BRANCH  33  40
ATOM     40  O   UNL     1      17.935  -2.827 -16.603  1.00  0.00    -0.387 OA
ATOM     41  H   UNL     1      18.121  -3.093 -17.537  1.00  0.00     0.211 HD
ENDBRANCH  33  40
BRANCH  35  42
ATOM     42  O   UNL     1      20.671  -2.974 -17.021  1.00  0.00    -0.385 OA
ATOM     43  H   UNL     1      20.797  -3.291 -17.955  1.00  0.00     0.211 HD
ENDBRANCH  35  42
BRANCH  36  44
ATOM     44  O   UNL     1      19.081  -2.118 -19.267  1.00  0.00    -0.366 OA
ATOM     45  H   UNL     1      19.264  -3.021 -18.900  1.00  0.00     0.213 HD
ENDBRANCH  36  44
ENDBRANCH  30  31
ENDBRANCH   4  30
TORSDOF 18
ENDMDL
MODEL 7
REMARK VINA RESULT:    -5.724      1.767      2.877
REMARK INTER + INTRA:         -11.934
REMARK INTER:                  -9.986
REMARK INTRA:                  -1.949
REMARK UNBOUND:                -2.028
REMARK SMILES OC[C@@H]1O[C@@H](O[C@@H]2[C@H](O)[C@@H](O)[C@H](O[C@H]3[C@@H](O)[C@@H](O)[C@@H](O)O[C@@H]3CO)O[C@H]2CO)[C@H](O)[C@H](O)[C@@H]1O
REMARK SMILES IDX 7 1 26 2 25 3 12 4 10 5 8 6 6 7 5 8 3 9 33 10 4 11 31 12
REMARK SMILES IDX 29 13 2 14 1 15 34 17 32 19 30 21 27 23 28 24 9 26 11 28
REMARK SMILES IDX 13 30 14 31 22 32 15 33 21 34 17 35 19 36 23 37 24 38 16 40
REMARK SMILES IDX 18 42 20 44
REMARK H PARENT 1 16 34 18 32 20 30 22 28 25 9 27 11 29 24 39 16 41 18 43
REMARK H PARENT 20 45
REMARK Flexibility Score: inf
ROOT
ATOM      1  C   UNL     1      17.709   1.706 -15.555  1.00  0.00     0.184 C 
ATOM      2  C   UNL     1      18.128   1.856 -14.070  1.00  0.00     0.178 C 
ATOM      3  O   UNL     1      17.137   1.470 -13.130  1.00  0.00    -0.341 OA
ATOM      4  C   UNL     1      15.784   1.586 -13.548  1.00  0.00     0.282 C 
ATOM      5  C   UNL     1      15.567   2.724 -14.567  1.00  0.00     0.202 C 
ATOM      6  C   UNL     1      16.408   2.502 -15.843  1.00  0.00     0.180 C 
ENDROOT
BRANCH   1   7
ATOM      7  O   UNL     1      18.761   2.206 -16.370  1.00  0.00    -0.341 OA
BRANCH   7   8
ATOM      8  C   UNL     1      19.102   1.388 -17.478  1.00  0.00     0.282 C 
ATOM      9  C   UNL     1      20.714  -0.243 -18.089  1.00  0.00     0.178 C 
ATOM     10  C   UNL     1      21.374   0.646 -19.188  1.00  0.00     0.177 C 
ATOM     11  O   UNL     1      20.156   0.534 -17.042  1.00  0.00    -0.341 OA
ATOM     12  C   UNL     1      21.015   2.140 -18.994  1.00  0.00     0.179 C 
ATOM     13  C   UNL     1      19.531   2.329 -18.641  1.00  0.00     0.202 C 
BRANCH   9  14
ATOM     14  C   UNL     1      19.741  -1.337 -18.580  1.00  0.00     0.191 C 
BRANCH  14  15
ATOM     15  O   UNL     1      20.452  -2.322 -19.280  1.00  0.00    -0.394 OA
ATOM     16  H   UNL     1      21.368  -1.965 -19.399  1.00  0.00     0.210 HD
ENDBRANCH  14  15
ENDBRANCH   9  14
BRANCH  10  17
ATOM     17  O   UNL     1      21.126   0.182 -20.495  1.00  0.00    -0.387 OA
ATOM     18  H   UNL     1      20.889  -0.781 -20.453  1.00  0.00     0.211 HD
ENDBRANCH  10  17
BRANCH  12  19
ATOM     19  O   UNL     1      21.344   2.894 -20.129  1.00  0.00    -0.387 OA
ATOM     20  H   UNL     1      20.541   2.905 -20.708  1.00  0.00     0.211 HD
ENDBRANCH  12  19
BRANCH  13  21
ATOM     21  O   UNL     1      18.718   2.097 -19.764  1.00  0.00    -0.385 OA
ATOM     22  H   UNL     1      17.781   2.272 -19.493  1.00  0.00     0.211 HD
ENDBRANCH  13  21
ENDBRANCH   7   8
ENDBRANCH   1   7
BRANCH   2  23
ATOM     23  C   UNL     1      19.391   1.044 -13.776  1.00  0.00     0.191 C 
BRANCH  23  24
ATOM     24  O   UNL     1      20.526   1.722 -14.243  1.00  0.00    -0.394 OA
ATOM     25  H   UNL     1      20.452   2.648 -13.889  1.00  0.00     0.210 HD
ENDBRANCH  23  24
ENDBRANCH   2  23
BRANCH   6  26
ATOM     26  O   UNL     1      16.671   3.741 -16.468  1.00  0.00    -0.387 OA
ATOM     27  H   UNL     1      17.327   4.235 -15.908  1.00  0.00     0.211 HD
ENDBRANCH   6  26
BRANCH   5  28
ATOM     28  O   UNL     1      14.209   2.860 -14.895  1.00  0.00    -0.385 OA
ATOM     29  H   UNL     1      13.754   2.009 -14.651  1.00  0.00     0.211 HD
ENDBRANCH   5  28
BRANCH   4  30
ATOM     30  O   UNL     1      14.992   1.879 -12.408  1.00  0.00    -0.341 OA
BRANCH  30  31
ATOM     31  C   UNL     1      15.581   1.454 -11.185  1.00  0.00     0.184 C 
ATOM     32  C   UNL     1      14.621   0.428 -10.520  1.00  0.00     0.178 C 
ATOM     33  C   UNL     1      15.847   2.654 -10.226  1.00  0.00     0.180 C 
ATOM     34  O   UNL     1      15.076   0.039  -9.232  1.00  0.00    -0.342 OA
ATOM     35  C   UNL     1      16.134   2.176  -8.792  1.00  0.00     0.201 C 
ATOM     36  C   UNL     1      15.102   1.132  -8.330  1.00  0.00     0.279 C 
BRANCH  32  37
ATOM     37  C   UNL     1      14.483  -0.838 -11.371  1.00  0.00     0.191 C 
BRANCH  37  38
ATOM     38  O   UNL     1      13.311  -0.754 -12.133  1.00  0.00    -0.394 OA
ATOM     39  H   UNL     1      13.189  -1.641 -12.557  1.00  0.00     0.210 HD
ENDBRANCH  37  38
ENDBRANCH  32  37
BRANCH  33  40
ATOM     40  O   UNL     1      14.812   3.607 -10.247  1.00  0.00    -0.387 OA
ATOM     41  H   UNL     1      14.391   3.607 -11.141  1.00  0.00     0.211 HD
ENDBRANCH  33  40
BRANCH  35  42
ATOM     42  O   UNL     1      16.237   3.252  -7.896  1.00  0.00    -0.385 OA
ATOM     43  H   UNL     1      15.742   4.024  -8.278  1.00  0.00     0.211 HD
ENDBRANCH  35  42
BRANCH  36  44
ATOM     44  O   UNL     1      13.822   1.703  -8.171  1.00  0.00    -0.366 OA
ATOM     45  H   UNL     1      13.227   1.243  -8.818  1.00  0.00     0.213 HD
ENDBRANCH  36  44
ENDBRANCH  30  31
ENDBRANCH   4  30
TORSDOF 18
ENDMDL
MODEL 8
REMARK VINA RESULT:    -5.653      1.570      8.858
REMARK INTER + INTRA:         -11.812
REMARK INTER:                  -9.668
REMARK INTRA:                  -2.145
REMARK UNBOUND:                -2.028
REMARK SMILES OC[C@@H]1O[C@@H](O[C@@H]2[C@H](O)[C@@H](O)[C@H](O[C@H]3[C@@H](O)[C@@H](O)[C@@H](O)O[C@@H]3CO)O[C@H]2CO)[C@H](O)[C@H](O)[C@@H]1O
REMARK SMILES IDX 7 1 26 2 25 3 12 4 10 5 8 6 6 7 5 8 3 9 33 10 4 11 31 12
REMARK SMILES IDX 29 13 2 14 1 15 34 17 32 19 30 21 27 23 28 24 9 26 11 28
REMARK SMILES IDX 13 30 14 31 22 32 15 33 21 34 17 35 19 36 23 37 24 38 16 40
REMARK SMILES IDX 18 42 20 44
REMARK H PARENT 1 16 34 18 32 20 30 22 28 25 9 27 11 29 24 39 16 41 18 43
REMARK H PARENT 20 45
REMARK Flexibility Score: inf
ROOT
ATOM      1  C   UNL     1      18.878   1.894 -11.317  1.00  0.00     0.184 C 
ATOM      2  C   UNL     1      18.475   2.753 -12.544  1.00  0.00     0.178 C 
ATOM      3  O   UNL     1      18.982   2.291 -13.786  1.00  0.00    -0.341 OA
ATOM      4  C   UNL     1      20.199   1.560 -13.744  1.00  0.00     0.282 C 
ATOM      5  C   UNL     1      21.114   1.985 -12.577  1.00  0.00     0.202 C 
ATOM      6  C   UNL     1      20.421   1.772 -11.214  1.00  0.00     0.180 C 
ENDROOT
BRANCH   1   7
ATOM      7  O   UNL     1      18.372   2.521 -10.146  1.00  0.00    -0.341 OA
BRANCH   7   8
ATOM      8  C   UNL     1      17.721   1.651  -9.233  1.00  0.00     0.282 C 
ATOM      9  C   UNL     1      16.702  -0.493  -9.196  1.00  0.00     0.178 C 
ATOM     10  C   UNL     1      15.272   0.059  -8.906  1.00  0.00     0.177 C 
ATOM     11  O   UNL     1      17.488   0.431  -9.932  1.00  0.00    -0.341 OA
ATOM     12  C   UNL     1      15.168   1.565  -9.253  1.00  0.00     0.179 C 
ATOM     13  C   UNL     1      16.404   2.346  -8.780  1.00  0.00     0.202 C 
BRANCH   9  14
ATOM     14  C   UNL     1      17.473  -1.078  -7.992  1.00  0.00     0.191 C 
BRANCH  14  15
ATOM     15  O   UNL     1      18.369  -2.060  -8.438  1.00  0.00    -0.394 OA
ATOM     16  H   UNL     1      17.834  -2.692  -8.980  1.00  0.00     0.210 HD
ENDBRANCH  14  15
ENDBRANCH   9  14
BRANCH  10  17
ATOM     17  O   UNL     1      14.819  -0.242  -7.606  1.00  0.00    -0.387 OA
ATOM     18  H   UNL     1      15.365  -0.985  -7.241  1.00  0.00     0.211 HD
ENDBRANCH  10  17
BRANCH  12  19
ATOM     19  O   UNL     1      14.003   2.131  -8.720  1.00  0.00    -0.387 OA
ATOM     20  H   UNL     1      13.360   2.222  -9.468  1.00  0.00     0.211 HD
ENDBRANCH  12  19
BRANCH  13  21
ATOM     21  O   UNL     1      16.400   2.487  -7.382  1.00  0.00    -0.385 OA
ATOM     22  H   UNL     1      16.143   3.423  -7.179  1.00  0.00     0.211 HD
ENDBRANCH  13  21
ENDBRANCH   7   8
ENDBRANCH   1   7
BRANCH   2  23
ATOM     23  C   UNL     1      16.952   2.846 -12.667  1.00  0.00     0.191 C 
BRANCH  23  24
ATOM     24  O   UNL     1      16.371   1.584 -12.480  1.00  0.00    -0.394 OA
ATOM     25  H   UNL     1      15.788   1.433 -13.271  1.00  0.00     0.210 HD
ENDBRANCH  23  24
ENDBRANCH   2  23
BRANCH   6  26
ATOM     26  O   UNL     1      20.961   2.658 -10.256  1.00  0.00    -0.387 OA
ATOM     27  H   UNL     1      21.412   3.398 -10.741  1.00  0.00     0.211 HD
ENDBRANCH   6  26
BRANCH   5  28
ATOM     28  O   UNL     1      22.338   1.299 -12.616  1.00  0.00    -0.385 OA
ATOM     29  H   UNL     1      22.949   1.735 -11.963  1.00  0.00     0.211 HD
ENDBRANCH   5  28
BRANCH   4  30
ATOM     30  O   UNL     1      20.904   1.805 -14.950  1.00  0.00    -0.341 OA
BRANCH  30  31
ATOM     31  C   UNL     1      20.294   1.218 -16.092  1.00  0.00     0.184 C 
ATOM     32  C   UNL     1      21.231   0.092 -16.614  1.00  0.00     0.178 C 
ATOM     33  C   UNL     1      20.034   2.272 -17.212  1.00  0.00     0.180 C 
ATOM     34  O   UNL     1      20.754  -0.471 -17.828  1.00  0.00    -0.342 OA
ATOM     35  C   UNL     1      19.721   1.598 -18.558  1.00  0.00     0.201 C 
ATOM     36  C   UNL     1      20.733   0.482 -18.877  1.00  0.00     0.279 C 
BRANCH  32  37
ATOM     37  C   UNL     1      21.361  -1.041 -15.591  1.00  0.00     0.191 C 
BRANCH  37  38
ATOM     38  O   UNL     1      22.508  -0.831 -14.816  1.00  0.00    -0.394 OA
ATOM     39  H   UNL     1      22.993  -0.073 -15.232  1.00  0.00     0.210 HD
ENDBRANCH  37  38
ENDBRANCH  32  37
BRANCH  33  40
ATOM     40  O   UNL     1      21.083   3.201 -17.339  1.00  0.00    -0.387 OA
ATOM     41  H   UNL     1      21.840   2.912 -16.774  1.00  0.00     0.211 HD
ENDBRANCH  33  40
BRANCH  35  42
ATOM     42  O   UNL     1      19.622   2.535 -19.599  1.00  0.00    -0.385 OA
ATOM     43  H   UNL     1      19.167   3.346 -19.246  1.00  0.00     0.211 HD
ENDBRANCH  35  42
BRANCH  36  44
ATOM     44  O   UNL     1      22.019   1.004 -19.130  1.00  0.00    -0.366 OA
ATOM     45  H   UNL     1      22.395   0.472 -19.878  1.00  0.00     0.213 HD
ENDBRANCH  36  44
ENDBRANCH  30  31
ENDBRANCH   4  30
TORSDOF 18
ENDMDL
MODEL 9
REMARK VINA RESULT:    -5.646      3.200      4.844
REMARK INTER + INTRA:         -11.800
REMARK INTER:                 -10.004
REMARK INTRA:                  -1.796
REMARK UNBOUND:                -2.028
REMARK SMILES OC[C@@H]1O[C@@H](O[C@@H]2[C@H](O)[C@@H](O)[C@H](O[C@H]3[C@@H](O)[C@@H](O)[C@@H](O)O[C@@H]3CO)O[C@H]2CO)[C@H](O)[C@H](O)[C@@H]1O
REMARK SMILES IDX 7 1 26 2 25 3 12 4 10 5 8 6 6 7 5 8 3 9 33 10 4 11 31 12
REMARK SMILES IDX 29 13 2 14 1 15 34 17 32 19 30 21 27 23 28 24 9 26 11 28
REMARK SMILES IDX 13 30 14 31 22 32 15 33 21 34 17 35 19 36 23 37 24 38 16 40
REMARK SMILES IDX 18 42 20 44
REMARK H PARENT 1 16 34 18 32 20 30 22 28 25 9 27 11 29 24 39 16 41 18 43
REMARK H PARENT 20 45
REMARK Flexibility Score: inf
ROOT
ATOM      1  C   UNL     1      16.975   1.540 -15.998  1.00  0.00     0.184 C 
ATOM      2  C   UNL     1      16.043   2.086 -14.886  1.00  0.00     0.178 C 
ATOM      3  O   UNL     1      15.459   1.092 -14.058  1.00  0.00    -0.341 OA
ATOM      4  C   UNL     1      15.269  -0.190 -14.639  1.00  0.00     0.282 C 
ATOM      5  C   UNL     1      15.027  -0.127 -16.162  1.00  0.00     0.202 C 
ATOM      6  C   UNL     1      16.224   0.519 -16.894  1.00  0.00     0.180 C 
ENDROOT
BRANCH   1   7
ATOM      7  O   UNL     1      17.415   2.633 -16.792  1.00  0.00    -0.341 OA
BRANCH   7   8
ATOM      8  C   UNL     1      18.736   2.517 -17.296  1.00  0.00     0.282 C 
ATOM      9  C   UNL     1      19.914   1.410 -19.034  1.00  0.00     0.178 C 
ATOM     10  C   UNL     1      20.747   0.516 -18.065  1.00  0.00     0.177 C 
ATOM     11  O   UNL     1      18.647   1.746 -18.491  1.00  0.00    -0.341 OA
ATOM     12  C   UNL     1      20.096   0.450 -16.660  1.00  0.00     0.179 C 
ATOM     13  C   UNL     1      19.598   1.828 -16.198  1.00  0.00     0.202 C 
BRANCH   9  14
ATOM     14  C   UNL     1      20.635   2.642 -19.625  1.00  0.00     0.191 C 
BRANCH  14  15
ATOM     15  O   UNL     1      21.417   2.250 -20.721  1.00  0.00    -0.394 OA
ATOM     16  H   UNL     1      22.240   1.853 -20.340  1.00  0.00     0.210 HD
ENDBRANCH  14  15
ENDBRANCH   9  14
BRANCH  10  17
ATOM     17  O   UNL     1      22.111   0.865 -18.026  1.00  0.00    -0.387 OA
ATOM     18  H   UNL     1      22.204   1.738 -17.563  1.00  0.00     0.211 HD
ENDBRANCH  10  17
BRANCH  12  19
ATOM     19  O   UNL     1      20.978  -0.090 -15.715  1.00  0.00    -0.387 OA
ATOM     20  H   UNL     1      20.505  -0.083 -14.845  1.00  0.00     0.211 HD
ENDBRANCH  12  19
BRANCH  13  21
ATOM     21  O   UNL     1      20.678   2.659 -15.853  1.00  0.00    -0.385 OA
ATOM     22  H   UNL     1      20.328   3.368 -15.255  1.00  0.00     0.211 HD
ENDBRANCH  13  21
ENDBRANCH   7   8
ENDBRANCH   1   7
BRANCH   2  23
ATOM     23  C   UNL     1      16.792   3.067 -13.981  1.00  0.00     0.191 C 
BRANCH  23  24
ATOM     24  O   UNL     1      17.050   4.262 -14.667  1.00  0.00    -0.394 OA
ATOM     25  H   UNL     1      17.578   4.005 -15.469  1.00  0.00     0.210 HD
ENDBRANCH  23  24
ENDBRANCH   2  23
BRANCH   6  26
ATOM     26  O   UNL     1      15.791   1.095 -18.108  1.00  0.00    -0.387 OA
ATOM     27  H   UNL     1      15.632   0.361 -18.758  1.00  0.00     0.211 HD
ENDBRANCH   6  26
BRANCH   5  28
ATOM     28  O   UNL     1      14.765  -1.403 -16.687  1.00  0.00    -0.385 OA
ATOM     29  H   UNL     1      13.964  -1.328 -17.274  1.00  0.00     0.211 HD
ENDBRANCH   5  28
BRANCH   4  30
ATOM     30  O   UNL     1      14.120  -0.777 -14.050  1.00  0.00    -0.341 OA
BRANCH  30  31
ATOM     31  C   UNL     1      12.972   0.062 -14.088  1.00  0.00     0.184 C 
ATOM     32  C   UNL     1      12.279  -0.006 -12.699  1.00  0.00     0.178 C 
ATOM     33  C   UNL     1      11.982  -0.369 -15.213  1.00  0.00     0.180 C 
ATOM     34  O   UNL     1      11.054   0.712 -12.685  1.00  0.00    -0.342 OA
ATOM     35  C   UNL     1      10.602   0.286 -15.029  1.00  0.00     0.201 C 
ATOM     36  C   UNL     1      10.106   0.152 -13.578  1.00  0.00     0.279 C 
BRANCH  32  37
ATOM     37  C   UNL     1      13.176   0.575 -11.601  1.00  0.00     0.191 C 
BRANCH  37  38
ATOM     38  O   UNL     1      14.087  -0.404 -11.185  1.00  0.00    -0.394 OA
ATOM     39  H   UNL     1      13.912  -1.204 -11.743  1.00  0.00     0.210 HD
ENDBRANCH  37  38
ENDBRANCH  32  37
BRANCH  33  40
ATOM     40  O   UNL     1      11.870  -1.766 -15.335  1.00  0.00    -0.387 OA
ATOM     41  H   UNL     1      12.543  -2.088 -15.984  1.00  0.00     0.211 HD
ENDBRANCH  33  40
BRANCH  35  42
ATOM     42  O   UNL     1       9.667  -0.203 -15.955  1.00  0.00    -0.385 OA
ATOM     43  H   UNL     1      10.090  -0.203 -16.855  1.00  0.00     0.211 HD
ENDBRANCH  35  42
BRANCH  36  44
ATOM     44  O   UNL     1       9.814  -1.188 -13.250  1.00  0.00    -0.366 OA
ATOM     45  H   UNL     1      10.066  -1.306 -12.298  1.00  0.00     0.213 HD
ENDBRANCH  36  44
ENDBRANCH  30  31
ENDBRANCH   4  30
TORSDOF 18
ENDMDL
