MODEL 1
REMARK VINA RESULT:    -4.223      0.000      0.000
REMARK INTER + INTRA:          -8.936
REMARK INTER:                  -7.186
REMARK INTRA:                  -1.751
REMARK UNBOUND:                -1.751
REMARK SMILES CCCCCCCCCCCCCC(=O)[O-]
REMARK SMILES IDX 8 1 9 2 10 3 11 4 12 5 13 6 14 7 15 8 16 9 7 10 6 11 5 12
REMARK SMILES IDX 4 13 3 14 2 15 1 16
REMARK H PARENT
REMARK Flexibility Score: inf
ROOT
ATOM      1  C   UNL     1       9.191   7.245  27.757  1.00  0.00     0.000 C 
ENDROOT
BRANCH   1   2
ATOM      2  C   UNL     1      10.232   7.116  26.633  1.00  0.00     0.000 C 
BRANCH   2   3
ATOM      3  C   UNL     1      11.679   7.147  27.158  1.00  0.00     0.000 C 
BRANCH   3   4
ATOM      4  C   UNL     1      12.477   5.892  26.768  1.00  0.00     0.000 C 
BRANCH   4   5
ATOM      5  C   UNL     1      13.662   6.210  25.841  1.00  0.00     0.006 C 
BRANCH   5   6
ATOM      6  C   UNL     1      13.711   7.693  25.451  1.00  0.00     0.053 C 
BRANCH   6   7
ATOM      7  C   UNL     1      13.680   7.878  23.965  1.00  0.00     0.041 C 
ATOM      8  O   UNL     1      14.743   8.109  23.332  1.00  0.00    -0.550 OA
ATOM      9  O   UNL     1      12.478   7.770  23.277  1.00  0.00    -0.550 OA
ENDBRANCH   6   7
ENDBRANCH   5   6
ENDBRANCH   4   5
ENDBRANCH   3   4
ENDBRANCH   2   3
ENDBRANCH   1   2
BRANCH   1  10
ATOM     10  C   UNL     1       9.682   8.127  28.917  1.00  0.00     0.000 C 
BRANCH  10  11
ATOM     11  C   UNL     1       9.208   7.628  30.294  1.00  0.00    -0.000 C 
BRANCH  11  12
ATOM     12  C   UNL     1       9.027   6.104  30.417  1.00  0.00    -0.000 C 
BRANCH  12  13
ATOM     13  C   UNL     1      10.343   5.367  30.720  1.00  0.00    -0.000 C 
BRANCH  13  14
ATOM     14  C   UNL     1      10.736   4.381  29.607  1.00  0.00    -0.000 C 
BRANCH  14  15
ATOM     15  C   UNL     1       9.516   3.764  28.906  1.00  0.00    -0.003 C 
ATOM     16  C   UNL     1       9.796   3.530  27.424  1.00  0.00     0.004 C 
ENDBRANCH  14  15
ENDBRANCH  13  14
ENDBRANCH  12  13
ENDBRANCH  11  12
ENDBRANCH  10  11
ENDBRANCH   1  10
TORSDOF 12
ENDMDL
MODEL 2
REMARK VINA RESULT:    -4.183      1.836      2.208
REMARK INTER + INTRA:          -8.868
REMARK INTER:                  -7.339
REMARK INTRA:                  -1.529
REMARK UNBOUND:                -1.751
REMARK SMILES CCCCCCCCCCCCCC(=O)[O-]
REMARK SMILES IDX 8 1 9 2 10 3 11 4 12 5 13 6 14 7 15 8 16 9 7 10 6 11 5 12
REMARK SMILES IDX 4 13 3 14 2 15 1 16
REMARK H PARENT
REMARK Flexibility Score: inf
ROOT
ATOM      1  C   UNL     1       9.947   8.626  28.846  1.00  0.00     0.000 C 
ENDROOT
BRANCH   1   2
ATOM      2  C   UNL     1      10.892   8.256  27.690  1.00  0.00     0.000 C 
BRANCH   2   3
ATOM      3  C   UNL     1      10.260   7.258  26.704  1.00  0.00     0.000 C 
BRANCH   3   4
ATOM      4  C   UNL     1      11.115   7.051  25.443  1.00  0.00     0.000 C 
BRANCH   4   5
ATOM      5  C   UNL     1      12.451   7.810  25.504  1.00  0.00     0.006 C 
BRANCH   5   6
ATOM      6  C   UNL     1      13.655   6.876  25.325  1.00  0.00     0.053 C 
BRANCH   6   7
ATOM      7  C   UNL     1      13.623   5.734  26.294  1.00  0.00     0.041 C 
ATOM      8  O   UNL     1      13.474   4.555  25.880  1.00  0.00    -0.550 OA
ATOM      9  O   UNL     1      13.784   5.972  27.654  1.00  0.00    -0.550 OA
ENDBRANCH   6   7
ENDBRANCH   5   6
ENDBRANCH   4   5
ENDBRANCH   3   4
ENDBRANCH   2   3
ENDBRANCH   1   2
BRANCH   1  10
ATOM     10  C   UNL     1       8.991   7.480  29.216  1.00  0.00     0.000 C 
BRANCH  10  11
ATOM     11  C   UNL     1       9.006   7.147  30.719  1.00  0.00    -0.000 C 
BRANCH  11  12
ATOM     12  C   UNL     1       9.669   5.807  31.091  1.00  0.00    -0.000 C 
BRANCH  12  13
ATOM     13  C   UNL     1      10.533   5.231  29.957  1.00  0.00    -0.000 C 
BRANCH  13  14
ATOM     14  C   UNL     1      10.053   3.845  29.496  1.00  0.00    -0.000 C 
BRANCH  14  15
ATOM     15  C   UNL     1       9.180   3.911  28.234  1.00  0.00    -0.003 C 
ATOM     16  C   UNL     1      10.010   3.655  26.979  1.00  0.00     0.004 C 
ENDBRANCH  14  15
ENDBRANCH  13  14
ENDBRANCH  12  13
ENDBRANCH  11  12
ENDBRANCH  10  11
ENDBRANCH   1  10
TORSDOF 12
ENDMDL
MODEL 3
REMARK VINA RESULT:    -4.062      2.246      3.579
REMARK INTER + INTRA:          -8.662
REMARK INTER:                  -7.689
REMARK INTRA:                  -0.973
REMARK UNBOUND:                -1.751
REMARK SMILES CCCCCCCCCCCCCC(=O)[O-]
REMARK SMILES IDX 8 1 9 2 10 3 11 4 12 5 13 6 14 7 15 8 16 9 7 10 6 11 5 12
REMARK SMILES IDX 4 13 3 14 2 15 1 16
REMARK H PARENT
REMARK Flexibility Score: inf
ROOT
ATOM      1  C   UNL     1      12.846   6.347  27.164  1.00  0.00     0.000 C 
ENDROOT
BRANCH   1   2
ATOM      2  C   UNL     1      13.480   6.577  25.782  1.00  0.00     0.000 C 
BRANCH   2   3
ATOM      3  C   UNL     1      13.498   8.062  25.378  1.00  0.00     0.000 C 
BRANCH   3   4
ATOM      4  C   UNL     1      14.573   8.375  24.324  1.00  0.00     0.000 C 
BRANCH   4   5
ATOM      5  C   UNL     1      15.673   9.305  24.862  1.00  0.00     0.006 C 
BRANCH   5   6
ATOM      6  C   UNL     1      16.595   8.594  25.861  1.00  0.00     0.053 C 
BRANCH   6   7
ATOM      7  C   UNL     1      17.899   8.205  25.234  1.00  0.00     0.041 C 
ATOM      8  O   UNL     1      18.977   8.707  25.648  1.00  0.00    -0.550 OA
ATOM      9  O   UNL     1      17.925   7.267  24.209  1.00  0.00    -0.550 OA
ENDBRANCH   6   7
ENDBRANCH   5   6
ENDBRANCH   4   5
ENDBRANCH   3   4
ENDBRANCH   2   3
ENDBRANCH   1   2
BRANCH   1  10
ATOM     10  C   UNL     1      11.404   6.877  27.247  1.00  0.00     0.000 C 
BRANCH  10  11
ATOM     11  C   UNL     1      10.364   5.873  26.721  1.00  0.00    -0.000 C 
BRANCH  11  12
ATOM     12  C   UNL     1       9.290   5.441  27.737  1.00  0.00    -0.000 C 
BRANCH  12  13
ATOM     13  C   UNL     1       9.172   6.406  28.929  1.00  0.00    -0.000 C 
BRANCH  13  14
ATOM     14  C   UNL     1       9.403   5.706  30.279  1.00  0.00    -0.000 C 
BRANCH  14  15
ATOM     15  C   UNL     1      10.125   4.359  30.131  1.00  0.00    -0.003 C 
ATOM     16  C   UNL     1      11.621   4.507  30.395  1.00  0.00     0.004 C 
ENDBRANCH  14  15
ENDBRANCH  13  14
ENDBRANCH  12  13
ENDBRANCH  11  12
ENDBRANCH  10  11
ENDBRANCH   1  10
TORSDOF 12
ENDMDL
MODEL 4
REMARK VINA RESULT:    -4.061     12.097     14.643
REMARK INTER + INTRA:          -8.661
REMARK INTER:                  -6.996
REMARK INTRA:                  -1.665
REMARK UNBOUND:                -1.751
REMARK SMILES CCCCCCCCCCCCCC(=O)[O-]
REMARK SMILES IDX 8 1 9 2 10 3 11 4 12 5 13 6 14 7 15 8 16 9 7 10 6 11 5 12
REMARK SMILES IDX 4 13 3 14 2 15 1 16
REMARK H PARENT
REMARK Flexibility Score: inf
ROOT
ATOM      1  C   UNL     1       5.830   6.876  15.661  1.00  0.00     0.000 C 
ENDROOT
BRANCH   1   2
ATOM      2  C   UNL     1       4.861   7.023  14.476  1.00  0.00     0.000 C 
BRANCH   2   3
ATOM      3  C   UNL     1       3.511   7.638  14.886  1.00  0.00     0.000 C 
BRANCH   3   4
ATOM      4  C   UNL     1       3.358   7.764  16.410  1.00  0.00     0.000 C 
BRANCH   4   5
ATOM      5  C   UNL     1       3.358   9.227  16.885  1.00  0.00     0.006 C 
BRANCH   5   6
ATOM      6  C   UNL     1       4.419   9.487  17.962  1.00  0.00     0.053 C 
BRANCH   6   7
ATOM      7  C   UNL     1       4.302   8.522  19.102  1.00  0.00     0.041 C 
ATOM      8  O   UNL     1       5.215   7.683  19.319  1.00  0.00    -0.550 OA
ATOM      9  O   UNL     1       3.194   8.568  19.940  1.00  0.00    -0.550 OA
ENDBRANCH   6   7
ENDBRANCH   5   6
ENDBRANCH   4   5
ENDBRANCH   3   4
ENDBRANCH   2   3
ENDBRANCH   1   2
BRANCH   1  10
ATOM     10  C   UNL     1       7.030   7.833  15.563  1.00  0.00     0.000 C 
BRANCH  10  11
ATOM     11  C   UNL     1       7.014   8.688  14.284  1.00  0.00    -0.000 C 
BRANCH  11  12
ATOM     12  C   UNL     1       8.253   8.547  13.380  1.00  0.00    -0.000 C 
BRANCH  12  13
ATOM     13  C   UNL     1       7.959   7.788  12.075  1.00  0.00    -0.000 C 
BRANCH  13  14
ATOM     14  C   UNL     1       7.880   6.267  12.282  1.00  0.00    -0.000 C 
BRANCH  14  15
ATOM     15  C   UNL     1       6.685   5.633  11.554  1.00  0.00    -0.003 C 
ATOM     16  C   UNL     1       5.799   6.702  10.922  1.00  0.00     0.004 C 
ENDBRANCH  14  15
ENDBRANCH  13  14
ENDBRANCH  12  13
ENDBRANCH  11  12
ENDBRANCH  10  11
ENDBRANCH   1  10
TORSDOF 12
ENDMDL
MODEL 5
REMARK VINA RESULT:    -4.057      1.618      3.130
REMARK INTER + INTRA:          -8.653
REMARK INTER:                  -7.458
REMARK INTRA:                  -1.195
REMARK UNBOUND:                -1.751
REMARK SMILES CCCCCCCCCCCCCC(=O)[O-]
REMARK SMILES IDX 8 1 9 2 10 3 11 4 12 5 13 6 14 7 15 8 16 9 7 10 6 11 5 12
REMARK SMILES IDX 4 13 3 14 2 15 1 16
REMARK H PARENT
REMARK Flexibility Score: inf
ROOT
ATOM      1  C   UNL     1      10.608   6.545  26.797  1.00  0.00     0.000 C 
ENDROOT
BRANCH   1   2
ATOM      2  C   UNL     1      11.708   7.619  26.761  1.00  0.00     0.000 C 
BRANCH   2   3
ATOM      3  C   UNL     1      13.081   7.049  26.365  1.00  0.00     0.000 C 
BRANCH   3   4
ATOM      4  C   UNL     1      13.552   7.541  24.987  1.00  0.00     0.000 C 
BRANCH   4   5
ATOM      5  C   UNL     1      13.921   9.034  24.988  1.00  0.00     0.006 C 
BRANCH   5   6
ATOM      6  C   UNL     1      15.321   9.284  24.412  1.00  0.00     0.053 C 
BRANCH   6   7
ATOM      7  C   UNL     1      16.368   8.487  25.128  1.00  0.00     0.041 C 
ATOM      8  O   UNL     1      17.114   7.700  24.489  1.00  0.00    -0.550 OA
ATOM      9  O   UNL     1      16.536   8.636  26.499  1.00  0.00    -0.550 OA
ENDBRANCH   6   7
ENDBRANCH   5   6
ENDBRANCH   4   5
ENDBRANCH   3   4
ENDBRANCH   2   3
ENDBRANCH   1   2
BRANCH   1  10
ATOM     10  C   UNL     1      11.141   5.170  27.235  1.00  0.00     0.000 C 
BRANCH  10  11
ATOM     11  C   UNL     1      10.022   4.140  27.474  1.00  0.00    -0.000 C 
BRANCH  11  12
ATOM     12  C   UNL     1       9.480   4.077  28.913  1.00  0.00    -0.000 C 
BRANCH  12  13
ATOM     13  C   UNL     1      10.544   4.421  29.970  1.00  0.00    -0.000 C 
BRANCH  13  14
ATOM     14  C   UNL     1      10.157   5.644  30.819  1.00  0.00    -0.000 C 
BRANCH  14  15
ATOM     15  C   UNL     1       9.008   6.454  30.200  1.00  0.00    -0.003 C 
ATOM     16  C   UNL     1       9.330   7.946  30.197  1.00  0.00     0.004 C 
ENDBRANCH  14  15
ENDBRANCH  13  14
ENDBRANCH  12  13
ENDBRANCH  11  12
ENDBRANCH  10  11
ENDBRANCH   1  10
TORSDOF 12
ENDMDL
MODEL 6
REMARK VINA RESULT:    -4.012      3.228      6.923
REMARK INTER + INTRA:          -8.578
REMARK INTER:                  -7.569
REMARK INTRA:                  -1.009
REMARK UNBOUND:                -1.751
REMARK SMILES CCCCCCCCCCCCCC(=O)[O-]
REMARK SMILES IDX 8 1 9 2 10 3 11 4 12 5 13 6 14 7 15 8 16 9 7 10 6 11 5 12
REMARK SMILES IDX 4 13 3 14 2 15 1 16
REMARK H PARENT
REMARK Flexibility Score: inf
ROOT
ATOM      1  C   UNL     1      12.192   6.065  27.036  1.00  0.00     0.000 C 
ENDROOT
BRANCH   1   2
ATOM      2  C   UNL     1      11.010   6.932  26.573  1.00  0.00     0.000 C 
BRANCH   2   3
ATOM      3  C   UNL     1      10.465   7.838  27.691  1.00  0.00     0.000 C 
BRANCH   3   4
ATOM      4  C   UNL     1       9.280   7.207  28.439  1.00  0.00     0.000 C 
BRANCH   4   5
ATOM      5  C   UNL     1       9.641   6.793  29.876  1.00  0.00     0.006 C 
BRANCH   5   6
ATOM      6  C   UNL     1       9.298   5.324  30.158  1.00  0.00     0.053 C 
BRANCH   6   7
ATOM      7  C   UNL     1      10.369   4.399  29.668  1.00  0.00     0.041 C 
ATOM      8  O   UNL     1      10.123   3.575  28.749  1.00  0.00    -0.550 OA
ATOM      9  O   UNL     1      11.647   4.466  30.210  1.00  0.00    -0.550 OA
ENDBRANCH   6   7
ENDBRANCH   5   6
ENDBRANCH   4   5
ENDBRANCH   3   4
ENDBRANCH   2   3
ENDBRANCH   1   2
BRANCH   1  10
ATOM     10  C   UNL     1      13.543   6.789  26.902  1.00  0.00     0.000 C 
BRANCH  10  11
ATOM     11  C   UNL     1      13.903   7.123  25.443  1.00  0.00    -0.000 C 
BRANCH  11  12
ATOM     12  C   UNL     1      14.173   8.611  25.154  1.00  0.00    -0.000 C 
BRANCH  12  13
ATOM     13  C   UNL     1      15.497   8.846  24.408  1.00  0.00    -0.000 C 
BRANCH  13  14
ATOM     14  C   UNL     1      16.210   7.533  24.044  1.00  0.00    -0.000 C 
BRANCH  14  15
ATOM     15  C   UNL     1      17.694   7.536  24.441  1.00  0.00    -0.003 C 
ATOM     16  C   UNL     1      17.948   8.491  25.604  1.00  0.00     0.004 C 
ENDBRANCH  14  15
ENDBRANCH  13  14
ENDBRANCH  12  13
ENDBRANCH  11  12
ENDBRANCH  10  11
ENDBRANCH   1  10
TORSDOF 12
ENDMDL
MODEL 7
REMARK VINA RESULT:    -3.993      1.485      2.210
REMARK INTER + INTRA:          -8.544
REMARK INTER:                  -7.372
REMARK INTRA:                  -1.172
REMARK UNBOUND:                -1.751
REMARK SMILES CCCCCCCCCCCCCC(=O)[O-]
REMARK SMILES IDX 8 1 9 2 10 3 11 4 12 5 13 6 14 7 15 8 16 9 7 10 6 11 5 12
REMARK SMILES IDX 4 13 3 14 2 15 1 16
REMARK H PARENT
REMARK Flexibility Score: inf
ROOT
ATOM      1  C   UNL     1      10.408   7.448  27.150  1.00  0.00     0.000 C 
ENDROOT
BRANCH   1   2
ATOM      2  C   UNL     1      11.895   7.078  27.020  1.00  0.00     0.000 C 
BRANCH   2   3
ATOM      3  C   UNL     1      12.449   7.338  25.608  1.00  0.00     0.000 C 
BRANCH   3   4
ATOM      4  C   UNL     1      12.708   8.830  25.340  1.00  0.00     0.000 C 
BRANCH   4   5
ATOM      5  C   UNL     1      13.829   9.060  24.313  1.00  0.00     0.006 C 
BRANCH   5   6
ATOM      6  C   UNL     1      15.189   9.296  24.984  1.00  0.00     0.053 C 
BRANCH   6   7
ATOM      7  C   UNL     1      16.179   8.231  24.624  1.00  0.00     0.041 C 
ATOM      8  O   UNL     1      15.821   7.238  23.937  1.00  0.00    -0.550 OA
ATOM      9  O   UNL     1      17.504   8.350  25.024  1.00  0.00    -0.550 OA
ENDBRANCH   6   7
ENDBRANCH   5   6
ENDBRANCH   4   5
ENDBRANCH   3   4
ENDBRANCH   2   3
ENDBRANCH   1   2
BRANCH   1  10
ATOM     10  C   UNL     1      10.101   8.209  28.451  1.00  0.00     0.000 C 
BRANCH  10  11
ATOM     11  C   UNL     1       9.010   7.531  29.300  1.00  0.00    -0.000 C 
BRANCH  11  12
ATOM     12  C   UNL     1       9.455   7.076  30.702  1.00  0.00    -0.000 C 
BRANCH  12  13
ATOM     13  C   UNL     1       9.748   5.568  30.778  1.00  0.00    -0.000 C 
BRANCH  13  14
ATOM     14  C   UNL     1       9.168   4.794  29.583  1.00  0.00    -0.000 C 
BRANCH  14  15
ATOM     15  C   UNL     1      10.249   4.074  28.763  1.00  0.00    -0.003 C 
ATOM     16  C   UNL     1       9.728   3.699  27.379  1.00  0.00     0.004 C 
ENDBRANCH  14  15
ENDBRANCH  13  14
ENDBRANCH  12  13
ENDBRANCH  11  12
ENDBRANCH  10  11
ENDBRANCH   1  10
TORSDOF 12
ENDMDL
MODEL 8
REMARK VINA RESULT:    -3.968     11.174     13.671
REMARK INTER + INTRA:          -8.503
REMARK INTER:                  -6.904
REMARK INTRA:                  -1.599
REMARK UNBOUND:                -1.751
REMARK SMILES CCCCCCCCCCCCCC(=O)[O-]
REMARK SMILES IDX 8 1 9 2 10 3 11 4 12 5 13 6 14 7 15 8 16 9 7 10 6 11 5 12
REMARK SMILES IDX 4 13 3 14 2 15 1 16
REMARK H PARENT
REMARK Flexibility Score: inf
ROOT
ATOM      1  C   UNL     1       4.722   6.732  15.534  1.00  0.00     0.000 C 
ENDROOT
BRANCH   1   2
ATOM      2  C   UNL     1       4.486   8.251  15.467  1.00  0.00     0.000 C 
BRANCH   2   3
ATOM      3  C   UNL     1       3.695   8.781  16.676  1.00  0.00     0.000 C 
BRANCH   3   4
ATOM      4  C   UNL     1       3.775   7.845  17.892  1.00  0.00     0.000 C 
BRANCH   4   5
ATOM      5  C   UNL     1       4.728   8.369  18.980  1.00  0.00     0.006 C 
BRANCH   5   6
ATOM      6  C   UNL     1       5.988   7.504  19.111  1.00  0.00     0.053 C 
BRANCH   6   7
ATOM      7  C   UNL     1       6.260   7.131  20.536  1.00  0.00     0.041 C 
ATOM      8  O   UNL     1       5.324   7.117  21.378  1.00  0.00    -0.550 OA
ATOM      9  O   UNL     1       7.544   6.771  20.927  1.00  0.00    -0.550 OA
ENDBRANCH   6   7
ENDBRANCH   5   6
ENDBRANCH   4   5
ENDBRANCH   3   4
ENDBRANCH   2   3
ENDBRANCH   1   2
BRANCH   1  10
ATOM     10  C   UNL     1       6.216   6.368  15.551  1.00  0.00     0.000 C 
BRANCH  10  11
ATOM     11  C   UNL     1       7.134   7.589  15.358  1.00  0.00    -0.000 C 
BRANCH  11  12
ATOM     12  C   UNL     1       8.253   7.415  14.314  1.00  0.00    -0.000 C 
BRANCH  12  13
ATOM     13  C   UNL     1       7.785   7.715  12.879  1.00  0.00    -0.000 C 
BRANCH  13  14
ATOM     14  C   UNL     1       7.901   6.493  11.953  1.00  0.00    -0.000 C 
BRANCH  14  15
ATOM     15  C   UNL     1       6.672   5.575  12.028  1.00  0.00    -0.003 C 
ATOM     16  C   UNL     1       5.383   6.371  11.844  1.00  0.00     0.004 C 
ENDBRANCH  14  15
ENDBRANCH  13  14
ENDBRANCH  12  13
ENDBRANCH  11  12
ENDBRANCH  10  11
ENDBRANCH   1  10
TORSDOF 12
ENDMDL
MODEL 9
REMARK VINA RESULT:    -3.907      3.275      6.799
REMARK INTER + INTRA:          -8.398
REMARK INTER:                  -7.252
REMARK INTRA:                  -1.146
REMARK UNBOUND:                -1.751
REMARK SMILES CCCCCCCCCCCCCC(=O)[O-]
REMARK SMILES IDX 8 1 9 2 10 3 11 4 12 5 13 6 14 7 15 8 16 9 7 10 6 11 5 12
REMARK SMILES IDX 4 13 3 14 2 15 1 16
REMARK H PARENT
REMARK Flexibility Score: inf
ROOT
ATOM      1  C   UNL     1      13.523   6.692  26.298  1.00  0.00     0.000 C 
ENDROOT
BRANCH   1   2
ATOM      2  C   UNL     1      12.205   7.471  26.451  1.00  0.00     0.000 C 
BRANCH   2   3
ATOM      3  C   UNL     1      10.967   6.560  26.380  1.00  0.00     0.000 C 
BRANCH   3   4
ATOM      4  C   UNL     1      10.028   6.745  27.583  1.00  0.00     0.000 C 
BRANCH   4   5
ATOM      5  C   UNL     1       9.036   5.580  27.743  1.00  0.00     0.006 C 
BRANCH   5   6
ATOM      6  C   UNL     1       9.692   4.341  28.365  1.00  0.00     0.053 C 
BRANCH   6   7
ATOM      7  C   UNL     1      10.199   4.616  29.747  1.00  0.00     0.041 C 
ATOM      8  O   UNL     1       9.396   4.914  30.670  1.00  0.00    -0.550 OA
ATOM      9  O   UNL     1      11.558   4.516  30.022  1.00  0.00    -0.550 OA
ENDBRANCH   6   7
ENDBRANCH   5   6
ENDBRANCH   4   5
ENDBRANCH   3   4
ENDBRANCH   2   3
ENDBRANCH   1   2
BRANCH   1  10
ATOM     10  C   UNL     1      14.632   7.533  25.644  1.00  0.00     0.000 C 
BRANCH  10  11
ATOM     11  C   UNL     1      14.084   8.650  24.738  1.00  0.00    -0.000 C 
BRANCH  11  12
ATOM     12  C   UNL     1      14.694   8.712  23.325  1.00  0.00    -0.000 C 
BRANCH  12  13
ATOM     13  C   UNL     1      13.713   8.260  22.229  1.00  0.00    -0.000 C 
BRANCH  13  14
ATOM     14  C   UNL     1      12.253   8.247  22.713  1.00  0.00    -0.000 C 
BRANCH  14  15
ATOM     15  C   UNL     1      11.606   6.859  22.603  1.00  0.00    -0.003 C 
ATOM     16  C   UNL     1      10.690   6.777  21.385  1.00  0.00     0.004 C 
ENDBRANCH  14  15
ENDBRANCH  13  14
ENDBRANCH  12  13
ENDBRANCH  11  12
ENDBRANCH  10  11
ENDBRANCH   1  10
TORSDOF 12
ENDMDL
