MODEL 1
REMARK VINA RESULT:    -5.257      0.000      0.000
REMARK INTER + INTRA:          -7.189
REMARK INTER:                  -7.102
REMARK INTRA:                  -0.087
REMARK UNBOUND:                -0.087
REMARK SMILES [NH3+]CCCC[C@@H]([NH3+])C(=O)[O-]
REMARK SMILES IDX 4 1 3 2 2 3 1 4 5 8 6 9 7 10 8 14 9 15 10 16
REMARK H PARENT 1 5 1 6 1 7 7 11 7 12 7 13
REMARK Flexibility Score: inf
ROOT
ATOM      1  C   UNL     1      -3.354  -4.071  -3.840  1.00  0.00     0.012 C 
ENDROOT
BRANCH   1   2
ATOM      2  C   UNL     1      -3.329  -4.988  -2.611  1.00  0.00     0.061 C 
BRANCH   2   3
ATOM      3  C   UNL     1      -3.607  -6.445  -3.003  1.00  0.00     0.258 C 
BRANCH   3   4
ATOM      4  N   UNL     1      -2.499  -7.313  -2.604  1.00  0.00    -0.358 N 
ATOM      5  H   UNL     1      -2.735  -8.312  -2.806  1.00  0.00     0.344 HD
ATOM      6  H   UNL     1      -1.646  -7.051  -3.149  1.00  0.00     0.344 HD
ATOM      7  H   UNL     1      -2.299  -7.196  -1.585  1.00  0.00     0.344 HD
ENDBRANCH   3   4
ENDBRANCH   2   3
ENDBRANCH   1   2
BRANCH   1   8
ATOM      8  C   UNL     1      -2.350  -2.918  -3.688  1.00  0.00     0.072 C 
BRANCH   8   9
ATOM      9  C   UNL     1      -3.031  -1.531  -3.693  1.00  0.00     0.227 C 
BRANCH   9  10
ATOM     10  N   UNL     1      -4.277  -1.534  -2.913  1.00  0.00    -0.350 N 
ATOM     11  H   UNL     1      -4.917  -0.782  -3.254  1.00  0.00     0.345 HD
ATOM     12  H   UNL     1      -4.067  -1.335  -1.907  1.00  0.00     0.345 HD
ATOM     13  H   UNL     1      -4.758  -2.459  -2.985  1.00  0.00     0.345 HD
ENDBRANCH   9  10
BRANCH   9  14
ATOM     14  C   UNL     1      -2.080  -0.504  -3.138  1.00  0.00     0.099 C 
ATOM     15  O   UNL     1      -1.429   0.242  -3.917  1.00  0.00    -0.544 OA
ATOM     16  O   UNL     1      -1.898  -0.385  -1.765  1.00  0.00    -0.544 OA
ENDBRANCH   9  14
ENDBRANCH   8   9
ENDBRANCH   1   8
TORSDOF 7
ENDMDL
MODEL 2
REMARK VINA RESULT:    -5.200      2.312      3.534
REMARK INTER + INTRA:          -7.111
REMARK INTER:                  -6.603
REMARK INTRA:                  -0.508
REMARK UNBOUND:                -0.087
REMARK SMILES [NH3+]CCCC[C@@H]([NH3+])C(=O)[O-]
REMARK SMILES IDX 4 1 3 2 2 3 1 4 5 8 6 9 7 10 8 14 9 15 10 16
REMARK H PARENT 1 5 1 6 1 7 7 11 7 12 7 13
REMARK Flexibility Score: inf
ROOT
ATOM      1  C   UNL     1      -3.369  -3.317  -5.270  1.00  0.00     0.012 C 
ENDROOT
BRANCH   1   2
ATOM      2  C   UNL     1      -4.559  -2.379  -5.501  1.00  0.00     0.061 C 
BRANCH   2   3
ATOM      3  C   UNL     1      -4.349  -1.518  -6.755  1.00  0.00     0.258 C 
BRANCH   3   4
ATOM      4  N   UNL     1      -3.477  -0.380  -6.466  1.00  0.00    -0.358 N 
ATOM      5  H   UNL     1      -2.887  -0.160  -7.301  1.00  0.00     0.344 HD
ATOM      6  H   UNL     1      -4.067   0.454  -6.239  1.00  0.00     0.344 HD
ATOM      7  H   UNL     1      -2.864  -0.594  -5.647  1.00  0.00     0.344 HD
ENDBRANCH   3   4
ENDBRANCH   2   3
ENDBRANCH   1   2
BRANCH   1   8
ATOM      8  C   UNL     1      -2.578  -2.906  -4.019  1.00  0.00     0.072 C 
BRANCH   8   9
ATOM      9  C   UNL     1      -3.286  -1.801  -3.203  1.00  0.00     0.227 C 
BRANCH   9  10
ATOM     10  N   UNL     1      -3.779  -2.308  -1.914  1.00  0.00    -0.350 N 
ATOM     11  H   UNL     1      -3.651  -3.344  -1.862  1.00  0.00     0.345 HD
ATOM     12  H   UNL     1      -4.803  -2.113  -1.824  1.00  0.00     0.345 HD
ATOM     13  H   UNL     1      -3.274  -1.855  -1.118  1.00  0.00     0.345 HD
ENDBRANCH   9  10
BRANCH   9  14
ATOM     14  C   UNL     1      -2.333  -0.658  -2.975  1.00  0.00     0.099 C 
ATOM     15  O   UNL     1      -1.922   0.027  -3.950  1.00  0.00    -0.544 OA
ATOM     16  O   UNL     1      -1.885  -0.362  -1.693  1.00  0.00    -0.544 OA
ENDBRANCH   9  14
ENDBRANCH   8   9
ENDBRANCH   1   8
TORSDOF 7
ENDMDL
MODEL 3
REMARK VINA RESULT:    -5.033      2.049      2.463
REMARK INTER + INTRA:          -6.885
REMARK INTER:                  -6.329
REMARK INTRA:                  -0.556
REMARK UNBOUND:                -0.087
REMARK SMILES [NH3+]CCCC[C@@H]([NH3+])C(=O)[O-]
REMARK SMILES IDX 4 1 3 2 2 3 1 4 5 8 6 9 7 10 8 14 9 15 10 16
REMARK H PARENT 1 5 1 6 1 7 7 11 7 12 7 13
REMARK Flexibility Score: inf
ROOT
ATOM      1  C   UNL     1      -4.806  -3.007  -4.465  1.00  0.00     0.012 C 
ENDROOT
BRANCH   1   2
ATOM      2  C   UNL     1      -3.501  -3.790  -4.276  1.00  0.00     0.061 C 
BRANCH   2   3
ATOM      3  C   UNL     1      -3.462  -4.474  -2.903  1.00  0.00     0.258 C 
BRANCH   3   4
ATOM      4  N   UNL     1      -4.222  -3.709  -1.916  1.00  0.00    -0.358 N 
ATOM      5  H   UNL     1      -5.208  -3.583  -2.241  1.00  0.00     0.344 HD
ATOM      6  H   UNL     1      -4.229  -4.230  -1.009  1.00  0.00     0.344 HD
ATOM      7  H   UNL     1      -3.778  -2.774  -1.765  1.00  0.00     0.344 HD
ENDBRANCH   3   4
ENDBRANCH   2   3
ENDBRANCH   1   2
BRANCH   1   8
ATOM      8  C   UNL     1      -4.526  -1.585  -4.975  1.00  0.00     0.072 C 
BRANCH   8   9
ATOM      9  C   UNL     1      -3.234  -0.981  -4.379  1.00  0.00     0.227 C 
BRANCH   9  10
ATOM     10  N   UNL     1      -2.600  -0.031  -5.304  1.00  0.00    -0.350 N 
ATOM     11  H   UNL     1      -2.727   0.947  -4.958  1.00  0.00     0.345 HD
ATOM     12  H   UNL     1      -3.056  -0.093  -6.244  1.00  0.00     0.345 HD
ATOM     13  H   UNL     1      -1.580  -0.235  -5.405  1.00  0.00     0.345 HD
ENDBRANCH   9  10
BRANCH   9  14
ATOM     14  C   UNL     1      -3.557  -0.296  -3.078  1.00  0.00     0.099 C 
ATOM     15  O   UNL     1      -4.222   0.774  -3.074  1.00  0.00    -0.544 OA
ATOM     16  O   UNL     1      -3.107  -0.827  -1.875  1.00  0.00    -0.544 OA
ENDBRANCH   9  14
ENDBRANCH   8   9
ENDBRANCH   1   8
TORSDOF 7
ENDMDL
MODEL 4
REMARK VINA RESULT:    -4.981      3.553      4.562
REMARK INTER + INTRA:          -6.815
REMARK INTER:                  -6.547
REMARK INTRA:                  -0.268
REMARK UNBOUND:                -0.087
REMARK SMILES [NH3+]CCCC[C@@H]([NH3+])C(=O)[O-]
REMARK SMILES IDX 4 1 3 2 2 3 1 4 5 8 6 9 7 10 8 14 9 15 10 16
REMARK H PARENT 1 5 1 6 1 7 7 11 7 12 7 13
REMARK Flexibility Score: inf
ROOT
ATOM      1  C   UNL     1      -4.875  -2.049  -5.076  1.00  0.00     0.012 C 
ENDROOT
BRANCH   1   2
ATOM      2  C   UNL     1      -4.215  -1.168  -6.144  1.00  0.00     0.061 C 
BRANCH   2   3
ATOM      3  C   UNL     1      -5.254  -0.290  -6.854  1.00  0.00     0.258 C 
BRANCH   3   4
ATOM      4  N   UNL     1      -4.887   1.123  -6.773  1.00  0.00    -0.358 N 
ATOM      5  H   UNL     1      -4.272   1.287  -5.943  1.00  0.00     0.344 HD
ATOM      6  H   UNL     1      -4.365   1.392  -7.638  1.00  0.00     0.344 HD
ATOM      7  H   UNL     1      -5.746   1.715  -6.698  1.00  0.00     0.344 HD
ENDBRANCH   3   4
ENDBRANCH   2   3
ENDBRANCH   1   2
BRANCH   1   8
ATOM      8  C   UNL     1      -4.443  -1.622  -3.665  1.00  0.00     0.072 C 
BRANCH   8   9
ATOM      9  C   UNL     1      -3.355  -0.524  -3.682  1.00  0.00     0.227 C 
BRANCH   9  10
ATOM     10  N   UNL     1      -3.816   0.708  -3.026  1.00  0.00    -0.350 N 
ATOM     11  H   UNL     1      -3.705   1.523  -3.670  1.00  0.00     0.345 HD
ATOM     12  H   UNL     1      -3.234   0.898  -2.177  1.00  0.00     0.345 HD
ATOM     13  H   UNL     1      -4.818   0.625  -2.740  1.00  0.00     0.345 HD
ENDBRANCH   9  10
BRANCH   9  14
ATOM     14  C   UNL     1      -2.116  -1.038  -3.000  1.00  0.00     0.099 C 
ATOM     15  O   UNL     1      -1.565  -0.359  -2.092  1.00  0.00    -0.544 OA
ATOM     16  O   UNL     1      -1.559  -2.254  -3.378  1.00  0.00    -0.544 OA
ENDBRANCH   9  14
ENDBRANCH   8   9
ENDBRANCH   1   8
TORSDOF 7
ENDMDL
MODEL 5
REMARK VINA RESULT:    -4.828      3.092      5.113
REMARK INTER + INTRA:          -6.608
REMARK INTER:                  -6.470
REMARK INTRA:                  -0.139
REMARK UNBOUND:                -0.087
REMARK SMILES [NH3+]CCCC[C@@H]([NH3+])C(=O)[O-]
REMARK SMILES IDX 4 1 3 2 2 3 1 4 5 8 6 9 7 10 8 14 9 15 10 16
REMARK H PARENT 1 5 1 6 1 7 7 11 7 12 7 13
REMARK Flexibility Score: inf
ROOT
ATOM      1  C   UNL     1      -2.292  -2.078  -3.412  1.00  0.00     0.012 C 
ENDROOT
BRANCH   1   2
ATOM      2  C   UNL     1      -2.361  -0.547  -3.443  1.00  0.00     0.061 C 
BRANCH   2   3
ATOM      3  C   UNL     1      -3.444  -0.023  -2.490  1.00  0.00     0.258 C 
BRANCH   3   4
ATOM      4  N   UNL     1      -4.215   1.051  -3.114  1.00  0.00    -0.358 N 
ATOM      5  H   UNL     1      -4.601   1.689  -2.381  1.00  0.00     0.344 HD
ATOM      6  H   UNL     1      -3.587   1.601  -3.744  1.00  0.00     0.344 HD
ATOM      7  H   UNL     1      -4.997   0.650  -3.681  1.00  0.00     0.344 HD
ENDBRANCH   3   4
ENDBRANCH   2   3
ENDBRANCH   1   2
BRANCH   1   8
ATOM      8  C   UNL     1      -3.482  -2.668  -2.639  1.00  0.00     0.072 C 
BRANCH   8   9
ATOM      9  C   UNL     1      -3.804  -4.120  -3.060  1.00  0.00     0.227 C 
BRANCH   9  10
ATOM     10  N   UNL     1      -3.613  -5.063  -1.950  1.00  0.00    -0.350 N 
ATOM     11  H   UNL     1      -4.538  -5.386  -1.587  1.00  0.00     0.345 HD
ATOM     12  H   UNL     1      -3.115  -4.588  -1.161  1.00  0.00     0.345 HD
ATOM     13  H   UNL     1      -3.052  -5.891  -2.257  1.00  0.00     0.345 HD
ENDBRANCH   9  10
BRANCH   9  14
ATOM     14  C   UNL     1      -5.223  -4.193  -3.558  1.00  0.00     0.099 C 
ATOM     15  O   UNL     1      -5.589  -3.482  -4.532  1.00  0.00    -0.544 OA
ATOM     16  O   UNL     1      -6.143  -5.029  -2.937  1.00  0.00    -0.544 OA
ENDBRANCH   9  14
ENDBRANCH   8   9
ENDBRANCH   1   8
TORSDOF 7
ENDMDL
MODEL 6
REMARK VINA RESULT:    -4.823      1.109      1.585
REMARK INTER + INTRA:          -6.601
REMARK INTER:                  -6.488
REMARK INTRA:                  -0.113
REMARK UNBOUND:                -0.087
REMARK SMILES [NH3+]CCCC[C@@H]([NH3+])C(=O)[O-]
REMARK SMILES IDX 4 1 3 2 2 3 1 4 5 8 6 9 7 10 8 14 9 15 10 16
REMARK H PARENT 1 5 1 6 1 7 7 11 7 12 7 13
REMARK Flexibility Score: inf
ROOT
ATOM      1  C   UNL     1      -2.997  -4.828  -2.982  1.00  0.00     0.012 C 
ENDROOT
BRANCH   1   2
ATOM      2  C   UNL     1      -4.236  -5.706  -3.194  1.00  0.00     0.061 C 
BRANCH   2   3
ATOM      3  C   UNL     1      -3.885  -7.195  -3.070  1.00  0.00     0.258 C 
BRANCH   3   4
ATOM      4  N   UNL     1      -2.529  -7.371  -2.551  1.00  0.00    -0.358 N 
ATOM      5  H   UNL     1      -2.082  -8.208  -2.991  1.00  0.00     0.344 HD
ATOM      6  H   UNL     1      -1.962  -6.524  -2.783  1.00  0.00     0.344 HD
ATOM      7  H   UNL     1      -2.554  -7.488  -1.512  1.00  0.00     0.344 HD
ENDBRANCH   3   4
ENDBRANCH   2   3
ENDBRANCH   1   2
BRANCH   1   8
ATOM      8  C   UNL     1      -3.392  -3.356  -2.792  1.00  0.00     0.072 C 
BRANCH   8   9
ATOM      9  C   UNL     1      -2.649  -2.409  -3.763  1.00  0.00     0.227 C 
BRANCH   9  10
ATOM     10  N   UNL     1      -3.333  -2.316  -5.061  1.00  0.00    -0.350 N 
ATOM     11  H   UNL     1      -4.341  -2.571  -4.956  1.00  0.00     0.345 HD
ATOM     12  H   UNL     1      -2.907  -2.993  -5.736  1.00  0.00     0.345 HD
ATOM     13  H   UNL     1      -3.257  -1.350  -5.452  1.00  0.00     0.345 HD
ENDBRANCH   9  10
BRANCH   9  14
ATOM     14  C   UNL     1      -2.536  -1.043  -3.141  1.00  0.00     0.099 C 
ATOM     15  O   UNL     1      -3.025  -0.824  -2.001  1.00  0.00    -0.544 OA
ATOM     16  O   UNL     1      -1.910  -0.010  -3.828  1.00  0.00    -0.544 OA
ENDBRANCH   9  14
ENDBRANCH   8   9
ENDBRANCH   1   8
TORSDOF 7
ENDMDL
MODEL 7
REMARK VINA RESULT:    -4.699      3.292      5.418
REMARK INTER + INTRA:          -6.434
REMARK INTER:                  -6.340
REMARK INTRA:                  -0.094
REMARK UNBOUND:                -0.087
REMARK SMILES [NH3+]CCCC[C@@H]([NH3+])C(=O)[O-]
REMARK SMILES IDX 4 1 3 2 2 3 1 4 5 8 6 9 7 10 8 14 9 15 10 16
REMARK H PARENT 1 5 1 6 1 7 7 11 7 12 7 13
REMARK Flexibility Score: inf
ROOT
ATOM      1  C   UNL     1      -3.002  -3.150  -3.883  1.00  0.00     0.012 C 
ENDROOT
BRANCH   1   2
ATOM      2  C   UNL     1      -2.308  -1.864  -3.419  1.00  0.00     0.061 C 
BRANCH   2   3
ATOM      3  C   UNL     1      -3.278  -0.960  -2.647  1.00  0.00     0.258 C 
BRANCH   3   4
ATOM      4  N   UNL     1      -3.218   0.414  -3.142  1.00  0.00    -0.358 N 
ATOM      5  H   UNL     1      -3.632   0.469  -4.101  1.00  0.00     0.344 HD
ATOM      6  H   UNL     1      -3.765   1.033  -2.501  1.00  0.00     0.344 HD
ATOM      7  H   UNL     1      -2.226   0.745  -3.166  1.00  0.00     0.344 HD
ENDBRANCH   3   4
ENDBRANCH   2   3
ENDBRANCH   1   2
BRANCH   1   8
ATOM      8  C   UNL     1      -3.381  -4.035  -2.685  1.00  0.00     0.072 C 
BRANCH   8   9
ATOM      9  C   UNL     1      -3.750  -5.477  -3.103  1.00  0.00     0.227 C 
BRANCH   9  10
ATOM     10  N   UNL     1      -2.766  -6.453  -2.614  1.00  0.00    -0.350 N 
ATOM     11  H   UNL     1      -2.897  -6.616  -1.590  1.00  0.00     0.345 HD
ATOM     12  H   UNL     1      -1.797  -6.081  -2.751  1.00  0.00     0.345 HD
ATOM     13  H   UNL     1      -2.857  -7.361  -3.125  1.00  0.00     0.345 HD
ENDBRANCH   9  10
BRANCH   9  14
ATOM     14  C   UNL     1      -5.118  -5.816  -2.574  1.00  0.00     0.099 C 
ATOM     15  O   UNL     1      -6.077  -5.017  -2.742  1.00  0.00    -0.544 OA
ATOM     16  O   UNL     1      -5.328  -7.003  -1.882  1.00  0.00    -0.544 OA
ENDBRANCH   9  14
ENDBRANCH   8   9
ENDBRANCH   1   8
TORSDOF 7
ENDMDL
MODEL 8
REMARK VINA RESULT:    -4.490      3.164      3.857
REMARK INTER + INTRA:          -6.152
REMARK INTER:                  -5.630
REMARK INTRA:                  -0.521
REMARK UNBOUND:                -0.087
REMARK SMILES [NH3+]CCCC[C@@H]([NH3+])C(=O)[O-]
REMARK SMILES IDX 4 1 3 2 2 3 1 4 5 8 6 9 7 10 8 14 9 15 10 16
REMARK H PARENT 1 5 1 6 1 7 7 11 7 12 7 13
REMARK Flexibility Score: inf
ROOT
ATOM      1  C   UNL     1      -3.081  -1.436  -3.493  1.00  0.00     0.012 C 
ENDROOT
BRANCH   1   2
ATOM      2  C   UNL     1      -3.451  -2.699  -2.708  1.00  0.00     0.061 C 
BRANCH   2   3
ATOM      3  C   UNL     1      -2.973  -3.963  -3.436  1.00  0.00     0.258 C 
BRANCH   3   4
ATOM      4  N   UNL     1      -1.946  -3.638  -4.425  1.00  0.00    -0.358 N 
ATOM      5  H   UNL     1      -1.592  -2.666  -4.269  1.00  0.00     0.344 HD
ATOM      6  H   UNL     1      -1.149  -4.308  -4.324  1.00  0.00     0.344 HD
ATOM      7  H   UNL     1      -2.338  -3.721  -5.391  1.00  0.00     0.344 HD
ENDBRANCH   3   4
ENDBRANCH   2   3
ENDBRANCH   1   2
BRANCH   1   8
ATOM      8  C   UNL     1      -4.339  -0.685  -3.956  1.00  0.00     0.072 C 
BRANCH   8   9
ATOM      9  C   UNL     1      -4.517  -0.709  -5.491  1.00  0.00     0.227 C 
BRANCH   9  10
ATOM     10  N   UNL     1      -3.317  -0.220  -6.185  1.00  0.00    -0.350 N 
ATOM     11  H   UNL     1      -3.538  -0.016  -7.186  1.00  0.00     0.345 HD
ATOM     12  H   UNL     1      -2.574  -0.957  -6.171  1.00  0.00     0.345 HD
ATOM     13  H   UNL     1      -2.948   0.644  -5.727  1.00  0.00     0.345 HD
ENDBRANCH   9  10
BRANCH   9  14
ATOM     14  C   UNL     1      -4.834  -2.112  -5.936  1.00  0.00     0.099 C 
ATOM     15  O   UNL     1      -5.908  -2.663  -5.575  1.00  0.00    -0.544 OA
ATOM     16  O   UNL     1      -3.937  -2.815  -6.731  1.00  0.00    -0.544 OA
ENDBRANCH   9  14
ENDBRANCH   8   9
ENDBRANCH   1   8
TORSDOF 7
ENDMDL
MODEL 9
REMARK VINA RESULT:    -4.315      2.644      3.348
REMARK INTER + INTRA:          -5.915
REMARK INTER:                  -5.396
REMARK INTRA:                  -0.519
REMARK UNBOUND:                -0.087
REMARK SMILES [NH3+]CCCC[C@@H]([NH3+])C(=O)[O-]
REMARK SMILES IDX 4 1 3 2 2 3 1 4 5 8 6 9 7 10 8 14 9 15 10 16
REMARK H PARENT 1 5 1 6 1 7 7 11 7 12 7 13
REMARK Flexibility Score: inf
ROOT
ATOM      1  C   UNL     1      -4.371  -6.513  -4.865  1.00  0.00     0.012 C 
ENDROOT
BRANCH   1   2
ATOM      2  C   UNL     1      -5.473  -7.027  -3.931  1.00  0.00     0.061 C 
BRANCH   2   3
ATOM      3  C   UNL     1      -4.885  -7.522  -2.603  1.00  0.00     0.258 C 
BRANCH   3   4
ATOM      4  N   UNL     1      -5.399  -6.739  -1.480  1.00  0.00    -0.358 N 
ATOM      5  H   UNL     1      -6.435  -6.861  -1.403  1.00  0.00     0.344 HD
ATOM      6  H   UNL     1      -4.953  -7.074  -0.596  1.00  0.00     0.344 HD
ATOM      7  H   UNL     1      -5.171  -5.727  -1.612  1.00  0.00     0.344 HD
ENDBRANCH   3   4
ENDBRANCH   2   3
ENDBRANCH   1   2
BRANCH   1   8
ATOM      8  C   UNL     1      -4.331  -4.977  -4.877  1.00  0.00     0.072 C 
BRANCH   8   9
ATOM      9  C   UNL     1      -3.299  -4.400  -3.882  1.00  0.00     0.227 C 
BRANCH   9  10
ATOM     10  N   UNL     1      -2.264  -3.613  -4.567  1.00  0.00    -0.350 N 
ATOM     11  H   UNL     1      -1.427  -3.505  -3.952  1.00  0.00     0.345 HD
ATOM     12  H   UNL     1      -2.626  -2.653  -4.775  1.00  0.00     0.345 HD
ATOM     13  H   UNL     1      -1.980  -4.071  -5.463  1.00  0.00     0.345 HD
ENDBRANCH   9  10
BRANCH   9  14
ATOM     14  C   UNL     1      -4.007  -3.545  -2.866  1.00  0.00     0.099 C 
ATOM     15  O   UNL     1      -3.403  -2.587  -2.313  1.00  0.00    -0.544 OA
ATOM     16  O   UNL     1      -5.325  -3.816  -2.517  1.00  0.00    -0.544 OA
ENDBRANCH   9  14
ENDBRANCH   8   9
ENDBRANCH   1   8
TORSDOF 7
ENDMDL
