MODEL 1
REMARK VINA RESULT:    -4.476      0.000      0.000
REMARK INTER + INTRA:         -10.041
REMARK INTER:                  -7.877
REMARK INTRA:                  -2.163
REMARK UNBOUND:                -2.163
REMARK SMILES CCCCCCC=CCCCCCCCC(=O)[O-]
REMARK SMILES IDX 10 1 11 2 12 3 13 4 14 5 15 6 16 7 17 8 18 9 9 10 8 11 7 12
REMARK SMILES IDX 6 13 5 14 4 15 3 16 2 17 1 18
REMARK H PARENT
REMARK Flexibility Score: inf
ROOT
ATOM      1  C   UNL     1       7.698   5.637  19.425  1.00  0.00     0.004 C 
ENDROOT
BRANCH   1   2
ATOM      2  C   UNL     1       7.560   4.105  19.357  1.00  0.00     0.000 C 
BRANCH   2   3
ATOM      3  C   UNL     1       6.096   3.646  19.258  1.00  0.00     0.000 C 
BRANCH   3   4
ATOM      4  C   UNL     1       5.834   2.340  20.028  1.00  0.00     0.000 C 
BRANCH   4   5
ATOM      5  C   UNL     1       5.401   2.587  21.482  1.00  0.00     0.006 C 
BRANCH   5   6
ATOM      6  C   UNL     1       4.475   3.801  21.628  1.00  0.00     0.053 C 
BRANCH   6   7
ATOM      7  C   UNL     1       4.939   4.681  22.746  1.00  0.00     0.041 C 
ATOM      8  O   UNL     1       5.491   5.784  22.497  1.00  0.00    -0.550 OA
ATOM      9  O   UNL     1       4.806   4.259  24.063  1.00  0.00    -0.550 OA
ENDBRANCH   6   7
ENDBRANCH   5   6
ENDBRANCH   4   5
ENDBRANCH   3   4
ENDBRANCH   2   3
ENDBRANCH   1   2
BRANCH   1  10
ATOM     10  C   UNL     1       6.370   6.349  19.130  1.00  0.00     0.027 C 
BRANCH  10  11
ATOM     11  C   UNL     1       6.477   7.277  17.946  1.00  0.00    -0.031 C 
ATOM     12  C   UNL     1       6.184   6.938  16.676  1.00  0.00    -0.031 C 
BRANCH  12  13
ATOM     13  C   UNL     1       5.619   5.606  16.255  1.00  0.00     0.027 C 
BRANCH  13  14
ATOM     14  C   UNL     1       6.661   4.797  15.475  1.00  0.00     0.004 C 
BRANCH  14  15
ATOM     15  C   UNL     1       7.961   5.592  15.306  1.00  0.00     0.000 C 
BRANCH  15  16
ATOM     16  C   UNL     1       9.141   4.867  15.973  1.00  0.00    -0.000 C 
BRANCH  16  17
ATOM     17  C   UNL     1      10.148   5.840  16.606  1.00  0.00    -0.003 C 
ATOM     18  C   UNL     1      10.842   6.728  15.574  1.00  0.00     0.004 C 
ENDBRANCH  16  17
ENDBRANCH  15  16
ENDBRANCH  14  15
ENDBRANCH  13  14
ENDBRANCH  12  13
ENDBRANCH  10  11
ENDBRANCH   1  10
TORSDOF 13
ENDMDL
MODEL 2
REMARK VINA RESULT:    -4.465      2.464      4.792
REMARK INTER + INTRA:         -10.022
REMARK INTER:                  -7.973
REMARK INTRA:                  -2.049
REMARK UNBOUND:                -2.163
REMARK SMILES CCCCCCC=CCCCCCCCC(=O)[O-]
REMARK SMILES IDX 10 1 11 2 12 3 13 4 14 5 15 6 16 7 17 8 18 9 9 10 8 11 7 12
REMARK SMILES IDX 6 13 5 14 4 15 3 16 2 17 1 18
REMARK H PARENT
REMARK Flexibility Score: inf
ROOT
ATOM      1  C   UNL     1       5.145   4.611  23.096  1.00  0.00     0.004 C 
ENDROOT
BRANCH   1   2
ATOM      2  C   UNL     1       5.905   5.803  22.487  1.00  0.00     0.000 C 
BRANCH   2   3
ATOM      3  C   UNL     1       5.187   6.401  21.266  1.00  0.00     0.000 C 
BRANCH   3   4
ATOM      4  C   UNL     1       6.007   7.511  20.584  1.00  0.00     0.000 C 
BRANCH   4   5
ATOM      5  C   UNL     1       7.272   7.882  21.374  1.00  0.00     0.006 C 
BRANCH   5   6
ATOM      6  C   UNL     1       7.482   9.399  21.478  1.00  0.00     0.053 C 
BRANCH   6   7
ATOM      7  C   UNL     1       6.626   9.971  22.564  1.00  0.00     0.041 C 
ATOM      8  O   UNL     1       6.306  11.188  22.543  1.00  0.00    -0.550 OA
ATOM      9  O   UNL     1       6.222   9.170  23.625  1.00  0.00    -0.550 OA
ENDBRANCH   6   7
ENDBRANCH   5   6
ENDBRANCH   4   5
ENDBRANCH   3   4
ENDBRANCH   2   3
ENDBRANCH   1   2
BRANCH   1  10
ATOM     10  C   UNL     1       4.458   3.756  22.022  1.00  0.00     0.027 C 
BRANCH  10  11
ATOM     11  C   UNL     1       5.305   2.577  21.611  1.00  0.00    -0.031 C 
ATOM     12  C   UNL     1       5.910   2.447  20.415  1.00  0.00    -0.031 C 
BRANCH  12  13
ATOM     13  C   UNL     1       5.909   3.500  19.337  1.00  0.00     0.027 C 
BRANCH  13  14
ATOM     14  C   UNL     1       7.270   4.200  19.261  1.00  0.00     0.004 C 
BRANCH  14  15
ATOM     15  C   UNL     1       7.388   5.034  17.979  1.00  0.00     0.000 C 
BRANCH  15  16
ATOM     16  C   UNL     1       6.026   5.162  17.278  1.00  0.00    -0.000 C 
BRANCH  16  17
ATOM     17  C   UNL     1       5.981   6.339  16.290  1.00  0.00    -0.003 C 
ATOM     18  C   UNL     1       6.401   7.663  16.927  1.00  0.00     0.004 C 
ENDBRANCH  16  17
ENDBRANCH  15  16
ENDBRANCH  14  15
ENDBRANCH  13  14
ENDBRANCH  12  13
ENDBRANCH  10  11
ENDBRANCH   1  10
TORSDOF 13
ENDMDL
MODEL 3
REMARK VINA RESULT:    -4.345      2.206      4.060
REMARK INTER + INTRA:          -9.810
REMARK INTER:                  -7.859
REMARK INTRA:                  -1.951
REMARK UNBOUND:                -2.163
REMARK SMILES CCCCCCC=CCCCCCCCC(=O)[O-]
REMARK SMILES IDX 10 1 11 2 12 3 13 4 14 5 15 6 16 7 17 8 18 9 9 10 8 11 7 12
REMARK SMILES IDX 6 13 5 14 4 15 3 16 2 17 1 18
REMARK H PARENT
REMARK Flexibility Score: inf
ROOT
ATOM      1  C   UNL     1       5.992   5.337  16.217  1.00  0.00     0.004 C 
ENDROOT
BRANCH   1   2
ATOM      2  C   UNL     1       6.019   6.803  16.686  1.00  0.00     0.000 C 
BRANCH   2   3
ATOM      3  C   UNL     1       6.656   6.968  18.075  1.00  0.00     0.000 C 
BRANCH   3   4
ATOM      4  C   UNL     1       6.187   5.893  19.071  1.00  0.00     0.000 C 
BRANCH   4   5
ATOM      5  C   UNL     1       7.357   5.166  19.752  1.00  0.00     0.006 C 
BRANCH   5   6
ATOM      6  C   UNL     1       7.451   3.688  19.350  1.00  0.00     0.053 C 
BRANCH   6   7
ATOM      7  C   UNL     1       6.716   2.832  20.334  1.00  0.00     0.041 C 
ATOM      8  O   UNL     1       5.711   2.167  19.969  1.00  0.00    -0.550 OA
ATOM      9  O   UNL     1       7.111   2.808  21.665  1.00  0.00    -0.550 OA
ENDBRANCH   6   7
ENDBRANCH   5   6
ENDBRANCH   4   5
ENDBRANCH   3   4
ENDBRANCH   2   3
ENDBRANCH   1   2
BRANCH   1  10
ATOM     10  C   UNL     1       7.144   5.018  15.254  1.00  0.00     0.027 C 
BRANCH  10  11
ATOM     11  C   UNL     1       8.429   4.724  15.988  1.00  0.00    -0.031 C 
ATOM     12  C   UNL     1       9.527   5.505  15.955  1.00  0.00    -0.031 C 
BRANCH  12  13
ATOM     13  C   UNL     1       9.609   6.836  15.254  1.00  0.00     0.027 C 
BRANCH  13  14
ATOM     14  C   UNL     1      10.831   6.888  14.331  1.00  0.00     0.004 C 
BRANCH  14  15
ATOM     15  C   UNL     1      10.409   6.875  12.857  1.00  0.00     0.000 C 
BRANCH  15  16
ATOM     16  C   UNL     1      10.295   5.437  12.329  1.00  0.00    -0.000 C 
BRANCH  16  17
ATOM     17  C   UNL     1       8.839   5.013  12.080  1.00  0.00    -0.003 C 
ATOM     18  C   UNL     1       8.701   3.522  11.775  1.00  0.00     0.004 C 
ENDBRANCH  16  17
ENDBRANCH  15  16
ENDBRANCH  14  15
ENDBRANCH  13  14
ENDBRANCH  12  13
ENDBRANCH  10  11
ENDBRANCH   1  10
TORSDOF 13
ENDMDL
MODEL 4
REMARK VINA RESULT:    -4.342      1.398      2.277
REMARK INTER + INTRA:          -9.805
REMARK INTER:                  -8.123
REMARK INTRA:                  -1.682
REMARK UNBOUND:                -2.163
REMARK SMILES CCCCCCC=CCCCCCCCC(=O)[O-]
REMARK SMILES IDX 10 1 11 2 12 3 13 4 14 5 15 6 16 7 17 8 18 9 9 10 8 11 7 12
REMARK SMILES IDX 6 13 5 14 4 15 3 16 2 17 1 18
REMARK H PARENT
REMARK Flexibility Score: inf
ROOT
ATOM      1  C   UNL     1       6.354   6.344  18.681  1.00  0.00     0.004 C 
ENDROOT
BRANCH   1   2
ATOM      2  C   UNL     1       7.647   5.647  19.142  1.00  0.00     0.000 C 
BRANCH   2   3
ATOM      3  C   UNL     1       7.504   4.118  19.206  1.00  0.00     0.000 C 
BRANCH   3   4
ATOM      4  C   UNL     1       6.035   3.663  19.253  1.00  0.00     0.000 C 
BRANCH   4   5
ATOM      5  C   UNL     1       5.719   2.807  20.490  1.00  0.00     0.006 C 
BRANCH   5   6
ATOM      6  C   UNL     1       6.221   3.441  21.794  1.00  0.00     0.053 C 
BRANCH   6   7
ATOM      7  C   UNL     1       5.403   4.648  22.136  1.00  0.00     0.041 C 
ATOM      8  O   UNL     1       4.146   4.594  22.095  1.00  0.00    -0.550 OA
ATOM      9  O   UNL     1       6.031   5.846  22.452  1.00  0.00    -0.550 OA
ENDBRANCH   6   7
ENDBRANCH   5   6
ENDBRANCH   4   5
ENDBRANCH   3   4
ENDBRANCH   2   3
ENDBRANCH   1   2
BRANCH   1  10
ATOM     10  C   UNL     1       6.471   6.886  17.249  1.00  0.00     0.027 C 
BRANCH  10  11
ATOM     11  C   UNL     1       5.790   5.987  16.247  1.00  0.00    -0.031 C 
ATOM     12  C   UNL     1       6.417   5.057  15.502  1.00  0.00    -0.031 C 
BRANCH  12  13
ATOM     13  C   UNL     1       7.879   4.709  15.619  1.00  0.00     0.027 C 
BRANCH  13  14
ATOM     14  C   UNL     1       8.692   5.407  14.524  1.00  0.00     0.004 C 
BRANCH  14  15
ATOM     15  C   UNL     1       9.549   6.536  15.109  1.00  0.00     0.000 C 
BRANCH  15  16
ATOM     16  C   UNL     1      10.824   6.747  14.277  1.00  0.00    -0.000 C 
BRANCH  16  17
ATOM     17  C   UNL     1      10.530   6.891  12.776  1.00  0.00    -0.003 C 
ATOM     18  C   UNL     1      11.583   6.214  11.900  1.00  0.00     0.004 C 
ENDBRANCH  16  17
ENDBRANCH  15  16
ENDBRANCH  14  15
ENDBRANCH  13  14
ENDBRANCH  12  13
ENDBRANCH  10  11
ENDBRANCH   1  10
TORSDOF 13
ENDMDL
MODEL 5
REMARK VINA RESULT:    -4.302      2.064      4.074
REMARK INTER + INTRA:          -9.734
REMARK INTER:                  -8.091
REMARK INTRA:                  -1.643
REMARK UNBOUND:                -2.163
REMARK SMILES CCCCCCC=CCCCCCCCC(=O)[O-]
REMARK SMILES IDX 10 1 11 2 12 3 13 4 14 5 15 6 16 7 17 8 18 9 9 10 8 11 7 12
REMARK SMILES IDX 6 13 5 14 4 15 3 16 2 17 1 18
REMARK H PARENT
REMARK Flexibility Score: inf
ROOT
ATOM      1  C   UNL     1       6.342   4.729  15.058  1.00  0.00     0.004 C 
ENDROOT
BRANCH   1   2
ATOM      2  C   UNL     1       5.656   5.348  16.289  1.00  0.00     0.000 C 
BRANCH   2   3
ATOM      3  C   UNL     1       6.209   6.740  16.637  1.00  0.00     0.000 C 
BRANCH   3   4
ATOM      4  C   UNL     1       6.434   6.924  18.148  1.00  0.00     0.000 C 
BRANCH   4   5
ATOM      5  C   UNL     1       6.899   5.632  18.839  1.00  0.00     0.006 C 
BRANCH   5   6
ATOM      6  C   UNL     1       6.184   5.383  20.174  1.00  0.00     0.053 C 
BRANCH   6   7
ATOM      7  C   UNL     1       5.499   4.052  20.159  1.00  0.00     0.041 C 
ATOM      8  O   UNL     1       5.738   3.227  19.239  1.00  0.00    -0.550 OA
ATOM      9  O   UNL     1       4.559   3.744  21.134  1.00  0.00    -0.550 OA
ENDBRANCH   6   7
ENDBRANCH   5   6
ENDBRANCH   4   5
ENDBRANCH   3   4
ENDBRANCH   2   3
ENDBRANCH   1   2
BRANCH   1  10
ATOM     10  C   UNL     1       7.860   4.962  15.066  1.00  0.00     0.027 C 
BRANCH  10  11
ATOM     11  C   UNL     1       8.609   3.832  14.405  1.00  0.00    -0.031 C 
ATOM     12  C   UNL     1       9.035   3.839  13.127  1.00  0.00    -0.031 C 
BRANCH  12  13
ATOM     13  C   UNL     1       8.908   5.011  12.189  1.00  0.00     0.027 C 
BRANCH  13  14
ATOM     14  C   UNL     1      10.255   5.724  12.026  1.00  0.00     0.004 C 
BRANCH  14  15
ATOM     15  C   UNL     1      10.402   6.861  13.046  1.00  0.00     0.000 C 
BRANCH  15  16
ATOM     16  C   UNL     1      11.357   6.461  14.181  1.00  0.00    -0.000 C 
BRANCH  16  17
ATOM     17  C   UNL     1      10.932   7.039  15.540  1.00  0.00    -0.003 C 
ATOM     18  C   UNL     1      10.924   5.991  16.652  1.00  0.00     0.004 C 
ENDBRANCH  16  17
ENDBRANCH  15  16
ENDBRANCH  14  15
ENDBRANCH  13  14
ENDBRANCH  12  13
ENDBRANCH  10  11
ENDBRANCH   1  10
TORSDOF 13
ENDMDL
MODEL 6
REMARK VINA RESULT:    -4.279      3.508      6.742
REMARK INTER + INTRA:          -9.695
REMARK INTER:                  -7.801
REMARK INTRA:                  -1.894
REMARK UNBOUND:                -2.163
REMARK SMILES CCCCCCC=CCCCCCCCC(=O)[O-]
REMARK SMILES IDX 10 1 11 2 12 3 13 4 14 5 15 6 16 7 17 8 18 9 9 10 8 11 7 12
REMARK SMILES IDX 6 13 5 14 4 15 3 16 2 17 1 18
REMARK H PARENT
REMARK Flexibility Score: inf
ROOT
ATOM      1  C   UNL     1       7.484   5.341  18.951  1.00  0.00     0.004 C 
ENDROOT
BRANCH   1   2
ATOM      2  C   UNL     1       6.126   5.518  18.248  1.00  0.00     0.000 C 
BRANCH   2   3
ATOM      3  C   UNL     1       6.251   6.234  16.892  1.00  0.00     0.000 C 
BRANCH   3   4
ATOM      4  C   UNL     1       6.514   5.258  15.732  1.00  0.00     0.000 C 
BRANCH   4   5
ATOM      5  C   UNL     1       7.971   5.298  15.244  1.00  0.00     0.006 C 
BRANCH   5   6
ATOM      6  C   UNL     1       8.734   6.528  15.754  1.00  0.00     0.053 C 
BRANCH   6   7
ATOM      7  C   UNL     1       9.977   6.742  14.948  1.00  0.00     0.041 C 
ATOM      8  O   UNL     1      10.873   7.522  15.362  1.00  0.00    -0.550 OA
ATOM      9  O   UNL     1      10.121   6.118  13.715  1.00  0.00    -0.550 OA
ENDBRANCH   6   7
ENDBRANCH   5   6
ENDBRANCH   4   5
ENDBRANCH   3   4
ENDBRANCH   2   3
ENDBRANCH   1   2
BRANCH   1  10
ATOM     10  C   UNL     1       7.614   3.961  19.613  1.00  0.00     0.027 C 
BRANCH  10  11
ATOM     11  C   UNL     1       6.385   3.113  19.398  1.00  0.00    -0.031 C 
ATOM     12  C   UNL     1       5.572   2.679  20.380  1.00  0.00    -0.031 C 
BRANCH  12  13
ATOM     13  C   UNL     1       5.714   3.049  21.834  1.00  0.00     0.027 C 
BRANCH  13  14
ATOM     14  C   UNL     1       4.517   3.885  22.301  1.00  0.00     0.004 C 
BRANCH  14  15
ATOM     15  C   UNL     1       4.460   5.226  21.559  1.00  0.00     0.000 C 
BRANCH  15  16
ATOM     16  C   UNL     1       5.570   6.171  22.044  1.00  0.00    -0.000 C 
BRANCH  16  17
ATOM     17  C   UNL     1       5.485   7.561  21.395  1.00  0.00    -0.003 C 
ATOM     18  C   UNL     1       6.859   8.160  21.097  1.00  0.00     0.004 C 
ENDBRANCH  16  17
ENDBRANCH  15  16
ENDBRANCH  14  15
ENDBRANCH  13  14
ENDBRANCH  12  13
ENDBRANCH  10  11
ENDBRANCH   1  10
TORSDOF 13
ENDMDL
MODEL 7
REMARK VINA RESULT:    -4.275      2.378      4.625
REMARK INTER + INTRA:          -9.688
REMARK INTER:                  -7.721
REMARK INTRA:                  -1.968
REMARK UNBOUND:                -2.163
REMARK SMILES CCCCCCC=CCCCCCCCC(=O)[O-]
REMARK SMILES IDX 10 1 11 2 12 3 13 4 14 5 15 6 16 7 17 8 18 9 9 10 8 11 7 12
REMARK SMILES IDX 6 13 5 14 4 15 3 16 2 17 1 18
REMARK H PARENT
REMARK Flexibility Score: inf
ROOT
ATOM      1  C   UNL     1       8.640   4.419  15.768  1.00  0.00     0.004 C 
ENDROOT
BRANCH   1   2
ATOM      2  C   UNL     1       7.499   5.223  15.120  1.00  0.00     0.000 C 
BRANCH   2   3
ATOM      3  C   UNL     1       6.235   5.266  15.994  1.00  0.00     0.000 C 
BRANCH   3   4
ATOM      4  C   UNL     1       6.149   6.547  16.843  1.00  0.00     0.000 C 
BRANCH   4   5
ATOM      5  C   UNL     1       6.493   6.303  18.320  1.00  0.00     0.006 C 
BRANCH   5   6
ATOM      6  C   UNL     1       6.417   4.821  18.710  1.00  0.00     0.053 C 
BRANCH   6   7
ATOM      7  C   UNL     1       5.699   4.660  20.013  1.00  0.00     0.041 C 
ATOM      8  O   UNL     1       5.267   3.531  20.364  1.00  0.00    -0.550 OA
ATOM      9  O   UNL     1       5.464   5.768  20.818  1.00  0.00    -0.550 OA
ENDBRANCH   6   7
ENDBRANCH   5   6
ENDBRANCH   4   5
ENDBRANCH   3   4
ENDBRANCH   2   3
ENDBRANCH   1   2
BRANCH   1  10
ATOM     10  C   UNL     1       9.860   5.299  16.081  1.00  0.00     0.027 C 
BRANCH  10  11
ATOM     11  C   UNL     1       9.753   6.661  15.440  1.00  0.00    -0.031 C 
ATOM     12  C   UNL     1      10.516   7.089  14.416  1.00  0.00    -0.031 C 
BRANCH  12  13
ATOM     13  C   UNL     1      11.532   6.242  13.694  1.00  0.00     0.027 C 
BRANCH  13  14
ATOM     14  C   UNL     1      11.067   5.938  12.266  1.00  0.00     0.004 C 
BRANCH  14  15
ATOM     15  C   UNL     1      10.368   4.574  12.193  1.00  0.00     0.000 C 
BRANCH  15  16
ATOM     16  C   UNL     1       8.872   4.739  11.886  1.00  0.00    -0.000 C 
BRANCH  16  17
ATOM     17  C   UNL     1       8.194   3.407  11.529  1.00  0.00    -0.003 C 
ATOM     18  C   UNL     1       8.209   2.407  12.685  1.00  0.00     0.004 C 
ENDBRANCH  16  17
ENDBRANCH  15  16
ENDBRANCH  14  15
ENDBRANCH  13  14
ENDBRANCH  12  13
ENDBRANCH  10  11
ENDBRANCH   1  10
TORSDOF 13
ENDMDL
MODEL 8
REMARK VINA RESULT:    -4.141      3.355      6.198
REMARK INTER + INTRA:          -9.451
REMARK INTER:                  -7.481
REMARK INTRA:                  -1.970
REMARK UNBOUND:                -2.163
REMARK SMILES CCCCCCC=CCCCCCCCC(=O)[O-]
REMARK SMILES IDX 10 1 11 2 12 3 13 4 14 5 15 6 16 7 17 8 18 9 9 10 8 11 7 12
REMARK SMILES IDX 6 13 5 14 4 15 3 16 2 17 1 18
REMARK H PARENT
REMARK Flexibility Score: inf
ROOT
ATOM      1  C   UNL     1       5.980   2.395  20.006  1.00  0.00     0.004 C 
ENDROOT
BRANCH   1   2
ATOM      2  C   UNL     1       7.437   2.881  19.923  1.00  0.00     0.000 C 
BRANCH   2   3
ATOM      3  C   UNL     1       7.581   4.186  19.123  1.00  0.00     0.000 C 
BRANCH   3   4
ATOM      4  C   UNL     1       6.268   4.607  18.440  1.00  0.00     0.000 C 
BRANCH   4   5
ATOM      5  C   UNL     1       6.349   6.009  17.815  1.00  0.00     0.006 C 
BRANCH   5   6
ATOM      6  C   UNL     1       6.210   5.987  16.287  1.00  0.00     0.053 C 
BRANCH   6   7
ATOM      7  C   UNL     1       7.513   5.616  15.651  1.00  0.00     0.041 C 
ATOM      8  O   UNL     1       8.549   6.290  15.888  1.00  0.00    -0.550 OA
ATOM      9  O   UNL     1       7.572   4.554  14.756  1.00  0.00    -0.550 OA
ENDBRANCH   6   7
ENDBRANCH   5   6
ENDBRANCH   4   5
ENDBRANCH   3   4
ENDBRANCH   2   3
ENDBRANCH   1   2
BRANCH   1  10
ATOM     10  C   UNL     1       5.371   2.632  21.396  1.00  0.00     0.027 C 
BRANCH  10  11
ATOM     11  C   UNL     1       4.458   3.832  21.416  1.00  0.00    -0.031 C 
ATOM     12  C   UNL     1       4.747   5.007  22.009  1.00  0.00    -0.031 C 
BRANCH  12  13
ATOM     13  C   UNL     1       6.064   5.331  22.666  1.00  0.00     0.027 C 
BRANCH  13  14
ATOM     14  C   UNL     1       6.826   6.390  21.862  1.00  0.00     0.004 C 
BRANCH  14  15
ATOM     15  C   UNL     1       5.865   7.434  21.279  1.00  0.00     0.000 C 
BRANCH  15  16
ATOM     16  C   UNL     1       5.713   8.632  22.229  1.00  0.00    -0.000 C 
BRANCH  16  17
ATOM     17  C   UNL     1       7.066   9.236  22.637  1.00  0.00    -0.003 C 
ATOM     18  C   UNL     1       7.430  10.476  21.822  1.00  0.00     0.004 C 
ENDBRANCH  16  17
ENDBRANCH  15  16
ENDBRANCH  14  15
ENDBRANCH  13  14
ENDBRANCH  12  13
ENDBRANCH  10  11
ENDBRANCH   1  10
TORSDOF 13
ENDMDL
MODEL 9
REMARK VINA RESULT:    -4.136      1.720      2.714
REMARK INTER + INTRA:          -9.442
REMARK INTER:                  -7.115
REMARK INTRA:                  -2.327
REMARK UNBOUND:                -2.163
REMARK SMILES CCCCCCC=CCCCCCCCC(=O)[O-]
REMARK SMILES IDX 10 1 11 2 12 3 13 4 14 5 15 6 16 7 17 8 18 9 9 10 8 11 7 12
REMARK SMILES IDX 6 13 5 14 4 15 3 16 2 17 1 18
REMARK H PARENT
REMARK Flexibility Score: inf
ROOT
ATOM      1  C   UNL     1       7.947   6.026  21.108  1.00  0.00     0.004 C 
ENDROOT
BRANCH   1   2
ATOM      2  C   UNL     1       7.136   7.334  21.096  1.00  0.00     0.000 C 
BRANCH   2   3
ATOM      3  C   UNL     1       5.635   7.103  21.337  1.00  0.00     0.000 C 
BRANCH   3   4
ATOM      4  C   UNL     1       5.361   5.859  22.200  1.00  0.00     0.000 C 
BRANCH   4   5
ATOM      5  C   UNL     1       4.487   4.820  21.480  1.00  0.00     0.006 C 
BRANCH   5   6
ATOM      6  C   UNL     1       4.534   3.439  22.148  1.00  0.00     0.053 C 
BRANCH   6   7
ATOM      7  C   UNL     1       5.719   2.665  21.663  1.00  0.00     0.041 C 
ATOM      8  O   UNL     1       6.781   2.642  22.338  1.00  0.00    -0.550 OA
ATOM      9  O   UNL     1       5.667   2.010  20.438  1.00  0.00    -0.550 OA
ENDBRANCH   6   7
ENDBRANCH   5   6
ENDBRANCH   4   5
ENDBRANCH   3   4
ENDBRANCH   2   3
ENDBRANCH   1   2
BRANCH   1  10
ATOM     10  C   UNL     1       8.446   5.644  19.707  1.00  0.00     0.027 C 
BRANCH  10  11
ATOM     11  C   UNL     1       7.621   4.540  19.094  1.00  0.00    -0.031 C 
ATOM     12  C   UNL     1       6.525   4.733  18.335  1.00  0.00    -0.031 C 
BRANCH  12  13
ATOM     13  C   UNL     1       6.006   6.082  17.909  1.00  0.00     0.027 C 
BRANCH  13  14
ATOM     14  C   UNL     1       6.544   6.456  16.523  1.00  0.00     0.004 C 
BRANCH  14  15
ATOM     15  C   UNL     1       6.532   5.245  15.583  1.00  0.00     0.000 C 
BRANCH  15  16
ATOM     16  C   UNL     1       7.957   4.879  15.139  1.00  0.00    -0.000 C 
BRANCH  16  17
ATOM     17  C   UNL     1       8.968   6.001  15.421  1.00  0.00    -0.003 C 
ATOM     18  C   UNL     1      10.136   5.539  16.292  1.00  0.00     0.004 C 
ENDBRANCH  16  17
ENDBRANCH  15  16
ENDBRANCH  14  15
ENDBRANCH  13  14
ENDBRANCH  12  13
ENDBRANCH  10  11
ENDBRANCH   1  10
TORSDOF 13
ENDMDL
