MODEL 1
REMARK VINA RESULT:    -3.446      0.000      0.000
REMARK INTER + INTRA:          -9.052
REMARK INTER:                  -6.267
REMARK INTRA:                  -2.786
REMARK UNBOUND:                -2.786
REMARK SMILES CCCCCC=CCC=CCCCCCCCC(=O)[O-]
REMARK SMILES IDX 11 1 12 2 13 3 14 4 15 5 16 6 17 7 18 8 19 9 20 10 10 11
REMARK SMILES IDX 9 12 8 13 7 14 6 15 5 16 4 17 3 18 2 19 1 20
REMARK H PARENT
REMARK Flexibility Score: inf
ROOT
ATOM      1  C   UNL     1      -7.287   0.904  37.531  1.00  0.00     0.027 C 
ENDROOT
BRANCH   1   2
ATOM      2  C   UNL     1      -6.428  -0.340  37.262  1.00  0.00     0.004 C 
BRANCH   2   3
ATOM      3  C   UNL     1      -5.258  -0.470  38.250  1.00  0.00     0.000 C 
BRANCH   3   4
ATOM      4  C   UNL     1      -3.978   0.213  37.741  1.00  0.00     0.000 C 
BRANCH   4   5
ATOM      5  C   UNL     1      -3.532   1.380  38.639  1.00  0.00     0.000 C 
BRANCH   5   6
ATOM      6  C   UNL     1      -3.507   2.743  37.911  1.00  0.00     0.006 C 
BRANCH   6   7
ATOM      7  C   UNL     1      -4.281   2.735  36.582  1.00  0.00     0.053 C 
BRANCH   7   8
ATOM      8  C   UNL     1      -4.507   4.123  36.063  1.00  0.00     0.041 C 
ATOM      9  O   UNL     1      -4.486   4.348  34.825  1.00  0.00    -0.550 OA
ATOM     10  O   UNL     1      -4.718   5.172  36.950  1.00  0.00    -0.550 OA
ENDBRANCH   7   8
ENDBRANCH   6   7
ENDBRANCH   5   6
ENDBRANCH   4   5
ENDBRANCH   3   4
ENDBRANCH   2   3
ENDBRANCH   1   2
BRANCH   1  11
ATOM     11  C   UNL     1      -7.654   1.001  38.990  1.00  0.00    -0.031 C 
ATOM     12  C   UNL     1      -7.384   2.062  39.772  1.00  0.00    -0.027 C 
BRANCH  12  13
ATOM     13  C   UNL     1      -6.723   3.328  39.290  1.00  0.00     0.054 C 
BRANCH  13  14
ATOM     14  C   UNL     1      -7.742   4.350  38.869  1.00  0.00    -0.027 C 
ATOM     15  C   UNL     1      -8.091   4.478  37.582  1.00  0.00    -0.031 C 
BRANCH  15  16
ATOM     16  C   UNL     1      -9.113   5.492  37.136  1.00  0.00     0.027 C 
BRANCH  16  17
ATOM     17  C   UNL     1     -10.167   4.884  36.197  1.00  0.00     0.004 C 
BRANCH  17  18
ATOM     18  C   UNL     1     -10.431   3.402  36.503  1.00  0.00     0.000 C 
BRANCH  18  19
ATOM     19  C   UNL     1     -11.554   3.247  37.534  1.00  0.00    -0.003 C 
ATOM     20  C   UNL     1     -11.123   2.343  38.685  1.00  0.00     0.004 C 
ENDBRANCH  18  19
ENDBRANCH  17  18
ENDBRANCH  16  17
ENDBRANCH  15  16
ENDBRANCH  13  14
ENDBRANCH  12  13
ENDBRANCH   1  11
TORSDOF 14
ENDMDL
MODEL 2
REMARK VINA RESULT:    -3.254      2.193      4.964
REMARK INTER + INTRA:          -8.703
REMARK INTER:                  -5.593
REMARK INTRA:                  -3.110
REMARK UNBOUND:                -2.786
REMARK SMILES CCCCCC=CCC=CCCCCCCCC(=O)[O-]
REMARK SMILES IDX 11 1 12 2 13 3 14 4 15 5 16 6 17 7 18 8 19 9 20 10 10 11
REMARK SMILES IDX 9 12 8 13 7 14 6 15 5 16 4 17 3 18 2 19 1 20
REMARK H PARENT
REMARK Flexibility Score: inf
ROOT
ATOM      1  C   UNL     1      -7.311  -0.952  38.564  1.00  0.00     0.027 C 
ENDROOT
BRANCH   1   2
ATOM      2  C   UNL     1      -8.118  -0.058  39.517  1.00  0.00     0.004 C 
BRANCH   2   3
ATOM      3  C   UNL     1      -7.460   1.314  39.733  1.00  0.00     0.000 C 
BRANCH   3   4
ATOM      4  C   UNL     1      -8.395   2.480  39.371  1.00  0.00     0.000 C 
BRANCH   4   5
ATOM      5  C   UNL     1      -9.383   2.120  38.248  1.00  0.00     0.000 C 
BRANCH   5   6
ATOM      6  C   UNL     1     -10.104   3.349  37.646  1.00  0.00     0.006 C 
BRANCH   6   7
ATOM      7  C   UNL     1     -10.198   3.306  36.112  1.00  0.00     0.053 C 
BRANCH   7   8
ATOM      8  C   UNL     1      -9.917   4.645  35.501  1.00  0.00     0.041 C 
ATOM      9  O   UNL     1      -9.630   4.736  34.278  1.00  0.00    -0.550 OA
ATOM     10  O   UNL     1      -9.949   5.790  36.288  1.00  0.00    -0.550 OA
ENDBRANCH   7   8
ENDBRANCH   6   7
ENDBRANCH   5   6
ENDBRANCH   4   5
ENDBRANCH   3   4
ENDBRANCH   2   3
ENDBRANCH   1   2
BRANCH   1  11
ATOM     11  C   UNL     1      -5.830  -0.732  38.744  1.00  0.00    -0.031 C 
ATOM     12  C   UNL     1      -4.980  -0.430  37.745  1.00  0.00    -0.027 C 
BRANCH  12  13
ATOM     13  C   UNL     1      -5.394  -0.219  36.311  1.00  0.00     0.054 C 
BRANCH  13  14
ATOM     14  C   UNL     1      -5.338   1.235  35.935  1.00  0.00    -0.027 C 
ATOM     15  C   UNL     1      -6.361   2.054  36.215  1.00  0.00    -0.031 C 
BRANCH  15  16
ATOM     16  C   UNL     1      -6.327   3.516  35.851  1.00  0.00     0.027 C 
BRANCH  16  17
ATOM     17  C   UNL     1      -6.286   4.424  37.090  1.00  0.00     0.004 C 
BRANCH  17  18
ATOM     18  C   UNL     1      -4.883   4.494  37.712  1.00  0.00     0.000 C 
BRANCH  18  19
ATOM     19  C   UNL     1      -4.876   3.886  39.119  1.00  0.00    -0.003 C 
ATOM     20  C   UNL     1      -3.910   2.708  39.204  1.00  0.00     0.004 C 
ENDBRANCH  18  19
ENDBRANCH  17  18
ENDBRANCH  16  17
ENDBRANCH  15  16
ENDBRANCH  13  14
ENDBRANCH  12  13
ENDBRANCH   1  11
TORSDOF 14
ENDMDL
MODEL 3
REMARK VINA RESULT:    -3.250      1.230      3.205
REMARK INTER + INTRA:          -8.695
REMARK INTER:                  -5.825
REMARK INTRA:                  -2.870
REMARK UNBOUND:                -2.786
REMARK SMILES CCCCCC=CCC=CCCCCCCCC(=O)[O-]
REMARK SMILES IDX 11 1 12 2 13 3 14 4 15 5 16 6 17 7 18 8 19 9 20 10 10 11
REMARK SMILES IDX 9 12 8 13 7 14 6 15 5 16 4 17 3 18 2 19 1 20
REMARK H PARENT
REMARK Flexibility Score: inf
ROOT
ATOM      1  C   UNL     1      -3.910   0.625  37.921  1.00  0.00     0.027 C 
ENDROOT
BRANCH   1   2
ATOM      2  C   UNL     1      -3.510   2.105  38.013  1.00  0.00     0.004 C 
BRANCH   2   3
ATOM      3  C   UNL     1      -3.879   2.731  39.366  1.00  0.00     0.000 C 
BRANCH   3   4
ATOM      4  C   UNL     1      -4.699   4.022  39.215  1.00  0.00     0.000 C 
BRANCH   4   5
ATOM      5  C   UNL     1      -6.118   3.764  38.678  1.00  0.00     0.000 C 
BRANCH   5   6
ATOM      6  C   UNL     1      -6.458   4.590  37.416  1.00  0.00     0.006 C 
BRANCH   6   7
ATOM      7  C   UNL     1      -6.406   3.767  36.120  1.00  0.00     0.053 C 
BRANCH   7   8
ATOM      8  C   UNL     1      -5.198   4.100  35.298  1.00  0.00     0.041 C 
ATOM      9  O   UNL     1      -4.948   3.453  34.247  1.00  0.00    -0.550 OA
ATOM     10  O   UNL     1      -4.335   5.110  35.707  1.00  0.00    -0.550 OA
ENDBRANCH   7   8
ENDBRANCH   6   7
ENDBRANCH   5   6
ENDBRANCH   4   5
ENDBRANCH   3   4
ENDBRANCH   2   3
ENDBRANCH   1   2
BRANCH   1  11
ATOM     11  C   UNL     1      -5.167   0.457  37.104  1.00  0.00    -0.031 C 
ATOM     12  C   UNL     1      -6.328  -0.021  37.588  1.00  0.00    -0.027 C 
BRANCH  12  13
ATOM     13  C   UNL     1      -6.554  -0.409  39.027  1.00  0.00     0.054 C 
BRANCH  13  14
ATOM     14  C   UNL     1      -7.577   0.480  39.678  1.00  0.00    -0.027 C 
ATOM     15  C   UNL     1      -8.533   1.070  38.948  1.00  0.00    -0.031 C 
BRANCH  15  16
ATOM     16  C   UNL     1      -9.571   1.963  39.577  1.00  0.00     0.027 C 
BRANCH  16  17
ATOM     17  C   UNL     1     -10.555   2.532  38.543  1.00  0.00     0.004 C 
BRANCH  17  18
ATOM     18  C   UNL     1      -9.836   3.103  37.312  1.00  0.00     0.000 C 
BRANCH  18  19
ATOM     19  C   UNL     1     -10.724   4.114  36.578  1.00  0.00    -0.003 C 
ATOM     20  C   UNL     1      -9.949   5.383  36.238  1.00  0.00     0.004 C 
ENDBRANCH  18  19
ENDBRANCH  17  18
ENDBRANCH  16  17
ENDBRANCH  15  16
ENDBRANCH  13  14
ENDBRANCH  12  13
ENDBRANCH   1  11
TORSDOF 14
ENDMDL
MODEL 4
REMARK VINA RESULT:    -3.250      1.480      2.772
REMARK INTER + INTRA:          -8.695
REMARK INTER:                  -5.833
REMARK INTRA:                  -2.862
REMARK UNBOUND:                -2.786
REMARK SMILES CCCCCC=CCC=CCCCCCCCC(=O)[O-]
REMARK SMILES IDX 11 1 12 2 13 3 14 4 15 5 16 6 17 7 18 8 19 9 20 10 10 11
REMARK SMILES IDX 9 12 8 13 7 14 6 15 5 16 4 17 3 18 2 19 1 20
REMARK H PARENT
REMARK Flexibility Score: inf
ROOT
ATOM      1  C   UNL     1      -4.653  -0.025  38.068  1.00  0.00     0.027 C 
ENDROOT
BRANCH   1   2
ATOM      2  C   UNL     1      -3.610   1.083  37.857  1.00  0.00     0.004 C 
BRANCH   2   3
ATOM      3  C   UNL     1      -3.829   2.282  38.793  1.00  0.00     0.000 C 
BRANCH   3   4
ATOM      4  C   UNL     1      -3.273   3.592  38.213  1.00  0.00     0.000 C 
BRANCH   4   5
ATOM      5  C   UNL     1      -4.364   4.468  37.574  1.00  0.00     0.000 C 
BRANCH   5   6
ATOM      6  C   UNL     1      -4.423   4.353  36.033  1.00  0.00     0.006 C 
BRANCH   6   7
ATOM      7  C   UNL     1      -5.544   3.427  35.536  1.00  0.00     0.053 C 
BRANCH   7   8
ATOM      8  C   UNL     1      -5.131   2.659  34.317  1.00  0.00     0.041 C 
ATOM      9  O   UNL     1      -4.318   1.703  34.416  1.00  0.00    -0.550 OA
ATOM     10  O   UNL     1      -5.626   3.016  33.069  1.00  0.00    -0.550 OA
ENDBRANCH   7   8
ENDBRANCH   6   7
ENDBRANCH   5   6
ENDBRANCH   4   5
ENDBRANCH   3   4
ENDBRANCH   2   3
ENDBRANCH   1   2
BRANCH   1  11
ATOM     11  C   UNL     1      -5.930   0.292  37.331  1.00  0.00    -0.031 C 
ATOM     12  C   UNL     1      -7.079   0.660  37.928  1.00  0.00    -0.027 C 
BRANCH  12  13
ATOM     13  C   UNL     1      -7.240   0.859  39.413  1.00  0.00     0.054 C 
BRANCH  13  14
ATOM     14  C   UNL     1      -7.423   2.312  39.753  1.00  0.00    -0.027 C 
ATOM     15  C   UNL     1      -7.495   3.236  38.786  1.00  0.00    -0.031 C 
BRANCH  15  16
ATOM     16  C   UNL     1      -7.681   4.697  39.100  1.00  0.00     0.027 C 
BRANCH  16  17
ATOM     17  C   UNL     1      -8.090   5.513  37.863  1.00  0.00     0.004 C 
BRANCH  17  18
ATOM     18  C   UNL     1      -8.665   4.627  36.749  1.00  0.00     0.000 C 
BRANCH  18  19
ATOM     19  C   UNL     1     -10.092   5.053  36.390  1.00  0.00    -0.003 C 
ATOM     20  C   UNL     1     -11.092   3.943  36.698  1.00  0.00     0.004 C 
ENDBRANCH  18  19
ENDBRANCH  17  18
ENDBRANCH  16  17
ENDBRANCH  15  16
ENDBRANCH  13  14
ENDBRANCH  12  13
ENDBRANCH   1  11
TORSDOF 14
ENDMDL
MODEL 5
REMARK VINA RESULT:    -3.228      2.247      4.834
REMARK INTER + INTRA:          -8.655
REMARK INTER:                  -5.757
REMARK INTRA:                  -2.898
REMARK UNBOUND:                -2.786
REMARK SMILES CCCCCC=CCC=CCCCCCCCC(=O)[O-]
REMARK SMILES IDX 11 1 12 2 13 3 14 4 15 5 16 6 17 7 18 8 19 9 20 10 10 11
REMARK SMILES IDX 9 12 8 13 7 14 6 15 5 16 4 17 3 18 2 19 1 20
REMARK H PARENT
REMARK Flexibility Score: inf
ROOT
ATOM      1  C   UNL     1      -5.997   0.330  37.915  1.00  0.00     0.027 C 
ENDROOT
BRANCH   1   2
ATOM      2  C   UNL     1      -6.755  -0.314  39.084  1.00  0.00     0.004 C 
BRANCH   2   3
ATOM      3  C   UNL     1      -7.664   0.685  39.817  1.00  0.00     0.000 C 
BRANCH   3   4
ATOM      4  C   UNL     1      -7.126   2.124  39.758  1.00  0.00     0.000 C 
BRANCH   4   5
ATOM      5  C   UNL     1      -8.202   3.144  39.348  1.00  0.00     0.000 C 
BRANCH   5   6
ATOM      6  C   UNL     1      -8.387   3.262  37.818  1.00  0.00     0.006 C 
BRANCH   6   7
ATOM      7  C   UNL     1      -8.531   4.714  37.334  1.00  0.00     0.053 C 
BRANCH   7   8
ATOM      8  C   UNL     1      -9.678   4.871  36.382  1.00  0.00     0.041 C 
ATOM      9  O   UNL     1     -10.100   6.018  36.082  1.00  0.00    -0.550 OA
ATOM     10  O   UNL     1     -10.296   3.747  35.846  1.00  0.00    -0.550 OA
ENDBRANCH   7   8
ENDBRANCH   6   7
ENDBRANCH   5   6
ENDBRANCH   4   5
ENDBRANCH   3   4
ENDBRANCH   2   3
ENDBRANCH   1   2
BRANCH   1  11
ATOM     11  C   UNL     1      -4.564  -0.140  37.879  1.00  0.00    -0.031 C 
ATOM     12  C   UNL     1      -3.507   0.621  38.215  1.00  0.00    -0.027 C 
BRANCH  12  13
ATOM     13  C   UNL     1      -3.606   2.037  38.724  1.00  0.00     0.054 C 
BRANCH  13  14
ATOM     14  C   UNL     1      -3.620   3.025  37.591  1.00  0.00    -0.027 C 
ATOM     15  C   UNL     1      -4.757   3.633  37.229  1.00  0.00    -0.031 C 
BRANCH  15  16
ATOM     16  C   UNL     1      -4.797   4.629  36.099  1.00  0.00     0.027 C 
BRANCH  16  17
ATOM     17  C   UNL     1      -5.234   3.989  34.772  1.00  0.00     0.004 C 
BRANCH  17  18
ATOM     18  C   UNL     1      -6.049   2.706  34.988  1.00  0.00     0.000 C 
BRANCH  18  19
ATOM     19  C   UNL     1      -5.549   1.579  34.077  1.00  0.00    -0.003 C 
ATOM     20  C   UNL     1      -4.111   1.198  34.413  1.00  0.00     0.004 C 
ENDBRANCH  18  19
ENDBRANCH  17  18
ENDBRANCH  16  17
ENDBRANCH  15  16
ENDBRANCH  13  14
ENDBRANCH  12  13
ENDBRANCH   1  11
TORSDOF 14
ENDMDL
MODEL 6
REMARK VINA RESULT:    -3.195      2.920      5.929
REMARK INTER + INTRA:          -8.595
REMARK INTER:                  -6.269
REMARK INTRA:                  -2.325
REMARK UNBOUND:                -2.786
REMARK SMILES CCCCCC=CCC=CCCCCCCCC(=O)[O-]
REMARK SMILES IDX 11 1 12 2 13 3 14 4 15 5 16 6 17 7 18 8 19 9 20 10 10 11
REMARK SMILES IDX 9 12 8 13 7 14 6 15 5 16 4 17 3 18 2 19 1 20
REMARK H PARENT
REMARK Flexibility Score: inf
ROOT
ATOM      1  C   UNL     1      -6.116   2.136  38.948  1.00  0.00     0.027 C 
ENDROOT
BRANCH   1   2
ATOM      2  C   UNL     1      -7.324   2.897  38.383  1.00  0.00     0.004 C 
BRANCH   2   3
ATOM      3  C   UNL     1      -7.331   4.378  38.794  1.00  0.00     0.000 C 
BRANCH   3   4
ATOM      4  C   UNL     1      -8.111   5.261  37.807  1.00  0.00     0.000 C 
BRANCH   4   5
ATOM      5  C   UNL     1      -9.172   4.474  37.017  1.00  0.00     0.000 C 
BRANCH   5   6
ATOM      6  C   UNL     1     -10.066   5.368  36.129  1.00  0.00     0.006 C 
BRANCH   6   7
ATOM      7  C   UNL     1      -9.965   5.032  34.632  1.00  0.00     0.053 C 
BRANCH   7   8
ATOM      8  C   UNL     1     -11.311   4.765  34.031  1.00  0.00     0.041 C 
ATOM      9  O   UNL     1     -11.688   5.402  33.012  1.00  0.00    -0.550 OA
ATOM     10  O   UNL     1     -12.159   3.829  34.610  1.00  0.00    -0.550 OA
ENDBRANCH   7   8
ENDBRANCH   6   7
ENDBRANCH   5   6
ENDBRANCH   4   5
ENDBRANCH   3   4
ENDBRANCH   2   3
ENDBRANCH   1   2
BRANCH   1  11
ATOM     11  C   UNL     1      -6.224   0.661  38.654  1.00  0.00    -0.031 C 
ATOM     12  C   UNL     1      -5.192  -0.115  38.272  1.00  0.00    -0.027 C 
BRANCH  12  13
ATOM     13  C   UNL     1      -3.771   0.369  38.133  1.00  0.00     0.054 C 
BRANCH  13  14
ATOM     14  C   UNL     1      -3.492   0.847  36.735  1.00  0.00    -0.027 C 
ATOM     15  C   UNL     1      -4.228   0.410  35.704  1.00  0.00    -0.031 C 
BRANCH  15  16
ATOM     16  C   UNL     1      -3.971   0.877  34.295  1.00  0.00     0.027 C 
BRANCH  16  17
ATOM     17  C   UNL     1      -5.190   1.584  33.682  1.00  0.00     0.004 C 
BRANCH  17  18
ATOM     18  C   UNL     1      -6.188   2.050  34.752  1.00  0.00     0.000 C 
BRANCH  18  19
ATOM     19  C   UNL     1      -6.291   3.580  34.776  1.00  0.00    -0.003 C 
ATOM     20  C   UNL     1      -5.197   4.191  35.646  1.00  0.00     0.004 C 
ENDBRANCH  18  19
ENDBRANCH  17  18
ENDBRANCH  16  17
ENDBRANCH  15  16
ENDBRANCH  13  14
ENDBRANCH  12  13
ENDBRANCH   1  11
TORSDOF 14
ENDMDL
MODEL 7
REMARK VINA RESULT:    -3.188      8.789     11.387
REMARK INTER + INTRA:          -8.582
REMARK INTER:                  -5.741
REMARK INTRA:                  -2.841
REMARK UNBOUND:                -2.786
REMARK SMILES CCCCCC=CCC=CCCCCCCCC(=O)[O-]
REMARK SMILES IDX 11 1 12 2 13 3 14 4 15 5 16 6 17 7 18 8 19 9 20 10 10 11
REMARK SMILES IDX 9 12 8 13 7 14 6 15 5 16 4 17 3 18 2 19 1 20
REMARK H PARENT
REMARK Flexibility Score: inf
ROOT
ATOM      1  C   UNL     1      -2.361  -7.562  31.150  1.00  0.00     0.027 C 
ENDROOT
BRANCH   1   2
ATOM      2  C   UNL     1      -3.526  -7.141  30.242  1.00  0.00     0.004 C 
BRANCH   2   3
ATOM      3  C   UNL     1      -4.756  -8.045  30.407  1.00  0.00     0.000 C 
BRANCH   3   4
ATOM      4  C   UNL     1      -6.001  -7.269  30.866  1.00  0.00     0.000 C 
BRANCH   4   5
ATOM      5  C   UNL     1      -5.719  -5.773  31.089  1.00  0.00     0.000 C 
BRANCH   5   6
ATOM      6  C   UNL     1      -6.755  -5.080  32.004  1.00  0.00     0.006 C 
BRANCH   6   7
ATOM      7  C   UNL     1      -6.532  -5.364  33.498  1.00  0.00     0.053 C 
BRANCH   7   8
ATOM      8  C   UNL     1      -7.637  -6.195  34.077  1.00  0.00     0.041 C 
ATOM      9  O   UNL     1      -7.476  -6.787  35.176  1.00  0.00    -0.550 OA
ATOM     10  O   UNL     1      -8.836  -6.333  33.389  1.00  0.00    -0.550 OA
ENDBRANCH   7   8
ENDBRANCH   6   7
ENDBRANCH   5   6
ENDBRANCH   4   5
ENDBRANCH   3   4
ENDBRANCH   2   3
ENDBRANCH   1   2
BRANCH   1  11
ATOM     11  C   UNL     1      -1.273  -6.518  31.148  1.00  0.00    -0.031 C 
ATOM     12  C   UNL     1      -1.137  -5.560  32.084  1.00  0.00    -0.027 C 
BRANCH  12  13
ATOM     13  C   UNL     1      -2.023  -5.425  33.296  1.00  0.00     0.054 C 
BRANCH  13  14
ATOM     14  C   UNL     1      -3.090  -4.389  33.079  1.00  0.00    -0.027 C 
ATOM     15  C   UNL     1      -2.764  -3.114  32.828  1.00  0.00    -0.031 C 
BRANCH  15  16
ATOM     16  C   UNL     1      -3.815  -2.058  32.604  1.00  0.00     0.027 C 
BRANCH  16  17
ATOM     17  C   UNL     1      -4.533  -2.227  31.256  1.00  0.00     0.004 C 
BRANCH  17  18
ATOM     18  C   UNL     1      -3.583  -2.037  30.064  1.00  0.00     0.000 C 
BRANCH  18  19
ATOM     19  C   UNL     1      -3.462  -3.328  29.248  1.00  0.00    -0.003 C 
ATOM     20  C   UNL     1      -2.000  -3.673  28.979  1.00  0.00     0.004 C 
ENDBRANCH  18  19
ENDBRANCH  17  18
ENDBRANCH  16  17
ENDBRANCH  15  16
ENDBRANCH  13  14
ENDBRANCH  12  13
ENDBRANCH   1  11
TORSDOF 14
ENDMDL
MODEL 8
REMARK VINA RESULT:    -3.148      1.907      4.070
REMARK INTER + INTRA:          -8.509
REMARK INTER:                  -5.331
REMARK INTRA:                  -3.179
REMARK UNBOUND:                -2.786
REMARK SMILES CCCCCC=CCC=CCCCCCCCC(=O)[O-]
REMARK SMILES IDX 11 1 12 2 13 3 14 4 15 5 16 6 17 7 18 8 19 9 20 10 10 11
REMARK SMILES IDX 9 12 8 13 7 14 6 15 5 16 4 17 3 18 2 19 1 20
REMARK H PARENT
REMARK Flexibility Score: inf
ROOT
ATOM      1  C   UNL     1      -3.089  -0.085  35.267  1.00  0.00     0.027 C 
ENDROOT
BRANCH   1   2
ATOM      2  C   UNL     1      -4.443  -0.364  34.599  1.00  0.00     0.004 C 
BRANCH   2   3
ATOM      3  C   UNL     1      -5.092   0.907  34.031  1.00  0.00     0.000 C 
BRANCH   3   4
ATOM      4  C   UNL     1      -6.537   1.100  34.518  1.00  0.00     0.000 C 
BRANCH   4   5
ATOM      5  C   UNL     1      -6.707   2.356  35.391  1.00  0.00     0.000 C 
BRANCH   5   6
ATOM      6  C   UNL     1      -6.158   3.642  34.731  1.00  0.00     0.006 C 
BRANCH   6   7
ATOM      7  C   UNL     1      -5.093   4.353  35.582  1.00  0.00     0.053 C 
BRANCH   7   8
ATOM      8  C   UNL     1      -3.934   4.812  34.750  1.00  0.00     0.041 C 
ATOM      9  O   UNL     1      -3.164   5.711  35.178  1.00  0.00    -0.550 OA
ATOM     10  O   UNL     1      -3.719   4.263  33.492  1.00  0.00    -0.550 OA
ENDBRANCH   7   8
ENDBRANCH   6   7
ENDBRANCH   5   6
ENDBRANCH   4   5
ENDBRANCH   3   4
ENDBRANCH   2   3
ENDBRANCH   1   2
BRANCH   1  11
ATOM     11  C   UNL     1      -3.071   1.287  35.893  1.00  0.00    -0.031 C 
ATOM     12  C   UNL     1      -3.403   1.541  37.173  1.00  0.00    -0.027 C 
BRANCH  12  13
ATOM     13  C   UNL     1      -3.790   0.486  38.177  1.00  0.00     0.054 C 
BRANCH  13  14
ATOM     14  C   UNL     1      -5.284   0.375  38.303  1.00  0.00    -0.027 C 
ATOM     15  C   UNL     1      -6.009   1.399  38.771  1.00  0.00    -0.031 C 
BRANCH  15  16
ATOM     16  C   UNL     1      -7.507   1.314  38.903  1.00  0.00     0.027 C 
BRANCH  16  17
ATOM     17  C   UNL     1      -8.182   2.690  38.794  1.00  0.00     0.004 C 
BRANCH  17  18
ATOM     18  C   UNL     1      -7.166   3.840  38.850  1.00  0.00     0.000 C 
BRANCH  18  19
ATOM     19  C   UNL     1      -7.711   5.087  38.145  1.00  0.00    -0.003 C 
ATOM     20  C   UNL     1      -8.898   4.740  37.252  1.00  0.00     0.004 C 
ENDBRANCH  18  19
ENDBRANCH  17  18
ENDBRANCH  16  17
ENDBRANCH  15  16
ENDBRANCH  13  14
ENDBRANCH  12  13
ENDBRANCH   1  11
TORSDOF 14
ENDMDL
MODEL 9
REMARK VINA RESULT:    -3.096      2.056      4.470
REMARK INTER + INTRA:          -8.415
REMARK INTER:                  -5.421
REMARK INTRA:                  -2.993
REMARK UNBOUND:                -2.786
REMARK SMILES CCCCCC=CCC=CCCCCCCCC(=O)[O-]
REMARK SMILES IDX 11 1 12 2 13 3 14 4 15 5 16 6 17 7 18 8 19 9 20 10 10 11
REMARK SMILES IDX 9 12 8 13 7 14 6 15 5 16 4 17 3 18 2 19 1 20
REMARK H PARENT
REMARK Flexibility Score: inf
ROOT
ATOM      1  C   UNL     1      -3.153   0.273  36.808  1.00  0.00     0.027 C 
ENDROOT
BRANCH   1   2
ATOM      2  C   UNL     1      -3.477   0.675  38.254  1.00  0.00     0.004 C 
BRANCH   2   3
ATOM      3  C   UNL     1      -3.858   2.158  38.381  1.00  0.00     0.000 C 
BRANCH   3   4
ATOM      4  C   UNL     1      -5.257   2.357  38.988  1.00  0.00     0.000 C 
BRANCH   4   5
ATOM      5  C   UNL     1      -5.731   3.819  38.918  1.00  0.00     0.000 C 
BRANCH   5   6
ATOM      6  C   UNL     1      -6.151   4.262  37.497  1.00  0.00     0.006 C 
BRANCH   6   7
ATOM      7  C   UNL     1      -7.305   3.428  36.917  1.00  0.00     0.053 C 
BRANCH   7   8
ATOM      8  C   UNL     1      -8.574   4.220  36.831  1.00  0.00     0.041 C 
ATOM      9  O   UNL     1      -9.546   3.789  36.157  1.00  0.00    -0.550 OA
ATOM     10  O   UNL     1      -8.674   5.447  37.477  1.00  0.00    -0.550 OA
ENDBRANCH   7   8
ENDBRANCH   6   7
ENDBRANCH   5   6
ENDBRANCH   4   5
ENDBRANCH   3   4
ENDBRANCH   2   3
ENDBRANCH   1   2
BRANCH   1  11
ATOM     11  C   UNL     1      -3.775   1.238  35.830  1.00  0.00    -0.031 C 
ATOM     12  C   UNL     1      -4.905   0.996  35.140  1.00  0.00    -0.027 C 
BRANCH  12  13
ATOM     13  C   UNL     1      -5.739  -0.251  35.284  1.00  0.00     0.054 C 
BRANCH  13  14
ATOM     14  C   UNL     1      -6.623  -0.179  36.497  1.00  0.00    -0.027 C 
ATOM     15  C   UNL     1      -6.523  -1.093  37.471  1.00  0.00    -0.031 C 
BRANCH  15  16
ATOM     16  C   UNL     1      -7.396  -1.041  38.699  1.00  0.00     0.027 C 
BRANCH  16  17
ATOM     17  C   UNL     1      -8.292   0.206  38.724  1.00  0.00     0.004 C 
BRANCH  17  18
ATOM     18  C   UNL     1      -8.377   0.831  40.125  1.00  0.00     0.000 C 
BRANCH  18  19
ATOM     19  C   UNL     1      -9.039   2.213  40.070  1.00  0.00    -0.003 C 
ATOM     20  C   UNL     1     -10.409   2.140  39.404  1.00  0.00     0.004 C 
ENDBRANCH  18  19
ENDBRANCH  17  18
ENDBRANCH  16  17
ENDBRANCH  15  16
ENDBRANCH  13  14
ENDBRANCH  12  13
ENDBRANCH   1  11
TORSDOF 14
ENDMDL
