MODEL 1
REMARK VINA RESULT:    -5.627      0.000      0.000
REMARK INTER + INTRA:          -6.938
REMARK INTER:                  -6.614
REMARK INTRA:                  -0.324
REMARK UNBOUND:                -0.324
REMARK SMILES O=c1c(O)c(-c2ccc(O)c(O)c2)oc2cc(O)ccc12
REMARK SMILES IDX 5 1 3 2 2 3 1 4 21 5 15 6 14 7 16 8 17 9 19 10 20 11 6 12
REMARK SMILES IDX 7 13 8 14 9 15 13 16 11 17 10 18 12 20 4 22 18 24
REMARK H PARENT 10 19 12 21 4 23 18 25
REMARK Flexibility Score: inf
ROOT
ATOM      1  C   UNL     1     124.211 132.910 110.910  1.00  0.00     0.180 A 
ATOM      2  C   UNL     1     125.284 132.099 111.333  1.00  0.00     0.208 A 
ATOM      3  C   UNL     1     126.565 132.668 111.430  1.00  0.00     0.235 A 
ATOM      4  O   UNL     1     127.543 131.960 111.795  1.00  0.00    -0.285 OA
ATOM      5  C   UNL     1     126.741 134.027 111.125  1.00  0.00     0.069 A 
ATOM      6  C   UNL     1     125.612 134.776 110.732  1.00  0.00     0.142 A 
ATOM      7  O   UNL     1     124.419 134.199 110.645  1.00  0.00    -0.452 OA
ATOM      8  C   UNL     1     125.744 136.136 110.429  1.00  0.00     0.094 A 
ATOM      9  C   UNL     1     126.995 136.758 110.512  1.00  0.00     0.119 A 
ATOM     10  C   UNL     1     128.118 136.016 110.900  1.00  0.00     0.047 A 
ATOM     11  C   UNL     1     127.996 134.658 111.207  1.00  0.00     0.020 A 
ENDROOT
BRANCH   1  12
ATOM     12  C   UNL     1     122.836 132.381 110.765  1.00  0.00     0.025 A 
ATOM     13  C   UNL     1     122.394 131.812 109.558  1.00  0.00     0.016 A 
ATOM     14  C   UNL     1     121.084 131.341 109.438  1.00  0.00     0.051 A 
ATOM     15  C   UNL     1     120.194 131.443 110.514  1.00  0.00     0.157 A 
ATOM     16  C   UNL     1     121.933 132.500 111.835  1.00  0.00     0.062 A 
ATOM     17  C   UNL     1     120.621 132.029 111.718  1.00  0.00     0.158 A 
BRANCH  15  18
ATOM     18  O   UNL     1     118.888 130.970 110.390  1.00  0.00    -0.504 OA
ATOM     19  H   UNL     1     118.505 130.293 111.040  1.00  0.00     0.293 HD
ENDBRANCH  15  18
BRANCH  17  20
ATOM     20  O   UNL     1     119.757 132.151 112.805  1.00  0.00    -0.504 OA
ATOM     21  H   UNL     1     118.753 132.230 112.690  1.00  0.00     0.293 HD
ENDBRANCH  17  20
ENDBRANCH   1  12
BRANCH   2  22
ATOM     22  O   UNL     1     125.069 130.763 111.677  1.00  0.00    -0.502 OA
ATOM     23  H   UNL     1     125.430 129.995 111.123  1.00  0.00     0.293 HD
ENDBRANCH   2  22
BRANCH   9  24
ATOM     24  O   UNL     1     127.109 138.113 110.207  1.00  0.00    -0.508 OA
ATOM     25  H   UNL     1     127.696 138.731 110.754  1.00  0.00     0.293 HD
ENDBRANCH   9  24
TORSDOF 5
ENDMDL
MODEL 2
REMARK VINA RESULT:    -5.582     11.523     13.413
REMARK INTER + INTRA:          -6.885
REMARK INTER:                  -6.561
REMARK INTRA:                  -0.324
REMARK UNBOUND:                -0.324
REMARK SMILES O=c1c(O)c(-c2ccc(O)c(O)c2)oc2cc(O)ccc12
REMARK SMILES IDX 5 1 3 2 2 3 1 4 21 5 15 6 14 7 16 8 17 9 19 10 20 11 6 12
REMARK SMILES IDX 7 13 8 14 9 15 13 16 11 17 10 18 12 20 4 22 18 24
REMARK H PARENT 10 19 12 21 4 23 18 25
REMARK Flexibility Score: inf
ROOT
ATOM      1  C   UNL     1     126.901 120.971 109.413  1.00  0.00     0.180 A 
ATOM      2  C   UNL     1     126.209 120.374 110.487  1.00  0.00     0.208 A 
ATOM      3  C   UNL     1     126.948 119.736 111.497  1.00  0.00     0.235 A 
ATOM      4  O   UNL     1     126.352 119.184 112.461  1.00  0.00    -0.285 OA
ATOM      5  C   UNL     1     128.350 119.726 111.424  1.00  0.00     0.069 A 
ATOM      6  C   UNL     1     128.968 120.367 110.328  1.00  0.00     0.142 A 
ATOM      7  O   UNL     1     128.233 120.952 109.390  1.00  0.00    -0.452 OA
ATOM      8  C   UNL     1     130.363 120.387 110.225  1.00  0.00     0.094 A 
ATOM      9  C   UNL     1     131.152 119.772 111.204  1.00  0.00     0.119 A 
ATOM     10  C   UNL     1     130.541 119.133 112.291  1.00  0.00     0.047 A 
ATOM     11  C   UNL     1     129.148 119.109 112.405  1.00  0.00     0.020 A 
ENDROOT
BRANCH   1  12
ATOM     12  C   UNL     1     126.194 121.647 108.301  1.00  0.00     0.025 A 
ATOM     13  C   UNL     1     125.778 120.939 107.160  1.00  0.00     0.016 A 
ATOM     14  C   UNL     1     125.134 121.602 106.113  1.00  0.00     0.051 A 
ATOM     15  C   UNL     1     124.908 122.982 106.183  1.00  0.00     0.157 A 
ATOM     16  C   UNL     1     125.983 123.034 108.358  1.00  0.00     0.062 A 
ATOM     17  C   UNL     1     125.338 123.702 107.311  1.00  0.00     0.158 A 
BRANCH  15  18
ATOM     18  O   UNL     1     124.263 123.640 105.137  1.00  0.00    -0.504 OA
ATOM     19  H   UNL     1     124.757 124.284 104.530  1.00  0.00     0.293 HD
ENDBRANCH  15  18
BRANCH  17  20
ATOM     20  O   UNL     1     125.133 125.078 107.408  1.00  0.00    -0.504 OA
ATOM     21  H   UNL     1     125.817 125.749 107.080  1.00  0.00     0.293 HD
ENDBRANCH  17  20
ENDBRANCH   1  12
BRANCH   2  22
ATOM     22  O   UNL     1     124.816 120.443 110.557  1.00  0.00    -0.502 OA
ATOM     23  H   UNL     1     124.269 119.796 111.113  1.00  0.00     0.293 HD
ENDBRANCH   2  22
BRANCH   9  24
ATOM     24  O   UNL     1     132.540 119.801 111.085  1.00  0.00    -0.508 OA
ATOM     25  H   UNL     1     133.141 119.760 111.899  1.00  0.00     0.293 HD
ENDBRANCH   9  24
TORSDOF 5
ENDMDL
MODEL 3
REMARK VINA RESULT:    -5.556      1.247      2.028
REMARK INTER + INTRA:          -6.854
REMARK INTER:                  -6.548
REMARK INTRA:                  -0.307
REMARK UNBOUND:                -0.324
REMARK SMILES O=c1c(O)c(-c2ccc(O)c(O)c2)oc2cc(O)ccc12
REMARK SMILES IDX 5 1 3 2 2 3 1 4 21 5 15 6 14 7 16 8 17 9 19 10 20 11 6 12
REMARK SMILES IDX 7 13 8 14 9 15 13 16 11 17 10 18 12 20 4 22 18 24
REMARK H PARENT 10 19 12 21 4 23 18 25
REMARK Flexibility Score: inf
ROOT
ATOM      1  C   UNL     1     125.421 133.140 111.551  1.00  0.00     0.180 A 
ATOM      2  C   UNL     1     126.465 132.197 111.638  1.00  0.00     0.208 A 
ATOM      3  C   UNL     1     127.773 132.603 111.326  1.00  0.00     0.235 A 
ATOM      4  O   UNL     1     128.722 131.775 111.385  1.00  0.00    -0.285 OA
ATOM      5  C   UNL     1     128.011 133.937 110.957  1.00  0.00     0.069 A 
ATOM      6  C   UNL     1     126.915 134.826 110.916  1.00  0.00     0.142 A 
ATOM      7  O   UNL     1     125.693 134.399 111.211  1.00  0.00    -0.452 OA
ATOM      8  C   UNL     1     127.114 136.165 110.563  1.00  0.00     0.094 A 
ATOM      9  C   UNL     1     128.395 136.629 110.246  1.00  0.00     0.119 A 
ATOM     10  C   UNL     1     129.484 135.748 110.283  1.00  0.00     0.047 A 
ATOM     11  C   UNL     1     129.297 134.409 110.637  1.00  0.00     0.020 A 
ENDROOT
BRANCH   1  12
ATOM     12  C   UNL     1     124.015 132.786 111.846  1.00  0.00     0.025 A 
ATOM     13  C   UNL     1     123.522 132.778 113.162  1.00  0.00     0.016 A 
ATOM     14  C   UNL     1     122.196 132.417 113.418  1.00  0.00     0.051 A 
ATOM     15  C   UNL     1     121.349 132.047 112.367  1.00  0.00     0.157 A 
ATOM     16  C   UNL     1     123.166 132.394 110.797  1.00  0.00     0.062 A 
ATOM     17  C   UNL     1     121.838 132.033 111.050  1.00  0.00     0.158 A 
BRANCH  15  18
ATOM     18  O   UNL     1     120.026 131.690 112.626  1.00  0.00    -0.504 OA
ATOM     19  H   UNL     1     119.286 131.875 111.958  1.00  0.00     0.293 HD
ENDBRANCH  15  18
BRANCH  17  20
ATOM     20  O   UNL     1     121.021 131.662 109.982  1.00  0.00    -0.504 OA
ATOM     21  H   UNL     1     120.015 131.582 110.075  1.00  0.00     0.293 HD
ENDBRANCH  17  20
ENDBRANCH   1  12
BRANCH   2  22
ATOM     22  O   UNL     1     126.205 130.890 112.056  1.00  0.00    -0.502 OA
ATOM     23  H   UNL     1     125.805 130.193 111.438  1.00  0.00     0.293 HD
ENDBRANCH   2  22
BRANCH   9  24
ATOM     24  O   UNL     1     128.574 137.965 109.896  1.00  0.00    -0.508 OA
ATOM     25  H   UNL     1     127.790 138.604 109.830  1.00  0.00     0.293 HD
ENDBRANCH   9  24
TORSDOF 5
ENDMDL
MODEL 4
REMARK VINA RESULT:    -5.458     10.102     12.222
REMARK INTER + INTRA:          -6.739
REMARK INTER:                  -6.562
REMARK INTRA:                  -0.177
REMARK UNBOUND:                -0.324
REMARK SMILES O=c1c(O)c(-c2ccc(O)c(O)c2)oc2cc(O)ccc12
REMARK SMILES IDX 5 1 3 2 2 3 1 4 21 5 15 6 14 7 16 8 17 9 19 10 20 11 6 12
REMARK SMILES IDX 7 13 8 14 9 15 13 16 11 17 10 18 12 20 4 22 18 24
REMARK H PARENT 10 19 12 21 4 23 18 25
REMARK Flexibility Score: inf
ROOT
ATOM      1  C   UNL     1     131.184 124.278 111.576  1.00  0.00     0.180 A 
ATOM      2  C   UNL     1     130.540 125.513 111.356  1.00  0.00     0.208 A 
ATOM      3  C   UNL     1     131.225 126.698 111.669  1.00  0.00     0.235 A 
ATOM      4  O   UNL     1     130.667 127.815 111.493  1.00  0.00    -0.285 OA
ATOM      5  C   UNL     1     132.535 126.626 112.172  1.00  0.00     0.069 A 
ATOM      6  C   UNL     1     133.117 125.352 112.341  1.00  0.00     0.142 A 
ATOM      7  O   UNL     1     132.433 124.254 112.040  1.00  0.00    -0.452 OA
ATOM      8  C   UNL     1     134.423 125.239 112.829  1.00  0.00     0.094 A 
ATOM      9  C   UNL     1     135.157 126.385 113.154  1.00  0.00     0.119 A 
ATOM     10  C   UNL     1     134.580 127.652 112.989  1.00  0.00     0.047 A 
ATOM     11  C   UNL     1     133.277 127.776 112.500  1.00  0.00     0.020 A 
ENDROOT
BRANCH   1  12
ATOM     12  C   UNL     1     130.523 122.985 111.289  1.00  0.00     0.025 A 
ATOM     13  C   UNL     1     129.374 122.578 111.989  1.00  0.00     0.016 A 
ATOM     14  C   UNL     1     128.782 121.342 111.717  1.00  0.00     0.051 A 
ATOM     15  C   UNL     1     129.333 120.490 110.753  1.00  0.00     0.157 A 
ATOM     16  C   UNL     1     131.085 122.118 110.337  1.00  0.00     0.062 A 
ATOM     17  C   UNL     1     130.493 120.880 110.061  1.00  0.00     0.158 A 
BRANCH  15  18
ATOM     18  O   UNL     1     128.738 119.259 110.483  1.00  0.00    -0.504 OA
ATOM     19  H   UNL     1     128.027 118.868 111.091  1.00  0.00     0.293 HD
ENDBRANCH  15  18
BRANCH  17  20
ATOM     20  O   UNL     1     131.071 120.051 109.100  1.00  0.00    -0.504 OA
ATOM     21  H   UNL     1     132.059 119.831 109.102  1.00  0.00     0.293 HD
ENDBRANCH  17  20
ENDBRANCH   1  12
BRANCH   2  22
ATOM     22  O   UNL     1     129.256 125.554 110.809  1.00  0.00    -0.502 OA
ATOM     23  H   UNL     1     128.848 126.408 110.447  1.00  0.00     0.293 HD
ENDBRANCH   2  22
BRANCH   9  24
ATOM     24  O   UNL     1     136.456 126.254 113.639  1.00  0.00    -0.508 OA
ATOM     25  H   UNL     1     137.194 125.852 113.073  1.00  0.00     0.293 HD
ENDBRANCH   9  24
TORSDOF 5
ENDMDL
MODEL 5
REMARK VINA RESULT:    -5.368      2.738      4.286
REMARK INTER + INTRA:          -6.633
REMARK INTER:                  -6.314
REMARK INTRA:                  -0.320
REMARK UNBOUND:                -0.324
REMARK SMILES O=c1c(O)c(-c2ccc(O)c(O)c2)oc2cc(O)ccc12
REMARK SMILES IDX 5 1 3 2 2 3 1 4 21 5 15 6 14 7 16 8 17 9 19 10 20 11 6 12
REMARK SMILES IDX 7 13 8 14 9 15 13 16 11 17 10 18 12 20 4 22 18 24
REMARK H PARENT 10 19 12 21 4 23 18 25
REMARK Flexibility Score: inf
ROOT
ATOM      1  C   UNL     1     126.813 134.599 110.887  1.00  0.00     0.180 A 
ATOM      2  C   UNL     1     126.809 134.790 109.490  1.00  0.00     0.208 A 
ATOM      3  C   UNL     1     127.706 135.713 108.931  1.00  0.00     0.235 A 
ATOM      4  O   UNL     1     127.714 135.911 107.685  1.00  0.00    -0.285 OA
ATOM      5  C   UNL     1     128.596 136.406 109.768  1.00  0.00     0.069 A 
ATOM      6  C   UNL     1     128.553 136.141 111.154  1.00  0.00     0.142 A 
ATOM      7  O   UNL     1     127.683 135.266 111.645  1.00  0.00    -0.452 OA
ATOM      8  C   UNL     1     129.430 136.803 112.020  1.00  0.00     0.094 A 
ATOM      9  C   UNL     1     130.350 137.731 111.519  1.00  0.00     0.119 A 
ATOM     10  C   UNL     1     130.393 137.997 110.144  1.00  0.00     0.047 A 
ATOM     11  C   UNL     1     129.523 137.340 109.270  1.00  0.00     0.020 A 
ENDROOT
BRANCH   1  12
ATOM     12  C   UNL     1     125.886 133.658 111.555  1.00  0.00     0.025 A 
ATOM     13  C   UNL     1     124.579 134.041 111.903  1.00  0.00     0.016 A 
ATOM     14  C   UNL     1     123.729 133.143 112.554  1.00  0.00     0.051 A 
ATOM     15  C   UNL     1     124.176 131.856 112.879  1.00  0.00     0.157 A 
ATOM     16  C   UNL     1     126.336 132.373 111.902  1.00  0.00     0.062 A 
ATOM     17  C   UNL     1     125.488 131.471 112.554  1.00  0.00     0.158 A 
BRANCH  15  18
ATOM     18  O   UNL     1     123.325 130.962 113.528  1.00  0.00    -0.504 OA
ATOM     19  H   UNL     1     122.723 131.258 114.288  1.00  0.00     0.293 HD
ENDBRANCH  15  18
BRANCH  17  20
ATOM     20  O   UNL     1     125.964 130.199 112.871  1.00  0.00    -0.504 OA
ATOM     21  H   UNL     1     126.369 129.985 113.774  1.00  0.00     0.293 HD
ENDBRANCH  17  20
ENDBRANCH   1  12
BRANCH   2  22
ATOM     22  O   UNL     1     125.946 134.051 108.678  1.00  0.00    -0.502 OA
ATOM     23  H   UNL     1     126.284 133.438 107.945  1.00  0.00     0.293 HD
ENDBRANCH   2  22
BRANCH   9  24
ATOM     24  O   UNL     1     131.215 138.381 112.397  1.00  0.00    -0.508 OA
ATOM     25  H   UNL     1     131.245 138.145 113.381  1.00  0.00     0.293 HD
ENDBRANCH   9  24
TORSDOF 5
ENDMDL
MODEL 6
REMARK VINA RESULT:    -5.346      2.174      7.339
REMARK INTER + INTRA:          -6.607
REMARK INTER:                  -6.294
REMARK INTRA:                  -0.313
REMARK UNBOUND:                -0.324
REMARK SMILES O=c1c(O)c(-c2ccc(O)c(O)c2)oc2cc(O)ccc12
REMARK SMILES IDX 5 1 3 2 2 3 1 4 21 5 15 6 14 7 16 8 17 9 19 10 20 11 6 12
REMARK SMILES IDX 7 13 8 14 9 15 13 16 11 17 10 18 12 20 4 22 18 24
REMARK H PARENT 10 19 12 21 4 23 18 25
REMARK Flexibility Score: inf
ROOT
ATOM      1  C   UNL     1     126.243 134.885 110.131  1.00  0.00     0.180 A 
ATOM      2  C   UNL     1     125.288 135.036 109.104  1.00  0.00     0.208 A 
ATOM      3  C   UNL     1     124.097 134.296 109.173  1.00  0.00     0.235 A 
ATOM      4  O   UNL     1     123.233 134.405 108.261  1.00  0.00    -0.285 OA
ATOM      5  C   UNL     1     123.877 133.442 110.266  1.00  0.00     0.069 A 
ATOM      6  C   UNL     1     124.872 133.364 111.264  1.00  0.00     0.142 A 
ATOM      7  O   UNL     1     125.988 134.075 111.158  1.00  0.00    -0.452 OA
ATOM      8  C   UNL     1     124.686 132.533 112.374  1.00  0.00     0.094 A 
ATOM      9  C   UNL     1     123.517 131.774 112.499  1.00  0.00     0.119 A 
ATOM     10  C   UNL     1     122.528 131.848 111.508  1.00  0.00     0.047 A 
ATOM     11  C   UNL     1     122.704 132.676 110.397  1.00  0.00     0.020 A 
ENDROOT
BRANCH   1  12
ATOM     12  C   UNL     1     127.530 135.616 110.122  1.00  0.00     0.025 A 
ATOM     13  C   UNL     1     128.702 135.029 109.613  1.00  0.00     0.016 A 
ATOM     14  C   UNL     1     129.910 135.730 109.636  1.00  0.00     0.051 A 
ATOM     15  C   UNL     1     129.970 137.019 110.179  1.00  0.00     0.157 A 
ATOM     16  C   UNL     1     127.599 136.901 110.684  1.00  0.00     0.062 A 
ATOM     17  C   UNL     1     128.808 137.606 110.709  1.00  0.00     0.158 A 
BRANCH  15  18
ATOM     18  O   UNL     1     131.177 137.716 110.200  1.00  0.00    -0.504 OA
ATOM     19  H   UNL     1     131.968 137.392 110.745  1.00  0.00     0.293 HD
ENDBRANCH  15  18
BRANCH  17  20
ATOM     20  O   UNL     1     128.835 138.885 111.263  1.00  0.00    -0.504 OA
ATOM     21  H   UNL     1     129.669 139.269 111.692  1.00  0.00     0.293 HD
ENDBRANCH  17  20
ENDBRANCH   1  12
BRANCH   2  22
ATOM     22  O   UNL     1     125.513 135.930 108.055  1.00  0.00    -0.502 OA
ATOM     23  H   UNL     1     126.330 136.528 108.018  1.00  0.00     0.293 HD
ENDBRANCH   2  22
BRANCH   9  24
ATOM     24  O   UNL     1     123.348 130.951 113.611  1.00  0.00    -0.508 OA
ATOM     25  H   UNL     1     122.471 130.477 113.789  1.00  0.00     0.293 HD
ENDBRANCH   9  24
TORSDOF 5
ENDMDL
MODEL 7
REMARK VINA RESULT:    -5.329      1.749      6.651
REMARK INTER + INTRA:          -6.588
REMARK INTER:                  -6.285
REMARK INTRA:                  -0.303
REMARK UNBOUND:                -0.324
REMARK SMILES O=c1c(O)c(-c2ccc(O)c(O)c2)oc2cc(O)ccc12
REMARK SMILES IDX 5 1 3 2 2 3 1 4 21 5 15 6 14 7 16 8 17 9 19 10 20 11 6 12
REMARK SMILES IDX 7 13 8 14 9 15 13 16 11 17 10 18 12 20 4 22 18 24
REMARK H PARENT 10 19 12 21 4 23 18 25
REMARK Flexibility Score: inf
ROOT
ATOM      1  C   UNL     1     124.526 134.297 110.899  1.00  0.00     0.180 A 
ATOM      2  C   UNL     1     124.588 133.523 112.075  1.00  0.00     0.208 A 
ATOM      3  C   UNL     1     123.477 132.741 112.431  1.00  0.00     0.235 A 
ATOM      4  O   UNL     1     123.503 132.049 113.484  1.00  0.00    -0.285 OA
ATOM      5  C   UNL     1     122.344 132.733 111.600  1.00  0.00     0.069 A 
ATOM      6  C   UNL     1     122.370 133.518 110.427  1.00  0.00     0.142 A 
ATOM      7  O   UNL     1     123.438 134.250 110.131  1.00  0.00    -0.452 OA
ATOM      8  C   UNL     1     121.266 133.529 109.568  1.00  0.00     0.094 A 
ATOM      9  C   UNL     1     120.131 132.766 109.868  1.00  0.00     0.119 A 
ATOM     10  C   UNL     1     120.102 131.988 111.033  1.00  0.00     0.047 A 
ATOM     11  C   UNL     1     121.201 131.969 111.896  1.00  0.00     0.020 A 
ENDROOT
BRANCH   1  12
ATOM     12  C   UNL     1     125.647 135.161 110.466  1.00  0.00     0.025 A 
ATOM     13  C   UNL     1     126.740 134.640 109.751  1.00  0.00     0.016 A 
ATOM     14  C   UNL     1     127.798 135.470 109.373  1.00  0.00     0.051 A 
ATOM     15  C   UNL     1     127.788 136.828 109.714  1.00  0.00     0.157 A 
ATOM     16  C   UNL     1     125.651 136.520 110.823  1.00  0.00     0.062 A 
ATOM     17  C   UNL     1     126.709 137.354 110.445  1.00  0.00     0.158 A 
BRANCH  15  18
ATOM     18  O   UNL     1     128.844 137.654 109.334  1.00  0.00    -0.504 OA
ATOM     19  H   UNL     1     129.798 137.312 109.294  1.00  0.00     0.293 HD
ENDBRANCH  15  18
BRANCH  17  20
ATOM     20  O   UNL     1     126.673 138.701 110.806  1.00  0.00    -0.504 OA
ATOM     21  H   UNL     1     125.935 139.322 110.496  1.00  0.00     0.293 HD
ENDBRANCH  17  20
ENDBRANCH   1  12
BRANCH   2  22
ATOM     22  O   UNL     1     125.746 133.513 112.855  1.00  0.00    -0.502 OA
ATOM     23  H   UNL     1     126.658 133.298 112.469  1.00  0.00     0.293 HD
ENDBRANCH   2  22
BRANCH   9  24
ATOM     24  O   UNL     1     119.040 132.790 109.001  1.00  0.00    -0.508 OA
ATOM     25  H   UNL     1     118.170 133.239 109.259  1.00  0.00     0.293 HD
ENDBRANCH   9  24
TORSDOF 5
ENDMDL
MODEL 8
REMARK VINA RESULT:    -5.313      1.713      6.758
REMARK INTER + INTRA:          -6.569
REMARK INTER:                  -6.296
REMARK INTRA:                  -0.273
REMARK UNBOUND:                -0.324
REMARK SMILES O=c1c(O)c(-c2ccc(O)c(O)c2)oc2cc(O)ccc12
REMARK SMILES IDX 5 1 3 2 2 3 1 4 21 5 15 6 14 7 16 8 17 9 19 10 20 11 6 12
REMARK SMILES IDX 7 13 8 14 9 15 13 16 11 17 10 18 12 20 4 22 18 24
REMARK H PARENT 10 19 12 21 4 23 18 25
REMARK Flexibility Score: inf
ROOT
ATOM      1  C   UNL     1     124.497 133.365 110.869  1.00  0.00     0.180 A 
ATOM      2  C   UNL     1     123.769 133.081 112.042  1.00  0.00     0.208 A 
ATOM      3  C   UNL     1     122.502 132.488 111.926  1.00  0.00     0.235 A 
ATOM      4  O   UNL     1     121.826 132.234 112.960  1.00  0.00    -0.285 OA
ATOM      5  C   UNL     1     122.001 132.175 110.652  1.00  0.00     0.069 A 
ATOM      6  C   UNL     1     122.801 132.470 109.527  1.00  0.00     0.142 A 
ATOM      7  O   UNL     1     123.991 133.039 109.680  1.00  0.00    -0.452 OA
ATOM      8  C   UNL     1     122.342 132.164 108.242  1.00  0.00     0.094 A 
ATOM      9  C   UNL     1     121.089 131.568 108.063  1.00  0.00     0.119 A 
ATOM     10  C   UNL     1     120.291 131.276 109.178  1.00  0.00     0.047 A 
ATOM     11  C   UNL     1     120.741 131.575 110.466  1.00  0.00     0.020 A 
ENDROOT
BRANCH   1  12
ATOM     12  C   UNL     1     125.831 134.006 110.906  1.00  0.00     0.025 A 
ATOM     13  C   UNL     1     126.001 135.363 110.580  1.00  0.00     0.016 A 
ATOM     14  C   UNL     1     127.273 135.941 110.600  1.00  0.00     0.051 A 
ATOM     15  C   UNL     1     128.394 135.170 110.933  1.00  0.00     0.157 A 
ATOM     16  C   UNL     1     126.961 133.233 111.219  1.00  0.00     0.062 A 
ATOM     17  C   UNL     1     128.236 133.808 111.241  1.00  0.00     0.158 A 
BRANCH  15  18
ATOM     18  O   UNL     1     129.662 135.750 110.953  1.00  0.00    -0.504 OA
ATOM     19  H   UNL     1     129.867 136.557 111.532  1.00  0.00     0.293 HD
ENDBRANCH  15  18
BRANCH  17  20
ATOM     20  O   UNL     1     129.334 133.013 111.569  1.00  0.00    -0.504 OA
ATOM     21  H   UNL     1     129.255 132.216 112.189  1.00  0.00     0.293 HD
ENDBRANCH  17  20
ENDBRANCH   1  12
BRANCH   2  22
ATOM     22  O   UNL     1     124.314 133.359 113.298  1.00  0.00    -0.502 OA
ATOM     23  H   UNL     1     123.742 133.629 114.089  1.00  0.00     0.293 HD
ENDBRANCH   2  22
BRANCH   9  24
ATOM     24  O   UNL     1     120.647 131.271 106.776  1.00  0.00    -0.508 OA
ATOM     25  H   UNL     1     120.828 130.369 106.350  1.00  0.00     0.293 HD
ENDBRANCH   9  24
TORSDOF 5
ENDMDL
MODEL 9
REMARK VINA RESULT:    -5.216      1.901      7.143
REMARK INTER + INTRA:          -6.455
REMARK INTER:                  -6.308
REMARK INTRA:                  -0.147
REMARK UNBOUND:                -0.324
REMARK SMILES O=c1c(O)c(-c2ccc(O)c(O)c2)oc2cc(O)ccc12
REMARK SMILES IDX 5 1 3 2 2 3 1 4 21 5 15 6 14 7 16 8 17 9 19 10 20 11 6 12
REMARK SMILES IDX 7 13 8 14 9 15 13 16 11 17 10 18 12 20 4 22 18 24
REMARK H PARENT 10 19 12 21 4 23 18 25
REMARK Flexibility Score: inf
ROOT
ATOM      1  C   UNL     1     125.258 134.852 110.170  1.00  0.00     0.180 A 
ATOM      2  C   UNL     1     124.795 134.926 108.841  1.00  0.00     0.208 A 
ATOM      3  C   UNL     1     123.595 134.279 108.505  1.00  0.00     0.235 A 
ATOM      4  O   UNL     1     123.166 134.320 107.320  1.00  0.00    -0.285 OA
ATOM      5  C   UNL     1     122.878 133.594 109.500  1.00  0.00     0.069 A 
ATOM      6  C   UNL     1     123.397 133.587 110.813  1.00  0.00     0.142 A 
ATOM      7  O   UNL     1     124.540 134.204 111.087  1.00  0.00    -0.452 OA
ATOM      8  C   UNL     1     122.708 132.924 111.834  1.00  0.00     0.094 A 
ATOM      9  C   UNL     1     121.504 132.265 111.560  1.00  0.00     0.119 A 
ATOM     10  C   UNL     1     120.988 132.269 110.257  1.00  0.00     0.047 A 
ATOM     11  C   UNL     1     121.668 132.929 109.231  1.00  0.00     0.020 A 
ENDROOT
BRANCH   1  12
ATOM     12  C   UNL     1     126.522 135.491 110.599  1.00  0.00     0.025 A 
ATOM     13  C   UNL     1     126.692 136.886 110.547  1.00  0.00     0.016 A 
ATOM     14  C   UNL     1     127.902 137.466 110.935  1.00  0.00     0.051 A 
ATOM     15  C   UNL     1     128.965 136.662 111.368  1.00  0.00     0.157 A 
ATOM     16  C   UNL     1     127.598 134.688 111.014  1.00  0.00     0.062 A 
ATOM     17  C   UNL     1     128.811 135.266 111.404  1.00  0.00     0.158 A 
BRANCH  15  18
ATOM     18  O   UNL     1     130.171 137.244 111.756  1.00  0.00    -0.504 OA
ATOM     19  H   UNL     1     130.462 137.264 112.727  1.00  0.00     0.293 HD
ENDBRANCH  15  18
BRANCH  17  20
ATOM     20  O   UNL     1     129.852 134.437 111.823  1.00  0.00    -0.504 OA
ATOM     21  H   UNL     1     130.561 134.751 112.475  1.00  0.00     0.293 HD
ENDBRANCH  17  20
ENDBRANCH   1  12
BRANCH   2  22
ATOM     22  O   UNL     1     125.504 135.656 107.884  1.00  0.00    -0.502 OA
ATOM     23  H   UNL     1     125.923 136.555 108.089  1.00  0.00     0.293 HD
ENDBRANCH   2  22
BRANCH   9  24
ATOM     24  O   UNL     1     120.831 131.610 112.589  1.00  0.00    -0.508 OA
ATOM     25  H   UNL     1     120.905 131.921 113.551  1.00  0.00     0.293 HD
ENDBRANCH   9  24
TORSDOF 5
ENDMDL
