MODEL 1
REMARK VINA RESULT:    -3.962      0.000      0.000
REMARK INTER + INTRA:          -5.699
REMARK INTER:                  -5.351
REMARK INTRA:                  -0.348
REMARK UNBOUND:                -0.348
REMARK SMILES CCCCCCCC(=O)[O-]
REMARK SMILES IDX 5 1 6 2 7 3 8 4 9 5 10 6 4 7 3 8 2 9 1 10
REMARK H PARENT
REMARK Flexibility Score: inf
ROOT
ATOM      1  C   UNL     1      -4.229  10.040  -3.340  1.00  0.00     0.000 C 
ENDROOT
BRANCH   1   2
ATOM      2  C   UNL     1      -3.084   9.017  -3.345  1.00  0.00     0.006 C 
BRANCH   2   3
ATOM      3  C   UNL     1      -1.877   9.549  -4.123  1.00  0.00     0.053 C 
BRANCH   3   4
ATOM      4  C   UNL     1      -1.333   8.493  -5.034  1.00  0.00     0.041 C 
ATOM      5  O   UNL     1      -1.955   8.179  -6.082  1.00  0.00    -0.550 OA
ATOM      6  O   UNL     1      -0.114   7.892  -4.751  1.00  0.00    -0.550 OA
ENDBRANCH   3   4
ENDBRANCH   2   3
ENDBRANCH   1   2
BRANCH   1   7
ATOM      7  C   UNL     1      -5.108   9.966  -4.601  1.00  0.00     0.000 C 
BRANCH   7   8
ATOM      8  C   UNL     1      -5.326   8.548  -5.159  1.00  0.00    -0.000 C 
BRANCH   8   9
ATOM      9  C   UNL     1      -6.712   7.980  -4.824  1.00  0.00    -0.003 C 
ATOM     10  C   UNL     1      -6.795   6.495  -5.164  1.00  0.00     0.004 C 
ENDBRANCH   8   9
ENDBRANCH   7   8
ENDBRANCH   1   7
TORSDOF 6
ENDMDL
MODEL 2
REMARK VINA RESULT:    -3.874      3.717      6.647
REMARK INTER + INTRA:          -5.581
REMARK INTER:                  -5.334
REMARK INTRA:                  -0.247
REMARK UNBOUND:                -0.348
REMARK SMILES CCCCCCCC(=O)[O-]
REMARK SMILES IDX 5 1 6 2 7 3 8 4 9 5 10 6 4 7 3 8 2 9 1 10
REMARK H PARENT
REMARK Flexibility Score: inf
ROOT
ATOM      1  C   UNL     1       0.287   9.107  -7.341  1.00  0.00     0.000 C 
ENDROOT
BRANCH   1   2
ATOM      2  C   UNL     1      -0.003   8.461  -5.980  1.00  0.00     0.006 C 
BRANCH   2   3
ATOM      3  C   UNL     1      -0.769   9.423  -5.067  1.00  0.00     0.053 C 
BRANCH   3   4
ATOM      4  C   UNL     1      -2.022   8.781  -4.560  1.00  0.00     0.041 C 
ATOM      5  O   UNL     1      -2.357   8.909  -3.354  1.00  0.00    -0.550 OA
ATOM      6  O   UNL     1      -2.847   8.082  -5.432  1.00  0.00    -0.550 OA
ENDBRANCH   3   4
ENDBRANCH   2   3
ENDBRANCH   1   2
BRANCH   1   7
ATOM      7  C   UNL     1       1.625   8.652  -7.951  1.00  0.00     0.000 C 
BRANCH   7   8
ATOM      8  C   UNL     1       2.242   7.401  -7.303  1.00  0.00    -0.000 C 
BRANCH   8   9
ATOM      9  C   UNL     1       3.523   6.931  -8.008  1.00  0.00    -0.003 C 
ATOM     10  C   UNL     1       3.848   7.818  -9.206  1.00  0.00     0.004 C 
ENDBRANCH   8   9
ENDBRANCH   7   8
ENDBRANCH   1   7
TORSDOF 6
ENDMDL
MODEL 3
REMARK VINA RESULT:    -3.849     12.360     13.453
REMARK INTER + INTRA:          -5.547
REMARK INTER:                  -5.646
REMARK INTRA:                   0.099
REMARK UNBOUND:                -0.348
REMARK SMILES CCCCCCCC(=O)[O-]
REMARK SMILES IDX 5 1 6 2 7 3 8 4 9 5 10 6 4 7 3 8 2 9 1 10
REMARK H PARENT
REMARK Flexibility Score: inf
ROOT
ATOM      1  C   UNL     1       2.810  -2.169  -1.110  1.00  0.00     0.000 C 
ENDROOT
BRANCH   1   2
ATOM      2  C   UNL     1       2.371  -2.935   0.147  1.00  0.00     0.006 C 
BRANCH   2   3
ATOM      3  C   UNL     1       0.933  -3.443   0.005  1.00  0.00     0.053 C 
BRANCH   3   4
ATOM      4  C   UNL     1       0.206  -2.673  -1.052  1.00  0.00     0.041 C 
ATOM      5  O   UNL     1       0.266  -3.037  -2.255  1.00  0.00    -0.550 OA
ATOM      6  O   UNL     1      -0.580  -1.583  -0.701  1.00  0.00    -0.550 OA
ENDBRANCH   3   4
ENDBRANCH   2   3
ENDBRANCH   1   2
BRANCH   1   7
ATOM      7  C   UNL     1       3.823  -2.949  -1.966  1.00  0.00     0.000 C 
BRANCH   7   8
ATOM      8  C   UNL     1       3.828  -2.584  -3.461  1.00  0.00    -0.000 C 
BRANCH   8   9
ATOM      9  C   UNL     1       3.709  -1.073  -3.709  1.00  0.00    -0.003 C 
ATOM     10  C   UNL     1       4.421  -0.669  -4.997  1.00  0.00     0.004 C 
ENDBRANCH   8   9
ENDBRANCH   7   8
ENDBRANCH   1   7
TORSDOF 6
ENDMDL
MODEL 4
REMARK VINA RESULT:    -3.780     19.072     20.030
REMARK INTER + INTRA:          -5.455
REMARK INTER:                  -5.159
REMARK INTRA:                  -0.295
REMARK UNBOUND:                -0.348
REMARK SMILES CCCCCCCC(=O)[O-]
REMARK SMILES IDX 5 1 6 2 7 3 8 4 9 5 10 6 4 7 3 8 2 9 1 10
REMARK H PARENT
REMARK Flexibility Score: inf
ROOT
ATOM      1  C   UNL     1      -1.075  -7.670   8.168  1.00  0.00     0.000 C 
ENDROOT
BRANCH   1   2
ATOM      2  C   UNL     1      -1.551  -8.407   6.908  1.00  0.00     0.006 C 
BRANCH   2   3
ATOM      3  C   UNL     1      -2.414  -7.494   6.032  1.00  0.00     0.053 C 
BRANCH   3   4
ATOM      4  C   UNL     1      -1.990  -7.587   4.600  1.00  0.00     0.041 C 
ATOM      5  O   UNL     1      -1.416  -8.624   4.175  1.00  0.00    -0.550 OA
ATOM      6  O   UNL     1      -2.274  -6.549   3.722  1.00  0.00    -0.550 OA
ENDBRANCH   3   4
ENDBRANCH   2   3
ENDBRANCH   1   2
BRANCH   1   7
ATOM      7  C   UNL     1      -2.235  -7.174   9.050  1.00  0.00     0.000 C 
BRANCH   7   8
ATOM      8  C   UNL     1      -1.868  -6.054  10.038  1.00  0.00    -0.000 C 
BRANCH   8   9
ATOM      9  C   UNL     1      -0.498  -5.424   9.748  1.00  0.00    -0.003 C 
ATOM     10  C   UNL     1      -0.647  -4.090   9.024  1.00  0.00     0.004 C 
ENDBRANCH   8   9
ENDBRANCH   7   8
ENDBRANCH   1   7
TORSDOF 6
ENDMDL
MODEL 5
REMARK VINA RESULT:    -3.749      2.682      4.630
REMARK INTER + INTRA:          -5.412
REMARK INTER:                  -4.985
REMARK INTRA:                  -0.426
REMARK UNBOUND:                -0.348
REMARK SMILES CCCCCCCC(=O)[O-]
REMARK SMILES IDX 5 1 6 2 7 3 8 4 9 5 10 6 4 7 3 8 2 9 1 10
REMARK H PARENT
REMARK Flexibility Score: inf
ROOT
ATOM      1  C   UNL     1      -4.358  10.006  -3.488  1.00  0.00     0.000 C 
ENDROOT
BRANCH   1   2
ATOM      2  C   UNL     1      -5.312   9.568  -4.608  1.00  0.00     0.006 C 
BRANCH   2   3
ATOM      3  C   UNL     1      -5.125   8.084  -4.939  1.00  0.00     0.053 C 
BRANCH   3   4
ATOM      4  C   UNL     1      -6.438   7.367  -4.889  1.00  0.00     0.041 C 
ATOM      5  O   UNL     1      -6.473   6.109  -4.928  1.00  0.00    -0.550 OA
ATOM      6  O   UNL     1      -7.618   8.085  -4.748  1.00  0.00    -0.550 OA
ENDBRANCH   3   4
ENDBRANCH   2   3
ENDBRANCH   1   2
BRANCH   1   7
ATOM      7  C   UNL     1      -3.110   9.110  -3.376  1.00  0.00     0.000 C 
BRANCH   7   8
ATOM      8  C   UNL     1      -1.842   9.677  -4.038  1.00  0.00    -0.000 C 
BRANCH   8   9
ATOM      9  C   UNL     1      -0.994   8.599  -4.727  1.00  0.00    -0.003 C 
ATOM     10  C   UNL     1      -1.616   8.175  -6.054  1.00  0.00     0.004 C 
ENDBRANCH   8   9
ENDBRANCH   7   8
ENDBRANCH   1   7
TORSDOF 6
ENDMDL
MODEL 6
REMARK VINA RESULT:    -3.745     19.300     20.173
REMARK INTER + INTRA:          -5.407
REMARK INTER:                  -5.118
REMARK INTRA:                  -0.289
REMARK UNBOUND:                -0.348
REMARK SMILES CCCCCCCC(=O)[O-]
REMARK SMILES IDX 5 1 6 2 7 3 8 4 9 5 10 6 4 7 3 8 2 9 1 10
REMARK H PARENT
REMARK Flexibility Score: inf
ROOT
ATOM      1  C   UNL     1      -1.805  -7.233   8.450  1.00  0.00     0.000 C 
ENDROOT
BRANCH   1   2
ATOM      2  C   UNL     1      -1.562  -7.837   7.060  1.00  0.00     0.006 C 
BRANCH   2   3
ATOM      3  C   UNL     1      -2.620  -7.358   6.061  1.00  0.00     0.053 C 
BRANCH   3   4
ATOM      4  C   UNL     1      -2.118  -7.498   4.658  1.00  0.00     0.041 C 
ATOM      5  O   UNL     1      -2.243  -6.546   3.843  1.00  0.00    -0.550 OA
ATOM      6  O   UNL     1      -1.467  -8.659   4.264  1.00  0.00    -0.550 OA
ENDBRANCH   3   4
ENDBRANCH   2   3
ENDBRANCH   1   2
BRANCH   1   7
ATOM      7  C   UNL     1      -3.101  -7.742   9.108  1.00  0.00     0.000 C 
BRANCH   7   8
ATOM      8  C   UNL     1      -3.735  -6.777  10.125  1.00  0.00    -0.000 C 
BRANCH   8   9
ATOM      9  C   UNL     1      -5.270  -6.817  10.112  1.00  0.00    -0.003 C 
ATOM     10  C   UNL     1      -5.789  -7.612   8.917  1.00  0.00     0.004 C 
ENDBRANCH   8   9
ENDBRANCH   7   8
ENDBRANCH   1   7
TORSDOF 6
ENDMDL
MODEL 7
REMARK VINA RESULT:    -3.699      3.581      5.498
REMARK INTER + INTRA:          -5.345
REMARK INTER:                  -5.124
REMARK INTRA:                  -0.220
REMARK UNBOUND:                -0.348
REMARK SMILES CCCCCCCC(=O)[O-]
REMARK SMILES IDX 5 1 6 2 7 3 8 4 9 5 10 6 4 7 3 8 2 9 1 10
REMARK H PARENT
REMARK Flexibility Score: inf
ROOT
ATOM      1  C   UNL     1      -5.326   8.578  -5.066  1.00  0.00     0.000 C 
ENDROOT
BRANCH   1   2
ATOM      2  C   UNL     1      -6.733   7.973  -4.962  1.00  0.00     0.006 C 
BRANCH   2   3
ATOM      3  C   UNL     1      -6.712   6.475  -5.282  1.00  0.00     0.053 C 
BRANCH   3   4
ATOM      4  C   UNL     1      -8.056   6.021  -5.756  1.00  0.00     0.041 C 
ATOM      5  O   UNL     1      -8.161   4.986  -6.465  1.00  0.00    -0.550 OA
ATOM      6  O   UNL     1      -9.198   6.711  -5.373  1.00  0.00    -0.550 OA
ENDBRANCH   3   4
ENDBRANCH   2   3
ENDBRANCH   1   2
BRANCH   1   7
ATOM      7  C   UNL     1      -5.207   9.947  -4.373  1.00  0.00     0.000 C 
BRANCH   7   8
ATOM      8  C   UNL     1      -4.290   9.974  -3.137  1.00  0.00    -0.000 C 
BRANCH   8   9
ATOM      9  C   UNL     1      -3.038   9.101  -3.302  1.00  0.00    -0.003 C 
ATOM     10  C   UNL     1      -1.970   9.820  -4.121  1.00  0.00     0.004 C 
ENDBRANCH   8   9
ENDBRANCH   7   8
ENDBRANCH   1   7
TORSDOF 6
ENDMDL
MODEL 8
REMARK VINA RESULT:    -3.547      2.610      4.611
REMARK INTER + INTRA:          -5.139
REMARK INTER:                  -4.818
REMARK INTRA:                  -0.321
REMARK UNBOUND:                -0.348
REMARK SMILES CCCCCCCC(=O)[O-]
REMARK SMILES IDX 5 1 6 2 7 3 8 4 9 5 10 6 4 7 3 8 2 9 1 10
REMARK H PARENT
REMARK Flexibility Score: inf
ROOT
ATOM      1  C   UNL     1      -5.132   9.851  -4.717  1.00  0.00     0.000 C 
ENDROOT
BRANCH   1   2
ATOM      2  C   UNL     1      -6.225   8.787  -4.886  1.00  0.00     0.006 C 
BRANCH   2   3
ATOM      3  C   UNL     1      -5.970   7.929  -6.129  1.00  0.00     0.053 C 
BRANCH   3   4
ATOM      4  C   UNL     1      -6.278   6.492  -5.847  1.00  0.00     0.041 C 
ATOM      5  O   UNL     1      -6.137   6.030  -4.685  1.00  0.00    -0.550 OA
ATOM      6  O   UNL     1      -6.770   5.676  -6.857  1.00  0.00    -0.550 OA
ENDBRANCH   3   4
ENDBRANCH   2   3
ENDBRANCH   1   2
BRANCH   1   7
ATOM      7  C   UNL     1      -4.441   9.791  -3.343  1.00  0.00     0.000 C 
BRANCH   7   8
ATOM      8  C   UNL     1      -2.979   9.312  -3.370  1.00  0.00    -0.000 C 
BRANCH   8   9
ATOM      9  C   UNL     1      -2.528   8.844  -4.761  1.00  0.00    -0.003 C 
ATOM     10  C   UNL     1      -1.027   8.575  -4.791  1.00  0.00     0.004 C 
ENDBRANCH   8   9
ENDBRANCH   7   8
ENDBRANCH   1   7
TORSDOF 6
ENDMDL
MODEL 9
REMARK VINA RESULT:    -3.411      3.257      6.075
REMARK INTER + INTRA:          -4.955
REMARK INTER:                  -4.765
REMARK INTRA:                  -0.190
REMARK UNBOUND:                -0.348
REMARK SMILES CCCCCCCC(=O)[O-]
REMARK SMILES IDX 5 1 6 2 7 3 8 4 9 5 10 6 4 7 3 8 2 9 1 10
REMARK H PARENT
REMARK Flexibility Score: inf
ROOT
ATOM      1  C   UNL     1      -0.168   8.616  -6.156  1.00  0.00     0.000 C 
ENDROOT
BRANCH   1   2
ATOM      2  C   UNL     1      -1.635   9.026  -5.962  1.00  0.00     0.006 C 
BRANCH   2   3
ATOM      3  C   UNL     1      -2.559   7.806  -6.037  1.00  0.00     0.053 C 
BRANCH   3   4
ATOM      4  C   UNL     1      -3.837   8.071  -5.304  1.00  0.00     0.041 C 
ATOM      5  O   UNL     1      -4.818   7.295  -5.443  1.00  0.00    -0.550 OA
ATOM      6  O   UNL     1      -3.927   9.146  -4.430  1.00  0.00    -0.550 OA
ENDBRANCH   3   4
ENDBRANCH   2   3
ENDBRANCH   1   2
BRANCH   1   7
ATOM      7  C   UNL     1       0.538   9.416  -7.266  1.00  0.00     0.000 C 
BRANCH   7   8
ATOM      8  C   UNL     1       1.585   8.626  -8.071  1.00  0.00    -0.000 C 
BRANCH   8   9
ATOM      9  C   UNL     1       2.245   7.505  -7.256  1.00  0.00    -0.003 C 
ATOM     10  C   UNL     1       3.411   6.883  -8.019  1.00  0.00     0.004 C 
ENDBRANCH   8   9
ENDBRANCH   7   8
ENDBRANCH   1   7
TORSDOF 6
ENDMDL
