MODEL 1
REMARK VINA RESULT:    -3.349      0.000      0.000
REMARK INTER + INTRA:          -7.922
REMARK INTER:                  -6.090
REMARK INTRA:                  -1.832
REMARK UNBOUND:                -1.832
REMARK SMILES CCCCCCCCCCCCCC[C@@H](C)C(=O)[O-]
REMARK SMILES IDX 9 1 10 2 11 3 12 4 13 5 14 6 15 7 16 8 17 9 18 10 19 11 8 12
REMARK SMILES IDX 7 13 6 14 5 15 4 16 3 17 2 18 1 19
REMARK H PARENT
REMARK Flexibility Score: inf
ROOT
ATOM      1  C   UNL     1      65.166  31.247  59.081  1.00  0.00     0.000 C 
ENDROOT
BRANCH   1   2
ATOM      2  C   UNL     1      64.850  31.523  60.561  1.00  0.00     0.000 C 
BRANCH   2   3
ATOM      3  C   UNL     1      64.730  30.236  61.399  1.00  0.00     0.000 C 
BRANCH   3   4
ATOM      4  C   UNL     1      64.842  28.923  60.604  1.00  0.00     0.000 C 
BRANCH   4   5
ATOM      5  C   UNL     1      63.478  28.324  60.237  1.00  0.00     0.001 C 
BRANCH   5   6
ATOM      6  C   UNL     1      62.475  28.488  61.390  1.00  0.00     0.009 C 
BRANCH   6   7
ATOM      7  C   UNL     1      61.039  28.733  60.882  1.00  0.00     0.032 C 
ATOM      8  C   UNL     1      61.054  29.178  59.416  1.00  0.00     0.014 C 
BRANCH   7   9
ATOM      9  C   UNL     1      60.188  27.500  61.030  1.00  0.00     0.044 C 
ATOM     10  O   UNL     1      58.932  27.597  61.042  1.00  0.00    -0.550 OA
ATOM     11  O   UNL     1      60.779  26.248  61.150  1.00  0.00    -0.550 OA
ENDBRANCH   7   9
ENDBRANCH   6   7
ENDBRANCH   5   6
ENDBRANCH   4   5
ENDBRANCH   3   4
ENDBRANCH   2   3
ENDBRANCH   1   2
BRANCH   1  12
ATOM     12  C   UNL     1      64.022  31.670  58.145  1.00  0.00     0.000 C 
BRANCH  12  13
ATOM     13  C   UNL     1      62.882  32.389  58.889  1.00  0.00    -0.000 C 
BRANCH  13  14
ATOM     14  C   UNL     1      62.403  33.652  58.154  1.00  0.00    -0.000 C 
BRANCH  14  15
ATOM     15  C   UNL     1      61.913  34.745  59.115  1.00  0.00    -0.000 C 
BRANCH  15  16
ATOM     16  C   UNL     1      63.079  35.621  59.591  1.00  0.00    -0.000 C 
BRANCH  16  17
ATOM     17  C   UNL     1      63.344  35.497  61.101  1.00  0.00    -0.000 C 
BRANCH  17  18
ATOM     18  C   UNL     1      64.763  34.997  61.442  1.00  0.00    -0.003 C 
ATOM     19  C   UNL     1      65.421  35.822  62.549  1.00  0.00     0.004 C 
ENDBRANCH  17  18
ENDBRANCH  16  17
ENDBRANCH  15  16
ENDBRANCH  14  15
ENDBRANCH  13  14
ENDBRANCH  12  13
ENDBRANCH   1  12
TORSDOF 14
ENDMDL
MODEL 2
REMARK VINA RESULT:    -3.295      3.345      5.047
REMARK INTER + INTRA:          -7.823
REMARK INTER:                  -6.046
REMARK INTRA:                  -1.778
REMARK UNBOUND:                -1.832
REMARK SMILES CCCCCCCCCCCCCC[C@@H](C)C(=O)[O-]
REMARK SMILES IDX 9 1 10 2 11 3 12 4 13 5 14 6 15 7 16 8 17 9 18 10 19 11 8 12
REMARK SMILES IDX 7 13 6 14 5 15 4 16 3 17 2 18 1 19
REMARK H PARENT
REMARK Flexibility Score: inf
ROOT
ATOM      1  C   UNL     1      61.576  29.342  59.444  1.00  0.00     0.000 C 
ENDROOT
BRANCH   1   2
ATOM      2  C   UNL     1      61.470  29.063  60.953  1.00  0.00     0.000 C 
BRANCH   2   3
ATOM      3  C   UNL     1      62.783  28.530  61.558  1.00  0.00     0.000 C 
BRANCH   3   4
ATOM      4  C   UNL     1      64.009  29.442  61.370  1.00  0.00     0.000 C 
BRANCH   4   5
ATOM      5  C   UNL     1      65.110  28.801  60.515  1.00  0.00     0.001 C 
BRANCH   5   6
ATOM      6  C   UNL     1      66.419  29.601  60.610  1.00  0.00     0.009 C 
BRANCH   6   7
ATOM      7  C   UNL     1      67.621  28.822  60.038  1.00  0.00     0.032 C 
ATOM      8  C   UNL     1      68.084  29.441  58.714  1.00  0.00     0.014 C 
BRANCH   7   9
ATOM      9  C   UNL     1      68.768  28.791  61.012  1.00  0.00     0.044 C 
ATOM     10  O   UNL     1      68.593  28.354  62.180  1.00  0.00    -0.550 OA
ATOM     11  O   UNL     1      70.027  29.241  60.631  1.00  0.00    -0.550 OA
ENDBRANCH   7   9
ENDBRANCH   6   7
ENDBRANCH   5   6
ENDBRANCH   4   5
ENDBRANCH   3   4
ENDBRANCH   2   3
ENDBRANCH   1   2
BRANCH   1  12
ATOM     12  C   UNL     1      60.748  30.563  59.011  1.00  0.00     0.000 C 
BRANCH  12  13
ATOM     13  C   UNL     1      61.624  31.759  58.599  1.00  0.00    -0.000 C 
BRANCH  13  14
ATOM     14  C   UNL     1      63.100  31.371  58.412  1.00  0.00    -0.000 C 
BRANCH  14  15
ATOM     15  C   UNL     1      64.001  32.585  58.140  1.00  0.00    -0.000 C 
BRANCH  15  16
ATOM     16  C   UNL     1      65.227  32.577  59.062  1.00  0.00    -0.000 C 
BRANCH  16  17
ATOM     17  C   UNL     1      64.874  32.871  60.530  1.00  0.00    -0.000 C 
BRANCH  17  18
ATOM     18  C   UNL     1      64.994  34.361  60.909  1.00  0.00    -0.003 C 
ATOM     19  C   UNL     1      63.669  35.110  60.758  1.00  0.00     0.004 C 
ENDBRANCH  17  18
ENDBRANCH  16  17
ENDBRANCH  15  16
ENDBRANCH  14  15
ENDBRANCH  13  14
ENDBRANCH  12  13
ENDBRANCH   1  12
TORSDOF 14
ENDMDL
MODEL 3
REMARK VINA RESULT:    -3.281      5.251      7.572
REMARK INTER + INTRA:          -7.799
REMARK INTER:                  -6.884
REMARK INTRA:                  -0.915
REMARK UNBOUND:                -1.832
REMARK SMILES CCCCCCCCCCCCCC[C@@H](C)C(=O)[O-]
REMARK SMILES IDX 9 1 10 2 11 3 12 4 13 5 14 6 15 7 16 8 17 9 18 10 19 11 8 12
REMARK SMILES IDX 7 13 6 14 5 15 4 16 3 17 2 18 1 19
REMARK H PARENT
REMARK Flexibility Score: inf
ROOT
ATOM      1  C   UNL     1      66.560  27.888  60.314  1.00  0.00     0.000 C 
ENDROOT
BRANCH   1   2
ATOM      2  C   UNL     1      65.082  28.152  60.651  1.00  0.00     0.000 C 
BRANCH   2   3
ATOM      3  C   UNL     1      64.833  29.575  61.185  1.00  0.00     0.000 C 
BRANCH   3   4
ATOM      4  C   UNL     1      64.233  30.561  60.166  1.00  0.00     0.000 C 
BRANCH   4   5
ATOM      5  C   UNL     1      65.140  31.769  59.893  1.00  0.00     0.001 C 
BRANCH   5   6
ATOM      6  C   UNL     1      65.016  32.816  61.010  1.00  0.00     0.009 C 
BRANCH   6   7
ATOM      7  C   UNL     1      64.885  34.249  60.454  1.00  0.00     0.032 C 
ATOM      8  C   UNL     1      63.460  34.503  59.951  1.00  0.00     0.014 C 
BRANCH   7   9
ATOM      9  C   UNL     1      65.247  35.276  61.493  1.00  0.00     0.044 C 
ATOM     10  O   UNL     1      66.442  35.653  61.619  1.00  0.00    -0.550 OA
ATOM     11  O   UNL     1      64.268  35.816  62.319  1.00  0.00    -0.550 OA
ENDBRANCH   7   9
ENDBRANCH   6   7
ENDBRANCH   5   6
ENDBRANCH   4   5
ENDBRANCH   3   4
ENDBRANCH   2   3
ENDBRANCH   1   2
BRANCH   1  12
ATOM     12  C   UNL     1      67.487  29.011  60.806  1.00  0.00     0.000 C 
BRANCH  12  13
ATOM     13  C   UNL     1      68.718  28.477  61.560  1.00  0.00    -0.000 C 
BRANCH  13  14
ATOM     14  C   UNL     1      70.009  28.588  60.732  1.00  0.00    -0.000 C 
BRANCH  14  15
ATOM     15  C   UNL     1      71.038  29.537  61.364  1.00  0.00    -0.000 C 
BRANCH  15  16
ATOM     16  C   UNL     1      71.923  30.183  60.290  1.00  0.00    -0.000 C 
BRANCH  16  17
ATOM     17  C   UNL     1      72.689  31.413  60.806  1.00  0.00    -0.000 C 
BRANCH  17  18
ATOM     18  C   UNL     1      72.423  32.694  59.989  1.00  0.00    -0.003 C 
ATOM     19  C   UNL     1      71.373  32.483  58.897  1.00  0.00     0.004 C 
ENDBRANCH  17  18
ENDBRANCH  16  17
ENDBRANCH  15  16
ENDBRANCH  14  15
ENDBRANCH  13  14
ENDBRANCH  12  13
ENDBRANCH   1  12
TORSDOF 14
ENDMDL
MODEL 4
REMARK VINA RESULT:    -3.213      9.623     12.189
REMARK INTER + INTRA:          -7.676
REMARK INTER:                  -5.303
REMARK INTRA:                  -2.373
REMARK UNBOUND:                -1.832
REMARK SMILES CCCCCCCCCCCCCC[C@@H](C)C(=O)[O-]
REMARK SMILES IDX 9 1 10 2 11 3 12 4 13 5 14 6 15 7 16 8 17 9 18 10 19 11 8 12
REMARK SMILES IDX 7 13 6 14 5 15 4 16 3 17 2 18 1 19
REMARK H PARENT
REMARK Flexibility Score: inf
ROOT
ATOM      1  C   UNL     1      61.513  29.573  50.809  1.00  0.00     0.000 C 
ENDROOT
BRANCH   1   2
ATOM      2  C   UNL     1      60.649  29.583  52.082  1.00  0.00     0.000 C 
BRANCH   2   3
ATOM      3  C   UNL     1      59.369  28.737  51.946  1.00  0.00     0.000 C 
BRANCH   3   4
ATOM      4  C   UNL     1      59.257  27.555  52.926  1.00  0.00     0.000 C 
BRANCH   4   5
ATOM      5  C   UNL     1      57.915  26.816  52.825  1.00  0.00     0.001 C 
BRANCH   5   6
ATOM      6  C   UNL     1      56.921  27.595  51.949  1.00  0.00     0.009 C 
BRANCH   6   7
ATOM      7  C   UNL     1      56.085  26.664  51.047  1.00  0.00     0.032 C 
ATOM      8  C   UNL     1      55.587  25.451  51.839  1.00  0.00     0.014 C 
BRANCH   7   9
ATOM      9  C   UNL     1      54.914  27.392  50.444  1.00  0.00     0.044 C 
ATOM     10  O   UNL     1      54.333  26.924  49.429  1.00  0.00    -0.550 OA
ATOM     11  O   UNL     1      54.464  28.583  51.002  1.00  0.00    -0.550 OA
ENDBRANCH   7   9
ENDBRANCH   6   7
ENDBRANCH   5   6
ENDBRANCH   4   5
ENDBRANCH   3   4
ENDBRANCH   2   3
ENDBRANCH   1   2
BRANCH   1  12
ATOM     12  C   UNL     1      61.015  28.560  49.766  1.00  0.00     0.000 C 
BRANCH  12  13
ATOM     13  C   UNL     1      61.968  27.363  49.599  1.00  0.00    -0.000 C 
BRANCH  13  14
ATOM     14  C   UNL     1      61.304  26.026  49.966  1.00  0.00    -0.000 C 
BRANCH  14  15
ATOM     15  C   UNL     1      59.842  25.944  49.500  1.00  0.00    -0.000 C 
BRANCH  15  16
ATOM     16  C   UNL     1      59.126  24.750  50.145  1.00  0.00    -0.000 C 
BRANCH  16  17
ATOM     17  C   UNL     1      60.076  23.584  50.465  1.00  0.00    -0.000 C 
BRANCH  17  18
ATOM     18  C   UNL     1      60.000  23.108  51.930  1.00  0.00    -0.003 C 
ATOM     19  C   UNL     1      58.585  23.204  52.502  1.00  0.00     0.004 C 
ENDBRANCH  17  18
ENDBRANCH  16  17
ENDBRANCH  15  16
ENDBRANCH  14  15
ENDBRANCH  13  14
ENDBRANCH  12  13
ENDBRANCH   1  12
TORSDOF 14
ENDMDL
MODEL 5
REMARK VINA RESULT:    -3.212      3.586      5.402
REMARK INTER + INTRA:          -7.673
REMARK INTER:                  -5.085
REMARK INTRA:                  -2.588
REMARK UNBOUND:                -1.832
REMARK SMILES CCCCCCCCCCCCCC[C@@H](C)C(=O)[O-]
REMARK SMILES IDX 9 1 10 2 11 3 12 4 13 5 14 6 15 7 16 8 17 9 18 10 19 11 8 12
REMARK SMILES IDX 7 13 6 14 5 15 4 16 3 17 2 18 1 19
REMARK H PARENT
REMARK Flexibility Score: inf
ROOT
ATOM      1  C   UNL     1      64.218  25.728  58.853  1.00  0.00     0.000 C 
ENDROOT
BRANCH   1   2
ATOM      2  C   UNL     1      63.093  26.714  58.494  1.00  0.00     0.000 C 
BRANCH   2   3
ATOM      3  C   UNL     1      61.690  26.166  58.813  1.00  0.00     0.000 C 
BRANCH   3   4
ATOM      4  C   UNL     1      61.519  25.585  60.229  1.00  0.00     0.000 C 
BRANCH   4   5
ATOM      5  C   UNL     1      60.048  25.403  60.630  1.00  0.00     0.001 C 
BRANCH   5   6
ATOM      6  C   UNL     1      59.661  26.372  61.759  1.00  0.00     0.009 C 
BRANCH   6   7
ATOM      7  C   UNL     1      58.506  27.309  61.351  1.00  0.00     0.032 C 
ATOM      8  C   UNL     1      58.270  27.248  59.838  1.00  0.00     0.014 C 
BRANCH   7   9
ATOM      9  C   UNL     1      57.234  26.959  62.077  1.00  0.00     0.044 C 
ATOM     10  O   UNL     1      56.765  25.793  62.004  1.00  0.00    -0.550 OA
ATOM     11  O   UNL     1      56.571  27.917  62.835  1.00  0.00    -0.550 OA
ENDBRANCH   7   9
ENDBRANCH   6   7
ENDBRANCH   5   6
ENDBRANCH   4   5
ENDBRANCH   3   4
ENDBRANCH   2   3
ENDBRANCH   1   2
BRANCH   1  12
ATOM     12  C   UNL     1      65.340  26.387  59.672  1.00  0.00     0.000 C 
BRANCH  12  13
ATOM     13  C   UNL     1      64.805  27.211  60.856  1.00  0.00    -0.000 C 
BRANCH  13  14
ATOM     14  C   UNL     1      65.211  28.692  60.774  1.00  0.00    -0.000 C 
BRANCH  14  15
ATOM     15  C   UNL     1      64.111  29.635  61.285  1.00  0.00    -0.000 C 
BRANCH  15  16
ATOM     16  C   UNL     1      62.873  28.845  61.728  1.00  0.00    -0.000 C 
BRANCH  16  17
ATOM     17  C   UNL     1      61.598  29.258  60.972  1.00  0.00    -0.000 C 
BRANCH  17  18
ATOM     18  C   UNL     1      61.874  29.918  59.606  1.00  0.00    -0.003 C 
ATOM     19  C   UNL     1      60.607  30.065  58.762  1.00  0.00     0.004 C 
ENDBRANCH  17  18
ENDBRANCH  16  17
ENDBRANCH  15  16
ENDBRANCH  14  15
ENDBRANCH  13  14
ENDBRANCH  12  13
ENDBRANCH   1  12
TORSDOF 14
ENDMDL
MODEL 6
REMARK VINA RESULT:    -3.180      9.896     12.432
REMARK INTER + INTRA:          -7.615
REMARK INTER:                  -5.502
REMARK INTRA:                  -2.113
REMARK UNBOUND:                -1.832
REMARK SMILES CCCCCCCCCCCCCC[C@@H](C)C(=O)[O-]
REMARK SMILES IDX 9 1 10 2 11 3 12 4 13 5 14 6 15 7 16 8 17 9 18 10 19 11 8 12
REMARK SMILES IDX 7 13 6 14 5 15 4 16 3 17 2 18 1 19
REMARK H PARENT
REMARK Flexibility Score: inf
ROOT
ATOM      1  C   UNL     1      60.128  28.245  52.264  1.00  0.00     0.000 C 
ENDROOT
BRANCH   1   2
ATOM      2  C   UNL     1      60.293  28.425  50.745  1.00  0.00     0.000 C 
BRANCH   2   3
ATOM      3  C   UNL     1      61.563  27.750  50.196  1.00  0.00     0.000 C 
BRANCH   3   4
ATOM      4  C   UNL     1      61.398  26.274  49.789  1.00  0.00     0.000 C 
BRANCH   4   5
ATOM      5  C   UNL     1      59.947  25.901  49.456  1.00  0.00     0.001 C 
BRANCH   5   6
ATOM      6  C   UNL     1      59.477  24.706  50.300  1.00  0.00     0.009 C 
BRANCH   6   7
ATOM      7  C   UNL     1      60.655  23.965  50.967  1.00  0.00     0.032 C 
ATOM      8  C   UNL     1      60.481  23.938  52.489  1.00  0.00     0.014 C 
BRANCH   7   9
ATOM      9  C   UNL     1      60.784  22.559  50.445  1.00  0.00     0.044 C 
ATOM     10  O   UNL     1      61.524  22.318  49.455  1.00  0.00    -0.550 OA
ATOM     11  O   UNL     1      60.091  21.518  51.051  1.00  0.00    -0.550 OA
ENDBRANCH   7   9
ENDBRANCH   6   7
ENDBRANCH   5   6
ENDBRANCH   4   5
ENDBRANCH   3   4
ENDBRANCH   2   3
ENDBRANCH   1   2
BRANCH   1  12
ATOM     12  C   UNL     1      58.940  29.042  52.827  1.00  0.00     0.000 C 
BRANCH  12  13
ATOM     13  C   UNL     1      57.825  28.137  53.379  1.00  0.00    -0.000 C 
BRANCH  13  14
ATOM     14  C   UNL     1      58.035  26.657  53.019  1.00  0.00    -0.000 C 
BRANCH  14  15
ATOM     15  C   UNL     1      56.771  26.005  52.437  1.00  0.00    -0.000 C 
BRANCH  15  16
ATOM     16  C   UNL     1      56.378  26.659  51.106  1.00  0.00    -0.000 C 
BRANCH  16  17
ATOM     17  C   UNL     1      55.969  25.635  50.034  1.00  0.00    -0.000 C 
BRANCH  17  18
ATOM     18  C   UNL     1      54.643  25.979  49.324  1.00  0.00    -0.003 C 
ATOM     19  C   UNL     1      54.140  27.379  49.675  1.00  0.00     0.004 C 
ENDBRANCH  17  18
ENDBRANCH  16  17
ENDBRANCH  15  16
ENDBRANCH  14  15
ENDBRANCH  13  14
ENDBRANCH  12  13
ENDBRANCH   1  12
TORSDOF 14
ENDMDL
MODEL 7
REMARK VINA RESULT:    -3.180     10.027     12.686
REMARK INTER + INTRA:          -7.614
REMARK INTER:                  -5.555
REMARK INTRA:                  -2.059
REMARK UNBOUND:                -1.832
REMARK SMILES CCCCCCCCCCCCCC[C@@H](C)C(=O)[O-]
REMARK SMILES IDX 9 1 10 2 11 3 12 4 13 5 14 6 15 7 16 8 17 9 18 10 19 11 8 12
REMARK SMILES IDX 7 13 6 14 5 15 4 16 3 17 2 18 1 19
REMARK H PARENT
REMARK Flexibility Score: inf
ROOT
ATOM      1  C   UNL     1      60.581  28.075  51.426  1.00  0.00     0.000 C 
ENDROOT
BRANCH   1   2
ATOM      2  C   UNL     1      60.855  28.150  49.914  1.00  0.00     0.000 C 
BRANCH   2   3
ATOM      3  C   UNL     1      61.826  27.060  49.424  1.00  0.00     0.000 C 
BRANCH   3   4
ATOM      4  C   UNL     1      63.317  27.352  49.668  1.00  0.00     0.000 C 
BRANCH   4   5
ATOM      5  C   UNL     1      63.861  28.482  48.783  1.00  0.00     0.001 C 
BRANCH   5   6
ATOM      6  C   UNL     1      64.278  29.695  49.631  1.00  0.00     0.009 C 
BRANCH   6   7
ATOM      7  C   UNL     1      63.204  30.802  49.631  1.00  0.00     0.032 C 
ATOM      8  C   UNL     1      62.761  31.124  51.062  1.00  0.00     0.014 C 
BRANCH   7   9
ATOM      9  C   UNL     1      63.709  32.053  48.962  1.00  0.00     0.044 C 
ATOM     10  O   UNL     1      64.947  32.267  48.873  1.00  0.00    -0.550 OA
ATOM     11  O   UNL     1      62.815  32.979  48.437  1.00  0.00    -0.550 OA
ENDBRANCH   7   9
ENDBRANCH   6   7
ENDBRANCH   5   6
ENDBRANCH   4   5
ENDBRANCH   3   4
ENDBRANCH   2   3
ENDBRANCH   1   2
BRANCH   1  12
ATOM     12  C   UNL     1      59.276  28.782  51.825  1.00  0.00     0.000 C 
BRANCH  12  13
ATOM     13  C   UNL     1      58.383  27.913  52.729  1.00  0.00    -0.000 C 
BRANCH  13  14
ATOM     14  C   UNL     1      57.085  27.477  52.030  1.00  0.00    -0.000 C 
BRANCH  14  15
ATOM     15  C   UNL     1      56.990  25.953  51.858  1.00  0.00    -0.000 C 
BRANCH  15  16
ATOM     16  C   UNL     1      57.050  25.563  50.375  1.00  0.00    -0.000 C 
BRANCH  16  17
ATOM     17  C   UNL     1      58.482  25.295  49.884  1.00  0.00    -0.000 C 
BRANCH  17  18
ATOM     18  C   UNL     1      59.346  24.509  50.892  1.00  0.00    -0.003 C 
ATOM     19  C   UNL     1      60.425  23.670  50.206  1.00  0.00     0.004 C 
ENDBRANCH  17  18
ENDBRANCH  16  17
ENDBRANCH  15  16
ENDBRANCH  14  15
ENDBRANCH  13  14
ENDBRANCH  12  13
ENDBRANCH   1  12
TORSDOF 14
ENDMDL
MODEL 8
REMARK VINA RESULT:    -3.156     10.355     12.242
REMARK INTER + INTRA:          -7.571
REMARK INTER:                  -5.579
REMARK INTRA:                  -1.992
REMARK UNBOUND:                -1.832
REMARK SMILES CCCCCCCCCCCCCC[C@@H](C)C(=O)[O-]
REMARK SMILES IDX 9 1 10 2 11 3 12 4 13 5 14 6 15 7 16 8 17 9 18 10 19 11 8 12
REMARK SMILES IDX 7 13 6 14 5 15 4 16 3 17 2 18 1 19
REMARK H PARENT
REMARK Flexibility Score: inf
ROOT
ATOM      1  C   UNL     1      62.612  30.414  49.733  1.00  0.00     0.000 C 
ENDROOT
BRANCH   1   2
ATOM      2  C   UNL     1      62.131  29.371  50.756  1.00  0.00     0.000 C 
BRANCH   2   3
ATOM      3  C   UNL     1      60.866  28.620  50.299  1.00  0.00     0.000 C 
BRANCH   3   4
ATOM      4  C   UNL     1      61.115  27.438  49.344  1.00  0.00     0.000 C 
BRANCH   4   5
ATOM      5  C   UNL     1      62.097  26.403  49.911  1.00  0.00     0.001 C 
BRANCH   5   6
ATOM      6  C   UNL     1      61.366  25.366  50.778  1.00  0.00     0.009 C 
BRANCH   6   7
ATOM      7  C   UNL     1      60.397  24.496  49.952  1.00  0.00     0.032 C 
ATOM      8  C   UNL     1      60.879  23.042  49.911  1.00  0.00     0.014 C 
BRANCH   7   9
ATOM      9  C   UNL     1      58.999  24.551  50.510  1.00  0.00     0.044 C 
ATOM     10  O   UNL     1      58.720  23.942  51.576  1.00  0.00    -0.550 OA
ATOM     11  O   UNL     1      58.010  25.275  49.855  1.00  0.00    -0.550 OA
ENDBRANCH   7   9
ENDBRANCH   6   7
ENDBRANCH   5   6
ENDBRANCH   4   5
ENDBRANCH   3   4
ENDBRANCH   2   3
ENDBRANCH   1   2
BRANCH   1  12
ATOM     12  C   UNL     1      63.980  30.060  49.128  1.00  0.00     0.000 C 
BRANCH  12  13
ATOM     13  C   UNL     1      64.785  29.088  50.010  1.00  0.00    -0.000 C 
BRANCH  13  14
ATOM     14  C   UNL     1      65.409  27.939  49.201  1.00  0.00    -0.000 C 
BRANCH  14  15
ATOM     15  C   UNL     1      64.768  27.775  47.815  1.00  0.00    -0.000 C 
BRANCH  15  16
ATOM     16  C   UNL     1      65.824  27.877  46.706  1.00  0.00    -0.000 C 
BRANCH  16  17
ATOM     17  C   UNL     1      67.209  28.286  47.235  1.00  0.00    -0.000 C 
BRANCH  17  18
ATOM     18  C   UNL     1      67.758  29.579  46.597  1.00  0.00    -0.003 C 
ATOM     19  C   UNL     1      67.096  30.835  47.165  1.00  0.00     0.004 C 
ENDBRANCH  17  18
ENDBRANCH  16  17
ENDBRANCH  15  16
ENDBRANCH  14  15
ENDBRANCH  13  14
ENDBRANCH  12  13
ENDBRANCH   1  12
TORSDOF 14
ENDMDL
MODEL 9
REMARK VINA RESULT:    -3.153     10.112     12.532
REMARK INTER + INTRA:          -7.566
REMARK INTER:                  -5.538
REMARK INTRA:                  -2.028
REMARK UNBOUND:                -1.832
REMARK SMILES CCCCCCCCCCCCCC[C@@H](C)C(=O)[O-]
REMARK SMILES IDX 9 1 10 2 11 3 12 4 13 5 14 6 15 7 16 8 17 9 18 10 19 11 8 12
REMARK SMILES IDX 7 13 6 14 5 15 4 16 3 17 2 18 1 19
REMARK H PARENT
REMARK Flexibility Score: inf
ROOT
ATOM      1  C   UNL     1      62.427  25.711  50.132  1.00  0.00     0.000 C 
ENDROOT
BRANCH   1   2
ATOM      2  C   UNL     1      62.276  27.051  49.392  1.00  0.00     0.000 C 
BRANCH   2   3
ATOM      3  C   UNL     1      60.963  27.781  49.734  1.00  0.00     0.000 C 
BRANCH   3   4
ATOM      4  C   UNL     1      61.096  29.297  49.963  1.00  0.00     0.000 C 
BRANCH   4   5
ATOM      5  C   UNL     1      61.933  29.647  51.201  1.00  0.00     0.001 C 
BRANCH   5   6
ATOM      6  C   UNL     1      63.040  30.655  50.852  1.00  0.00     0.009 C 
BRANCH   6   7
ATOM      7  C   UNL     1      63.193  30.847  49.329  1.00  0.00     0.032 C 
ATOM      8  C   UNL     1      63.068  32.328  48.958  1.00  0.00     0.014 C 
BRANCH   7   9
ATOM      9  C   UNL     1      64.511  30.310  48.839  1.00  0.00     0.044 C 
ATOM     10  O   UNL     1      65.587  30.861  49.190  1.00  0.00    -0.550 OA
ATOM     11  O   UNL     1      64.550  29.203  47.999  1.00  0.00    -0.550 OA
ENDBRANCH   7   9
ENDBRANCH   6   7
ENDBRANCH   5   6
ENDBRANCH   4   5
ENDBRANCH   3   4
ENDBRANCH   2   3
ENDBRANCH   1   2
BRANCH   1  12
ATOM     12  C   UNL     1      61.418  25.555  51.281  1.00  0.00     0.000 C 
BRANCH  12  13
ATOM     13  C   UNL     1      60.740  24.173  51.292  1.00  0.00    -0.000 C 
BRANCH  13  14
ATOM     14  C   UNL     1      59.205  24.271  51.306  1.00  0.00    -0.000 C 
BRANCH  14  15
ATOM     15  C   UNL     1      58.650  25.037  50.096  1.00  0.00    -0.000 C 
BRANCH  15  16
ATOM     16  C   UNL     1      57.229  25.545  50.372  1.00  0.00    -0.000 C 
BRANCH  16  17
ATOM     17  C   UNL     1      57.045  26.055  51.811  1.00  0.00    -0.000 C 
BRANCH  17  18
ATOM     18  C   UNL     1      57.357  27.556  51.981  1.00  0.00    -0.003 C 
ATOM     19  C   UNL     1      58.736  27.800  52.595  1.00  0.00     0.004 C 
ENDBRANCH  17  18
ENDBRANCH  16  17
ENDBRANCH  15  16
ENDBRANCH  14  15
ENDBRANCH  13  14
ENDBRANCH  12  13
ENDBRANCH   1  12
TORSDOF 14
ENDMDL
