MODEL 1
REMARK VINA RESULT:    -6.936      0.000      0.000
REMARK INTER + INTRA:          -8.328
REMARK INTER:                  -8.153
REMARK INTRA:                  -0.175
REMARK UNBOUND:                -0.175
REMARK SMILES O=c1c(O)c(-c2ccc(O)cc2)oc2cc(O)cc(O)c12
REMARK SMILES IDX 5 1 3 2 2 3 1 4 21 5 19 6 18 7 16 8 15 9 14 10 13 11 6 12
REMARK SMILES IDX 7 13 8 14 9 15 12 16 11 17 10 18 4 20 20 22 17 24
REMARK H PARENT 10 19 4 21 20 23 17 25
REMARK Flexibility Score: inf
ROOT
ATOM      1  C   UNL     1      38.103 -57.311 325.482  1.00  0.00     0.180 A 
ATOM      2  C   UNL     1      38.487 -56.320 326.400  1.00  0.00     0.208 A 
ATOM      3  C   UNL     1      37.589 -55.282 326.700  1.00  0.00     0.238 A 
ATOM      4  O   UNL     1      37.911 -54.440 327.578  1.00  0.00    -0.285 OA
ATOM      5  C   UNL     1      36.340 -55.218 326.036  1.00  0.00     0.111 A 
ATOM      6  C   UNL     1      35.371 -54.187 326.228  1.00  0.00     0.134 A 
ATOM      7  C   UNL     1      34.125 -54.284 325.595  1.00  0.00     0.093 A 
ATOM      8  C   UNL     1      33.836 -55.338 324.730  1.00  0.00     0.123 A 
ATOM      9  C   UNL     1      34.796 -56.322 324.492  1.00  0.00     0.094 A 
ATOM     10  C   UNL     1      36.035 -56.274 325.138  1.00  0.00     0.146 A 
ATOM     11  O   UNL     1      36.911 -57.242 324.900  1.00  0.00    -0.452 OA
ENDROOT
BRANCH   1  12
ATOM     12  C   UNL     1      38.987 -58.443 325.126  1.00  0.00     0.021 A 
ATOM     13  C   UNL     1      40.170 -58.247 324.389  1.00  0.00     0.016 A 
ATOM     14  C   UNL     1      41.002 -59.329 324.086  1.00  0.00     0.047 A 
ATOM     15  C   UNL     1      40.669 -60.617 324.527  1.00  0.00     0.115 A 
ATOM     16  C   UNL     1      38.673 -59.735 325.581  1.00  0.00     0.016 A 
ATOM     17  C   UNL     1      39.506 -60.815 325.276  1.00  0.00     0.047 A 
BRANCH  15  18
ATOM     18  O   UNL     1      41.490 -61.703 324.229  1.00  0.00    -0.508 OA
ATOM     19  H   UNL     1      41.115 -62.558 323.833  1.00  0.00     0.293 HD
ENDBRANCH  15  18
ENDBRANCH   1  12
BRANCH   2  20
ATOM     20  O   UNL     1      39.755 -56.358 326.988  1.00  0.00    -0.502 OA
ATOM     21  H   UNL     1      39.945 -56.875 327.838  1.00  0.00     0.293 HD
ENDBRANCH   2  20
BRANCH   6  22
ATOM     22  O   UNL     1      35.586 -53.043 327.002  1.00  0.00    -0.507 OA
ATOM     23  H   UNL     1      36.065 -53.028 327.889  1.00  0.00     0.293 HD
ENDBRANCH   6  22
BRANCH   8  24
ATOM     24  O   UNL     1      32.592 -55.394 324.104  1.00  0.00    -0.508 OA
ATOM     25  H   UNL     1      32.213 -56.267 323.757  1.00  0.00     0.293 HD
ENDBRANCH   8  24
TORSDOF 5
ENDMDL
MODEL 2
REMARK VINA RESULT:    -6.801     12.992     15.853
REMARK INTER + INTRA:          -8.169
REMARK INTER:                  -7.881
REMARK INTRA:                  -0.288
REMARK UNBOUND:                -0.175
REMARK SMILES O=c1c(O)c(-c2ccc(O)cc2)oc2cc(O)cc(O)c12
REMARK SMILES IDX 5 1 3 2 2 3 1 4 21 5 19 6 18 7 16 8 15 9 14 10 13 11 6 12
REMARK SMILES IDX 7 13 8 14 9 15 12 16 11 17 10 18 4 20 20 22 17 24
REMARK H PARENT 10 19 4 21 20 23 17 25
REMARK Flexibility Score: inf
ROOT
ATOM      1  C   UNL     1      47.704 -62.103 334.253  1.00  0.00     0.180 A 
ATOM      2  C   UNL     1      48.112 -63.433 334.448  1.00  0.00     0.208 A 
ATOM      3  C   UNL     1      48.402 -63.874 335.750  1.00  0.00     0.238 A 
ATOM      4  O   UNL     1      48.695 -65.084 335.926  1.00  0.00    -0.285 OA
ATOM      5  C   UNL     1      48.333 -62.964 336.833  1.00  0.00     0.111 A 
ATOM      6  C   UNL     1      48.648 -63.289 338.188  1.00  0.00     0.134 A 
ATOM      7  C   UNL     1      48.441 -62.336 339.193  1.00  0.00     0.093 A 
ATOM      8  C   UNL     1      47.992 -61.052 338.887  1.00  0.00     0.123 A 
ATOM      9  C   UNL     1      47.734 -60.706 337.560  1.00  0.00     0.094 A 
ATOM     10  C   UNL     1      47.894 -61.646 336.539  1.00  0.00     0.146 A 
ATOM     11  O   UNL     1      47.616 -61.283 335.293  1.00  0.00    -0.452 OA
ENDROOT
BRANCH   1  12
ATOM     12  C   UNL     1      47.367 -61.569 332.914  1.00  0.00     0.021 A 
ATOM     13  C   UNL     1      48.342 -60.965 332.099  1.00  0.00     0.016 A 
ATOM     14  C   UNL     1      48.005 -60.490 330.828  1.00  0.00     0.047 A 
ATOM     15  C   UNL     1      46.694 -60.624 330.351  1.00  0.00     0.115 A 
ATOM     16  C   UNL     1      46.060 -61.718 332.419  1.00  0.00     0.016 A 
ATOM     17  C   UNL     1      45.726 -61.241 331.148  1.00  0.00     0.047 A 
BRANCH  15  18
ATOM     18  O   UNL     1      46.347 -60.152 329.087  1.00  0.00    -0.508 OA
ATOM     19  H   UNL     1      46.700 -59.270 328.735  1.00  0.00     0.293 HD
ENDBRANCH  15  18
ENDBRANCH   1  12
BRANCH   2  20
ATOM     20  O   UNL     1      48.248 -64.295 333.356  1.00  0.00    -0.502 OA
ATOM     21  H   UNL     1      47.923 -64.052 332.427  1.00  0.00     0.293 HD
ENDBRANCH   2  20
BRANCH   6  22
ATOM     22  O   UNL     1      49.185 -64.514 338.595  1.00  0.00    -0.507 OA
ATOM     23  H   UNL     1      49.537 -65.225 337.973  1.00  0.00     0.293 HD
ENDBRANCH   6  22
BRANCH   8  24
ATOM     24  O   UNL     1      47.814 -60.123 339.910  1.00  0.00    -0.508 OA
ATOM     25  H   UNL     1      48.101 -60.322 340.861  1.00  0.00     0.293 HD
ENDBRANCH   8  24
TORSDOF 5
ENDMDL
MODEL 3
REMARK VINA RESULT:    -6.787     11.566     14.319
REMARK INTER + INTRA:          -8.153
REMARK INTER:                  -7.886
REMARK INTRA:                  -0.266
REMARK UNBOUND:                -0.175
REMARK SMILES O=c1c(O)c(-c2ccc(O)cc2)oc2cc(O)cc(O)c12
REMARK SMILES IDX 5 1 3 2 2 3 1 4 21 5 19 6 18 7 16 8 15 9 14 10 13 11 6 12
REMARK SMILES IDX 7 13 8 14 9 15 12 16 11 17 10 18 4 20 20 22 17 24
REMARK H PARENT 10 19 4 21 20 23 17 25
REMARK Flexibility Score: inf
ROOT
ATOM      1  C   UNL     1      47.014 -62.061 334.467  1.00  0.00     0.180 A 
ATOM      2  C   UNL     1      47.687 -63.136 333.863  1.00  0.00     0.208 A 
ATOM      3  C   UNL     1      47.254 -63.591 332.606  1.00  0.00     0.238 A 
ATOM      4  O   UNL     1      47.907 -64.504 332.038  1.00  0.00    -0.285 OA
ATOM      5  C   UNL     1      46.121 -63.001 331.995  1.00  0.00     0.111 A 
ATOM      6  C   UNL     1      45.568 -63.412 330.744  1.00  0.00     0.134 A 
ATOM      7  C   UNL     1      44.508 -62.685 330.186  1.00  0.00     0.093 A 
ATOM      8  C   UNL     1      43.941 -61.605 330.861  1.00  0.00     0.123 A 
ATOM      9  C   UNL     1      44.437 -61.229 332.109  1.00  0.00     0.094 A 
ATOM     10  C   UNL     1      45.519 -61.910 332.675  1.00  0.00     0.146 A 
ATOM     11  O   UNL     1      45.975 -61.507 333.854  1.00  0.00    -0.452 OA
ENDROOT
BRANCH   1  12
ATOM     12  C   UNL     1      47.419 -61.515 335.782  1.00  0.00     0.021 A 
ATOM     13  C   UNL     1      48.180 -60.336 335.885  1.00  0.00     0.016 A 
ATOM     14  C   UNL     1      48.531 -59.827 337.139  1.00  0.00     0.047 A 
ATOM     15  C   UNL     1      48.114 -60.483 338.306  1.00  0.00     0.115 A 
ATOM     16  C   UNL     1      46.989 -62.154 336.958  1.00  0.00     0.016 A 
ATOM     17  C   UNL     1      47.341 -61.644 338.210  1.00  0.00     0.047 A 
BRANCH  15  18
ATOM     18  O   UNL     1      48.459 -59.986 339.561  1.00  0.00    -0.508 OA
ATOM     19  H   UNL     1      48.151 -59.072 339.872  1.00  0.00     0.293 HD
ENDBRANCH  15  18
ENDBRANCH   1  12
BRANCH   2  20
ATOM     20  O   UNL     1      48.756 -63.754 334.517  1.00  0.00    -0.502 OA
ATOM     21  H   UNL     1      48.627 -64.351 335.326  1.00  0.00     0.293 HD
ENDBRANCH   2  20
BRANCH   6  22
ATOM     22  O   UNL     1      45.999 -64.530 330.025  1.00  0.00    -0.507 OA
ATOM     23  H   UNL     1      45.596 -64.850 329.158  1.00  0.00     0.293 HD
ENDBRANCH   6  22
BRANCH   8  24
ATOM     24  O   UNL     1      42.876 -60.916 330.283  1.00  0.00    -0.508 OA
ATOM     25  H   UNL     1      41.992 -61.372 330.091  1.00  0.00     0.293 HD
ENDBRANCH   8  24
TORSDOF 5
ENDMDL
MODEL 4
REMARK VINA RESULT:    -6.317      1.338      2.954
REMARK INTER + INTRA:          -7.600
REMARK INTER:                  -7.333
REMARK INTRA:                  -0.268
REMARK UNBOUND:                -0.175
REMARK SMILES O=c1c(O)c(-c2ccc(O)cc2)oc2cc(O)cc(O)c12
REMARK SMILES IDX 5 1 3 2 2 3 1 4 21 5 19 6 18 7 16 8 15 9 14 10 13 11 6 12
REMARK SMILES IDX 7 13 8 14 9 15 12 16 11 17 10 18 4 20 20 22 17 24
REMARK H PARENT 10 19 4 21 20 23 17 25
REMARK Flexibility Score: inf
ROOT
ATOM      1  C   UNL     1      38.049 -57.741 325.437  1.00  0.00     0.180 A 
ATOM      2  C   UNL     1      36.791 -57.821 324.818  1.00  0.00     0.208 A 
ATOM      3  C   UNL     1      35.907 -56.734 324.925  1.00  0.00     0.238 A 
ATOM      4  O   UNL     1      34.813 -56.783 324.307  1.00  0.00    -0.285 OA
ATOM      5  C   UNL     1      36.272 -55.603 325.696  1.00  0.00     0.111 A 
ATOM      6  C   UNL     1      35.438 -54.464 325.911  1.00  0.00     0.134 A 
ATOM      7  C   UNL     1      35.945 -53.358 326.604  1.00  0.00     0.093 A 
ATOM      8  C   UNL     1      37.230 -53.373 327.145  1.00  0.00     0.123 A 
ATOM      9  C   UNL     1      38.034 -54.503 326.989  1.00  0.00     0.094 A 
ATOM     10  C   UNL     1      37.570 -55.608 326.269  1.00  0.00     0.146 A 
ATOM     11  O   UNL     1      38.375 -56.653 326.126  1.00  0.00    -0.452 OA
ENDROOT
BRANCH   1  12
ATOM     12  C   UNL     1      39.040 -58.838 325.357  1.00  0.00     0.021 A 
ATOM     13  C   UNL     1      40.122 -58.786 324.459  1.00  0.00     0.016 A 
ATOM     14  C   UNL     1      41.058 -59.823 324.418  1.00  0.00     0.047 A 
ATOM     15  C   UNL     1      40.932 -60.919 325.283  1.00  0.00     0.115 A 
ATOM     16  C   UNL     1      38.934 -59.930 326.234  1.00  0.00     0.016 A 
ATOM     17  C   UNL     1      39.870 -60.967 326.191  1.00  0.00     0.047 A 
BRANCH  15  18
ATOM     18  O   UNL     1      41.858 -61.959 325.250  1.00  0.00    -0.508 OA
ATOM     19  H   UNL     1      42.257 -62.286 324.377  1.00  0.00     0.293 HD
ENDBRANCH  15  18
ENDBRANCH   1  12
BRANCH   2  20
ATOM     20  O   UNL     1      36.419 -58.977 324.126  1.00  0.00    -0.502 OA
ATOM     21  H   UNL     1      35.530 -59.439 324.275  1.00  0.00     0.293 HD
ENDBRANCH   2  20
BRANCH   6  22
ATOM     22  O   UNL     1      34.108 -54.376 325.490  1.00  0.00    -0.507 OA
ATOM     23  H   UNL     1      33.770 -53.760 324.767  1.00  0.00     0.293 HD
ENDBRANCH   6  22
BRANCH   8  24
ATOM     24  O   UNL     1      37.696 -52.261 327.843  1.00  0.00    -0.508 OA
ATOM     25  H   UNL     1      37.953 -52.320 328.821  1.00  0.00     0.293 HD
ENDBRANCH   8  24
TORSDOF 5
ENDMDL
MODEL 5
REMARK VINA RESULT:    -6.224     10.179     13.931
REMARK INTER + INTRA:          -7.491
REMARK INTER:                  -7.654
REMARK INTRA:                   0.164
REMARK UNBOUND:                -0.175
REMARK SMILES O=c1c(O)c(-c2ccc(O)cc2)oc2cc(O)cc(O)c12
REMARK SMILES IDX 5 1 3 2 2 3 1 4 21 5 19 6 18 7 16 8 15 9 14 10 13 11 6 12
REMARK SMILES IDX 7 13 8 14 9 15 12 16 11 17 10 18 4 20 20 22 17 24
REMARK H PARENT 10 19 4 21 20 23 17 25
REMARK Flexibility Score: inf
ROOT
ATOM      1  C   UNL     1      45.863 -63.076 331.527  1.00  0.00     0.180 A 
ATOM      2  C   UNL     1      46.327 -64.402 331.530  1.00  0.00     0.208 A 
ATOM      3  C   UNL     1      47.150 -64.834 332.584  1.00  0.00     0.238 A 
ATOM      4  O   UNL     1      47.500 -66.041 332.619  1.00  0.00    -0.285 OA
ATOM      5  C   UNL     1      47.544 -63.919 333.591  1.00  0.00     0.111 A 
ATOM      6  C   UNL     1      48.410 -64.236 334.681  1.00  0.00     0.134 A 
ATOM      7  C   UNL     1      48.645 -63.279 335.676  1.00  0.00     0.093 A 
ATOM      8  C   UNL     1      48.098 -62.000 335.590  1.00  0.00     0.123 A 
ATOM      9  C   UNL     1      47.294 -61.662 334.501  1.00  0.00     0.094 A 
ATOM     10  C   UNL     1      47.010 -62.606 333.511  1.00  0.00     0.146 A 
ATOM     11  O   UNL     1      46.222 -62.251 332.504  1.00  0.00    -0.452 OA
ENDROOT
BRANCH   1  12
ATOM     12  C   UNL     1      44.981 -62.551 330.460  1.00  0.00     0.021 A 
ATOM     13  C   UNL     1      45.191 -62.878 329.108  1.00  0.00     0.016 A 
ATOM     14  C   UNL     1      44.330 -62.389 328.120  1.00  0.00     0.047 A 
ATOM     15  C   UNL     1      43.242 -61.579 328.473  1.00  0.00     0.115 A 
ATOM     16  C   UNL     1      43.876 -61.754 330.806  1.00  0.00     0.016 A 
ATOM     17  C   UNL     1      43.018 -61.267 329.817  1.00  0.00     0.047 A 
BRANCH  15  18
ATOM     18  O   UNL     1      42.379 -61.085 327.498  1.00  0.00    -0.508 OA
ATOM     19  H   UNL     1      41.379 -61.241 327.547  1.00  0.00     0.293 HD
ENDBRANCH  15  18
ENDBRANCH   1  12
BRANCH   2  20
ATOM     20  O   UNL     1      45.991 -65.267 330.486  1.00  0.00    -0.502 OA
ATOM     21  H   UNL     1      45.144 -65.825 330.493  1.00  0.00     0.293 HD
ENDBRANCH   2  20
BRANCH   6  22
ATOM     22  O   UNL     1      49.081 -65.454 334.820  1.00  0.00    -0.507 OA
ATOM     23  H   UNL     1      49.484 -65.981 334.061  1.00  0.00     0.293 HD
ENDBRANCH   6  22
BRANCH   8  24
ATOM     24  O   UNL     1      48.366 -61.068 336.591  1.00  0.00    -0.508 OA
ATOM     25  H   UNL     1      49.063 -61.244 337.306  1.00  0.00     0.293 HD
ENDBRANCH   8  24
TORSDOF 5
ENDMDL
MODEL 6
REMARK VINA RESULT:    -6.170      9.746     12.776
REMARK INTER + INTRA:          -7.427
REMARK INTER:                  -7.234
REMARK INTRA:                  -0.194
REMARK UNBOUND:                -0.175
REMARK SMILES O=c1c(O)c(-c2ccc(O)cc2)oc2cc(O)cc(O)c12
REMARK SMILES IDX 5 1 3 2 2 3 1 4 21 5 19 6 18 7 16 8 15 9 14 10 13 11 6 12
REMARK SMILES IDX 7 13 8 14 9 15 12 16 11 17 10 18 4 20 20 22 17 24
REMARK H PARENT 10 19 4 21 20 23 17 25
REMARK Flexibility Score: inf
ROOT
ATOM      1  C   UNL     1      45.854 -62.380 331.594  1.00  0.00     0.180 A 
ATOM      2  C   UNL     1      44.885 -61.585 330.959  1.00  0.00     0.208 A 
ATOM      3  C   UNL     1      44.352 -62.011 329.731  1.00  0.00     0.238 A 
ATOM      4  O   UNL     1      43.432 -61.332 329.206  1.00  0.00    -0.285 OA
ATOM      5  C   UNL     1      44.836 -63.196 329.125  1.00  0.00     0.111 A 
ATOM      6  C   UNL     1      44.401 -63.697 327.862  1.00  0.00     0.134 A 
ATOM      7  C   UNL     1      44.873 -64.937 327.411  1.00  0.00     0.093 A 
ATOM      8  C   UNL     1      45.810 -65.661 328.146  1.00  0.00     0.123 A 
ATOM      9  C   UNL     1      46.284 -65.155 329.356  1.00  0.00     0.094 A 
ATOM     10  C   UNL     1      45.803 -63.939 329.851  1.00  0.00     0.146 A 
ATOM     11  O   UNL     1      46.264 -63.504 331.017  1.00  0.00    -0.452 OA
ENDROOT
BRANCH   1  12
ATOM     12  C   UNL     1      46.451 -62.007 332.896  1.00  0.00     0.021 A 
ATOM     13  C   UNL     1      45.694 -62.023 334.082  1.00  0.00     0.016 A 
ATOM     14  C   UNL     1      46.286 -61.689 335.304  1.00  0.00     0.047 A 
ATOM     15  C   UNL     1      47.645 -61.350 335.358  1.00  0.00     0.115 A 
ATOM     16  C   UNL     1      47.818 -61.685 332.963  1.00  0.00     0.016 A 
ATOM     17  C   UNL     1      48.407 -61.352 334.186  1.00  0.00     0.047 A 
BRANCH  15  18
ATOM     18  O   UNL     1      48.245 -61.014 336.569  1.00  0.00    -0.508 OA
ATOM     19  H   UNL     1      47.763 -61.140 337.452  1.00  0.00     0.293 HD
ENDBRANCH  15  18
ENDBRANCH   1  12
BRANCH   2  20
ATOM     20  O   UNL     1      44.476 -60.380 331.536  1.00  0.00    -0.502 OA
ATOM     21  H   UNL     1      43.731 -60.329 332.221  1.00  0.00     0.293 HD
ENDBRANCH   2  20
BRANCH   6  22
ATOM     22  O   UNL     1      43.534 -63.015 327.004  1.00  0.00    -0.507 OA
ATOM     23  H   UNL     1      43.131 -63.400 326.163  1.00  0.00     0.293 HD
ENDBRANCH   6  22
BRANCH   8  24
ATOM     24  O   UNL     1      46.270 -66.884 327.659  1.00  0.00    -0.508 OA
ATOM     25  H   UNL     1      46.162 -67.140 326.685  1.00  0.00     0.293 HD
ENDBRANCH   8  24
TORSDOF 5
ENDMDL
MODEL 7
REMARK VINA RESULT:    -6.120      1.374      1.738
REMARK INTER + INTRA:          -7.368
REMARK INTER:                  -7.087
REMARK INTRA:                  -0.282
REMARK UNBOUND:                -0.175
REMARK SMILES O=c1c(O)c(-c2ccc(O)cc2)oc2cc(O)cc(O)c12
REMARK SMILES IDX 5 1 3 2 2 3 1 4 21 5 19 6 18 7 16 8 15 9 14 10 13 11 6 12
REMARK SMILES IDX 7 13 8 14 9 15 12 16 11 17 10 18 4 20 20 22 17 24
REMARK H PARENT 10 19 4 21 20 23 17 25
REMARK Flexibility Score: inf
ROOT
ATOM      1  C   UNL     1      38.533 -58.761 325.529  1.00  0.00     0.180 A 
ATOM      2  C   UNL     1      39.077 -57.569 326.035  1.00  0.00     0.208 A 
ATOM      3  C   UNL     1      38.300 -56.399 326.009  1.00  0.00     0.238 A 
ATOM      4  O   UNL     1      38.765 -55.354 326.532  1.00  0.00    -0.285 OA
ATOM      5  C   UNL     1      37.010 -56.423 325.425  1.00  0.00     0.111 A 
ATOM      6  C   UNL     1      36.152 -55.288 325.303  1.00  0.00     0.134 A 
ATOM      7  C   UNL     1      34.854 -55.453 324.804  1.00  0.00     0.093 A 
ATOM      8  C   UNL     1      34.404 -56.697 324.364  1.00  0.00     0.123 A 
ATOM      9  C   UNL     1      35.253 -57.803 324.427  1.00  0.00     0.094 A 
ATOM     10  C   UNL     1      36.540 -57.678 324.956  1.00  0.00     0.146 A 
ATOM     11  O   UNL     1      37.307 -58.759 325.018  1.00  0.00    -0.452 OA
ENDROOT
BRANCH   1  12
ATOM     12  C   UNL     1      39.283 -60.037 325.535  1.00  0.00     0.021 A 
ATOM     13  C   UNL     1      40.193 -60.358 324.511  1.00  0.00     0.016 A 
ATOM     14  C   UNL     1      40.908 -61.559 324.551  1.00  0.00     0.047 A 
ATOM     15  C   UNL     1      40.734 -62.446 325.622  1.00  0.00     0.115 A 
ATOM     16  C   UNL     1      39.131 -60.923 326.615  1.00  0.00     0.016 A 
ATOM     17  C   UNL     1      39.846 -62.123 326.653  1.00  0.00     0.047 A 
BRANCH  15  18
ATOM     18  O   UNL     1      41.440 -63.646 325.672  1.00  0.00    -0.508 OA
ATOM     19  H   UNL     1      42.386 -63.689 326.034  1.00  0.00     0.293 HD
ENDBRANCH  15  18
ENDBRANCH   1  12
BRANCH   2  20
ATOM     20  O   UNL     1      40.381 -57.548 326.537  1.00  0.00    -0.502 OA
ATOM     21  H   UNL     1      40.845 -58.381 326.880  1.00  0.00     0.293 HD
ENDBRANCH   2  20
BRANCH   6  22
ATOM     22  O   UNL     1      36.530 -53.982 325.631  1.00  0.00    -0.507 OA
ATOM     23  H   UNL     1      37.044 -53.720 326.458  1.00  0.00     0.293 HD
ENDBRANCH   6  22
BRANCH   8  24
ATOM     24  O   UNL     1      33.112 -56.821 323.857  1.00  0.00    -0.508 OA
ATOM     25  H   UNL     1      32.413 -57.389 324.322  1.00  0.00     0.293 HD
ENDBRANCH   8  24
TORSDOF 5
ENDMDL
MODEL 8
REMARK VINA RESULT:    -5.881      2.319      7.277
REMARK INTER + INTRA:          -7.088
REMARK INTER:                  -6.873
REMARK INTRA:                  -0.215
REMARK UNBOUND:                -0.175
REMARK SMILES O=c1c(O)c(-c2ccc(O)cc2)oc2cc(O)cc(O)c12
REMARK SMILES IDX 5 1 3 2 2 3 1 4 21 5 19 6 18 7 16 8 15 9 14 10 13 11 6 12
REMARK SMILES IDX 7 13 8 14 9 15 12 16 11 17 10 18 4 20 20 22 17 24
REMARK H PARENT 10 19 4 21 20 23 17 25
REMARK Flexibility Score: inf
ROOT
ATOM      1  C   UNL     1      39.256 -58.934 325.314  1.00  0.00     0.180 A 
ATOM      2  C   UNL     1      40.259 -59.229 324.374  1.00  0.00     0.208 A 
ATOM      3  C   UNL     1      40.696 -60.557 324.237  1.00  0.00     0.238 A 
ATOM      4  O   UNL     1      41.539 -60.824 323.342  1.00  0.00    -0.285 OA
ATOM      5  C   UNL     1      40.166 -61.564 325.079  1.00  0.00     0.111 A 
ATOM      6  C   UNL     1      40.567 -62.934 325.058  1.00  0.00     0.134 A 
ATOM      7  C   UNL     1      39.897 -63.862 325.865  1.00  0.00     0.093 A 
ATOM      8  C   UNL     1      38.886 -63.462 326.737  1.00  0.00     0.123 A 
ATOM      9  C   UNL     1      38.522 -62.117 326.805  1.00  0.00     0.094 A 
ATOM     10  C   UNL     1      39.146 -61.172 325.986  1.00  0.00     0.146 A 
ATOM     11  O   UNL     1      38.755 -59.907 326.066  1.00  0.00    -0.452 OA
ENDROOT
BRANCH   1  12
ATOM     12  C   UNL     1      38.733 -57.563 325.506  1.00  0.00     0.021 A 
ATOM     13  C   UNL     1      37.918 -56.946 324.539  1.00  0.00     0.016 A 
ATOM     14  C   UNL     1      37.416 -55.659 324.754  1.00  0.00     0.047 A 
ATOM     15  C   UNL     1      37.711 -54.979 325.943  1.00  0.00     0.115 A 
ATOM     16  C   UNL     1      39.006 -56.881 326.704  1.00  0.00     0.016 A 
ATOM     17  C   UNL     1      38.504 -55.594 326.916  1.00  0.00     0.047 A 
BRANCH  15  18
ATOM     18  O   UNL     1      37.218 -53.695 326.167  1.00  0.00    -0.508 OA
ATOM     19  H   UNL     1      36.750 -53.172 325.436  1.00  0.00     0.293 HD
ENDBRANCH  15  18
ENDBRANCH   1  12
BRANCH   2  20
ATOM     20  O   UNL     1      40.824 -58.208 323.605  1.00  0.00    -0.502 OA
ATOM     21  H   UNL     1      41.689 -58.329 323.092  1.00  0.00     0.293 HD
ENDBRANCH   2  20
BRANCH   6  22
ATOM     22  O   UNL     1      41.625 -63.429 324.290  1.00  0.00    -0.507 OA
ATOM     23  H   UNL     1      41.522 -63.945 323.430  1.00  0.00     0.293 HD
ENDBRANCH   6  22
BRANCH   8  24
ATOM     24  O   UNL     1      38.252 -64.410 327.537  1.00  0.00    -0.508 OA
ATOM     25  H   UNL     1      38.754 -65.204 327.916  1.00  0.00     0.293 HD
ENDBRANCH   8  24
TORSDOF 5
ENDMDL
MODEL 9
REMARK VINA RESULT:    -5.767     11.489     13.266
REMARK INTER + INTRA:          -6.953
REMARK INTER:                  -6.829
REMARK INTRA:                  -0.124
REMARK UNBOUND:                -0.175
REMARK SMILES O=c1c(O)c(-c2ccc(O)cc2)oc2cc(O)cc(O)c12
REMARK SMILES IDX 5 1 3 2 2 3 1 4 21 5 19 6 18 7 16 8 15 9 14 10 13 11 6 12
REMARK SMILES IDX 7 13 8 14 9 15 12 16 11 17 10 18 4 20 20 22 17 24
REMARK H PARENT 10 19 4 21 20 23 17 25
REMARK Flexibility Score: inf
ROOT
ATOM      1  C   UNL     1      45.906 -65.293 330.325  1.00  0.00     0.180 A 
ATOM      2  C   UNL     1      46.558 -65.618 331.526  1.00  0.00     0.208 A 
ATOM      3  C   UNL     1      47.182 -64.597 332.261  1.00  0.00     0.238 A 
ATOM      4  O   UNL     1      47.699 -64.883 333.372  1.00  0.00    -0.285 OA
ATOM      5  C   UNL     1      47.195 -63.273 331.758  1.00  0.00     0.111 A 
ATOM      6  C   UNL     1      47.835 -62.168 332.397  1.00  0.00     0.134 A 
ATOM      7  C   UNL     1      47.691 -60.883 331.860  1.00  0.00     0.093 A 
ATOM      8  C   UNL     1      46.985 -60.670 330.677  1.00  0.00     0.123 A 
ATOM      9  C   UNL     1      46.401 -61.751 330.015  1.00  0.00     0.094 A 
ATOM     10  C   UNL     1      46.495 -63.040 330.545  1.00  0.00     0.146 A 
ATOM     11  O   UNL     1      45.906 -64.037 329.895  1.00  0.00    -0.452 OA
ENDROOT
BRANCH   1  12
ATOM     12  C   UNL     1      45.213 -66.311 329.502  1.00  0.00     0.021 A 
ATOM     13  C   UNL     1      44.119 -67.040 330.005  1.00  0.00     0.016 A 
ATOM     14  C   UNL     1      43.466 -67.979 329.200  1.00  0.00     0.047 A 
ATOM     15  C   UNL     1      43.889 -68.191 327.881  1.00  0.00     0.115 A 
ATOM     16  C   UNL     1      45.617 -66.516 328.172  1.00  0.00     0.016 A 
ATOM     17  C   UNL     1      44.962 -67.455 327.371  1.00  0.00     0.047 A 
BRANCH  15  18
ATOM     18  O   UNL     1      43.247 -69.125 327.071  1.00  0.00    -0.508 OA
ATOM     19  H   UNL     1      42.514 -68.852 326.426  1.00  0.00     0.293 HD
ENDBRANCH  15  18
ENDBRANCH   1  12
BRANCH   2  20
ATOM     20  O   UNL     1      46.600 -66.944 331.967  1.00  0.00    -0.502 OA
ATOM     21  H   UNL     1      47.404 -67.333 332.446  1.00  0.00     0.293 HD
ENDBRANCH   2  20
BRANCH   6  22
ATOM     22  O   UNL     1      48.639 -62.279 333.535  1.00  0.00    -0.507 OA
ATOM     23  H   UNL     1      48.323 -62.610 334.434  1.00  0.00     0.293 HD
ENDBRANCH   6  22
BRANCH   8  24
ATOM     24  O   UNL     1      46.876 -59.380 330.163  1.00  0.00    -0.508 OA
ATOM     25  H   UNL     1      47.695 -58.842 329.904  1.00  0.00     0.293 HD
ENDBRANCH   8  24
TORSDOF 5
ENDMDL
