MODEL 1
REMARK VINA RESULT:    -3.403      0.000      0.000
REMARK INTER + INTRA:          -4.075
REMARK INTER:                  -3.999
REMARK INTRA:                  -0.076
REMARK UNBOUND:                -0.076
REMARK SMILES CCCCC(=O)[O-]
REMARK SMILES IDX 4 1 5 2 6 3 7 4 3 5 2 6 1 7
REMARK H PARENT
REMARK Flexibility Score: inf
ROOT
ATOM      1  C   UNL     1     -13.229  17.116 -20.891  1.00  0.00     0.053 C 
ENDROOT
BRANCH   1   2
ATOM      2  C   UNL     1     -12.846  15.811 -20.268  1.00  0.00     0.041 C 
ATOM      3  O   UNL     1     -13.462  14.757 -20.575  1.00  0.00    -0.550 OA
ATOM      4  O   UNL     1     -11.775  15.750 -19.385  1.00  0.00    -0.550 OA
ENDBRANCH   1   2
BRANCH   1   5
ATOM      5  C   UNL     1     -12.723  17.190 -22.335  1.00  0.00     0.006 C 
BRANCH   5   6
ATOM      6  C   UNL     1     -12.051  18.539 -22.614  1.00  0.00    -0.003 C 
ATOM      7  C   UNL     1     -10.979  18.847 -21.573  1.00  0.00     0.004 C 
ENDBRANCH   5   6
ENDBRANCH   1   5
TORSDOF 3
ENDMDL
MODEL 2
REMARK VINA RESULT:    -3.399      0.329      1.243
REMARK INTER + INTRA:          -4.071
REMARK INTER:                  -4.005
REMARK INTRA:                  -0.066
REMARK UNBOUND:                -0.076
REMARK SMILES CCCCC(=O)[O-]
REMARK SMILES IDX 4 1 5 2 6 3 7 4 3 5 2 6 1 7
REMARK H PARENT
REMARK Flexibility Score: inf
ROOT
ATOM      1  C   UNL     1     -13.213  17.117 -20.901  1.00  0.00     0.053 C 
ENDROOT
BRANCH   1   2
ATOM      2  C   UNL     1     -12.575  15.999 -20.138  1.00  0.00     0.041 C 
ATOM      3  O   UNL     1     -11.573  16.220 -19.409  1.00  0.00    -0.550 OA
ATOM      4  O   UNL     1     -13.118  14.721 -20.195  1.00  0.00    -0.550 OA
ENDBRANCH   1   2
BRANCH   1   5
ATOM      5  C   UNL     1     -12.752  17.100 -22.362  1.00  0.00     0.006 C 
BRANCH   5   6
ATOM      6  C   UNL     1     -12.148  18.451 -22.763  1.00  0.00    -0.003 C 
ATOM      7  C   UNL     1     -11.143  18.937 -21.722  1.00  0.00     0.004 C 
ENDBRANCH   5   6
ENDBRANCH   1   5
TORSDOF 3
ENDMDL
MODEL 3
REMARK VINA RESULT:    -3.318      6.692      7.887
REMARK INTER + INTRA:          -3.976
REMARK INTER:                  -3.956
REMARK INTRA:                  -0.020
REMARK UNBOUND:                -0.076
REMARK SMILES CCCCC(=O)[O-]
REMARK SMILES IDX 4 1 5 2 6 3 7 4 3 5 2 6 1 7
REMARK H PARENT
REMARK Flexibility Score: inf
ROOT
ATOM      1  C   UNL     1      -9.489  14.175 -15.778  1.00  0.00     0.053 C 
ENDROOT
BRANCH   1   2
ATOM      2  C   UNL     1      -8.348  14.771 -16.540  1.00  0.00     0.041 C 
ATOM      3  O   UNL     1      -7.975  14.258 -17.627  1.00  0.00    -0.550 OA
ATOM      4  O   UNL     1      -7.726  15.922 -16.073  1.00  0.00    -0.550 OA
ENDBRANCH   1   2
BRANCH   1   5
ATOM      5  C   UNL     1      -9.550  14.757 -14.362  1.00  0.00     0.006 C 
BRANCH   5   6
ATOM      6  C   UNL     1     -10.753  14.202 -13.591  1.00  0.00    -0.003 C 
ATOM      7  C   UNL     1     -10.874  14.852 -12.216  1.00  0.00     0.004 C 
ENDBRANCH   5   6
ENDBRANCH   1   5
TORSDOF 3
ENDMDL
MODEL 4
REMARK VINA RESULT:    -3.278      2.595      3.738
REMARK INTER + INTRA:          -3.929
REMARK INTER:                  -3.906
REMARK INTRA:                  -0.023
REMARK UNBOUND:                -0.076
REMARK SMILES CCCCC(=O)[O-]
REMARK SMILES IDX 4 1 5 2 6 3 7 4 3 5 2 6 1 7
REMARK H PARENT
REMARK Flexibility Score: inf
ROOT
ATOM      1  C   UNL     1     -12.750  17.160 -21.271  1.00  0.00     0.053 C 
ENDROOT
BRANCH   1   2
ATOM      2  C   UNL     1     -12.023  18.222 -22.033  1.00  0.00     0.041 C 
ATOM      3  O   UNL     1     -12.498  18.667 -23.110  1.00  0.00    -0.550 OA
ATOM      4  O   UNL     1     -10.844  18.756 -21.528  1.00  0.00    -0.550 OA
ENDBRANCH   1   2
BRANCH   1   5
ATOM      5  C   UNL     1     -11.969  16.775 -20.010  1.00  0.00     0.006 C 
BRANCH   5   6
ATOM      6  C   UNL     1     -12.246  15.320 -19.615  1.00  0.00    -0.003 C 
ATOM      7  C   UNL     1     -11.230  14.825 -18.589  1.00  0.00     0.004 C 
ENDBRANCH   5   6
ENDBRANCH   1   5
TORSDOF 3
ENDMDL
MODEL 5
REMARK VINA RESULT:    -3.269      8.798     10.025
REMARK INTER + INTRA:          -3.918
REMARK INTER:                  -3.896
REMARK INTRA:                  -0.022
REMARK UNBOUND:                -0.076
REMARK SMILES CCCCC(=O)[O-]
REMARK SMILES IDX 4 1 5 2 6 3 7 4 3 5 2 6 1 7
REMARK H PARENT
REMARK Flexibility Score: inf
ROOT
ATOM      1  C   UNL     1     -10.607  15.078 -12.088  1.00  0.00     0.053 C 
ENDROOT
BRANCH   1   2
ATOM      2  C   UNL     1     -11.300  14.140 -13.025  1.00  0.00     0.041 C 
ATOM      3  O   UNL     1     -10.841  13.944 -14.181  1.00  0.00    -0.550 OA
ATOM      4  O   UNL     1     -12.427  13.445 -12.604  1.00  0.00    -0.550 OA
ENDBRANCH   1   2
BRANCH   1   5
ATOM      5  C   UNL     1     -11.447  15.293 -10.826  1.00  0.00     0.006 C 
BRANCH   5   6
ATOM      6  C   UNL     1     -11.124  16.642 -10.173  1.00  0.00    -0.003 C 
ATOM      7  C   UNL     1      -9.981  16.510  -9.171  1.00  0.00     0.004 C 
ENDBRANCH   5   6
ENDBRANCH   1   5
TORSDOF 3
ENDMDL
MODEL 6
REMARK VINA RESULT:    -3.125      7.132      7.975
REMARK INTER + INTRA:          -3.749
REMARK INTER:                  -3.712
REMARK INTRA:                  -0.038
REMARK UNBOUND:                -0.076
REMARK SMILES CCCCC(=O)[O-]
REMARK SMILES IDX 4 1 5 2 6 3 7 4 3 5 2 6 1 7
REMARK H PARENT
REMARK Flexibility Score: inf
ROOT
ATOM      1  C   UNL     1      -9.975  14.652 -13.813  1.00  0.00     0.053 C 
ENDROOT
BRANCH   1   2
ATOM      2  C   UNL     1     -10.990  14.460 -12.730  1.00  0.00     0.041 C 
ATOM      3  O   UNL     1     -10.951  15.169 -11.691  1.00  0.00    -0.550 OA
ATOM      4  O   UNL     1     -12.010  13.530 -12.892  1.00  0.00    -0.550 OA
ENDBRANCH   1   2
BRANCH   1   5
ATOM      5  C   UNL     1     -10.487  14.075 -15.136  1.00  0.00     0.006 C 
BRANCH   5   6
ATOM      6  C   UNL     1      -9.463  14.280 -16.258  1.00  0.00    -0.003 C 
ATOM      7  C   UNL     1      -8.398  15.295 -15.853  1.00  0.00     0.004 C 
ENDBRANCH   5   6
ENDBRANCH   1   5
TORSDOF 3
ENDMDL
MODEL 7
REMARK VINA RESULT:    -3.108     10.142     10.823
REMARK INTER + INTRA:          -3.729
REMARK INTER:                  -3.660
REMARK INTRA:                  -0.069
REMARK UNBOUND:                -0.076
REMARK SMILES CCCCC(=O)[O-]
REMARK SMILES IDX 4 1 5 2 6 3 7 4 3 5 2 6 1 7
REMARK H PARENT
REMARK Flexibility Score: inf
ROOT
ATOM      1  C   UNL     1     -20.679  18.655 -25.410  1.00  0.00     0.053 C 
ENDROOT
BRANCH   1   2
ATOM      2  C   UNL     1     -21.702  19.691 -25.063  1.00  0.00     0.041 C 
ATOM      3  O   UNL     1     -21.474  20.908 -25.289  1.00  0.00    -0.550 OA
ATOM      4  O   UNL     1     -22.927  19.306 -24.533  1.00  0.00    -0.550 OA
ENDBRANCH   1   2
BRANCH   1   5
ATOM      5  C   UNL     1     -21.262  17.635 -26.393  1.00  0.00     0.006 C 
BRANCH   5   6
ATOM      6  C   UNL     1     -21.173  18.147 -27.835  1.00  0.00    -0.003 C 
ATOM      7  C   UNL     1     -20.183  17.323 -28.652  1.00  0.00     0.004 C 
ENDBRANCH   5   6
ENDBRANCH   1   5
TORSDOF 3
ENDMDL
MODEL 8
REMARK VINA RESULT:    -2.974      9.417     10.275
REMARK INTER + INTRA:          -3.571
REMARK INTER:                  -3.523
REMARK INTRA:                  -0.049
REMARK UNBOUND:                -0.076
REMARK SMILES CCCCC(=O)[O-]
REMARK SMILES IDX 4 1 5 2 6 3 7 4 3 5 2 6 1 7
REMARK H PARENT
REMARK Flexibility Score: inf
ROOT
ATOM      1  C   UNL     1     -21.656  17.096 -25.780  1.00  0.00     0.053 C 
ENDROOT
BRANCH   1   2
ATOM      2  C   UNL     1     -21.403  18.178 -26.780  1.00  0.00     0.041 C 
ATOM      3  O   UNL     1     -21.342  17.905 -28.008  1.00  0.00    -0.550 OA
ATOM      4  O   UNL     1     -21.282  19.497 -26.361  1.00  0.00    -0.550 OA
ENDBRANCH   1   2
BRANCH   1   5
ATOM      5  C   UNL     1     -21.452  17.623 -24.356  1.00  0.00     0.006 C 
BRANCH   5   6
ATOM      6  C   UNL     1     -20.106  17.159 -23.786  1.00  0.00    -0.003 C 
ATOM      7  C   UNL     1     -20.298  16.351 -22.507  1.00  0.00     0.004 C 
ENDBRANCH   5   6
ENDBRANCH   1   5
TORSDOF 3
ENDMDL
MODEL 9
REMARK VINA RESULT:    -2.973     10.174     10.880
REMARK INTER + INTRA:          -3.570
REMARK INTER:                  -3.522
REMARK INTRA:                  -0.048
REMARK UNBOUND:                -0.076
REMARK SMILES CCCCC(=O)[O-]
REMARK SMILES IDX 4 1 5 2 6 3 7 4 3 5 2 6 1 7
REMARK H PARENT
REMARK Flexibility Score: inf
ROOT
ATOM      1  C   UNL     1     -20.843  18.630 -25.214  1.00  0.00     0.053 C 
ENDROOT
BRANCH   1   2
ATOM      2  C   UNL     1     -21.522  17.669 -26.138  1.00  0.00     0.041 C 
ATOM      3  O   UNL     1     -22.170  16.694 -25.675  1.00  0.00    -0.550 OA
ATOM      4  O   UNL     1     -21.481  17.879 -27.511  1.00  0.00    -0.550 OA
ENDBRANCH   1   2
BRANCH   1   5
ATOM      5  C   UNL     1     -21.393  20.046 -25.413  1.00  0.00     0.006 C 
BRANCH   5   6
ATOM      6  C   UNL     1     -22.478  20.365 -24.377  1.00  0.00    -0.003 C 
ATOM      7  C   UNL     1     -22.856  21.843 -24.413  1.00  0.00     0.004 C 
ENDBRANCH   5   6
ENDBRANCH   1   5
TORSDOF 3
ENDMDL
