MODEL 1
REMARK VINA RESULT:    -4.848      0.000      0.000
REMARK INTER + INTRA:          -6.891
REMARK INTER:                  -6.549
REMARK INTRA:                  -0.342
REMARK UNBOUND:                -0.342
REMARK SMILES CCCCCCCC(=O)[O-]
REMARK SMILES IDX 5 1 6 2 7 3 8 4 9 5 10 6 4 7 3 8 2 9 1 10
REMARK H PARENT
REMARK Flexibility Score: inf
ROOT
ATOM      1  C   UNL     1     -14.286   0.835  -9.306  1.00  0.00     0.000 C 
ENDROOT
BRANCH   1   2
ATOM      2  C   UNL     1     -14.039   2.343  -9.483  1.00  0.00     0.006 C 
BRANCH   2   3
ATOM      3  C   UNL     1     -12.542   2.686  -9.496  1.00  0.00     0.053 C 
BRANCH   3   4
ATOM      4  C   UNL     1     -12.233   3.847  -8.601  1.00  0.00     0.041 C 
ATOM      5  O   UNL     1     -11.128   3.910  -8.003  1.00  0.00    -0.550 OA
ATOM      6  O   UNL     1     -13.180   4.843  -8.403  1.00  0.00    -0.550 OA
ENDBRANCH   3   4
ENDBRANCH   2   3
ENDBRANCH   1   2
BRANCH   1   7
ATOM      7  C   UNL     1     -14.022   0.038 -10.593  1.00  0.00     0.000 C 
BRANCH   7   8
ATOM      8  C   UNL     1     -12.941  -1.038 -10.410  1.00  0.00    -0.000 C 
BRANCH   8   9
ATOM      9  C   UNL     1     -11.542  -0.454 -10.643  1.00  0.00    -0.003 C 
ATOM     10  C   UNL     1     -10.708  -0.497  -9.365  1.00  0.00     0.004 C 
ENDBRANCH   8   9
ENDBRANCH   7   8
ENDBRANCH   1   7
TORSDOF 6
ENDMDL
MODEL 2
REMARK VINA RESULT:    -4.671      3.685      5.334
REMARK INTER + INTRA:          -6.652
REMARK INTER:                  -6.443
REMARK INTRA:                  -0.209
REMARK UNBOUND:                -0.342
REMARK SMILES CCCCCCCC(=O)[O-]
REMARK SMILES IDX 5 1 6 2 7 3 8 4 9 5 10 6 4 7 3 8 2 9 1 10
REMARK H PARENT
REMARK Flexibility Score: inf
ROOT
ATOM      1  C   UNL     1     -12.063   0.697  -9.740  1.00  0.00     0.000 C 
ENDROOT
BRANCH   1   2
ATOM      2  C   UNL     1     -11.660  -0.643 -10.380  1.00  0.00     0.006 C 
BRANCH   2   3
ATOM      3  C   UNL     1     -10.578  -1.369  -9.568  1.00  0.00     0.053 C 
BRANCH   3   4
ATOM      4  C   UNL     1     -10.701  -2.856  -9.688  1.00  0.00     0.041 C 
ATOM      5  O   UNL     1      -9.681  -3.563  -9.897  1.00  0.00    -0.550 OA
ATOM      6  O   UNL     1     -11.950  -3.459  -9.602  1.00  0.00    -0.550 OA
ENDBRANCH   3   4
ENDBRANCH   2   3
ENDBRANCH   1   2
BRANCH   1   7
ATOM      7  C   UNL     1     -13.584   0.922  -9.749  1.00  0.00     0.000 C 
BRANCH   7   8
ATOM      8  C   UNL     1     -13.972   2.359  -9.371  1.00  0.00    -0.000 C 
BRANCH   8   9
ATOM      9  C   UNL     1     -12.732   3.257  -9.290  1.00  0.00    -0.003 C 
ATOM     10  C   UNL     1     -12.898   4.331  -8.218  1.00  0.00     0.004 C 
ENDBRANCH   8   9
ENDBRANCH   7   8
ENDBRANCH   1   7
TORSDOF 6
ENDMDL
MODEL 3
REMARK VINA RESULT:    -4.482      4.021      5.773
REMARK INTER + INTRA:          -6.397
REMARK INTER:                  -6.072
REMARK INTRA:                  -0.325
REMARK UNBOUND:                -0.342
REMARK SMILES CCCCCCCC(=O)[O-]
REMARK SMILES IDX 5 1 6 2 7 3 8 4 9 5 10 6 4 7 3 8 2 9 1 10
REMARK H PARENT
REMARK Flexibility Score: inf
ROOT
ATOM      1  C   UNL     1     -10.536  -1.055  -9.637  1.00  0.00     0.000 C 
ENDROOT
BRANCH   1   2
ATOM      2  C   UNL     1     -11.104  -2.485  -9.647  1.00  0.00     0.006 C 
BRANCH   2   3
ATOM      3  C   UNL     1      -9.999  -3.547  -9.574  1.00  0.00     0.053 C 
BRANCH   3   4
ATOM      4  C   UNL     1      -9.292  -3.520  -8.253  1.00  0.00     0.041 C 
ATOM      5  O   UNL     1      -8.043  -3.376  -8.205  1.00  0.00    -0.550 OA
ATOM      6  O   UNL     1     -10.012  -3.686  -7.076  1.00  0.00    -0.550 OA
ENDBRANCH   3   4
ENDBRANCH   2   3
ENDBRANCH   1   2
BRANCH   1   7
ATOM      7  C   UNL     1     -11.582  -0.001 -10.033  1.00  0.00     0.000 C 
BRANCH   7   8
ATOM      8  C   UNL     1     -12.824  -0.619 -10.693  1.00  0.00    -0.000 C 
BRANCH   8   9
ATOM      9  C   UNL     1     -14.108  -0.107 -10.031  1.00  0.00    -0.003 C 
ATOM     10  C   UNL     1     -13.996   1.374  -9.682  1.00  0.00     0.004 C 
ENDBRANCH   8   9
ENDBRANCH   7   8
ENDBRANCH   1   7
TORSDOF 6
ENDMDL
MODEL 4
REMARK VINA RESULT:    -4.020      5.028      6.903
REMARK INTER + INTRA:          -5.772
REMARK INTER:                  -5.540
REMARK INTRA:                  -0.232
REMARK UNBOUND:                -0.342
REMARK SMILES CCCCCCCC(=O)[O-]
REMARK SMILES IDX 5 1 6 2 7 3 8 4 9 5 10 6 4 7 3 8 2 9 1 10
REMARK H PARENT
REMARK Flexibility Score: inf
ROOT
ATOM      1  C   UNL     1     -10.755  -2.591  -9.606  1.00  0.00     0.000 C 
ENDROOT
BRANCH   1   2
ATOM      2  C   UNL     1      -9.441  -3.370  -9.423  1.00  0.00     0.006 C 
BRANCH   2   3
ATOM      3  C   UNL     1      -9.222  -3.800  -7.965  1.00  0.00     0.053 C 
BRANCH   3   4
ATOM      4  C   UNL     1      -9.695  -5.201  -7.725  1.00  0.00     0.041 C 
ATOM      5  O   UNL     1      -9.897  -5.610  -6.552  1.00  0.00    -0.550 OA
ATOM      6  O   UNL     1      -9.880  -6.065  -8.797  1.00  0.00    -0.550 OA
ENDBRANCH   3   4
ENDBRANCH   2   3
ENDBRANCH   1   2
BRANCH   1   7
ATOM      7  C   UNL     1     -10.587  -1.083  -9.357  1.00  0.00     0.000 C 
BRANCH   7   8
ATOM      8  C   UNL     1     -11.290  -0.226 -10.420  1.00  0.00    -0.000 C 
BRANCH   8   9
ATOM      9  C   UNL     1     -12.690  -0.772 -10.725  1.00  0.00    -0.003 C 
ATOM     10  C   UNL     1     -13.772   0.104 -10.099  1.00  0.00     0.004 C 
ENDBRANCH   8   9
ENDBRANCH   7   8
ENDBRANCH   1   7
TORSDOF 6
ENDMDL
MODEL 5
REMARK VINA RESULT:    -3.981     15.192     16.700
REMARK INTER + INTRA:          -5.720
REMARK INTER:                  -5.295
REMARK INTRA:                  -0.425
REMARK UNBOUND:                -0.342
REMARK SMILES CCCCCCCC(=O)[O-]
REMARK SMILES IDX 5 1 6 2 7 3 8 4 9 5 10 6 4 7 3 8 2 9 1 10
REMARK H PARENT
REMARK Flexibility Score: inf
ROOT
ATOM      1  C   UNL     1     -12.170   4.214   7.312  1.00  0.00     0.000 C 
ENDROOT
BRANCH   1   2
ATOM      2  C   UNL     1     -12.323   4.624   5.836  1.00  0.00     0.006 C 
BRANCH   2   3
ATOM      3  C   UNL     1     -13.033   5.976   5.682  1.00  0.00     0.053 C 
BRANCH   3   4
ATOM      4  C   UNL     1     -13.866   6.024   4.439  1.00  0.00     0.041 C 
ATOM      5  O   UNL     1     -14.962   6.644   4.433  1.00  0.00    -0.550 OA
ATOM      6  O   UNL     1     -13.448   5.356   3.295  1.00  0.00    -0.550 OA
ENDBRANCH   3   4
ENDBRANCH   2   3
ENDBRANCH   1   2
BRANCH   1   7
ATOM      7  C   UNL     1     -10.708   3.946   7.701  1.00  0.00     0.000 C 
BRANCH   7   8
ATOM      8  C   UNL     1     -10.247   4.799   8.892  1.00  0.00    -0.000 C 
BRANCH   8   9
ATOM      9  C   UNL     1     -10.266   6.290   8.537  1.00  0.00    -0.003 C 
ATOM     10  C   UNL     1      -9.359   6.585   7.344  1.00  0.00     0.004 C 
ENDBRANCH   8   9
ENDBRANCH   7   8
ENDBRANCH   1   7
TORSDOF 6
ENDMDL
MODEL 6
REMARK VINA RESULT:    -3.962     15.099     16.678
REMARK INTER + INTRA:          -5.694
REMARK INTER:                  -5.217
REMARK INTRA:                  -0.477
REMARK UNBOUND:                -0.342
REMARK SMILES CCCCCCCC(=O)[O-]
REMARK SMILES IDX 5 1 6 2 7 3 8 4 9 5 10 6 4 7 3 8 2 9 1 10
REMARK H PARENT
REMARK Flexibility Score: inf
ROOT
ATOM      1  C   UNL     1     -10.333   6.044   5.614  1.00  0.00     0.000 C 
ENDROOT
BRANCH   1   2
ATOM      2  C   UNL     1     -11.767   6.492   5.945  1.00  0.00     0.006 C 
BRANCH   2   3
ATOM      3  C   UNL     1     -12.801   5.404   5.621  1.00  0.00     0.053 C 
BRANCH   3   4
ATOM      4  C   UNL     1     -13.627   5.765   4.425  1.00  0.00     0.041 C 
ATOM      5  O   UNL     1     -13.299   5.356   3.281  1.00  0.00    -0.550 OA
ATOM      6  O   UNL     1     -14.742   6.581   4.570  1.00  0.00    -0.550 OA
ENDBRANCH   3   4
ENDBRANCH   2   3
ENDBRANCH   1   2
BRANCH   1   7
ATOM      7  C   UNL     1      -9.397   6.112   6.831  1.00  0.00     0.000 C 
BRANCH   7   8
ATOM      8  C   UNL     1     -10.162   6.238   8.158  1.00  0.00    -0.000 C 
BRANCH   8   9
ATOM      9  C   UNL     1     -10.060   4.943   8.973  1.00  0.00    -0.003 C 
ATOM     10  C   UNL     1     -11.333   4.109   8.844  1.00  0.00     0.004 C 
ENDBRANCH   8   9
ENDBRANCH   7   8
ENDBRANCH   1   7
TORSDOF 6
ENDMDL
MODEL 7
REMARK VINA RESULT:    -3.914      6.133      7.721
REMARK INTER + INTRA:          -5.629
REMARK INTER:                  -5.147
REMARK INTRA:                  -0.481
REMARK UNBOUND:                -0.342
REMARK SMILES CCCCCCCC(=O)[O-]
REMARK SMILES IDX 5 1 6 2 7 3 8 4 9 5 10 6 4 7 3 8 2 9 1 10
REMARK H PARENT
REMARK Flexibility Score: inf
ROOT
ATOM      1  C   UNL     1     -10.193  -6.287  -8.462  1.00  0.00     0.000 C 
ENDROOT
BRANCH   1   2
ATOM      2  C   UNL     1     -10.970  -4.993  -8.759  1.00  0.00     0.006 C 
BRANCH   2   3
ATOM      3  C   UNL     1     -10.109  -3.958  -9.497  1.00  0.00     0.053 C 
BRANCH   3   4
ATOM      4  C   UNL     1      -9.224  -3.202  -8.555  1.00  0.00     0.041 C 
ATOM      5  O   UNL     1      -8.017  -3.530  -8.417  1.00  0.00    -0.550 OA
ATOM      6  O   UNL     1      -9.743  -2.155  -7.803  1.00  0.00    -0.550 OA
ENDBRANCH   3   4
ENDBRANCH   2   3
ENDBRANCH   1   2
BRANCH   1   7
ATOM      7  C   UNL     1      -9.913  -6.476  -6.962  1.00  0.00     0.000 C 
BRANCH   7   8
ATOM      8  C   UNL     1     -10.677  -5.471  -6.087  1.00  0.00    -0.000 C 
BRANCH   8   9
ATOM      9  C   UNL     1     -11.724  -6.184  -5.223  1.00  0.00    -0.003 C 
ATOM     10  C   UNL     1     -13.059  -6.299  -5.956  1.00  0.00     0.004 C 
ENDBRANCH   8   9
ENDBRANCH   7   8
ENDBRANCH   1   7
TORSDOF 6
ENDMDL
MODEL 8
REMARK VINA RESULT:    -3.910      2.832      4.042
REMARK INTER + INTRA:          -5.623
REMARK INTER:                  -5.397
REMARK INTRA:                  -0.227
REMARK UNBOUND:                -0.342
REMARK SMILES CCCCCCCC(=O)[O-]
REMARK SMILES IDX 5 1 6 2 7 3 8 4 9 5 10 6 4 7 3 8 2 9 1 10
REMARK H PARENT
REMARK Flexibility Score: inf
ROOT
ATOM      1  C   UNL     1     -10.619  -1.230  -9.312  1.00  0.00     0.000 C 
ENDROOT
BRANCH   1   2
ATOM      2  C   UNL     1     -11.174  -0.234 -10.346  1.00  0.00     0.006 C 
BRANCH   2   3
ATOM      3  C   UNL     1     -12.709  -0.219 -10.370  1.00  0.00     0.053 C 
BRANCH   3   4
ATOM      4  C   UNL     1     -13.261   0.986  -9.673  1.00  0.00     0.041 C 
ATOM      5  O   UNL     1     -14.442   0.982  -9.237  1.00  0.00    -0.550 OA
ATOM      6  O   UNL     1     -12.480   2.127  -9.534  1.00  0.00    -0.550 OA
ENDBRANCH   3   4
ENDBRANCH   2   3
ENDBRANCH   1   2
BRANCH   1   7
ATOM      7  C   UNL     1     -10.990  -2.686  -9.637  1.00  0.00     0.000 C 
BRANCH   7   8
ATOM      8  C   UNL     1      -9.776  -3.625  -9.612  1.00  0.00    -0.000 C 
BRANCH   8   9
ATOM      9  C   UNL     1      -9.124  -3.640  -8.224  1.00  0.00    -0.003 C 
ATOM     10  C   UNL     1      -9.656  -4.793  -7.377  1.00  0.00     0.004 C 
ENDBRANCH   8   9
ENDBRANCH   7   8
ENDBRANCH   1   7
TORSDOF 6
ENDMDL
MODEL 9
REMARK VINA RESULT:    -3.792      6.615      8.238
REMARK INTER + INTRA:          -5.464
REMARK INTER:                  -4.866
REMARK INTRA:                  -0.599
REMARK UNBOUND:                -0.342
REMARK SMILES CCCCCCCC(=O)[O-]
REMARK SMILES IDX 5 1 6 2 7 3 8 4 9 5 10 6 4 7 3 8 2 9 1 10
REMARK H PARENT
REMARK Flexibility Score: inf
ROOT
ATOM      1  C   UNL     1     -10.764  -5.677  -5.949  1.00  0.00     0.000 C 
ENDROOT
BRANCH   1   2
ATOM      2  C   UNL     1     -10.223  -4.381  -6.576  1.00  0.00     0.006 C 
BRANCH   2   3
ATOM      3  C   UNL     1      -9.443  -4.647  -7.872  1.00  0.00     0.053 C 
BRANCH   3   4
ATOM      4  C   UNL     1     -10.078  -3.971  -9.048  1.00  0.00     0.041 C 
ATOM      5  O   UNL     1     -11.324  -4.029  -9.218  1.00  0.00    -0.550 OA
ATOM      6  O   UNL     1      -9.288  -3.303  -9.976  1.00  0.00    -0.550 OA
ENDBRANCH   3   4
ENDBRANCH   2   3
ENDBRANCH   1   2
BRANCH   1   7
ATOM      7  C   UNL     1      -9.873  -6.894  -6.247  1.00  0.00     0.000 C 
BRANCH   7   8
ATOM      8  C   UNL     1     -10.671  -8.096  -6.772  1.00  0.00    -0.000 C 
BRANCH   8   9
ATOM      9  C   UNL     1     -11.846  -7.635  -7.642  1.00  0.00    -0.003 C 
ATOM     10  C   UNL     1     -11.453  -7.580  -9.116  1.00  0.00     0.004 C 
ENDBRANCH   8   9
ENDBRANCH   7   8
ENDBRANCH   1   7
TORSDOF 6
ENDMDL
