MODEL 1
REMARK VINA RESULT:    -4.135      0.000      0.000
REMARK INTER + INTRA:          -6.868
REMARK INTER:                  -6.310
REMARK INTRA:                  -0.558
REMARK UNBOUND:                -0.558
REMARK SMILES O=C([O-])CCCCCCCCC(=O)[O-]
REMARK SMILES IDX 7 1 6 2 5 3 4 4 2 5 1 6 3 7 8 8 9 9 10 10 11 11 12 12 13 13
REMARK SMILES IDX 14 14
REMARK H PARENT
REMARK Flexibility Score: inf
ROOT
ATOM      1  C   UNL     1      56.258  20.691  48.491  1.00  0.00     0.000 C 
ENDROOT
BRANCH   1   2
ATOM      2  C   UNL     1      56.790  21.889  47.682  1.00  0.00     0.000 C 
BRANCH   2   3
ATOM      3  C   UNL     1      56.486  23.236  48.356  1.00  0.00     0.006 C 
BRANCH   3   4
ATOM      4  C   UNL     1      55.848  24.246  47.394  1.00  0.00     0.053 C 
BRANCH   4   5
ATOM      5  C   UNL     1      54.357  24.189  47.489  1.00  0.00     0.041 C 
ATOM      6  O   UNL     1      53.644  24.771  46.630  1.00  0.00    -0.550 OA
ATOM      7  O   UNL     1      53.752  23.535  48.556  1.00  0.00    -0.550 OA
ENDBRANCH   4   5
ENDBRANCH   3   4
ENDBRANCH   2   3
ENDBRANCH   1   2
BRANCH   1   8
ATOM      8  C   UNL     1      56.243  20.957  50.005  1.00  0.00     0.000 C 
BRANCH   8   9
ATOM      9  C   UNL     1      54.820  20.954  50.590  1.00  0.00     0.000 C 
BRANCH   9  10
ATOM     10  C   UNL     1      54.743  21.629  51.972  1.00  0.00     0.006 C 
BRANCH  10  11
ATOM     11  C   UNL     1      56.018  21.486  52.820  1.00  0.00     0.053 C 
BRANCH  11  12
ATOM     12  C   UNL     1      55.711  21.357  54.280  1.00  0.00     0.041 C 
ATOM     13  O   UNL     1      56.610  21.002  55.087  1.00  0.00    -0.550 OA
ATOM     14  O   UNL     1      54.424  21.596  54.745  1.00  0.00    -0.550 OA
ENDBRANCH  11  12
ENDBRANCH  10  11
ENDBRANCH   9  10
ENDBRANCH   8   9
ENDBRANCH   1   8
TORSDOF 9
ENDMDL
MODEL 2
REMARK VINA RESULT:    -4.116      3.097      4.370
REMARK INTER + INTRA:          -6.840
REMARK INTER:                  -6.145
REMARK INTRA:                  -0.695
REMARK UNBOUND:                -0.558
REMARK SMILES O=C([O-])CCCCCCCCC(=O)[O-]
REMARK SMILES IDX 7 1 6 2 5 3 4 4 2 5 1 6 3 7 8 8 9 9 10 10 11 11 12 12 13 13
REMARK SMILES IDX 14 14
REMARK H PARENT
REMARK Flexibility Score: inf
ROOT
ATOM      1  C   UNL     1      56.260  24.084  48.149  1.00  0.00     0.000 C 
ENDROOT
BRANCH   1   2
ATOM      2  C   UNL     1      57.249  23.412  47.179  1.00  0.00     0.000 C 
BRANCH   2   3
ATOM      3  C   UNL     1      57.109  21.882  47.161  1.00  0.00     0.006 C 
BRANCH   3   4
ATOM      4  C   UNL     1      56.410  21.339  48.413  1.00  0.00     0.053 C 
BRANCH   4   5
ATOM      5  C   UNL     1      56.637  19.867  48.542  1.00  0.00     0.041 C 
ATOM      6  O   UNL     1      57.704  19.431  49.049  1.00  0.00    -0.550 OA
ATOM      7  O   UNL     1      55.692  18.972  48.055  1.00  0.00    -0.550 OA
ENDBRANCH   4   5
ENDBRANCH   3   4
ENDBRANCH   2   3
ENDBRANCH   1   2
BRANCH   1   8
ATOM      8  C   UNL     1      55.056  24.712  47.429  1.00  0.00     0.000 C 
BRANCH   8   9
ATOM      9  C   UNL     1      53.741  23.966  47.718  1.00  0.00     0.000 C 
BRANCH   9  10
ATOM     10  C   UNL     1      53.615  23.532  49.190  1.00  0.00     0.006 C 
BRANCH  10  11
ATOM     11  C   UNL     1      53.325  24.682  50.169  1.00  0.00     0.053 C 
BRANCH  11  12
ATOM     12  C   UNL     1      54.058  24.517  51.464  1.00  0.00     0.041 C 
ATOM     13  O   UNL     1      55.273  24.838  51.549  1.00  0.00    -0.550 OA
ATOM     14  O   UNL     1      53.410  23.978  52.567  1.00  0.00    -0.550 OA
ENDBRANCH  11  12
ENDBRANCH  10  11
ENDBRANCH   9  10
ENDBRANCH   8   9
ENDBRANCH   1   8
TORSDOF 9
ENDMDL
MODEL 3
REMARK VINA RESULT:    -4.114      2.506      5.177
REMARK INTER + INTRA:          -6.836
REMARK INTER:                  -6.048
REMARK INTRA:                  -0.788
REMARK UNBOUND:                -0.558
REMARK SMILES O=C([O-])CCCCCCCCC(=O)[O-]
REMARK SMILES IDX 7 1 6 2 5 3 4 4 2 5 1 6 3 7 8 8 9 9 10 10 11 11 12 12 13 13
REMARK SMILES IDX 14 14
REMARK H PARENT
REMARK Flexibility Score: inf
ROOT
ATOM      1  C   UNL     1      53.698  23.626  49.026  1.00  0.00     0.000 C 
ENDROOT
BRANCH   1   2
ATOM      2  C   UNL     1      53.431  24.850  49.923  1.00  0.00     0.000 C 
BRANCH   2   3
ATOM      3  C   UNL     1      53.833  24.608  51.385  1.00  0.00     0.006 C 
BRANCH   3   4
ATOM      4  C   UNL     1      54.410  23.205  51.614  1.00  0.00     0.053 C 
BRANCH   4   5
ATOM      5  C   UNL     1      53.545  22.431  52.558  1.00  0.00     0.041 C 
ATOM      6  O   UNL     1      53.976  21.378  53.095  1.00  0.00    -0.550 OA
ATOM      7  O   UNL     1      52.242  22.846  52.805  1.00  0.00    -0.550 OA
ENDBRANCH   4   5
ENDBRANCH   3   4
ENDBRANCH   2   3
ENDBRANCH   1   2
BRANCH   1   8
ATOM      8  C   UNL     1      54.174  24.016  47.617  1.00  0.00     0.000 C 
BRANCH   8   9
ATOM      9  C   UNL     1      55.706  23.985  47.483  1.00  0.00     0.000 C 
BRANCH   9  10
ATOM     10  C   UNL     1      56.369  22.994  48.459  1.00  0.00     0.006 C 
BRANCH  10  11
ATOM     11  C   UNL     1      56.698  21.623  47.847  1.00  0.00     0.053 C 
BRANCH  11  12
ATOM     12  C   UNL     1      56.222  20.494  48.707  1.00  0.00     0.041 C 
ATOM     13  O   UNL     1      55.951  20.692  49.921  1.00  0.00    -0.550 OA
ATOM     14  O   UNL     1      56.110  19.215  48.177  1.00  0.00    -0.550 OA
ENDBRANCH  11  12
ENDBRANCH  10  11
ENDBRANCH   9  10
ENDBRANCH   8   9
ENDBRANCH   1   8
TORSDOF 9
ENDMDL
MODEL 4
REMARK VINA RESULT:    -4.051      2.350      3.578
REMARK INTER + INTRA:          -6.741
REMARK INTER:                  -5.983
REMARK INTRA:                  -0.758
REMARK UNBOUND:                -0.558
REMARK SMILES O=C([O-])CCCCCCCCC(=O)[O-]
REMARK SMILES IDX 7 1 6 2 5 3 4 4 2 5 1 6 3 7 8 8 9 9 10 10 11 11 12 12 13 13
REMARK SMILES IDX 14 14
REMARK H PARENT
REMARK Flexibility Score: inf
ROOT
ATOM      1  C   UNL     1      54.275  24.007  47.622  1.00  0.00     0.000 C 
ENDROOT
BRANCH   1   2
ATOM      2  C   UNL     1      55.806  23.858  47.540  1.00  0.00     0.000 C 
BRANCH   2   3
ATOM      3  C   UNL     1      56.358  22.872  48.581  1.00  0.00     0.006 C 
BRANCH   3   4
ATOM      4  C   UNL     1      56.715  21.510  47.972  1.00  0.00     0.053 C 
BRANCH   4   5
ATOM      5  C   UNL     1      56.086  20.405  48.759  1.00  0.00     0.041 C 
ATOM      6  O   UNL     1      55.643  20.623  49.917  1.00  0.00    -0.550 OA
ATOM      7  O   UNL     1      56.034  19.119  48.233  1.00  0.00    -0.550 OA
ENDBRANCH   4   5
ENDBRANCH   3   4
ENDBRANCH   2   3
ENDBRANCH   1   2
BRANCH   1   8
ATOM      8  C   UNL     1      53.715  23.621  49.000  1.00  0.00     0.000 C 
BRANCH   8   9
ATOM      9  C   UNL     1      53.385  24.848  49.868  1.00  0.00     0.000 C 
BRANCH   9  10
ATOM     10  C   UNL     1      53.802  24.665  51.339  1.00  0.00     0.006 C 
BRANCH  10  11
ATOM     11  C   UNL     1      53.305  23.361  51.983  1.00  0.00     0.053 C 
BRANCH  11  12
ATOM     12  C   UNL     1      54.422  22.574  52.595  1.00  0.00     0.041 C 
ATOM     13  O   UNL     1      55.618  22.916  52.401  1.00  0.00    -0.550 OA
ATOM     14  O   UNL     1      54.144  21.444  53.352  1.00  0.00    -0.550 OA
ENDBRANCH  11  12
ENDBRANCH  10  11
ENDBRANCH   9  10
ENDBRANCH   8   9
ENDBRANCH   1   8
TORSDOF 9
ENDMDL
MODEL 5
REMARK VINA RESULT:    -4.012      2.383      3.556
REMARK INTER + INTRA:          -6.682
REMARK INTER:                  -6.108
REMARK INTRA:                  -0.574
REMARK UNBOUND:                -0.558
REMARK SMILES O=C([O-])CCCCCCCCC(=O)[O-]
REMARK SMILES IDX 7 1 6 2 5 3 4 4 2 5 1 6 3 7 8 8 9 9 10 10 11 11 12 12 13 13
REMARK SMILES IDX 14 14
REMARK H PARENT
REMARK Flexibility Score: inf
ROOT
ATOM      1  C   UNL     1      53.912  23.624  48.342  1.00  0.00     0.000 C 
ENDROOT
BRANCH   1   2
ATOM      2  C   UNL     1      55.278  23.627  47.631  1.00  0.00     0.000 C 
BRANCH   2   3
ATOM      3  C   UNL     1      56.375  22.941  48.460  1.00  0.00     0.006 C 
BRANCH   3   4
ATOM      4  C   UNL     1      56.770  21.571  47.895  1.00  0.00     0.053 C 
BRANCH   4   5
ATOM      5  C   UNL     1      56.221  20.474  48.751  1.00  0.00     0.041 C 
ATOM      6  O   UNL     1      56.067  19.318  48.279  1.00  0.00    -0.550 OA
ATOM      7  O   UNL     1      55.830  20.742  50.057  1.00  0.00    -0.550 OA
ENDBRANCH   4   5
ENDBRANCH   3   4
ENDBRANCH   2   3
ENDBRANCH   1   2
BRANCH   1   8
ATOM      8  C   UNL     1      53.760  24.785  49.339  1.00  0.00     0.000 C 
BRANCH   8   9
ATOM      9  C   UNL     1      53.005  24.371  50.615  1.00  0.00     0.000 C 
BRANCH   9  10
ATOM     10  C   UNL     1      53.731  23.265  51.403  1.00  0.00     0.006 C 
BRANCH  10  11
ATOM     11  C   UNL     1      53.114  22.954  52.776  1.00  0.00     0.053 C 
BRANCH  11  12
ATOM     12  C   UNL     1      53.473  21.582  53.256  1.00  0.00     0.041 C 
ATOM     13  O   UNL     1      52.608  20.666  53.263  1.00  0.00    -0.550 OA
ATOM     14  O   UNL     1      54.753  21.322  53.729  1.00  0.00    -0.550 OA
ENDBRANCH  11  12
ENDBRANCH  10  11
ENDBRANCH   9  10
ENDBRANCH   8   9
ENDBRANCH   1   8
TORSDOF 9
ENDMDL
MODEL 6
REMARK VINA RESULT:    -3.952      2.087      6.295
REMARK INTER + INTRA:          -6.590
REMARK INTER:                  -5.967
REMARK INTRA:                  -0.623
REMARK UNBOUND:                -0.558
REMARK SMILES O=C([O-])CCCCCCCCC(=O)[O-]
REMARK SMILES IDX 7 1 6 2 5 3 4 4 2 5 1 6 3 7 8 8 9 9 10 10 11 11 12 12 13 13
REMARK SMILES IDX 14 14
REMARK H PARENT
REMARK Flexibility Score: inf
ROOT
ATOM      1  C   UNL     1      53.767  23.489  50.274  1.00  0.00     0.000 C 
ENDROOT
BRANCH   1   2
ATOM      2  C   UNL     1      54.807  22.402  49.944  1.00  0.00     0.000 C 
BRANCH   2   3
ATOM      3  C   UNL     1      54.853  21.290  51.002  1.00  0.00     0.006 C 
BRANCH   3   4
ATOM      4  C   UNL     1      55.297  21.803  52.378  1.00  0.00     0.053 C 
BRANCH   4   5
ATOM      5  C   UNL     1      54.218  21.584  53.390  1.00  0.00     0.041 C 
ATOM      6  O   UNL     1      54.410  21.887  54.597  1.00  0.00    -0.550 OA
ATOM      7  O   UNL     1      53.017  20.998  53.011  1.00  0.00    -0.550 OA
ENDBRANCH   4   5
ENDBRANCH   3   4
ENDBRANCH   2   3
ENDBRANCH   1   2
BRANCH   1   8
ATOM      8  C   UNL     1      53.717  24.602  49.214  1.00  0.00     0.000 C 
BRANCH   8   9
ATOM      9  C   UNL     1      53.785  24.053  47.779  1.00  0.00     0.000 C 
BRANCH   9  10
ATOM     10  C   UNL     1      54.742  24.857  46.879  1.00  0.00     0.006 C 
BRANCH  10  11
ATOM     11  C   UNL     1      56.123  25.125  47.500  1.00  0.00     0.053 C 
BRANCH  11  12
ATOM     12  C   UNL     1      57.169  24.193  46.970  1.00  0.00     0.041 C 
ATOM     13  O   UNL     1      57.166  22.980  47.308  1.00  0.00    -0.550 OA
ATOM     14  O   UNL     1      58.167  24.671  46.131  1.00  0.00    -0.550 OA
ENDBRANCH  11  12
ENDBRANCH  10  11
ENDBRANCH   9  10
ENDBRANCH   8   9
ENDBRANCH   1   8
TORSDOF 9
ENDMDL
MODEL 7
REMARK VINA RESULT:    -3.949      2.333      5.589
REMARK INTER + INTRA:          -6.585
REMARK INTER:                  -6.051
REMARK INTRA:                  -0.535
REMARK UNBOUND:                -0.558
REMARK SMILES O=C([O-])CCCCCCCCC(=O)[O-]
REMARK SMILES IDX 7 1 6 2 5 3 4 4 2 5 1 6 3 7 8 8 9 9 10 10 11 11 12 12 13 13
REMARK SMILES IDX 14 14
REMARK H PARENT
REMARK Flexibility Score: inf
ROOT
ATOM      1  C   UNL     1      53.875  24.650  49.666  1.00  0.00     0.000 C 
ENDROOT
BRANCH   1   2
ATOM      2  C   UNL     1      52.960  23.986  50.712  1.00  0.00     0.000 C 
BRANCH   2   3
ATOM      3  C   UNL     1      53.746  23.174  51.752  1.00  0.00     0.006 C 
BRANCH   3   4
ATOM      4  C   UNL     1      52.896  22.799  52.972  1.00  0.00     0.053 C 
BRANCH   4   5
ATOM      5  C   UNL     1      53.339  21.486  53.535  1.00  0.00     0.041 C 
ATOM      6  O   UNL     1      52.513  20.548  53.684  1.00  0.00    -0.550 OA
ATOM      7  O   UNL     1      54.657  21.313  53.942  1.00  0.00    -0.550 OA
ENDBRANCH   4   5
ENDBRANCH   3   4
ENDBRANCH   2   3
ENDBRANCH   1   2
BRANCH   1   8
ATOM      8  C   UNL     1      53.824  23.944  48.301  1.00  0.00     0.000 C 
BRANCH   8   9
ATOM      9  C   UNL     1      55.217  23.781  47.669  1.00  0.00     0.000 C 
BRANCH   9  10
ATOM     10  C   UNL     1      56.194  23.006  48.574  1.00  0.00     0.006 C 
BRANCH  10  11
ATOM     11  C   UNL     1      56.671  21.666  47.993  1.00  0.00     0.053 C 
BRANCH  11  12
ATOM     12  C   UNL     1      56.189  20.499  48.799  1.00  0.00     0.041 C 
ATOM     13  O   UNL     1      56.412  19.323  48.407  1.00  0.00    -0.550 OA
ATOM     14  O   UNL     1      55.464  20.710  49.964  1.00  0.00    -0.550 OA
ENDBRANCH  11  12
ENDBRANCH  10  11
ENDBRANCH   9  10
ENDBRANCH   8   9
ENDBRANCH   1   8
TORSDOF 9
ENDMDL
MODEL 8
REMARK VINA RESULT:    -3.939      1.890      2.339
REMARK INTER + INTRA:          -6.570
REMARK INTER:                  -5.954
REMARK INTRA:                  -0.616
REMARK UNBOUND:                -0.558
REMARK SMILES O=C([O-])CCCCCCCCC(=O)[O-]
REMARK SMILES IDX 7 1 6 2 5 3 4 4 2 5 1 6 3 7 8 8 9 9 10 10 11 11 12 12 13 13
REMARK SMILES IDX 14 14
REMARK H PARENT
REMARK Flexibility Score: inf
ROOT
ATOM      1  C   UNL     1      56.291  20.415  48.984  1.00  0.00     0.000 C 
ENDROOT
BRANCH   1   2
ATOM      2  C   UNL     1      56.692  21.454  47.920  1.00  0.00     0.000 C 
BRANCH   2   3
ATOM      3  C   UNL     1      55.872  22.749  48.023  1.00  0.00     0.006 C 
BRANCH   3   4
ATOM      4  C   UNL     1      56.745  23.978  48.312  1.00  0.00     0.053 C 
BRANCH   4   5
ATOM      5  C   UNL     1      56.437  24.531  49.667  1.00  0.00     0.041 C 
ATOM      6  O   UNL     1      55.251  24.812  49.983  1.00  0.00    -0.550 OA
ATOM      7  O   UNL     1      57.467  24.785  50.564  1.00  0.00    -0.550 OA
ENDBRANCH   4   5
ENDBRANCH   3   4
ENDBRANCH   2   3
ENDBRANCH   1   2
BRANCH   1   8
ATOM      8  C   UNL     1      55.191  20.928  49.927  1.00  0.00     0.000 C 
BRANCH   8   9
ATOM      9  C   UNL     1      55.741  21.344  51.303  1.00  0.00     0.000 C 
BRANCH   9  10
ATOM     10  C   UNL     1      54.655  21.928  52.226  1.00  0.00     0.006 C 
BRANCH  10  11
ATOM     11  C   UNL     1      54.714  21.421  53.676  1.00  0.00     0.053 C 
BRANCH  11  12
ATOM     12  C   UNL     1      53.358  21.365  54.308  1.00  0.00     0.041 C 
ATOM     13  O   UNL     1      53.011  22.244  55.142  1.00  0.00    -0.550 OA
ATOM     14  O   UNL     1      52.490  20.325  54.004  1.00  0.00    -0.550 OA
ENDBRANCH  11  12
ENDBRANCH  10  11
ENDBRANCH   9  10
ENDBRANCH   8   9
ENDBRANCH   1   8
TORSDOF 9
ENDMDL
MODEL 9
REMARK VINA RESULT:    -3.911      2.072      2.868
REMARK INTER + INTRA:          -6.526
REMARK INTER:                  -5.869
REMARK INTRA:                  -0.657
REMARK UNBOUND:                -0.558
REMARK SMILES O=C([O-])CCCCCCCCC(=O)[O-]
REMARK SMILES IDX 7 1 6 2 5 3 4 4 2 5 1 6 3 7 8 8 9 9 10 10 11 11 12 12 13 13
REMARK SMILES IDX 14 14
REMARK H PARENT
REMARK Flexibility Score: inf
ROOT
ATOM      1  C   UNL     1      53.733  24.619  49.148  1.00  0.00     0.000 C 
ENDROOT
BRANCH   1   2
ATOM      2  C   UNL     1      53.774  24.097  47.700  1.00  0.00     0.000 C 
BRANCH   2   3
ATOM      3  C   UNL     1      54.797  24.845  46.832  1.00  0.00     0.006 C 
BRANCH   3   4
ATOM      4  C   UNL     1      56.148  25.026  47.537  1.00  0.00     0.053 C 
BRANCH   4   5
ATOM      5  C   UNL     1      57.159  24.075  46.980  1.00  0.00     0.041 C 
ATOM      6  O   UNL     1      58.040  24.483  46.179  1.00  0.00    -0.550 OA
ATOM      7  O   UNL     1      57.099  22.726  47.307  1.00  0.00    -0.550 OA
ENDBRANCH   4   5
ENDBRANCH   3   4
ENDBRANCH   2   3
ENDBRANCH   1   2
BRANCH   1   8
ATOM      8  C   UNL     1      53.757  23.486  50.187  1.00  0.00     0.000 C 
BRANCH   8   9
ATOM      9  C   UNL     1      54.977  22.562  50.023  1.00  0.00     0.000 C 
BRANCH   9  10
ATOM     10  C   UNL     1      54.834  21.243  50.807  1.00  0.00     0.006 C 
BRANCH  10  11
ATOM     11  C   UNL     1      54.465  21.422  52.288  1.00  0.00     0.053 C 
BRANCH  11  12
ATOM     12  C   UNL     1      55.630  21.883  53.107  1.00  0.00     0.041 C 
ATOM     13  O   UNL     1      56.691  21.204  53.139  1.00  0.00    -0.550 OA
ATOM     14  O   UNL     1      55.535  23.045  53.862  1.00  0.00    -0.550 OA
ENDBRANCH  11  12
ENDBRANCH  10  11
ENDBRANCH   9  10
ENDBRANCH   8   9
ENDBRANCH   1   8
TORSDOF 9
ENDMDL
