MODEL 1
REMARK VINA RESULT:    -4.588      0.000      0.000
REMARK INTER + INTRA:          -9.926
REMARK INTER:                  -8.343
REMARK INTRA:                  -1.583
REMARK UNBOUND:                -1.583
REMARK SMILES CCCCCCCCCCCCCCCC(=O)[O-]
REMARK SMILES IDX 9 1 10 2 11 3 12 4 13 5 14 6 15 7 16 8 17 9 18 10 8 11 7 12
REMARK SMILES IDX 6 13 5 14 4 15 3 16 2 17 1 18
REMARK H PARENT
REMARK Flexibility Score: inf
ROOT
ATOM      1  C   UNL     1      13.569   7.678   4.302  1.00  0.00     0.000 C 
ENDROOT
BRANCH   1   2
ATOM      2  C   UNL     1      14.302   8.850   3.622  1.00  0.00     0.000 C 
BRANCH   2   3
ATOM      3  C   UNL     1      15.011   8.503   2.297  1.00  0.00     0.000 C 
BRANCH   3   4
ATOM      4  C   UNL     1      15.002   7.008   1.922  1.00  0.00     0.000 C 
BRANCH   4   5
ATOM      5  C   UNL     1      16.272   6.510   1.205  1.00  0.00     0.000 C 
BRANCH   5   6
ATOM      6  C   UNL     1      16.023   5.520   0.049  1.00  0.00     0.006 C 
BRANCH   6   7
ATOM      7  C   UNL     1      15.071   6.040  -1.039  1.00  0.00     0.053 C 
BRANCH   7   8
ATOM      8  C   UNL     1      15.808   6.740  -2.139  1.00  0.00     0.041 C 
ATOM      9  O   UNL     1      15.721   7.989  -2.267  1.00  0.00    -0.550 OA
ATOM     10  O   UNL     1      16.619   6.014  -3.004  1.00  0.00    -0.550 OA
ENDBRANCH   7   8
ENDBRANCH   6   7
ENDBRANCH   5   6
ENDBRANCH   4   5
ENDBRANCH   3   4
ENDBRANCH   2   3
ENDBRANCH   1   2
BRANCH   1  11
ATOM     11  C   UNL     1      14.473   6.880   5.257  1.00  0.00     0.000 C 
BRANCH  11  12
ATOM     12  C   UNL     1      15.753   7.642   5.651  1.00  0.00    -0.000 C 
BRANCH  12  13
ATOM     13  C   UNL     1      17.069   7.052   5.109  1.00  0.00    -0.000 C 
BRANCH  13  14
ATOM     14  C   UNL     1      18.317   7.659   5.771  1.00  0.00    -0.000 C 
BRANCH  14  15
ATOM     15  C   UNL     1      18.847   8.899   5.028  1.00  0.00    -0.000 C 
BRANCH  15  16
ATOM     16  C   UNL     1      18.421   9.017   3.550  1.00  0.00    -0.000 C 
BRANCH  16  17
ATOM     17  C   UNL     1      18.413  10.448   2.987  1.00  0.00    -0.003 C 
ATOM     18  C   UNL     1      17.145  11.222   3.345  1.00  0.00     0.004 C 
ENDBRANCH  16  17
ENDBRANCH  15  16
ENDBRANCH  14  15
ENDBRANCH  13  14
ENDBRANCH  12  13
ENDBRANCH  11  12
ENDBRANCH   1  11
TORSDOF 14
ENDMDL
MODEL 2
REMARK VINA RESULT:    -4.550      0.824      1.394
REMARK INTER + INTRA:          -9.857
REMARK INTER:                  -7.985
REMARK INTRA:                  -1.871
REMARK UNBOUND:                -1.583
REMARK SMILES CCCCCCCCCCCCCCCC(=O)[O-]
REMARK SMILES IDX 9 1 10 2 11 3 12 4 13 5 14 6 15 7 16 8 17 9 18 10 8 11 7 12
REMARK SMILES IDX 6 13 5 14 4 15 3 16 2 17 1 18
REMARK H PARENT
REMARK Flexibility Score: inf
ROOT
ATOM      1  C   UNL     1      14.761   7.144   4.849  1.00  0.00     0.000 C 
ENDROOT
BRANCH   1   2
ATOM      2  C   UNL     1      14.281   8.221   3.858  1.00  0.00     0.000 C 
BRANCH   2   3
ATOM      3  C   UNL     1      14.647   7.966   2.382  1.00  0.00     0.000 C 
BRANCH   3   4
ATOM      4  C   UNL     1      16.126   7.623   2.124  1.00  0.00     0.000 C 
BRANCH   4   5
ATOM      5  C   UNL     1      16.362   6.394   1.223  1.00  0.00     0.000 C 
BRANCH   5   6
ATOM      6  C   UNL     1      15.239   6.107   0.205  1.00  0.00     0.006 C 
BRANCH   6   7
ATOM      7  C   UNL     1      15.722   5.486  -1.114  1.00  0.00     0.053 C 
BRANCH   7   8
ATOM      8  C   UNL     1      16.003   6.527  -2.153  1.00  0.00     0.041 C 
ATOM      9  O   UNL     1      15.509   7.679  -2.046  1.00  0.00    -0.550 OA
ATOM     10  O   UNL     1      16.838   6.232  -3.224  1.00  0.00    -0.550 OA
ENDBRANCH   7   8
ENDBRANCH   6   7
ENDBRANCH   5   6
ENDBRANCH   4   5
ENDBRANCH   3   4
ENDBRANCH   2   3
ENDBRANCH   1   2
BRANCH   1  11
ATOM     11  C   UNL     1      15.894   7.635   5.765  1.00  0.00     0.000 C 
BRANCH  11  12
ATOM     12  C   UNL     1      17.227   6.904   5.520  1.00  0.00    -0.000 C 
BRANCH  12  13
ATOM     13  C   UNL     1      18.430   7.810   5.194  1.00  0.00    -0.000 C 
BRANCH  13  14
ATOM     14  C   UNL     1      18.025   9.264   4.903  1.00  0.00    -0.000 C 
BRANCH  14  15
ATOM     15  C   UNL     1      18.497   9.752   3.522  1.00  0.00    -0.000 C 
BRANCH  15  16
ATOM     16  C   UNL     1      17.808  11.031   3.001  1.00  0.00    -0.000 C 
BRANCH  16  17
ATOM     17  C   UNL     1      16.319  11.162   3.364  1.00  0.00    -0.003 C 
ATOM     18  C   UNL     1      15.668  12.409   2.766  1.00  0.00     0.004 C 
ENDBRANCH  16  17
ENDBRANCH  15  16
ENDBRANCH  14  15
ENDBRANCH  13  14
ENDBRANCH  12  13
ENDBRANCH  11  12
ENDBRANCH   1  11
TORSDOF 14
ENDMDL
MODEL 3
REMARK VINA RESULT:    -4.410      2.369      5.552
REMARK INTER + INTRA:          -9.603
REMARK INTER:                  -7.918
REMARK INTRA:                  -1.685
REMARK UNBOUND:                -1.583
REMARK SMILES CCCCCCCCCCCCCCCC(=O)[O-]
REMARK SMILES IDX 9 1 10 2 11 3 12 4 13 5 14 6 15 7 16 8 17 9 18 10 8 11 7 12
REMARK SMILES IDX 6 13 5 14 4 15 3 16 2 17 1 18
REMARK H PARENT
REMARK Flexibility Score: inf
ROOT
ATOM      1  C   UNL     1      14.256   8.998   4.118  1.00  0.00     0.000 C 
ENDROOT
BRANCH   1   2
ATOM      2  C   UNL     1      13.833   7.595   4.589  1.00  0.00     0.000 C 
BRANCH   2   3
ATOM      3  C   UNL     1      14.950   6.756   5.243  1.00  0.00     0.000 C 
BRANCH   3   4
ATOM      4  C   UNL     1      16.225   7.538   5.613  1.00  0.00     0.000 C 
BRANCH   4   5
ATOM      5  C   UNL     1      17.507   7.068   4.898  1.00  0.00     0.000 C 
BRANCH   5   6
ATOM      6  C   UNL     1      18.349   8.193   4.262  1.00  0.00     0.006 C 
BRANCH   6   7
ATOM      7  C   UNL     1      17.797   9.608   4.493  1.00  0.00     0.053 C 
BRANCH   7   8
ATOM      8  C   UNL     1      17.964  10.478   3.286  1.00  0.00     0.041 C 
ATOM      9  O   UNL     1      17.169  11.431   3.076  1.00  0.00    -0.550 OA
ATOM     10  O   UNL     1      19.018  10.255   2.408  1.00  0.00    -0.550 OA
ENDBRANCH   7   8
ENDBRANCH   6   7
ENDBRANCH   5   6
ENDBRANCH   4   5
ENDBRANCH   3   4
ENDBRANCH   2   3
ENDBRANCH   1   2
BRANCH   1  11
ATOM     11  C   UNL     1      14.641   9.039   2.629  1.00  0.00     0.000 C 
BRANCH  11  12
ATOM     12  C   UNL     1      14.757   7.638   1.998  1.00  0.00    -0.000 C 
BRANCH  12  13
ATOM     13  C   UNL     1      16.158   7.255   1.487  1.00  0.00    -0.000 C 
BRANCH  13  14
ATOM     14  C   UNL     1      16.234   5.809   0.970  1.00  0.00    -0.000 C 
BRANCH  14  15
ATOM     15  C   UNL     1      15.553   5.626  -0.398  1.00  0.00    -0.000 C 
BRANCH  15  16
ATOM     16  C   UNL     1      15.435   6.904  -1.255  1.00  0.00    -0.000 C 
BRANCH  16  17
ATOM     17  C   UNL     1      15.691   6.705  -2.759  1.00  0.00    -0.003 C 
ATOM     18  C   UNL     1      16.913   5.833  -3.045  1.00  0.00     0.004 C 
ENDBRANCH  16  17
ENDBRANCH  15  16
ENDBRANCH  14  15
ENDBRANCH  13  14
ENDBRANCH  12  13
ENDBRANCH  11  12
ENDBRANCH   1  11
TORSDOF 14
ENDMDL
MODEL 4
REMARK VINA RESULT:    -4.195      2.564      5.745
REMARK INTER + INTRA:          -9.210
REMARK INTER:                  -7.926
REMARK INTRA:                  -1.285
REMARK UNBOUND:                -1.583
REMARK SMILES CCCCCCCCCCCCCCCC(=O)[O-]
REMARK SMILES IDX 9 1 10 2 11 3 12 4 13 5 14 6 15 7 16 8 17 9 18 10 8 11 7 12
REMARK SMILES IDX 6 13 5 14 4 15 3 16 2 17 1 18
REMARK H PARENT
REMARK Flexibility Score: inf
ROOT
ATOM      1  C   UNL     1      15.780   6.851   4.625  1.00  0.00     0.000 C 
ENDROOT
BRANCH   1   2
ATOM      2  C   UNL     1      16.457   7.547   5.820  1.00  0.00     0.000 C 
BRANCH   2   3
ATOM      3  C   UNL     1      17.981   7.745   5.688  1.00  0.00     0.000 C 
BRANCH   3   4
ATOM      4  C   UNL     1      18.482   8.032   4.260  1.00  0.00     0.000 C 
BRANCH   4   5
ATOM      5  C   UNL     1      18.525   9.524   3.873  1.00  0.00     0.000 C 
BRANCH   5   6
ATOM      6  C   UNL     1      17.158  10.238   3.878  1.00  0.00     0.006 C 
BRANCH   6   7
ATOM      7  C   UNL     1      17.095  11.493   2.993  1.00  0.00     0.053 C 
BRANCH   7   8
ATOM      8  C   UNL     1      15.690  11.983   2.818  1.00  0.00     0.041 C 
ATOM      9  O   UNL     1      14.722  11.189   2.936  1.00  0.00    -0.550 OA
ATOM     10  O   UNL     1      15.451  13.327   2.556  1.00  0.00    -0.550 OA
ENDBRANCH   7   8
ENDBRANCH   6   7
ENDBRANCH   5   6
ENDBRANCH   4   5
ENDBRANCH   3   4
ENDBRANCH   2   3
ENDBRANCH   1   2
BRANCH   1  11
ATOM     11  C   UNL     1      14.534   7.601   4.123  1.00  0.00     0.000 C 
BRANCH  11  12
ATOM     12  C   UNL     1      14.510   7.773   2.592  1.00  0.00    -0.000 C 
BRANCH  12  13
ATOM     13  C   UNL     1      15.877   7.661   1.891  1.00  0.00    -0.000 C 
BRANCH  13  14
ATOM     14  C   UNL     1      16.150   6.257   1.328  1.00  0.00    -0.000 C 
BRANCH  14  15
ATOM     15  C   UNL     1      15.439   6.001  -0.013  1.00  0.00    -0.000 C 
BRANCH  15  16
ATOM     16  C   UNL     1      15.651   7.084  -1.092  1.00  0.00    -0.000 C 
BRANCH  16  17
ATOM     17  C   UNL     1      15.496   6.597  -2.543  1.00  0.00    -0.003 C 
ATOM     18  C   UNL     1      16.814   6.125  -3.156  1.00  0.00     0.004 C 
ENDBRANCH  16  17
ENDBRANCH  15  16
ENDBRANCH  14  15
ENDBRANCH  13  14
ENDBRANCH  12  13
ENDBRANCH  11  12
ENDBRANCH   1  11
TORSDOF 14
ENDMDL
MODEL 5
REMARK VINA RESULT:    -4.167      2.475      3.867
REMARK INTER + INTRA:          -9.160
REMARK INTER:                  -8.349
REMARK INTRA:                  -0.811
REMARK UNBOUND:                -1.583
REMARK SMILES CCCCCCCCCCCCCCCC(=O)[O-]
REMARK SMILES IDX 9 1 10 2 11 3 12 4 13 5 14 6 15 7 16 8 17 9 18 10 8 11 7 12
REMARK SMILES IDX 6 13 5 14 4 15 3 16 2 17 1 18
REMARK H PARENT
REMARK Flexibility Score: inf
ROOT
ATOM      1  C   UNL     1      16.769   9.514   3.632  1.00  0.00     0.000 C 
ENDROOT
BRANCH   1   2
ATOM      2  C   UNL     1      15.888   8.286   3.924  1.00  0.00     0.000 C 
BRANCH   2   3
ATOM      3  C   UNL     1      14.652   8.131   3.013  1.00  0.00     0.000 C 
BRANCH   3   4
ATOM      4  C   UNL     1      14.948   7.619   1.591  1.00  0.00     0.000 C 
BRANCH   4   5
ATOM      5  C   UNL     1      16.177   6.694   1.476  1.00  0.00     0.000 C 
BRANCH   5   6
ATOM      6  C   UNL     1      16.136   5.699   0.298  1.00  0.00     0.006 C 
BRANCH   6   7
ATOM      7  C   UNL     1      15.091   6.031  -0.778  1.00  0.00     0.053 C 
BRANCH   7   8
ATOM      8  C   UNL     1      15.712   6.665  -1.985  1.00  0.00     0.041 C 
ATOM      9  O   UNL     1      16.447   5.988  -2.750  1.00  0.00    -0.550 OA
ATOM     10  O   UNL     1      15.452   7.998  -2.281  1.00  0.00    -0.550 OA
ENDBRANCH   7   8
ENDBRANCH   6   7
ENDBRANCH   5   6
ENDBRANCH   4   5
ENDBRANCH   3   4
ENDBRANCH   2   3
ENDBRANCH   1   2
BRANCH   1  11
ATOM     11  C   UNL     1      18.188   9.384   4.211  1.00  0.00     0.000 C 
BRANCH  11  12
ATOM     12  C   UNL     1      18.507   7.962   4.709  1.00  0.00    -0.000 C 
BRANCH  12  13
ATOM     13  C   UNL     1      18.770   7.831   6.221  1.00  0.00    -0.000 C 
BRANCH  13  14
ATOM     14  C   UNL     1      19.932   8.713   6.707  1.00  0.00    -0.000 C 
BRANCH  14  15
ATOM     15  C   UNL     1      20.511   8.250   8.056  1.00  0.00    -0.000 C 
BRANCH  15  16
ATOM     16  C   UNL     1      21.876   8.862   8.435  1.00  0.00    -0.000 C 
BRANCH  16  17
ATOM     17  C   UNL     1      22.637   8.119   9.547  1.00  0.00    -0.003 C 
ATOM     18  C   UNL     1      21.824   6.984  10.169  1.00  0.00     0.004 C 
ENDBRANCH  16  17
ENDBRANCH  15  16
ENDBRANCH  14  15
ENDBRANCH  13  14
ENDBRANCH  12  13
ENDBRANCH  11  12
ENDBRANCH   1  11
TORSDOF 14
ENDMDL
MODEL 6
REMARK VINA RESULT:    -4.104      1.036      3.365
REMARK INTER + INTRA:          -9.045
REMARK INTER:                  -7.233
REMARK INTRA:                  -1.812
REMARK UNBOUND:                -1.583
REMARK SMILES CCCCCCCCCCCCCCCC(=O)[O-]
REMARK SMILES IDX 9 1 10 2 11 3 12 4 13 5 14 6 15 7 16 8 17 9 18 10 8 11 7 12
REMARK SMILES IDX 6 13 5 14 4 15 3 16 2 17 1 18
REMARK H PARENT
REMARK Flexibility Score: inf
ROOT
ATOM      1  C   UNL     1      17.386   7.272   5.487  1.00  0.00     0.000 C 
ENDROOT
BRANCH   1   2
ATOM      2  C   UNL     1      17.815   6.601   4.169  1.00  0.00     0.000 C 
BRANCH   2   3
ATOM      3  C   UNL     1      16.662   6.231   3.213  1.00  0.00     0.000 C 
BRANCH   3   4
ATOM      4  C   UNL     1      16.895   6.597   1.735  1.00  0.00     0.000 C 
BRANCH   4   5
ATOM      5  C   UNL     1      15.626   6.609   0.860  1.00  0.00     0.000 C 
BRANCH   5   6
ATOM      6  C   UNL     1      15.461   5.387  -0.066  1.00  0.00     0.006 C 
BRANCH   6   7
ATOM      7  C   UNL     1      16.081   5.560  -1.462  1.00  0.00     0.053 C 
BRANCH   7   8
ATOM      8  C   UNL     1      15.546   6.768  -2.166  1.00  0.00     0.041 C 
ATOM      9  O   UNL     1      14.386   6.757  -2.653  1.00  0.00    -0.550 OA
ATOM     10  O   UNL     1      16.320   7.919  -2.256  1.00  0.00    -0.550 OA
ENDBRANCH   7   8
ENDBRANCH   6   7
ENDBRANCH   5   6
ENDBRANCH   4   5
ENDBRANCH   3   4
ENDBRANCH   2   3
ENDBRANCH   1   2
BRANCH   1  11
ATOM     11  C   UNL     1      17.826   8.743   5.580  1.00  0.00     0.000 C 
BRANCH  11  12
ATOM     12  C   UNL     1      18.746   9.171   4.421  1.00  0.00    -0.000 C 
BRANCH  12  13
ATOM     13  C   UNL     1      18.088  10.052   3.342  1.00  0.00    -0.000 C 
BRANCH  13  14
ATOM     14  C   UNL     1      16.634  10.424   3.676  1.00  0.00    -0.000 C 
BRANCH  14  15
ATOM     15  C   UNL     1      15.607   9.510   2.983  1.00  0.00    -0.000 C 
BRANCH  15  16
ATOM     16  C   UNL     1      14.276   9.317   3.739  1.00  0.00    -0.000 C 
BRANCH  16  17
ATOM     17  C   UNL     1      13.735   7.877   3.747  1.00  0.00    -0.003 C 
ATOM     18  C   UNL     1      13.812   7.220   5.124  1.00  0.00     0.004 C 
ENDBRANCH  16  17
ENDBRANCH  15  16
ENDBRANCH  14  15
ENDBRANCH  13  14
ENDBRANCH  12  13
ENDBRANCH  11  12
ENDBRANCH   1  11
TORSDOF 14
ENDMDL
MODEL 7
REMARK VINA RESULT:    -3.666      4.965      7.844
REMARK INTER + INTRA:          -8.249
REMARK INTER:                  -7.343
REMARK INTRA:                  -0.906
REMARK UNBOUND:                -1.583
REMARK SMILES CCCCCCCCCCCCCCCC(=O)[O-]
REMARK SMILES IDX 9 1 10 2 11 3 12 4 13 5 14 6 15 7 16 8 17 9 18 10 8 11 7 12
REMARK SMILES IDX 6 13 5 14 4 15 3 16 2 17 1 18
REMARK H PARENT
REMARK Flexibility Score: inf
ROOT
ATOM      1  C   UNL     1      16.017   7.698   5.541  1.00  0.00     0.000 C 
ENDROOT
BRANCH   1   2
ATOM      2  C   UNL     1      17.196   6.971   4.868  1.00  0.00     0.000 C 
BRANCH   2   3
ATOM      3  C   UNL     1      18.367   7.878   4.437  1.00  0.00     0.000 C 
BRANCH   3   4
ATOM      4  C   UNL     1      18.930   8.790   5.544  1.00  0.00     0.000 C 
BRANCH   4   5
ATOM      5  C   UNL     1      19.587   8.050   6.726  1.00  0.00     0.000 C 
BRANCH   5   6
ATOM      6  C   UNL     1      20.733   8.816   7.419  1.00  0.00     0.006 C 
BRANCH   6   7
ATOM      7  C   UNL     1      20.857   8.544   8.926  1.00  0.00     0.053 C 
BRANCH   7   8
ATOM      8  C   UNL     1      22.219   8.040   9.293  1.00  0.00     0.041 C 
ATOM      9  O   UNL     1      23.242   8.505   8.727  1.00  0.00    -0.550 OA
ATOM     10  O   UNL     1      22.360   7.078  10.286  1.00  0.00    -0.550 OA
ENDBRANCH   7   8
ENDBRANCH   6   7
ENDBRANCH   5   6
ENDBRANCH   4   5
ENDBRANCH   3   4
ENDBRANCH   2   3
ENDBRANCH   1   2
BRANCH   1  11
ATOM     11  C   UNL     1      14.679   7.465   4.818  1.00  0.00     0.000 C 
BRANCH  11  12
ATOM     12  C   UNL     1      14.523   8.323   3.548  1.00  0.00    -0.000 C 
BRANCH  12  13
ATOM     13  C   UNL     1      14.564   7.550   2.216  1.00  0.00    -0.000 C 
BRANCH  13  14
ATOM     14  C   UNL     1      15.991   7.361   1.675  1.00  0.00    -0.000 C 
BRANCH  14  15
ATOM     15  C   UNL     1      16.144   6.089   0.822  1.00  0.00    -0.000 C 
BRANCH  15  16
ATOM     16  C   UNL     1      15.160   5.962  -0.360  1.00  0.00    -0.000 C 
BRANCH  16  17
ATOM     17  C   UNL     1      15.781   6.179  -1.751  1.00  0.00    -0.003 C 
ATOM     18  C   UNL     1      15.650   7.620  -2.242  1.00  0.00     0.004 C 
ENDBRANCH  16  17
ENDBRANCH  15  16
ENDBRANCH  14  15
ENDBRANCH  13  14
ENDBRANCH  12  13
ENDBRANCH  11  12
ENDBRANCH   1  11
TORSDOF 14
ENDMDL
MODEL 8
REMARK VINA RESULT:    -3.523      3.061      5.554
REMARK INTER + INTRA:          -7.988
REMARK INTER:                  -6.680
REMARK INTRA:                  -1.309
REMARK UNBOUND:                -1.583
REMARK SMILES CCCCCCCCCCCCCCCC(=O)[O-]
REMARK SMILES IDX 9 1 10 2 11 3 12 4 13 5 14 6 15 7 16 8 17 9 18 10 8 11 7 12
REMARK SMILES IDX 6 13 5 14 4 15 3 16 2 17 1 18
REMARK H PARENT
REMARK Flexibility Score: inf
ROOT
ATOM      1  C   UNL     1      17.980   9.090   5.248  1.00  0.00     0.000 C 
ENDROOT
BRANCH   1   2
ATOM      2  C   UNL     1      18.707   9.626   4.002  1.00  0.00     0.000 C 
BRANCH   2   3
ATOM      3  C   UNL     1      17.848  10.497   3.062  1.00  0.00     0.000 C 
BRANCH   3   4
ATOM      4  C   UNL     1      16.359  10.599   3.444  1.00  0.00     0.000 C 
BRANCH   4   5
ATOM      5  C   UNL     1      15.472   9.454   2.917  1.00  0.00     0.000 C 
BRANCH   5   6
ATOM      6  C   UNL     1      14.245   9.123   3.791  1.00  0.00     0.006 C 
BRANCH   6   7
ATOM      7  C   UNL     1      13.898   7.628   3.859  1.00  0.00     0.053 C 
BRANCH   7   8
ATOM      8  C   UNL     1      14.101   7.068   5.233  1.00  0.00     0.041 C 
ATOM      9  O   UNL     1      15.062   7.463   5.944  1.00  0.00    -0.550 OA
ATOM     10  O   UNL     1      13.207   6.133   5.742  1.00  0.00    -0.550 OA
ENDBRANCH   7   8
ENDBRANCH   6   7
ENDBRANCH   5   6
ENDBRANCH   4   5
ENDBRANCH   3   4
ENDBRANCH   2   3
ENDBRANCH   1   2
BRANCH   1  11
ATOM     11  C   UNL     1      18.028   7.557   5.357  1.00  0.00     0.000 C 
BRANCH  11  12
ATOM     12  C   UNL     1      18.376   6.869   4.023  1.00  0.00    -0.000 C 
BRANCH  12  13
ATOM     13  C   UNL     1      17.199   6.178   3.307  1.00  0.00    -0.000 C 
BRANCH  13  14
ATOM     14  C   UNL     1      16.841   6.839   1.966  1.00  0.00    -0.000 C 
BRANCH  14  15
ATOM     15  C   UNL     1      16.405   5.822   0.895  1.00  0.00    -0.000 C 
BRANCH  15  16
ATOM     16  C   UNL     1      15.327   6.320  -0.090  1.00  0.00    -0.000 C 
BRANCH  16  17
ATOM     17  C   UNL     1      15.720   6.251  -1.576  1.00  0.00    -0.003 C 
ATOM     18  C   UNL     1      15.750   7.623  -2.248  1.00  0.00     0.004 C 
ENDBRANCH  16  17
ENDBRANCH  15  16
ENDBRANCH  14  15
ENDBRANCH  13  14
ENDBRANCH  12  13
ENDBRANCH  11  12
ENDBRANCH   1  11
TORSDOF 14
ENDMDL
MODEL 9
REMARK VINA RESULT:    -3.409      2.693      5.880
REMARK INTER + INTRA:          -7.782
REMARK INTER:                  -6.485
REMARK INTRA:                  -1.296
REMARK UNBOUND:                -1.583
REMARK SMILES CCCCCCCCCCCCCCCC(=O)[O-]
REMARK SMILES IDX 9 1 10 2 11 3 12 4 13 5 14 6 15 7 16 8 17 9 18 10 8 11 7 12
REMARK SMILES IDX 6 13 5 14 4 15 3 16 2 17 1 18
REMARK H PARENT
REMARK Flexibility Score: inf
ROOT
ATOM      1  C   UNL     1      14.826   9.812   2.732  1.00  0.00     0.000 C 
ENDROOT
BRANCH   1   2
ATOM      2  C   UNL     1      15.715  10.658   3.662  1.00  0.00     0.000 C 
BRANCH   2   3
ATOM      3  C   UNL     1      16.865  11.413   2.965  1.00  0.00     0.000 C 
BRANCH   3   4
ATOM      4  C   UNL     1      18.246  10.737   3.063  1.00  0.00     0.000 C 
BRANCH   4   5
ATOM      5  C   UNL     1      18.211   9.232   3.395  1.00  0.00     0.000 C 
BRANCH   5   6
ATOM      6  C   UNL     1      19.144   8.795   4.542  1.00  0.00     0.006 C 
BRANCH   6   7
ATOM      7  C   UNL     1      18.416   8.275   5.791  1.00  0.00     0.053 C 
BRANCH   7   8
ATOM      8  C   UNL     1      17.204   7.469   5.437  1.00  0.00     0.041 C 
ATOM      9  O   UNL     1      16.072   7.798   5.879  1.00  0.00    -0.550 OA
ATOM     10  O   UNL     1      17.321   6.372   4.592  1.00  0.00    -0.550 OA
ENDBRANCH   7   8
ENDBRANCH   6   7
ENDBRANCH   5   6
ENDBRANCH   4   5
ENDBRANCH   3   4
ENDBRANCH   2   3
ENDBRANCH   1   2
BRANCH   1  11
ATOM     11  C   UNL     1      14.270   8.553   3.418  1.00  0.00     0.000 C 
BRANCH  11  12
ATOM     12  C   UNL     1      14.590   7.256   2.649  1.00  0.00    -0.000 C 
BRANCH  12  13
ATOM     13  C   UNL     1      15.711   7.368   1.598  1.00  0.00    -0.000 C 
BRANCH  13  14
ATOM     14  C   UNL     1      16.173   6.002   1.065  1.00  0.00    -0.000 C 
BRANCH  14  15
ATOM     15  C   UNL     1      15.655   5.707  -0.354  1.00  0.00    -0.000 C 
BRANCH  15  16
ATOM     16  C   UNL     1      15.287   6.947  -1.196  1.00  0.00    -0.000 C 
BRANCH  16  17
ATOM     17  C   UNL     1      15.755   6.903  -2.660  1.00  0.00    -0.003 C 
ATOM     18  C   UNL     1      16.827   5.843  -2.911  1.00  0.00     0.004 C 
ENDBRANCH  16  17
ENDBRANCH  15  16
ENDBRANCH  14  15
ENDBRANCH  13  14
ENDBRANCH  12  13
ENDBRANCH  11  12
ENDBRANCH   1  11
TORSDOF 14
ENDMDL
