MODEL 1
REMARK VINA RESULT:    -5.738      0.000      0.000
REMARK INTER + INTRA:          -6.623
REMARK INTER:                  -6.576
REMARK INTRA:                  -0.047
REMARK UNBOUND:                -0.047
REMARK SMILES O=C([O-])c1cc(O)c(O)c(O)c1
REMARK SMILES IDX 4 1 5 2 12 3 6 4 10 5 8 6 2 7 1 8 3 9 7 10 11 12 9 14
REMARK H PARENT 7 11 11 13 9 15
REMARK Flexibility Score: inf
ROOT
ATOM      1  C   UNL     1     109.828 111.820 111.924  1.00  0.00     0.005 A 
ATOM      2  C   UNL     1     109.883 112.743 110.865  1.00  0.00     0.060 A 
ATOM      3  C   UNL     1     109.405 110.506 111.661  1.00  0.00     0.060 A 
ATOM      4  C   UNL     1     109.522 112.361 109.565  1.00  0.00     0.162 A 
ATOM      5  C   UNL     1     109.042 110.119 110.364  1.00  0.00     0.162 A 
ATOM      6  C   UNL     1     109.100 111.045 109.314  1.00  0.00     0.200 A 
ENDROOT
BRANCH   1   7
ATOM      7  C   UNL     1     110.211 112.230 113.292  1.00  0.00     0.072 C 
ATOM      8  O   UNL     1     111.150 111.647 113.897  1.00  0.00    -0.545 OA
ATOM      9  O   UNL     1     109.540 113.267 113.931  1.00  0.00    -0.545 OA
ENDBRANCH   1   7
BRANCH   4  10
ATOM     10  O   UNL     1     109.580 113.285 108.523  1.00  0.00    -0.504 OA
ATOM     11  H   UNL     1     109.235 114.232 108.632  1.00  0.00     0.293 HD
ENDBRANCH   4  10
BRANCH   5  12
ATOM     12  O   UNL     1     108.623 108.814 110.109  1.00  0.00    -0.504 OA
ATOM     13  H   UNL     1     109.127 108.015 110.475  1.00  0.00     0.293 HD
ENDBRANCH   5  12
BRANCH   6  14
ATOM     14  O   UNL     1     108.735 110.641 108.029  1.00  0.00    -0.502 OA
ATOM     15  H   UNL     1     108.939 109.714 107.677  1.00  0.00     0.293 HD
ENDBRANCH   6  14
TORSDOF 4
ENDMDL
MODEL 2
REMARK VINA RESULT:    -5.724      0.063      2.422
REMARK INTER + INTRA:          -6.607
REMARK INTER:                  -6.560
REMARK INTRA:                  -0.047
REMARK UNBOUND:                -0.047
REMARK SMILES O=C([O-])c1cc(O)c(O)c(O)c1
REMARK SMILES IDX 4 1 5 2 12 3 6 4 10 5 8 6 2 7 1 8 3 9 7 10 11 12 9 14
REMARK H PARENT 7 11 11 13 9 15
REMARK Flexibility Score: inf
ROOT
ATOM      1  C   UNL     1     109.818 111.813 111.930  1.00  0.00     0.005 A 
ATOM      2  C   UNL     1     109.422 110.495 111.640  1.00  0.00     0.060 A 
ATOM      3  C   UNL     1     109.851 112.759 110.890  1.00  0.00     0.060 A 
ATOM      4  C   UNL     1     109.065 110.128 110.335  1.00  0.00     0.162 A 
ATOM      5  C   UNL     1     109.496 112.397 109.585  1.00  0.00     0.162 A 
ATOM      6  C   UNL     1     109.102 111.081 109.304  1.00  0.00     0.200 A 
ENDROOT
BRANCH   1   7
ATOM      7  C   UNL     1     110.193 112.193 113.309  1.00  0.00     0.072 C 
ATOM      8  O   UNL     1     111.084 111.555 113.930  1.00  0.00    -0.545 OA
ATOM      9  O   UNL     1     109.567 113.263 113.940  1.00  0.00    -0.545 OA
ENDBRANCH   1   7
BRANCH   4  10
ATOM     10  O   UNL     1     108.673 108.819 110.059  1.00  0.00    -0.504 OA
ATOM     11  H   UNL     1     108.030 108.604 109.306  1.00  0.00     0.293 HD
ENDBRANCH   4  10
BRANCH   5  12
ATOM     12  O   UNL     1     109.530 113.338 108.558  1.00  0.00    -0.504 OA
ATOM     13  H   UNL     1     109.131 113.144 107.646  1.00  0.00     0.293 HD
ENDBRANCH   5  12
BRANCH   6  14
ATOM     14  O   UNL     1     108.751 110.739 107.998  1.00  0.00    -0.502 OA
ATOM     15  H   UNL     1     108.316 109.853 107.771  1.00  0.00     0.293 HD
ENDBRANCH   6  14
TORSDOF 4
ENDMDL
MODEL 3
REMARK VINA RESULT:    -5.712      2.592      4.339
REMARK INTER + INTRA:          -6.593
REMARK INTER:                  -6.541
REMARK INTRA:                  -0.052
REMARK UNBOUND:                -0.047
REMARK SMILES O=C([O-])c1cc(O)c(O)c(O)c1
REMARK SMILES IDX 4 1 5 2 12 3 6 4 10 5 8 6 2 7 1 8 3 9 7 10 11 12 9 14
REMARK H PARENT 7 11 11 13 9 15
REMARK Flexibility Score: inf
ROOT
ATOM      1  C   UNL     1     110.717 110.715 110.770  1.00  0.00     0.005 A 
ATOM      2  C   UNL     1     111.422 111.198 111.887  1.00  0.00     0.060 A 
ATOM      3  C   UNL     1     111.148 111.080 109.482  1.00  0.00     0.060 A 
ATOM      4  C   UNL     1     112.536 112.031 111.722  1.00  0.00     0.162 A 
ATOM      5  C   UNL     1     112.261 111.914 109.312  1.00  0.00     0.162 A 
ATOM      6  C   UNL     1     112.958 112.391 110.431  1.00  0.00     0.200 A 
ENDROOT
BRANCH   1   7
ATOM      7  C   UNL     1     109.542 109.836 110.951  1.00  0.00     0.072 C 
ATOM      8  O   UNL     1     109.020 109.690 112.088  1.00  0.00    -0.545 OA
ATOM      9  O   UNL     1     108.996 109.157 109.867  1.00  0.00    -0.545 OA
ENDBRANCH   1   7
BRANCH   4  10
ATOM     10  O   UNL     1     113.227 112.504 112.837  1.00  0.00    -0.504 OA
ATOM     11  H   UNL     1     112.742 112.907 113.631  1.00  0.00     0.293 HD
ENDBRANCH   4  10
BRANCH   5  12
ATOM     12  O   UNL     1     112.684 112.273 108.034  1.00  0.00    -0.504 OA
ATOM     13  H   UNL     1     112.022 112.490 107.298  1.00  0.00     0.293 HD
ENDBRANCH   5  12
BRANCH   6  14
ATOM     14  O   UNL     1     114.065 113.219 110.242  1.00  0.00    -0.502 OA
ATOM     15  H   UNL     1     114.313 113.588 109.332  1.00  0.00     0.293 HD
ENDBRANCH   6  14
TORSDOF 4
ENDMDL
MODEL 4
REMARK VINA RESULT:    -5.711      4.341      6.305
REMARK INTER + INTRA:          -6.592
REMARK INTER:                  -6.540
REMARK INTRA:                  -0.052
REMARK UNBOUND:                -0.047
REMARK SMILES O=C([O-])c1cc(O)c(O)c(O)c1
REMARK SMILES IDX 4 1 5 2 12 3 6 4 10 5 8 6 2 7 1 8 3 9 7 10 11 12 9 14
REMARK H PARENT 7 11 11 13 9 15
REMARK Flexibility Score: inf
ROOT
ATOM      1  C   UNL     1     110.647 110.774 115.732  1.00  0.00     0.005 A 
ATOM      2  C   UNL     1     111.402 111.215 116.832  1.00  0.00     0.060 A 
ATOM      3  C   UNL     1     111.038 111.159 114.438  1.00  0.00     0.060 A 
ATOM      4  C   UNL     1     112.528 112.029 116.645  1.00  0.00     0.162 A 
ATOM      5  C   UNL     1     112.162 111.973 114.245  1.00  0.00     0.162 A 
ATOM      6  C   UNL     1     112.910 112.409 115.347  1.00  0.00     0.200 A 
ENDROOT
BRANCH   1   7
ATOM      7  C   UNL     1     109.460 109.915 115.937  1.00  0.00     0.072 C 
ATOM      8  O   UNL     1     108.939 109.803 117.079  1.00  0.00    -0.545 OA
ATOM      9  O   UNL     1     108.901 109.219 114.871  1.00  0.00    -0.545 OA
ENDBRANCH   1   7
BRANCH   4  10
ATOM     10  O   UNL     1     113.269 112.461 117.743  1.00  0.00    -0.504 OA
ATOM     11  H   UNL     1     112.823 112.861 118.561  1.00  0.00     0.293 HD
ENDBRANCH   4  10
BRANCH   5  12
ATOM     12  O   UNL     1     112.546 112.352 112.960  1.00  0.00    -0.504 OA
ATOM     13  H   UNL     1     111.870 112.443 112.210  1.00  0.00     0.293 HD
ENDBRANCH   5  12
BRANCH   6  14
ATOM     14  O   UNL     1     114.027 113.218 115.136  1.00  0.00    -0.502 OA
ATOM     15  H   UNL     1     114.319 113.918 115.806  1.00  0.00     0.293 HD
ENDBRANCH   6  14
TORSDOF 4
ENDMDL
MODEL 5
REMARK VINA RESULT:    -5.692      4.319      6.156
REMARK INTER + INTRA:          -6.570
REMARK INTER:                  -6.518
REMARK INTRA:                  -0.052
REMARK UNBOUND:                -0.047
REMARK SMILES O=C([O-])c1cc(O)c(O)c(O)c1
REMARK SMILES IDX 4 1 5 2 12 3 6 4 10 5 8 6 2 7 1 8 3 9 7 10 11 12 9 14
REMARK H PARENT 7 11 11 13 9 15
REMARK Flexibility Score: inf
ROOT
ATOM      1  C   UNL     1     110.646 110.711 115.699  1.00  0.00     0.005 A 
ATOM      2  C   UNL     1     111.036 111.093 114.404  1.00  0.00     0.060 A 
ATOM      3  C   UNL     1     111.409 111.146 116.797  1.00  0.00     0.060 A 
ATOM      4  C   UNL     1     112.170 111.894 114.207  1.00  0.00     0.162 A 
ATOM      5  C   UNL     1     112.543 111.946 116.606  1.00  0.00     0.162 A 
ATOM      6  C   UNL     1     112.925 112.323 115.312  1.00  0.00     0.200 A 
ENDROOT
BRANCH   1   7
ATOM      7  C   UNL     1     109.449 109.865 115.900  1.00  0.00     0.072 C 
ATOM      8  O   UNL     1     108.915 109.769 117.037  1.00  0.00    -0.545 OA
ATOM      9  O   UNL     1     108.896 109.163 114.834  1.00  0.00    -0.545 OA
ENDBRANCH   1   7
BRANCH   4  10
ATOM     10  O   UNL     1     112.547 112.267 112.918  1.00  0.00    -0.504 OA
ATOM     11  H   UNL     1     112.452 113.222 112.592  1.00  0.00     0.293 HD
ENDBRANCH   4  10
BRANCH   5  12
ATOM     12  O   UNL     1     113.296 112.374 117.698  1.00  0.00    -0.504 OA
ATOM     13  H   UNL     1     112.928 113.042 118.366  1.00  0.00     0.293 HD
ENDBRANCH   5  12
BRANCH   6  14
ATOM     14  O   UNL     1     114.057 113.121 115.140  1.00  0.00    -0.502 OA
ATOM     15  H   UNL     1     114.951 112.883 115.551  1.00  0.00     0.293 HD
ENDBRANCH   6  14
TORSDOF 4
ENDMDL
MODEL 6
REMARK VINA RESULT:    -5.692      2.567      4.147
REMARK INTER + INTRA:          -6.570
REMARK INTER:                  -6.517
REMARK INTRA:                  -0.052
REMARK UNBOUND:                -0.047
REMARK SMILES O=C([O-])c1cc(O)c(O)c(O)c1
REMARK SMILES IDX 4 1 5 2 12 3 6 4 10 5 8 6 2 7 1 8 3 9 7 10 11 12 9 14
REMARK H PARENT 7 11 11 13 9 15
REMARK Flexibility Score: inf
ROOT
ATOM      1  C   UNL     1     110.686 110.709 110.737  1.00  0.00     0.005 A 
ATOM      2  C   UNL     1     111.106 111.069 109.444  1.00  0.00     0.060 A 
ATOM      3  C   UNL     1     111.397 111.201 111.846  1.00  0.00     0.060 A 
ATOM      4  C   UNL     1     112.216 111.905 109.261  1.00  0.00     0.162 A 
ATOM      5  C   UNL     1     112.508 112.035 111.668  1.00  0.00     0.162 A 
ATOM      6  C   UNL     1     112.920 112.390 110.376  1.00  0.00     0.200 A 
ENDROOT
BRANCH   1   7
ATOM      7  C   UNL     1     109.513 109.827 110.923  1.00  0.00     0.072 C 
ATOM      8  O   UNL     1     108.998 109.678 112.063  1.00  0.00    -0.545 OA
ATOM      9  O   UNL     1     108.962 109.151 109.841  1.00  0.00    -0.545 OA
ENDBRANCH   1   7
BRANCH   4  10
ATOM     10  O   UNL     1     112.623 112.255 107.975  1.00  0.00    -0.504 OA
ATOM     11  H   UNL     1     113.367 111.757 107.499  1.00  0.00     0.293 HD
ENDBRANCH   4  10
BRANCH   5  12
ATOM     12  O   UNL     1     113.210 112.520 112.770  1.00  0.00    -0.504 OA
ATOM     13  H   UNL     1     113.732 111.901 113.380  1.00  0.00     0.293 HD
ENDBRANCH   5  12
BRANCH   6  14
ATOM     14  O   UNL     1     114.028 113.223 110.219  1.00  0.00    -0.502 OA
ATOM     15  H   UNL     1     113.998 114.209 110.447  1.00  0.00     0.293 HD
ENDBRANCH   6  14
TORSDOF 4
ENDMDL
MODEL 7
REMARK VINA RESULT:    -5.678      3.593      4.876
REMARK INTER + INTRA:          -6.554
REMARK INTER:                  -6.507
REMARK INTRA:                  -0.047
REMARK UNBOUND:                -0.047
REMARK SMILES O=C([O-])c1cc(O)c(O)c(O)c1
REMARK SMILES IDX 4 1 5 2 12 3 6 4 10 5 8 6 2 7 1 8 3 9 7 10 11 12 9 14
REMARK H PARENT 7 11 11 13 9 15
REMARK Flexibility Score: inf
ROOT
ATOM      1  C   UNL     1     109.831 111.809 116.808  1.00  0.00     0.005 A 
ATOM      2  C   UNL     1     109.912 112.757 115.773  1.00  0.00     0.060 A 
ATOM      3  C   UNL     1     109.382 110.510 116.509  1.00  0.00     0.060 A 
ATOM      4  C   UNL     1     109.550 112.415 114.462  1.00  0.00     0.162 A 
ATOM      5  C   UNL     1     109.018 110.164 115.201  1.00  0.00     0.162 A 
ATOM      6  C   UNL     1     109.102 111.115 114.175  1.00  0.00     0.200 A 
ENDROOT
BRANCH   1   7
ATOM      7  C   UNL     1     110.215 112.176 118.188  1.00  0.00     0.072 C 
ATOM      8  O   UNL     1     111.113 111.535 118.796  1.00  0.00    -0.545 OA
ATOM      9  O   UNL     1     109.589 113.235 118.836  1.00  0.00    -0.545 OA
ENDBRANCH   1   7
BRANCH   4  10
ATOM     10  O   UNL     1     109.634 113.363 113.444  1.00  0.00    -0.504 OA
ATOM     11  H   UNL     1     108.831 113.603 112.874  1.00  0.00     0.293 HD
ENDBRANCH   4  10
BRANCH   5  12
ATOM     12  O   UNL     1     108.573 108.876 114.911  1.00  0.00    -0.504 OA
ATOM     13  H   UNL     1     107.587 108.667 114.804  1.00  0.00     0.293 HD
ENDBRANCH   5  12
BRANCH   6  14
ATOM     14  O   UNL     1     108.736 110.752 112.879  1.00  0.00    -0.502 OA
ATOM     15  H   UNL     1     107.873 111.068 112.454  1.00  0.00     0.293 HD
ENDBRANCH   6  14
TORSDOF 4
ENDMDL
MODEL 8
REMARK VINA RESULT:    -5.629      2.177      3.272
REMARK INTER + INTRA:          -6.498
REMARK INTER:                  -6.446
REMARK INTRA:                  -0.052
REMARK UNBOUND:                -0.047
REMARK SMILES O=C([O-])c1cc(O)c(O)c(O)c1
REMARK SMILES IDX 4 1 5 2 12 3 6 4 10 5 8 6 2 7 1 8 3 9 7 10 11 12 9 14
REMARK H PARENT 7 11 11 13 9 15
REMARK Flexibility Score: inf
ROOT
ATOM      1  C   UNL     1     111.667 111.519 110.685  1.00  0.00     0.005 A 
ATOM      2  C   UNL     1     110.875 111.060 111.752  1.00  0.00     0.060 A 
ATOM      3  C   UNL     1     111.345 111.118 109.376  1.00  0.00     0.060 A 
ATOM      4  C   UNL     1     109.781 110.216 111.518  1.00  0.00     0.162 A 
ATOM      5  C   UNL     1     110.253 110.273 109.137  1.00  0.00     0.162 A 
ATOM      6  C   UNL     1     109.468 109.821 110.206  1.00  0.00     0.200 A 
ENDROOT
BRANCH   1   7
ATOM      7  C   UNL     1     112.820 112.410 110.940  1.00  0.00     0.072 C 
ATOM      8  O   UNL     1     113.328 112.487 112.089  1.00  0.00    -0.545 OA
ATOM      9  O   UNL     1     113.359 113.175 109.912  1.00  0.00    -0.545 OA
ENDBRANCH   1   7
BRANCH   4  10
ATOM     10  O   UNL     1     109.002 109.768 112.584  1.00  0.00    -0.504 OA
ATOM     11  H   UNL     1     108.442 108.926 112.515  1.00  0.00     0.293 HD
ENDBRANCH   4  10
BRANCH   5  12
ATOM     12  O   UNL     1     109.938 109.879 107.838  1.00  0.00    -0.504 OA
ATOM     13  H   UNL     1     109.459 110.501 107.197  1.00  0.00     0.293 HD
ENDBRANCH   5  12
BRANCH   6  14
ATOM     14  O   UNL     1     108.384 108.982 109.949  1.00  0.00    -0.502 OA
ATOM     15  H   UNL     1     107.763 109.129 109.162  1.00  0.00     0.293 HD
ENDBRANCH   6  14
TORSDOF 4
ENDMDL
MODEL 9
REMARK VINA RESULT:    -5.581      3.600      4.885
REMARK INTER + INTRA:          -6.444
REMARK INTER:                  -6.397
REMARK INTRA:                  -0.046
REMARK UNBOUND:                -0.047
REMARK SMILES O=C([O-])c1cc(O)c(O)c(O)c1
REMARK SMILES IDX 4 1 5 2 12 3 6 4 10 5 8 6 2 7 1 8 3 9 7 10 11 12 9 14
REMARK H PARENT 7 11 11 13 9 15
REMARK Flexibility Score: inf
ROOT
ATOM      1  C   UNL     1     109.796 111.788 107.041  1.00  0.00     0.005 A 
ATOM      2  C   UNL     1     109.836 112.715 105.985  1.00  0.00     0.060 A 
ATOM      3  C   UNL     1     109.401 110.465 106.772  1.00  0.00     0.060 A 
ATOM      4  C   UNL     1     109.487 112.331 104.683  1.00  0.00     0.162 A 
ATOM      5  C   UNL     1     109.050 110.076 105.472  1.00  0.00     0.162 A 
ATOM      6  C   UNL     1     109.093 111.007 104.425  1.00  0.00     0.200 A 
ENDROOT
BRANCH   1   7
ATOM      7  C   UNL     1     110.166 112.200 108.412  1.00  0.00     0.072 C 
ATOM      8  O   UNL     1     111.122 111.643 109.013  1.00  0.00    -0.545 OA
ATOM      9  O   UNL     1     109.462 113.210 109.058  1.00  0.00    -0.545 OA
ENDBRANCH   1   7
BRANCH   4  10
ATOM     10  O   UNL     1     109.530 113.259 103.645  1.00  0.00    -0.504 OA
ATOM     11  H   UNL     1     110.125 113.123 102.835  1.00  0.00     0.293 HD
ENDBRANCH   4  10
BRANCH   5  12
ATOM     12  O   UNL     1     108.659 108.765 105.211  1.00  0.00    -0.504 OA
ATOM     13  H   UNL     1     109.220 107.975 105.508  1.00  0.00     0.293 HD
ENDBRANCH   5  12
BRANCH   6  14
ATOM     14  O   UNL     1     108.741 110.601 103.138  1.00  0.00    -0.502 OA
ATOM     15  H   UNL     1     108.206 111.192 102.514  1.00  0.00     0.293 HD
ENDBRANCH   6  14
TORSDOF 4
ENDMDL
