MODEL 1
REMARK VINA RESULT:    -3.962      0.000      0.000
REMARK INTER + INTRA:          -4.633
REMARK INTER:                  -4.541
REMARK INTRA:                  -0.092
REMARK UNBOUND:                -0.092
REMARK SMILES C=Cc1ccc(O)c(OC)c1
REMARK SMILES IDX 8 1 6 2 5 3 4 4 3 5 11 6 9 7 10 8 7 9 2 11 1 12
REMARK H PARENT 7 10
REMARK Flexibility Score: inf
ROOT
ATOM      1  C   UNL     1     168.089 165.068 168.019  1.00  0.00     0.161 A 
ATOM      2  C   UNL     1     166.776 165.537 168.161  1.00  0.00     0.157 A 
ATOM      3  C   UNL     1     166.526 166.913 168.228  1.00  0.00     0.051 A 
ATOM      4  C   UNL     1     167.578 167.827 168.151  1.00  0.00     0.012 A 
ATOM      5  C   UNL     1     168.902 167.378 167.997  1.00  0.00    -0.022 A 
ATOM      6  C   UNL     1     169.149 165.994 167.943  1.00  0.00     0.058 A 
ENDROOT
BRANCH   1   7
ATOM      7  O   UNL     1     168.301 163.682 167.959  1.00  0.00    -0.493 OA
ATOM      8  C   UNL     1     168.886 162.909 169.002  1.00  0.00     0.278 C 
ENDBRANCH   1   7
BRANCH   2   9
ATOM      9  O   UNL     1     165.724 164.626 168.236  1.00  0.00    -0.504 OA
ATOM     10  H   UNL     1     164.912 164.703 167.635  1.00  0.00     0.293 HD
ENDBRANCH   2   9
BRANCH   5  11
ATOM     11  C   UNL     1     170.058 168.306 167.919  1.00  0.00     0.000 C 
ATOM     12  C   UNL     1     171.312 167.971 168.230  1.00  0.00     0.009 C 
ENDBRANCH   5  11
TORSDOF 3
ENDMDL
MODEL 2
REMARK VINA RESULT:    -3.858      3.757      5.889
REMARK INTER + INTRA:          -4.515
REMARK INTER:                  -4.432
REMARK INTRA:                  -0.083
REMARK UNBOUND:                -0.092
REMARK SMILES C=Cc1ccc(O)c(OC)c1
REMARK SMILES IDX 8 1 6 2 5 3 4 4 3 5 11 6 9 7 10 8 7 9 2 11 1 12
REMARK H PARENT 7 10
REMARK Flexibility Score: inf
ROOT
ATOM      1  C   UNL     1     166.977 170.325 168.567  1.00  0.00     0.161 A 
ATOM      2  C   UNL     1     168.238 169.783 168.281  1.00  0.00     0.157 A 
ATOM      3  C   UNL     1     168.377 168.406 168.067  1.00  0.00     0.051 A 
ATOM      4  C   UNL     1     167.265 167.565 168.132  1.00  0.00     0.012 A 
ATOM      5  C   UNL     1     165.989 168.091 168.407  1.00  0.00    -0.022 A 
ATOM      6  C   UNL     1     165.857 169.472 168.633  1.00  0.00     0.058 A 
ENDROOT
BRANCH   1   7
ATOM      7  O   UNL     1     166.878 171.709 168.780  1.00  0.00    -0.493 OA
ATOM      8  C   UNL     1     166.044 172.317 169.760  1.00  0.00     0.278 C 
ENDBRANCH   1   7
BRANCH   2   9
ATOM      9  O   UNL     1     169.349 170.621 168.213  1.00  0.00    -0.504 OA
ATOM     10  H   UNL     1     170.218 170.387 168.679  1.00  0.00     0.293 HD
ENDBRANCH   2   9
BRANCH   5  11
ATOM     11  C   UNL     1     164.775 167.240 168.497  1.00  0.00     0.000 C 
ATOM     12  C   UNL     1     164.453 166.504 169.561  1.00  0.00     0.009 C 
ENDBRANCH   5  11
TORSDOF 3
ENDMDL
MODEL 3
REMARK VINA RESULT:    -3.852      2.179      3.119
REMARK INTER + INTRA:          -4.507
REMARK INTER:                  -4.430
REMARK INTRA:                  -0.078
REMARK UNBOUND:                -0.092
REMARK SMILES C=Cc1ccc(O)c(OC)c1
REMARK SMILES IDX 8 1 6 2 5 3 4 4 3 5 11 6 9 7 10 8 7 9 2 11 1 12
REMARK H PARENT 7 10
REMARK Flexibility Score: inf
ROOT
ATOM      1  C   UNL     1     166.816 167.971 168.670  1.00  0.00     0.161 A 
ATOM      2  C   UNL     1     166.330 169.206 168.223  1.00  0.00     0.157 A 
ATOM      3  C   UNL     1     167.197 170.297 168.094  1.00  0.00     0.051 A 
ATOM      4  C   UNL     1     168.551 170.164 168.406  1.00  0.00     0.012 A 
ATOM      5  C   UNL     1     169.063 168.929 168.845  1.00  0.00    -0.022 A 
ATOM      6  C   UNL     1     168.184 167.840 168.984  1.00  0.00     0.058 A 
ENDROOT
BRANCH   1   7
ATOM      7  O   UNL     1     165.915 166.901 168.790  1.00  0.00    -0.493 OA
ATOM      8  C   UNL     1     166.240 165.540 168.530  1.00  0.00     0.278 C 
ENDBRANCH   1   7
BRANCH   2   9
ATOM      9  O   UNL     1     164.978 169.342 167.910  1.00  0.00    -0.504 OA
ATOM     10  H   UNL     1     164.620 169.101 166.993  1.00  0.00     0.293 HD
ENDBRANCH   2   9
BRANCH   5  11
ATOM     11  C   UNL     1     170.492 168.734 169.198  1.00  0.00     0.000 C 
ATOM     12  C   UNL     1     171.394 168.175 168.391  1.00  0.00     0.009 C 
ENDBRANCH   5  11
TORSDOF 3
ENDMDL
MODEL 4
REMARK VINA RESULT:    -3.825      2.223      4.476
REMARK INTER + INTRA:          -4.476
REMARK INTER:                  -4.405
REMARK INTRA:                  -0.071
REMARK UNBOUND:                -0.092
REMARK SMILES C=Cc1ccc(O)c(OC)c1
REMARK SMILES IDX 8 1 6 2 5 3 4 4 3 5 11 6 9 7 10 8 7 9 2 11 1 12
REMARK H PARENT 7 10
REMARK Flexibility Score: inf
ROOT
ATOM      1  C   UNL     1     168.685 167.336 168.378  1.00  0.00     0.161 A 
ATOM      2  C   UNL     1     169.276 166.080 168.182  1.00  0.00     0.157 A 
ATOM      3  C   UNL     1     168.501 164.917 168.277  1.00  0.00     0.051 A 
ATOM      4  C   UNL     1     167.137 164.999 168.563  1.00  0.00     0.012 A 
ATOM      5  C   UNL     1     166.522 166.250 168.751  1.00  0.00    -0.022 A 
ATOM      6  C   UNL     1     167.308 167.413 168.667  1.00  0.00     0.058 A 
ENDROOT
BRANCH   1   7
ATOM      7  O   UNL     1     169.495 168.478 168.279  1.00  0.00    -0.493 OA
ATOM      8  C   UNL     1     169.044 169.809 168.507  1.00  0.00     0.278 C 
ENDBRANCH   1   7
BRANCH   2   9
ATOM      9  O   UNL     1     170.637 165.996 167.895  1.00  0.00    -0.504 OA
ATOM     10  H   UNL     1     171.337 166.053 168.626  1.00  0.00     0.293 HD
ENDBRANCH   2   9
BRANCH   5  11
ATOM     11  C   UNL     1     165.078 166.393 169.066  1.00  0.00     0.000 C 
ATOM     12  C   UNL     1     164.263 167.264 168.469  1.00  0.00     0.009 C 
ENDBRANCH   5  11
TORSDOF 3
ENDMDL
MODEL 5
REMARK VINA RESULT:    -3.821      1.301      2.961
REMARK INTER + INTRA:          -4.472
REMARK INTER:                  -4.398
REMARK INTRA:                  -0.074
REMARK UNBOUND:                -0.092
REMARK SMILES C=Cc1ccc(O)c(OC)c1
REMARK SMILES IDX 8 1 6 2 5 3 4 4 3 5 11 6 9 7 10 8 7 9 2 11 1 12
REMARK H PARENT 7 10
REMARK Flexibility Score: inf
ROOT
ATOM      1  C   UNL     1     166.990 166.838 168.178  1.00  0.00     0.161 A 
ATOM      2  C   UNL     1     167.078 165.444 168.296  1.00  0.00     0.157 A 
ATOM      3  C   UNL     1     168.318 164.836 168.527  1.00  0.00     0.051 A 
ATOM      4  C   UNL     1     169.473 165.610 168.645  1.00  0.00     0.012 A 
ATOM      5  C   UNL     1     169.405 167.012 168.541  1.00  0.00    -0.022 A 
ATOM      6  C   UNL     1     168.159 167.616 168.297  1.00  0.00     0.058 A 
ENDROOT
BRANCH   1   7
ATOM      7  O   UNL     1     165.730 167.410 167.943  1.00  0.00    -0.493 OA
ATOM      8  C   UNL     1     165.357 168.727 168.332  1.00  0.00     0.278 C 
ENDBRANCH   1   7
BRANCH   2   9
ATOM      9  O   UNL     1     165.926 164.669 168.180  1.00  0.00    -0.504 OA
ATOM     10  H   UNL     1     165.227 164.860 167.471  1.00  0.00     0.293 HD
ENDBRANCH   2   9
BRANCH   5  11
ATOM     11  C   UNL     1     170.604 167.882 168.650  1.00  0.00     0.000 C 
ATOM     12  C   UNL     1     170.828 168.727 169.657  1.00  0.00     0.009 C 
ENDBRANCH   5  11
TORSDOF 3
ENDMDL
MODEL 6
REMARK VINA RESULT:    -3.817      1.779      2.601
REMARK INTER + INTRA:          -4.467
REMARK INTER:                  -4.365
REMARK INTRA:                  -0.101
REMARK UNBOUND:                -0.092
REMARK SMILES C=Cc1ccc(O)c(OC)c1
REMARK SMILES IDX 8 1 6 2 5 3 4 4 3 5 11 6 9 7 10 8 7 9 2 11 1 12
REMARK H PARENT 7 10
REMARK Flexibility Score: inf
ROOT
ATOM      1  C   UNL     1     167.489 166.548 168.143  1.00  0.00     0.161 A 
ATOM      2  C   UNL     1     166.137 166.178 168.161  1.00  0.00     0.157 A 
ATOM      3  C   UNL     1     165.142 167.161 168.209  1.00  0.00     0.051 A 
ATOM      4  C   UNL     1     165.485 168.514 168.236  1.00  0.00     0.012 A 
ATOM      5  C   UNL     1     166.836 168.907 168.207  1.00  0.00    -0.022 A 
ATOM      6  C   UNL     1     167.832 167.914 168.171  1.00  0.00     0.058 A 
ENDROOT
BRANCH   1   7
ATOM      7  O   UNL     1     168.458 165.534 168.099  1.00  0.00    -0.493 OA
ATOM      8  C   UNL     1     169.144 165.022 169.237  1.00  0.00     0.278 C 
ENDBRANCH   1   7
BRANCH   2   9
ATOM      9  O   UNL     1     165.792 164.828 168.132  1.00  0.00    -0.504 OA
ATOM     10  H   UNL     1     166.122 164.182 168.840  1.00  0.00     0.293 HD
ENDBRANCH   2   9
BRANCH   5  11
ATOM     11  C   UNL     1     167.257 170.330 168.243  1.00  0.00     0.000 C 
ATOM     12  C   UNL     1     166.784 171.230 169.107  1.00  0.00     0.009 C 
ENDBRANCH   5  11
TORSDOF 3
ENDMDL
MODEL 7
REMARK VINA RESULT:    -3.815      3.018      4.545
REMARK INTER + INTRA:          -4.465
REMARK INTER:                  -4.389
REMARK INTRA:                  -0.076
REMARK UNBOUND:                -0.092
REMARK SMILES C=Cc1ccc(O)c(OC)c1
REMARK SMILES IDX 8 1 6 2 5 3 4 4 3 5 11 6 9 7 10 8 7 9 2 11 1 12
REMARK H PARENT 7 10
REMARK Flexibility Score: inf
ROOT
ATOM      1  C   UNL     1     168.498 168.407 168.150  1.00  0.00     0.161 A 
ATOM      2  C   UNL     1     168.357 169.796 168.267  1.00  0.00     0.157 A 
ATOM      3  C   UNL     1     167.101 170.353 168.536  1.00  0.00     0.051 A 
ATOM      4  C   UNL     1     165.983 169.532 168.695  1.00  0.00     0.012 A 
ATOM      5  C   UNL     1     166.106 168.134 168.593  1.00  0.00    -0.022 A 
ATOM      6  C   UNL     1     167.367 167.581 168.310  1.00  0.00     0.058 A 
ENDROOT
BRANCH   1   7
ATOM      7  O   UNL     1     169.772 167.886 167.875  1.00  0.00    -0.493 OA
ATOM      8  C   UNL     1     170.200 166.573 168.224  1.00  0.00     0.278 C 
ENDBRANCH   1   7
BRANCH   2   9
ATOM      9  O   UNL     1     169.472 170.617 168.111  1.00  0.00    -0.504 OA
ATOM     10  H   UNL     1     170.182 170.690 168.830  1.00  0.00     0.293 HD
ENDBRANCH   2   9
BRANCH   5  11
ATOM     11  C   UNL     1     164.948 167.216 168.743  1.00  0.00     0.000 C 
ATOM     12  C   UNL     1     164.641 166.576 169.873  1.00  0.00     0.009 C 
ENDBRANCH   5  11
TORSDOF 3
ENDMDL
MODEL 8
REMARK VINA RESULT:    -3.812      2.674      4.501
REMARK INTER + INTRA:          -4.461
REMARK INTER:                  -4.375
REMARK INTRA:                  -0.086
REMARK UNBOUND:                -0.092
REMARK SMILES C=Cc1ccc(O)c(OC)c1
REMARK SMILES IDX 8 1 6 2 5 3 4 4 3 5 11 6 9 7 10 8 7 9 2 11 1 12
REMARK H PARENT 7 10
REMARK Flexibility Score: inf
ROOT
ATOM      1  C   UNL     1     167.817 168.399 168.206  1.00  0.00     0.161 A 
ATOM      2  C   UNL     1     169.119 168.890 168.045  1.00  0.00     0.157 A 
ATOM      3  C   UNL     1     170.208 168.009 168.059  1.00  0.00     0.051 A 
ATOM      4  C   UNL     1     170.005 166.638 168.227  1.00  0.00     0.012 A 
ATOM      5  C   UNL     1     168.704 166.123 168.378  1.00  0.00    -0.022 A 
ATOM      6  C   UNL     1     167.617 167.014 168.376  1.00  0.00     0.058 A 
ENDROOT
BRANCH   1   7
ATOM      7  O   UNL     1     166.752 169.313 168.191  1.00  0.00    -0.493 OA
ATOM      8  C   UNL     1     165.376 168.951 168.254  1.00  0.00     0.278 C 
ENDBRANCH   1   7
BRANCH   2   9
ATOM      9  O   UNL     1     169.324 170.258 167.875  1.00  0.00    -0.504 OA
ATOM     10  H   UNL     1     168.619 170.850 167.452  1.00  0.00     0.293 HD
ENDBRANCH   2   9
BRANCH   5  11
ATOM     11  C   UNL     1     168.434 164.676 168.570  1.00  0.00     0.000 C 
ATOM     12  C   UNL     1     169.119 163.888 169.400  1.00  0.00     0.009 C 
ENDBRANCH   5  11
TORSDOF 3
ENDMDL
MODEL 9
REMARK VINA RESULT:    -3.766      2.320      3.924
REMARK INTER + INTRA:          -4.409
REMARK INTER:                  -4.326
REMARK INTRA:                  -0.083
REMARK UNBOUND:                -0.092
REMARK SMILES C=Cc1ccc(O)c(OC)c1
REMARK SMILES IDX 8 1 6 2 5 3 4 4 3 5 11 6 9 7 10 8 7 9 2 11 1 12
REMARK H PARENT 7 10
REMARK Flexibility Score: inf
ROOT
ATOM      1  C   UNL     1     165.340 167.170 168.479  1.00  0.00     0.161 A 
ATOM      2  C   UNL     1     165.760 168.485 168.237  1.00  0.00     0.157 A 
ATOM      3  C   UNL     1     167.121 168.767 168.066  1.00  0.00     0.051 A 
ATOM      4  C   UNL     1     168.068 167.743 168.131  1.00  0.00     0.012 A 
ATOM      5  C   UNL     1     167.666 166.414 168.361  1.00  0.00    -0.022 A 
ATOM      6  C   UNL     1     166.299 166.139 168.544  1.00  0.00     0.058 A 
ENDROOT
BRANCH   1   7
ATOM      7  O   UNL     1     163.968 166.928 168.648  1.00  0.00    -0.493 OA
ATOM      8  C   UNL     1     163.405 166.208 169.740  1.00  0.00     0.278 C 
ENDBRANCH   1   7
BRANCH   2   9
ATOM      9  O   UNL     1     164.817 169.508 168.170  1.00  0.00    -0.504 OA
ATOM     10  H   UNL     1     163.854 169.361 168.451  1.00  0.00     0.293 HD
ENDBRANCH   2   9
BRANCH   5  11
ATOM     11  C   UNL     1     168.632 165.289 168.448  1.00  0.00     0.000 C 
ATOM     12  C   UNL     1     168.283 164.002 168.476  1.00  0.00     0.009 C 
ENDBRANCH   5  11
TORSDOF 3
ENDMDL
