MODEL 1
REMARK VINA RESULT:    -5.019      0.000      0.000
REMARK INTER + INTRA:          -6.202
REMARK INTER:                  -6.045
REMARK INTRA:                  -0.157
REMARK UNBOUND:                -0.157
REMARK SMILES O=c1c(O)c(-c2ccc(O)c(O)c2)oc2cc(O)cc(O)c12
REMARK SMILES IDX 5 1 3 2 2 3 1 4 22 5 20 6 19 7 17 8 16 9 15 10 14 11 6 12
REMARK SMILES IDX 7 13 8 14 9 15 13 16 11 17 10 18 12 20 4 22 21 24 18 26
REMARK H PARENT 10 19 12 21 4 23 21 25 18 27
REMARK Flexibility Score: inf
ROOT
ATOM      1  C   UNL     1       5.570  15.767  52.579  1.00  0.00     0.180 A 
ATOM      2  C   UNL     1       4.917  16.000  51.353  1.00  0.00     0.208 A 
ATOM      3  C   UNL     1       5.348  17.066  50.547  1.00  0.00     0.238 A 
ATOM      4  O   UNL     1       4.763  17.291  49.452  1.00  0.00    -0.285 OA
ATOM      5  C   UNL     1       6.431  17.864  50.968  1.00  0.00     0.111 A 
ATOM      6  C   UNL     1       6.928  18.954  50.213  1.00  0.00     0.134 A 
ATOM      7  C   UNL     1       8.018  19.695  50.696  1.00  0.00     0.093 A 
ATOM      8  C   UNL     1       8.617  19.368  51.914  1.00  0.00     0.123 A 
ATOM      9  C   UNL     1       8.130  18.294  52.664  1.00  0.00     0.094 A 
ATOM     10  C   UNL     1       7.045  17.544  52.201  1.00  0.00     0.146 A 
ATOM     11  O   UNL     1       6.598  16.531  52.936  1.00  0.00    -0.452 OA
ENDROOT
BRANCH   1  12
ATOM     12  C   UNL     1       5.163  14.674  53.492  1.00  0.00     0.025 A 
ATOM     13  C   UNL     1       4.608  14.990  54.741  1.00  0.00     0.016 A 
ATOM     14  C   UNL     1       4.196  13.976  55.610  1.00  0.00     0.051 A 
ATOM     15  C   UNL     1       4.319  12.632  55.236  1.00  0.00     0.157 A 
ATOM     16  C   UNL     1       5.266  13.324  53.111  1.00  0.00     0.062 A 
ATOM     17  C   UNL     1       4.853  12.306  53.977  1.00  0.00     0.158 A 
BRANCH  15  18
ATOM     18  O   UNL     1       3.911  11.621  56.105  1.00  0.00    -0.504 OA
ATOM     19  H   UNL     1       4.542  11.224  56.791  1.00  0.00     0.293 HD
ENDBRANCH  15  18
BRANCH  17  20
ATOM     20  O   UNL     1       4.976  10.978  53.569  1.00  0.00    -0.504 OA
ATOM     21  H   UNL     1       5.798  10.638  53.084  1.00  0.00     0.293 HD
ENDBRANCH  17  20
ENDBRANCH   1  12
BRANCH   2  22
ATOM     22  O   UNL     1       3.878  15.163  50.936  1.00  0.00    -0.502 OA
ATOM     23  H   UNL     1       3.742  14.236  51.319  1.00  0.00     0.293 HD
ENDBRANCH   2  22
BRANCH   6  24
ATOM     24  O   UNL     1       6.351  19.305  48.991  1.00  0.00    -0.507 OA
ATOM     25  H   UNL     1       5.900  20.202  48.854  1.00  0.00     0.293 HD
ENDBRANCH   6  24
BRANCH   8  26
ATOM     26  O   UNL     1       9.698  20.120  52.371  1.00  0.00    -0.508 OA
ATOM     27  H   UNL     1      10.649  19.777  52.303  1.00  0.00     0.293 HD
ENDBRANCH   8  26
TORSDOF 6
ENDMDL
MODEL 2
REMARK VINA RESULT:    -4.568      1.934      2.671
REMARK INTER + INTRA:          -5.659
REMARK INTER:                  -5.878
REMARK INTRA:                   0.219
REMARK UNBOUND:                -0.157
REMARK SMILES O=c1c(O)c(-c2ccc(O)c(O)c2)oc2cc(O)cc(O)c12
REMARK SMILES IDX 5 1 3 2 2 3 1 4 22 5 20 6 19 7 17 8 16 9 15 10 14 11 6 12
REMARK SMILES IDX 7 13 8 14 9 15 13 16 11 17 10 18 12 20 4 22 21 24 18 26
REMARK H PARENT 10 19 12 21 4 23 21 25 18 27
REMARK Flexibility Score: inf
ROOT
ATOM      1  C   UNL     1       5.346  15.106  53.929  1.00  0.00     0.180 A 
ATOM      2  C   UNL     1       4.813  16.198  54.641  1.00  0.00     0.208 A 
ATOM      3  C   UNL     1       5.217  17.497  54.291  1.00  0.00     0.238 A 
ATOM      4  O   UNL     1       4.755  18.482  54.928  1.00  0.00    -0.285 OA
ATOM      5  C   UNL     1       6.126  17.682  53.230  1.00  0.00     0.111 A 
ATOM      6  C   UNL     1       6.580  18.957  52.813  1.00  0.00     0.134 A 
ATOM      7  C   UNL     1       7.479  19.058  51.740  1.00  0.00     0.093 A 
ATOM      8  C   UNL     1       7.930  17.915  51.079  1.00  0.00     0.123 A 
ATOM      9  C   UNL     1       7.486  16.653  51.486  1.00  0.00     0.094 A 
ATOM     10  C   UNL     1       6.592  16.531  52.554  1.00  0.00     0.146 A 
ATOM     11  O   UNL     1       6.190  15.319  52.924  1.00  0.00    -0.452 OA
ENDROOT
BRANCH   1  12
ATOM     12  C   UNL     1       4.984  13.706  54.250  1.00  0.00     0.025 A 
ATOM     13  C   UNL     1       4.770  13.338  55.587  1.00  0.00     0.016 A 
ATOM     14  C   UNL     1       4.407  12.028  55.911  1.00  0.00     0.051 A 
ATOM     15  C   UNL     1       4.236  11.072  54.902  1.00  0.00     0.157 A 
ATOM     16  C   UNL     1       4.792  12.749  53.238  1.00  0.00     0.062 A 
ATOM     17  C   UNL     1       4.425  11.437  53.558  1.00  0.00     0.158 A 
BRANCH  15  18
ATOM     18  O   UNL     1       3.875   9.765  55.227  1.00  0.00    -0.504 OA
ATOM     19  H   UNL     1       2.958   9.396  55.001  1.00  0.00     0.293 HD
ENDBRANCH  15  18
BRANCH  17  20
ATOM     20  O   UNL     1       4.249  10.512  52.529  1.00  0.00    -0.504 OA
ATOM     21  H   UNL     1       4.001   9.547  52.710  1.00  0.00     0.293 HD
ENDBRANCH  17  20
ENDBRANCH   1  12
BRANCH   2  22
ATOM     22  O   UNL     1       3.876  15.991  55.656  1.00  0.00    -0.502 OA
ATOM     23  H   UNL     1       4.117  15.551  56.536  1.00  0.00     0.293 HD
ENDBRANCH   2  22
BRANCH   6  24
ATOM     24  O   UNL     1       6.146  20.119  53.453  1.00  0.00    -0.507 OA
ATOM     25  H   UNL     1       6.782  20.879  53.665  1.00  0.00     0.293 HD
ENDBRANCH   6  24
BRANCH   8  26
ATOM     26  O   UNL     1       8.822  18.043  50.016  1.00  0.00    -0.508 OA
ATOM     27  H   UNL     1       8.726  17.491  49.172  1.00  0.00     0.293 HD
ENDBRANCH   8  26
TORSDOF 6
ENDMDL
MODEL 3
REMARK VINA RESULT:    -4.293      3.438      6.900
REMARK INTER + INTRA:          -5.328
REMARK INTER:                  -5.069
REMARK INTRA:                  -0.260
REMARK UNBOUND:                -0.157
REMARK SMILES O=c1c(O)c(-c2ccc(O)c(O)c2)oc2cc(O)cc(O)c12
REMARK SMILES IDX 5 1 3 2 2 3 1 4 22 5 20 6 19 7 17 8 16 9 15 10 14 11 6 12
REMARK SMILES IDX 7 13 8 14 9 15 13 16 11 17 10 18 12 20 4 22 21 24 18 26
REMARK H PARENT 10 19 12 21 4 23 21 25 18 27
REMARK Flexibility Score: inf
ROOT
ATOM      1  C   UNL     1       4.649  15.647  55.414  1.00  0.00     0.180 A 
ATOM      2  C   UNL     1       4.522  15.757  54.016  1.00  0.00     0.208 A 
ATOM      3  C   UNL     1       4.311  14.591  53.261  1.00  0.00     0.238 A 
ATOM      4  O   UNL     1       4.206  14.675  52.007  1.00  0.00    -0.285 OA
ATOM      5  C   UNL     1       4.212  13.346  53.915  1.00  0.00     0.111 A 
ATOM      6  C   UNL     1       3.997  12.127  53.229  1.00  0.00     0.134 A 
ATOM      7  C   UNL     1       3.901  10.929  53.953  1.00  0.00     0.093 A 
ATOM      8  C   UNL     1       4.014  10.926  55.344  1.00  0.00     0.123 A 
ATOM      9  C   UNL     1       4.227  12.127  56.028  1.00  0.00     0.094 A 
ATOM     10  C   UNL     1       4.327  13.331  55.324  1.00  0.00     0.146 A 
ATOM     11  O   UNL     1       4.535  14.458  55.998  1.00  0.00    -0.452 OA
ENDROOT
BRANCH   1  12
ATOM     12  C   UNL     1       4.891  16.827  56.277  1.00  0.00     0.025 A 
ATOM     13  C   UNL     1       3.876  17.272  57.137  1.00  0.00     0.016 A 
ATOM     14  C   UNL     1       4.089  18.370  57.975  1.00  0.00     0.051 A 
ATOM     15  C   UNL     1       5.325  19.029  57.976  1.00  0.00     0.157 A 
ATOM     16  C   UNL     1       6.137  17.478  56.295  1.00  0.00     0.062 A 
ATOM     17  C   UNL     1       6.355  18.576  57.134  1.00  0.00     0.158 A 
BRANCH  15  18
ATOM     18  O   UNL     1       5.535  20.125  58.811  1.00  0.00    -0.504 OA
ATOM     19  H   UNL     1       5.173  21.044  58.581  1.00  0.00     0.293 HD
ENDBRANCH  15  18
BRANCH  17  20
ATOM     20  O   UNL     1       7.602  19.201  57.122  1.00  0.00    -0.504 OA
ATOM     21  H   UNL     1       7.919  19.785  57.887  1.00  0.00     0.293 HD
ENDBRANCH  17  20
ENDBRANCH   1  12
BRANCH   2  22
ATOM     22  O   UNL     1       4.573  17.008  53.398  1.00  0.00    -0.502 OA
ATOM     23  H   UNL     1       4.773  17.118  52.410  1.00  0.00     0.293 HD
ENDBRANCH   2  22
BRANCH   6  24
ATOM     24  O   UNL     1       3.879  12.095  51.838  1.00  0.00    -0.507 OA
ATOM     25  H   UNL     1       3.585  11.259  51.347  1.00  0.00     0.293 HD
ENDBRANCH   6  24
BRANCH   8  26
ATOM     26  O   UNL     1       3.913   9.723  56.040  1.00  0.00    -0.508 OA
ATOM     27  H   UNL     1       4.728   9.271  56.438  1.00  0.00     0.293 HD
ENDBRANCH   8  26
TORSDOF 6
ENDMDL
MODEL 4
REMARK VINA RESULT:    -3.845      2.077      3.284
REMARK INTER + INTRA:          -4.789
REMARK INTER:                  -5.190
REMARK INTRA:                   0.402
REMARK UNBOUND:                -0.157
REMARK SMILES O=c1c(O)c(-c2ccc(O)c(O)c2)oc2cc(O)cc(O)c12
REMARK SMILES IDX 5 1 3 2 2 3 1 4 22 5 20 6 19 7 17 8 16 9 15 10 14 11 6 12
REMARK SMILES IDX 7 13 8 14 9 15 13 16 11 17 10 18 12 20 4 22 21 24 18 26
REMARK H PARENT 10 19 12 21 4 23 21 25 18 27
REMARK Flexibility Score: inf
ROOT
ATOM      1  C   UNL     1       4.648  15.277  53.428  1.00  0.00     0.180 A 
ATOM      2  C   UNL     1       5.120  16.376  54.173  1.00  0.00     0.208 A 
ATOM      3  C   UNL     1       5.278  17.614  53.530  1.00  0.00     0.238 A 
ATOM      4  O   UNL     1       5.709  18.602  54.184  1.00  0.00    -0.285 OA
ATOM      5  C   UNL     1       4.946  17.738  52.166  1.00  0.00     0.111 A 
ATOM      6  C   UNL     1       5.072  18.950  51.445  1.00  0.00     0.134 A 
ATOM      7  C   UNL     1       4.711  18.994  50.090  1.00  0.00     0.093 A 
ATOM      8  C   UNL     1       4.227  17.855  49.444  1.00  0.00     0.123 A 
ATOM      9  C   UNL     1       4.101  16.655  50.150  1.00  0.00     0.094 A 
ATOM     10  C   UNL     1       4.456  16.590  51.500  1.00  0.00     0.146 A 
ATOM     11  O   UNL     1       4.331  15.435  52.146  1.00  0.00    -0.452 OA
ENDROOT
BRANCH   1  12
ATOM     12  C   UNL     1       4.472  13.936  54.030  1.00  0.00     0.025 A 
ATOM     13  C   UNL     1       4.283  13.821  55.415  1.00  0.00     0.016 A 
ATOM     14  C   UNL     1       4.094  12.567  56.003  1.00  0.00     0.051 A 
ATOM     15  C   UNL     1       4.075  11.411  55.211  1.00  0.00     0.157 A 
ATOM     16  C   UNL     1       4.432  12.776  53.235  1.00  0.00     0.062 A 
ATOM     17  C   UNL     1       4.240  11.519  53.820  1.00  0.00     0.158 A 
BRANCH  15  18
ATOM     18  O   UNL     1       3.888  10.161  55.798  1.00  0.00    -0.504 OA
ATOM     19  H   UNL     1       3.664  10.066  56.783  1.00  0.00     0.293 HD
ENDBRANCH  15  18
BRANCH  17  20
ATOM     20  O   UNL     1       4.212  10.389  53.001  1.00  0.00    -0.504 OA
ATOM     21  H   UNL     1       4.612  10.389  52.071  1.00  0.00     0.293 HD
ENDBRANCH  17  20
ENDBRANCH   1  12
BRANCH   2  22
ATOM     22  O   UNL     1       5.394  16.239  55.536  1.00  0.00    -0.502 OA
ATOM     23  H   UNL     1       5.971  16.900  56.043  1.00  0.00     0.293 HD
ENDBRANCH   2  22
BRANCH   6  24
ATOM     24  O   UNL     1       5.552  20.106  52.062  1.00  0.00    -0.507 OA
ATOM     25  H   UNL     1       5.629  20.984  51.563  1.00  0.00     0.293 HD
ENDBRANCH   6  24
BRANCH   8  26
ATOM     26  O   UNL     1       3.875  17.926  48.098  1.00  0.00    -0.508 OA
ATOM     27  H   UNL     1       2.921  17.781  47.790  1.00  0.00     0.293 HD
ENDBRANCH   8  26
TORSDOF 6
ENDMDL
MODEL 5
REMARK VINA RESULT:    -3.720      1.500      7.137
REMARK INTER + INTRA:          -4.638
REMARK INTER:                  -4.341
REMARK INTRA:                  -0.296
REMARK UNBOUND:                -0.157
REMARK SMILES O=c1c(O)c(-c2ccc(O)c(O)c2)oc2cc(O)cc(O)c12
REMARK SMILES IDX 5 1 3 2 2 3 1 4 22 5 20 6 19 7 17 8 16 9 15 10 14 11 6 12
REMARK SMILES IDX 7 13 8 14 9 15 13 16 11 17 10 18 12 20 4 22 21 24 18 26
REMARK H PARENT 10 19 12 21 4 23 21 25 18 27
REMARK Flexibility Score: inf
ROOT
ATOM      1  C   UNL     1       6.404  16.657  53.067  1.00  0.00     0.180 A 
ATOM      2  C   UNL     1       5.893  17.093  54.304  1.00  0.00     0.208 A 
ATOM      3  C   UNL     1       5.227  16.170  55.126  1.00  0.00     0.238 A 
ATOM      4  O   UNL     1       4.755  16.551  56.231  1.00  0.00    -0.285 OA
ATOM      5  C   UNL     1       5.100  14.830  54.708  1.00  0.00     0.111 A 
ATOM      6  C   UNL     1       4.448  13.837  55.478  1.00  0.00     0.134 A 
ATOM      7  C   UNL     1       4.372  12.521  54.996  1.00  0.00     0.093 A 
ATOM      8  C   UNL     1       4.935  12.180  53.765  1.00  0.00     0.123 A 
ATOM      9  C   UNL     1       5.581  13.156  53.000  1.00  0.00     0.094 A 
ATOM     10  C   UNL     1       5.665  14.473  53.462  1.00  0.00     0.146 A 
ATOM     11  O   UNL     1       6.280  15.381  52.712  1.00  0.00    -0.452 OA
ENDROOT
BRANCH   1  12
ATOM     12  C   UNL     1       7.103  17.574  52.137  1.00  0.00     0.025 A 
ATOM     13  C   UNL     1       8.455  17.879  52.354  1.00  0.00     0.016 A 
ATOM     14  C   UNL     1       9.140  18.725  51.479  1.00  0.00     0.051 A 
ATOM     15  C   UNL     1       8.488  19.266  50.363  1.00  0.00     0.157 A 
ATOM     16  C   UNL     1       6.456  18.103  51.005  1.00  0.00     0.062 A 
ATOM     17  C   UNL     1       7.140  18.948  50.125  1.00  0.00     0.158 A 
BRANCH  15  18
ATOM     18  O   UNL     1       9.172  20.112  49.492  1.00  0.00    -0.504 OA
ATOM     19  H   UNL     1       9.218  19.923  48.497  1.00  0.00     0.293 HD
ENDBRANCH  15  18
BRANCH  17  20
ATOM     20  O   UNL     1       6.465  19.459  49.015  1.00  0.00    -0.504 OA
ATOM     21  H   UNL     1       6.686  20.367  48.622  1.00  0.00     0.293 HD
ENDBRANCH  17  20
ENDBRANCH   1  12
BRANCH   2  22
ATOM     22  O   UNL     1       6.075  18.415  54.717  1.00  0.00    -0.502 OA
ATOM     23  H   UNL     1       6.906  18.947  54.485  1.00  0.00     0.293 HD
ENDBRANCH   2  22
BRANCH   6  24
ATOM     24  O   UNL     1       3.875  14.146  56.713  1.00  0.00    -0.507 OA
ATOM     25  H   UNL     1       4.000  15.054  57.146  1.00  0.00     0.293 HD
ENDBRANCH   6  24
BRANCH   8  26
ATOM     26  O   UNL     1       4.847  10.866  53.310  1.00  0.00    -0.508 OA
ATOM     27  H   UNL     1       4.170  10.592  52.608  1.00  0.00     0.293 HD
ENDBRANCH   8  26
TORSDOF 6
ENDMDL
MODEL 6
REMARK VINA RESULT:    -3.715      3.729      5.461
REMARK INTER + INTRA:          -4.631
REMARK INTER:                  -4.299
REMARK INTRA:                  -0.332
REMARK UNBOUND:                -0.157
REMARK SMILES O=c1c(O)c(-c2ccc(O)c(O)c2)oc2cc(O)cc(O)c12
REMARK SMILES IDX 5 1 3 2 2 3 1 4 22 5 20 6 19 7 17 8 16 9 15 10 14 11 6 12
REMARK SMILES IDX 7 13 8 14 9 15 13 16 11 17 10 18 12 20 4 22 21 24 18 26
REMARK H PARENT 10 19 12 21 4 23 21 25 18 27
REMARK Flexibility Score: inf
ROOT
ATOM      1  C   UNL     1       6.263  18.712  54.708  1.00  0.00     0.180 A 
ATOM      2  C   UNL     1       7.495  19.287  54.338  1.00  0.00     0.208 A 
ATOM      3  C   UNL     1       8.007  19.028  53.056  1.00  0.00     0.238 A 
ATOM      4  O   UNL     1       9.114  19.529  52.718  1.00  0.00    -0.285 OA
ATOM      5  C   UNL     1       7.274  18.220  52.164  1.00  0.00     0.111 A 
ATOM      6  C   UNL     1       7.717  17.915  50.854  1.00  0.00     0.134 A 
ATOM      7  C   UNL     1       6.924  17.110  50.022  1.00  0.00     0.093 A 
ATOM      8  C   UNL     1       5.702  16.607  50.471  1.00  0.00     0.123 A 
ATOM      9  C   UNL     1       5.259  16.905  51.763  1.00  0.00     0.094 A 
ATOM     10  C   UNL     1       6.035  17.704  52.609  1.00  0.00     0.146 A 
ATOM     11  O   UNL     1       5.593  17.967  53.834  1.00  0.00    -0.452 OA
ENDROOT
BRANCH   1  12
ATOM     12  C   UNL     1       5.667  18.923  56.047  1.00  0.00     0.025 A 
ATOM     13  C   UNL     1       4.698  19.922  56.221  1.00  0.00     0.016 A 
ATOM     14  C   UNL     1       4.107  20.125  57.471  1.00  0.00     0.051 A 
ATOM     15  C   UNL     1       4.464  19.320  58.561  1.00  0.00     0.157 A 
ATOM     16  C   UNL     1       6.009  18.104  57.138  1.00  0.00     0.062 A 
ATOM     17  C   UNL     1       5.417  18.302  58.390  1.00  0.00     0.158 A 
BRANCH  15  18
ATOM     18  O   UNL     1       3.875  19.525  59.807  1.00  0.00    -0.504 OA
ATOM     19  H   UNL     1       2.880  19.695  59.902  1.00  0.00     0.293 HD
ENDBRANCH  15  18
BRANCH  17  20
ATOM     20  O   UNL     1       5.785  17.474  59.452  1.00  0.00    -0.504 OA
ATOM     21  H   UNL     1       6.480  17.752  60.135  1.00  0.00     0.293 HD
ENDBRANCH  17  20
ENDBRANCH   1  12
BRANCH   2  22
ATOM     22  O   UNL     1       8.177  20.125  55.224  1.00  0.00    -0.502 OA
ATOM     23  H   UNL     1       9.181  20.258  55.181  1.00  0.00     0.293 HD
ENDBRANCH   2  22
BRANCH   6  24
ATOM     24  O   UNL     1       8.934  18.402  50.375  1.00  0.00    -0.507 OA
ATOM     25  H   UNL     1       9.700  18.630  50.999  1.00  0.00     0.293 HD
ENDBRANCH   6  24
BRANCH   8  26
ATOM     26  O   UNL     1       4.934  15.811  49.624  1.00  0.00    -0.508 OA
ATOM     27  H   UNL     1       3.931  15.727  49.740  1.00  0.00     0.293 HD
ENDBRANCH   8  26
TORSDOF 6
ENDMDL
MODEL 7
REMARK VINA RESULT:    -3.572      3.759      4.664
REMARK INTER + INTRA:          -4.460
REMARK INTER:                  -4.167
REMARK INTRA:                  -0.293
REMARK UNBOUND:                -0.157
REMARK SMILES O=c1c(O)c(-c2ccc(O)c(O)c2)oc2cc(O)cc(O)c12
REMARK SMILES IDX 5 1 3 2 2 3 1 4 22 5 20 6 19 7 17 8 16 9 15 10 14 11 6 12
REMARK SMILES IDX 7 13 8 14 9 15 13 16 11 17 10 18 12 20 4 22 21 24 18 26
REMARK H PARENT 10 19 12 21 4 23 21 25 18 27
REMARK Flexibility Score: inf
ROOT
ATOM      1  C   UNL     1       5.768  18.353  54.711  1.00  0.00     0.180 A 
ATOM      2  C   UNL     1       5.149  17.320  53.980  1.00  0.00     0.208 A 
ATOM      3  C   UNL     1       5.596  17.052  52.676  1.00  0.00     0.238 A 
ATOM      4  O   UNL     1       5.043  16.136  52.007  1.00  0.00    -0.285 OA
ATOM      5  C   UNL     1       6.659  17.803  52.134  1.00  0.00     0.111 A 
ATOM      6  C   UNL     1       7.170  17.593  50.831  1.00  0.00     0.134 A 
ATOM      7  C   UNL     1       8.238  18.377  50.368  1.00  0.00     0.093 A 
ATOM      8  C   UNL     1       8.803  19.361  51.180  1.00  0.00     0.123 A 
ATOM      9  C   UNL     1       8.303  19.574  52.468  1.00  0.00     0.094 A 
ATOM     10  C   UNL     1       7.238  18.804  52.947  1.00  0.00     0.146 A 
ATOM     11  O   UNL     1       6.778  19.031  54.174  1.00  0.00    -0.452 OA
ENDROOT
BRANCH   1  12
ATOM     12  C   UNL     1       5.342  18.708  56.084  1.00  0.00     0.025 A 
ATOM     13  C   UNL     1       4.464  19.784  56.278  1.00  0.00     0.016 A 
ATOM     14  C   UNL     1       4.032  20.124  57.563  1.00  0.00     0.051 A 
ATOM     15  C   UNL     1       4.460  19.382  58.671  1.00  0.00     0.157 A 
ATOM     16  C   UNL     1       5.754  17.953  57.197  1.00  0.00     0.062 A 
ATOM     17  C   UNL     1       5.321  18.288  58.485  1.00  0.00     0.158 A 
BRANCH  15  18
ATOM     18  O   UNL     1       4.030  19.724  59.952  1.00  0.00    -0.504 OA
ATOM     19  H   UNL     1       3.266  19.233  60.404  1.00  0.00     0.293 HD
ENDBRANCH  15  18
BRANCH  17  20
ATOM     20  O   UNL     1       5.754  17.520  59.566  1.00  0.00    -0.504 OA
ATOM     21  H   UNL     1       6.548  17.792  60.135  1.00  0.00     0.293 HD
ENDBRANCH  17  20
ENDBRANCH   1  12
BRANCH   2  22
ATOM     22  O   UNL     1       4.131  16.558  54.557  1.00  0.00    -0.502 OA
ATOM     23  H   UNL     1       3.874  15.642  54.208  1.00  0.00     0.293 HD
ENDBRANCH   2  22
BRANCH   6  24
ATOM     24  O   UNL     1       6.627  16.616  49.995  1.00  0.00    -0.507 OA
ATOM     25  H   UNL     1       7.214  15.992  49.453  1.00  0.00     0.293 HD
ENDBRANCH   6  24
BRANCH   8  26
ATOM     26  O   UNL     1       9.864  20.125  50.697  1.00  0.00    -0.508 OA
ATOM     27  H   UNL     1      10.078  20.169  49.708  1.00  0.00     0.293 HD
ENDBRANCH   8  26
TORSDOF 6
ENDMDL
MODEL 8
REMARK VINA RESULT:    -3.383      1.632      7.222
REMARK INTER + INTRA:          -4.232
REMARK INTER:                  -3.907
REMARK INTRA:                  -0.325
REMARK UNBOUND:                -0.157
REMARK SMILES O=c1c(O)c(-c2ccc(O)c(O)c2)oc2cc(O)cc(O)c12
REMARK SMILES IDX 5 1 3 2 2 3 1 4 22 5 20 6 19 7 17 8 16 9 15 10 14 11 6 12
REMARK SMILES IDX 7 13 8 14 9 15 13 16 11 17 10 18 12 20 4 22 21 24 18 26
REMARK H PARENT 10 19 12 21 4 23 21 25 18 27
REMARK Flexibility Score: inf
ROOT
ATOM      1  C   UNL     1       5.014  15.901  52.531  1.00  0.00     0.180 A 
ATOM      2  C   UNL     1       4.903  16.138  53.915  1.00  0.00     0.208 A 
ATOM      3  C   UNL     1       4.574  15.068  54.762  1.00  0.00     0.238 A 
ATOM      4  O   UNL     1       4.462  15.270  56.001  1.00  0.00    -0.285 OA
ATOM      5  C   UNL     1       4.382  13.782  54.217  1.00  0.00     0.111 A 
ATOM      6  C   UNL     1       4.053  12.650  55.002  1.00  0.00     0.134 A 
ATOM      7  C   UNL     1       3.887  11.401  54.385  1.00  0.00     0.093 A 
ATOM      8  C   UNL     1       4.045  11.261  53.005  1.00  0.00     0.123 A 
ATOM      9  C   UNL     1       4.369  12.375  52.225  1.00  0.00     0.094 A 
ATOM     10  C   UNL     1       4.537  13.629  52.820  1.00  0.00     0.146 A 
ATOM     11  O   UNL     1       4.840  14.672  52.054  1.00  0.00    -0.452 OA
ENDROOT
BRANCH   1  12
ATOM     12  C   UNL     1       5.339  16.982  51.571  1.00  0.00     0.025 A 
ATOM     13  C   UNL     1       4.302  17.746  51.016  1.00  0.00     0.016 A 
ATOM     14  C   UNL     1       4.587  18.784  50.124  1.00  0.00     0.051 A 
ATOM     15  C   UNL     1       5.914  19.083  49.789  1.00  0.00     0.157 A 
ATOM     16  C   UNL     1       6.671  17.297  51.248  1.00  0.00     0.062 A 
ATOM     17  C   UNL     1       6.960  18.338  50.358  1.00  0.00     0.158 A 
BRANCH  15  18
ATOM     18  O   UNL     1       6.196  20.118  48.898  1.00  0.00    -0.504 OA
ATOM     19  H   UNL     1       5.501  20.458  48.243  1.00  0.00     0.293 HD
ENDBRANCH  15  18
BRANCH  17  20
ATOM     20  O   UNL     1       8.293  18.620  50.056  1.00  0.00    -0.504 OA
ATOM     21  H   UNL     1       8.655  19.566  50.053  1.00  0.00     0.293 HD
ENDBRANCH  17  20
ENDBRANCH   1  12
BRANCH   2  22
ATOM     22  O   UNL     1       5.147  17.412  54.435  1.00  0.00    -0.502 OA
ATOM     23  H   UNL     1       4.401  18.029  54.733  1.00  0.00     0.293 HD
ENDBRANCH   2  22
BRANCH   6  24
ATOM     24  O   UNL     1       3.889  12.757  56.384  1.00  0.00    -0.507 OA
ATOM     25  H   UNL     1       3.013  12.521  56.836  1.00  0.00     0.293 HD
ENDBRANCH   6  24
BRANCH   8  26
ATOM     26  O   UNL     1       3.875  10.009  52.417  1.00  0.00    -0.508 OA
ATOM     27  H   UNL     1       3.684   9.184  52.973  1.00  0.00     0.293 HD
ENDBRANCH   8  26
TORSDOF 6
ENDMDL
