MODEL 1
REMARK VINA RESULT:    -3.110      0.000      0.000
REMARK INTER + INTRA:          -2.950
REMARK INTER:                  -3.383
REMARK INTRA:                   0.433
REMARK UNBOUND:                 0.433
REMARK SMILES CC(C)c1cc2c(cc1O)[C@@]1(C)CCCC(C)(C)[C@H]1CC2=O
REMARK SMILES IDX 4 1 9 2 8 3 7 4 6 5 5 6 21 7 22 8 20 9 19 10 11 11 13 12
REMARK SMILES IDX 14 13 15 14 16 15 17 16 18 17 12 18 2 19 1 20 3 21 10 22
REMARK H PARENT 10 23
REMARK Flexibility Score: inf
ROOT
ATOM      1  C   UNL     1      14.440 -10.883  12.367  1.00  0.00    -0.003 A 
ATOM      2  C   UNL     1      13.263 -10.156  12.641  1.00  0.00     0.119 A 
ATOM      3  C   UNL     1      13.331  -8.780  12.881  1.00  0.00     0.051 A 
ATOM      4  C   UNL     1      14.560  -8.088  12.878  1.00  0.00    -0.027 A 
ATOM      5  C   UNL     1      15.731  -8.808  12.544  1.00  0.00     0.022 A 
ATOM      6  C   UNL     1      15.661 -10.193  12.312  1.00  0.00     0.020 A 
ATOM      7  C   UNL     1      17.028  -8.114  12.427  1.00  0.00     0.163 C 
ATOM      8  O   UNL     1      18.092  -8.765  12.238  1.00  0.00    -0.294 OA
ATOM      9  C   UNL     1      17.089  -6.626  12.467  1.00  0.00     0.086 C 
ATOM     10  C   UNL     1      16.048  -6.027  13.444  1.00  0.00     0.013 C 
ATOM     11  C   UNL     1      14.586  -6.569  13.148  1.00  0.00    -0.003 C 
ATOM     12  C   UNL     1      13.628  -6.229  14.343  1.00  0.00     0.012 C 
ATOM     13  C   UNL     1      14.064  -4.994  15.120  1.00  0.00     0.001 C 
ATOM     14  C   UNL     1      15.414  -5.226  15.815  1.00  0.00     0.007 C 
ATOM     15  C   UNL     1      16.453  -6.055  14.975  1.00  0.00    -0.031 C 
ATOM     16  C   UNL     1      17.843  -5.401  15.189  1.00  0.00     0.011 C 
ATOM     17  C   UNL     1      16.537  -7.497  15.537  1.00  0.00     0.011 C 
ATOM     18  C   UNL     1      14.040  -5.871  11.875  1.00  0.00     0.017 C 
ENDROOT
BRANCH   1  19
ATOM     19  C   UNL     1      14.429 -12.384  12.106  1.00  0.00     0.017 C 
ATOM     20  C   UNL     1      15.828 -12.999  12.249  1.00  0.00     0.012 C 
ATOM     21  C   UNL     1      13.403 -13.108  12.985  1.00  0.00     0.012 C 
ENDBRANCH   1  19
BRANCH   2  22
ATOM     22  O   UNL     1      12.025 -10.795  12.676  1.00  0.00    -0.508 OA
ATOM     23  H   UNL     1      11.593 -11.170  11.839  1.00  0.00     0.293 HD
ENDBRANCH   2  22
TORSDOF 2
ENDMDL
