MODEL 1
REMARK VINA RESULT:    -4.562      0.000      0.000
REMARK INTER + INTRA:         -10.116
REMARK INTER:                  -8.563
REMARK INTRA:                  -1.553
REMARK UNBOUND:                -1.553
REMARK SMILES O=C([O-])CCCCCCCCCCCCCCC(=O)[O-]
REMARK SMILES IDX 10 1 9 2 8 3 7 4 6 5 5 6 4 7 2 8 1 9 3 10 11 11 12 12 13 13
REMARK SMILES IDX 14 14 15 15 16 16 17 17 18 18 19 19 20 20
REMARK H PARENT
REMARK Flexibility Score: inf
ROOT
ATOM      1  C   UNL     1      -8.441  23.819  21.838  1.00  0.00     0.000 C 
ENDROOT
BRANCH   1   2
ATOM      2  C   UNL     1      -8.679  24.970  22.830  1.00  0.00     0.000 C 
BRANCH   2   3
ATOM      3  C   UNL     1      -7.367  25.608  23.321  1.00  0.00     0.000 C 
BRANCH   3   4
ATOM      4  C   UNL     1      -7.578  26.534  24.529  1.00  0.00     0.000 C 
BRANCH   4   5
ATOM      5  C   UNL     1      -8.855  26.192  25.317  1.00  0.00     0.000 C 
BRANCH   5   6
ATOM      6  C   UNL     1      -9.871  27.346  25.327  1.00  0.00     0.006 C 
BRANCH   6   7
ATOM      7  C   UNL     1      -9.397  28.560  24.516  1.00  0.00     0.053 C 
BRANCH   7   8
ATOM      8  C   UNL     1     -10.119  28.630  23.208  1.00  0.00     0.041 C 
ATOM      9  O   UNL     1     -11.125  27.900  23.000  1.00  0.00    -0.550 OA
ATOM     10  O   UNL     1      -9.714  29.538  22.237  1.00  0.00    -0.550 OA
ENDBRANCH   7   8
ENDBRANCH   6   7
ENDBRANCH   5   6
ENDBRANCH   4   5
ENDBRANCH   3   4
ENDBRANCH   2   3
ENDBRANCH   1   2
BRANCH   1  11
ATOM     11  C   UNL     1      -9.137  22.517  22.260  1.00  0.00     0.000 C 
BRANCH  11  12
ATOM     12  C   UNL     1     -10.523  22.400  21.608  1.00  0.00     0.000 C 
BRANCH  12  13
ATOM     13  C   UNL     1     -10.611  21.250  20.589  1.00  0.00     0.000 C 
BRANCH  13  14
ATOM     14  C   UNL     1     -10.802  21.687  19.122  1.00  0.00     0.000 C 
BRANCH  14  15
ATOM     15  C   UNL     1     -11.072  23.188  18.917  1.00  0.00     0.000 C 
BRANCH  15  16
ATOM     16  C   UNL     1      -9.807  23.976  18.533  1.00  0.00     0.006 C 
BRANCH  16  17
ATOM     17  C   UNL     1     -10.100  25.465  18.304  1.00  0.00     0.053 C 
BRANCH  17  18
ATOM     18  C   UNL     1     -10.091  26.238  19.586  1.00  0.00     0.041 C 
ATOM     19  O   UNL     1     -11.055  26.141  20.391  1.00  0.00    -0.550 OA
ATOM     20  O   UNL     1      -9.038  27.096  19.876  1.00  0.00    -0.550 OA
ENDBRANCH  17  18
ENDBRANCH  16  17
ENDBRANCH  15  16
ENDBRANCH  14  15
ENDBRANCH  13  14
ENDBRANCH  12  13
ENDBRANCH  11  12
ENDBRANCH   1  11
TORSDOF 15
ENDMDL
MODEL 2
REMARK VINA RESULT:    -4.519      1.203      5.905
REMARK INTER + INTRA:         -10.034
REMARK INTER:                  -8.453
REMARK INTRA:                  -1.581
REMARK UNBOUND:                -1.553
REMARK SMILES O=C([O-])CCCCCCCCCCCCCCC(=O)[O-]
REMARK SMILES IDX 10 1 9 2 8 3 7 4 6 5 5 6 4 7 2 8 1 9 3 10 11 11 12 12 13 13
REMARK SMILES IDX 14 14 15 15 16 16 17 17 18 18 19 19 20 20
REMARK H PARENT
REMARK Flexibility Score: inf
ROOT
ATOM      1  C   UNL     1      -8.181  23.963  21.750  1.00  0.00     0.000 C 
ENDROOT
BRANCH   1   2
ATOM      2  C   UNL     1      -9.233  23.120  22.489  1.00  0.00     0.000 C 
BRANCH   2   3
ATOM      3  C   UNL     1      -9.473  21.754  21.821  1.00  0.00     0.000 C 
BRANCH   3   4
ATOM      4  C   UNL     1     -10.893  21.620  21.248  1.00  0.00     0.000 C 
BRANCH   4   5
ATOM      5  C   UNL     1     -10.896  21.140  19.786  1.00  0.00     0.000 C 
BRANCH   5   6
ATOM      6  C   UNL     1     -10.697  22.290  18.786  1.00  0.00     0.006 C 
BRANCH   6   7
ATOM      7  C   UNL     1     -11.105  23.653  19.360  1.00  0.00     0.053 C 
BRANCH   7   8
ATOM      8  C   UNL     1     -10.293  24.746  18.741  1.00  0.00     0.041 C 
ATOM      9  O   UNL     1      -9.129  24.511  18.323  1.00  0.00    -0.550 OA
ATOM     10  O   UNL     1     -10.840  26.013  18.579  1.00  0.00    -0.550 OA
ENDBRANCH   7   8
ENDBRANCH   6   7
ENDBRANCH   5   6
ENDBRANCH   4   5
ENDBRANCH   3   4
ENDBRANCH   2   3
ENDBRANCH   1   2
BRANCH   1  11
ATOM     11  C   UNL     1      -8.358  25.471  21.979  1.00  0.00     0.000 C 
BRANCH  11  12
ATOM     12  C   UNL     1      -7.385  25.980  23.053  1.00  0.00     0.000 C 
BRANCH  12  13
ATOM     13  C   UNL     1      -7.967  25.897  24.476  1.00  0.00     0.000 C 
BRANCH  13  14
ATOM     14  C   UNL     1      -8.129  27.250  25.198  1.00  0.00     0.000 C 
BRANCH  14  15
ATOM     15  C   UNL     1      -9.580  27.646  25.527  1.00  0.00     0.000 C 
BRANCH  15  16
ATOM     16  C   UNL     1     -10.532  27.473  24.330  1.00  0.00     0.006 C 
BRANCH  16  17
ATOM     17  C   UNL     1     -10.938  28.818  23.714  1.00  0.00     0.053 C 
BRANCH  17  18
ATOM     18  C   UNL     1     -10.213  29.085  22.431  1.00  0.00     0.041 C 
ATOM     19  O   UNL     1     -10.856  29.249  21.362  1.00  0.00    -0.550 OA
ATOM     20  O   UNL     1      -8.824  29.117  22.409  1.00  0.00    -0.550 OA
ENDBRANCH  17  18
ENDBRANCH  16  17
ENDBRANCH  15  16
ENDBRANCH  14  15
ENDBRANCH  13  14
ENDBRANCH  12  13
ENDBRANCH  11  12
ENDBRANCH   1  11
TORSDOF 15
ENDMDL
MODEL 3
REMARK VINA RESULT:    -4.401      1.221      2.684
REMARK INTER + INTRA:          -9.814
REMARK INTER:                  -8.262
REMARK INTRA:                  -1.551
REMARK UNBOUND:                -1.553
REMARK SMILES O=C([O-])CCCCCCCCCCCCCCC(=O)[O-]
REMARK SMILES IDX 10 1 9 2 8 3 7 4 6 5 5 6 4 7 2 8 1 9 3 10 11 11 12 12 13 13
REMARK SMILES IDX 14 14 15 15 16 16 17 17 18 18 19 19 20 20
REMARK H PARENT
REMARK Flexibility Score: inf
ROOT
ATOM      1  C   UNL     1      -7.544  26.067  24.371  1.00  0.00     0.000 C 
ENDROOT
BRANCH   1   2
ATOM      2  C   UNL     1      -8.941  25.617  24.829  1.00  0.00     0.000 C 
BRANCH   2   3
ATOM      3  C   UNL     1      -9.294  26.128  26.238  1.00  0.00     0.000 C 
BRANCH   3   4
ATOM      4  C   UNL     1     -10.519  27.056  26.237  1.00  0.00     0.000 C 
BRANCH   4   5
ATOM      5  C   UNL     1     -10.738  27.743  24.877  1.00  0.00     0.000 C 
BRANCH   5   6
ATOM      6  C   UNL     1     -10.298  29.216  24.882  1.00  0.00     0.006 C 
BRANCH   6   7
ATOM      7  C   UNL     1      -9.323  29.549  23.745  1.00  0.00     0.053 C 
BRANCH   7   8
ATOM      8  C   UNL     1      -9.851  29.046  22.439  1.00  0.00     0.041 C 
ATOM      9  O   UNL     1      -9.168  28.248  21.745  1.00  0.00    -0.550 OA
ATOM     10  O   UNL     1     -11.120  29.418  22.013  1.00  0.00    -0.550 OA
ENDBRANCH   7   8
ENDBRANCH   6   7
ENDBRANCH   5   6
ENDBRANCH   4   5
ENDBRANCH   3   4
ENDBRANCH   2   3
ENDBRANCH   1   2
BRANCH   1  11
ATOM     11  C   UNL     1      -7.226  25.647  22.928  1.00  0.00     0.000 C 
BRANCH  11  12
ATOM     12  C   UNL     1      -8.460  25.032  22.252  1.00  0.00     0.000 C 
BRANCH  12  13
ATOM     13  C   UNL     1      -8.214  23.601  21.742  1.00  0.00     0.000 C 
BRANCH  13  14
ATOM     14  C   UNL     1      -9.284  22.567  22.146  1.00  0.00     0.000 C 
BRANCH  14  15
ATOM     15  C   UNL     1     -10.168  22.057  20.994  1.00  0.00     0.000 C 
BRANCH  15  16
ATOM     16  C   UNL     1     -10.920  23.189  20.272  1.00  0.00     0.006 C 
BRANCH  16  17
ATOM     17  C   UNL     1     -10.435  23.378  18.828  1.00  0.00     0.053 C 
BRANCH  17  18
ATOM     18  C   UNL     1     -10.247  24.824  18.488  1.00  0.00     0.041 C 
ATOM     19  O   UNL     1     -10.380  25.707  19.376  1.00  0.00    -0.550 OA
ATOM     20  O   UNL     1      -9.961  25.201  17.182  1.00  0.00    -0.550 OA
ENDBRANCH  17  18
ENDBRANCH  16  17
ENDBRANCH  15  16
ENDBRANCH  14  15
ENDBRANCH  13  14
ENDBRANCH  12  13
ENDBRANCH  11  12
ENDBRANCH   1  11
TORSDOF 15
ENDMDL
MODEL 4
REMARK VINA RESULT:    -4.331      1.279      5.827
REMARK INTER + INTRA:          -9.682
REMARK INTER:                  -7.987
REMARK INTRA:                  -1.695
REMARK UNBOUND:                -1.553
REMARK SMILES O=C([O-])CCCCCCCCCCCCCCC(=O)[O-]
REMARK SMILES IDX 10 1 9 2 8 3 7 4 6 5 5 6 4 7 2 8 1 9 3 10 11 11 12 12 13 13
REMARK SMILES IDX 14 14 15 15 16 16 17 17 18 18 19 19 20 20
REMARK H PARENT
REMARK Flexibility Score: inf
ROOT
ATOM      1  C   UNL     1      -7.190  25.785  22.927  1.00  0.00     0.000 C 
ENDROOT
BRANCH   1   2
ATOM      2  C   UNL     1      -8.352  25.149  22.146  1.00  0.00     0.000 C 
BRANCH   2   3
ATOM      3  C   UNL     1      -8.077  23.682  21.769  1.00  0.00     0.000 C 
BRANCH   3   4
ATOM      4  C   UNL     1      -9.144  22.723  22.321  1.00  0.00     0.000 C 
BRANCH   4   5
ATOM      5  C   UNL     1     -10.436  22.733  21.485  1.00  0.00     0.000 C 
BRANCH   5   6
ATOM      6  C   UNL     1     -10.180  22.430  19.999  1.00  0.00     0.006 C 
BRANCH   6   7
ATOM      7  C   UNL     1     -11.124  23.199  19.065  1.00  0.00     0.053 C 
BRANCH   7   8
ATOM      8  C   UNL     1     -10.443  24.413  18.517  1.00  0.00     0.041 C 
ATOM      9  O   UNL     1     -11.124  25.391  18.110  1.00  0.00    -0.550 OA
ATOM     10  O   UNL     1      -9.056  24.486  18.504  1.00  0.00    -0.550 OA
ENDBRANCH   7   8
ENDBRANCH   6   7
ENDBRANCH   5   6
ENDBRANCH   4   5
ENDBRANCH   3   4
ENDBRANCH   2   3
ENDBRANCH   1   2
BRANCH   1  11
ATOM     11  C   UNL     1      -7.625  26.350  24.287  1.00  0.00     0.000 C 
BRANCH  11  12
ATOM     12  C   UNL     1      -8.891  25.644  24.794  1.00  0.00     0.000 C 
BRANCH  12  13
ATOM     13  C   UNL     1      -9.577  26.399  25.947  1.00  0.00     0.000 C 
BRANCH  13  14
ATOM     14  C   UNL     1     -10.890  27.116  25.571  1.00  0.00     0.000 C 
BRANCH  14  15
ATOM     15  C   UNL     1     -10.894  28.637  25.802  1.00  0.00     0.000 C 
BRANCH  15  16
ATOM     16  C   UNL     1     -11.107  29.438  24.506  1.00  0.00     0.006 C 
BRANCH  16  17
ATOM     17  C   UNL     1     -11.125  28.536  23.264  1.00  0.00     0.053 C 
BRANCH  17  18
ATOM     18  C   UNL     1      -9.913  28.742  22.408  1.00  0.00     0.041 C 
ATOM     19  O   UNL     1      -8.967  29.467  22.813  1.00  0.00    -0.550 OA
ATOM     20  O   UNL     1      -9.845  28.164  21.147  1.00  0.00    -0.550 OA
ENDBRANCH  17  18
ENDBRANCH  16  17
ENDBRANCH  15  16
ENDBRANCH  14  15
ENDBRANCH  13  14
ENDBRANCH  12  13
ENDBRANCH  11  12
ENDBRANCH   1  11
TORSDOF 15
ENDMDL
MODEL 5
REMARK VINA RESULT:    -4.291      1.852      3.099
REMARK INTER + INTRA:          -9.606
REMARK INTER:                  -7.947
REMARK INTRA:                  -1.658
REMARK UNBOUND:                -1.553
REMARK SMILES O=C([O-])CCCCCCCCCCCCCCC(=O)[O-]
REMARK SMILES IDX 10 1 9 2 8 3 7 4 6 5 5 6 4 7 2 8 1 9 3 10 11 11 12 12 13 13
REMARK SMILES IDX 14 14 15 15 16 16 17 17 18 18 19 19 20 20
REMARK H PARENT
REMARK Flexibility Score: inf
ROOT
ATOM      1  C   UNL     1      -8.060  25.619  21.680  1.00  0.00     0.000 C 
ENDROOT
BRANCH   1   2
ATOM      2  C   UNL     1      -7.240  25.687  22.979  1.00  0.00     0.000 C 
BRANCH   2   3
ATOM      3  C   UNL     1      -8.115  25.553  24.238  1.00  0.00     0.000 C 
BRANCH   3   4
ATOM      4  C   UNL     1      -8.084  26.817  25.114  1.00  0.00     0.000 C 
BRANCH   4   5
ATOM      5  C   UNL     1      -9.344  26.961  25.986  1.00  0.00     0.000 C 
BRANCH   5   6
ATOM      6  C   UNL     1     -10.159  28.219  25.643  1.00  0.00     0.006 C 
BRANCH   6   7
ATOM      7  C   UNL     1     -10.527  28.301  24.156  1.00  0.00     0.053 C 
BRANCH   7   8
ATOM      8  C   UNL     1      -9.754  29.392  23.485  1.00  0.00     0.041 C 
ATOM      9  O   UNL     1      -8.920  30.072  24.139  1.00  0.00    -0.550 OA
ATOM     10  O   UNL     1      -9.915  29.623  22.124  1.00  0.00    -0.550 OA
ENDBRANCH   7   8
ENDBRANCH   6   7
ENDBRANCH   5   6
ENDBRANCH   4   5
ENDBRANCH   3   4
ENDBRANCH   2   3
ENDBRANCH   1   2
BRANCH   1  11
ATOM     11  C   UNL     1      -9.571  25.751  21.922  1.00  0.00     0.000 C 
BRANCH  11  12
ATOM     12  C   UNL     1     -10.230  26.595  20.821  1.00  0.00     0.000 C 
BRANCH  12  13
ATOM     13  C   UNL     1      -9.470  26.534  19.484  1.00  0.00     0.000 C 
BRANCH  13  14
ATOM     14  C   UNL     1     -10.057  25.562  18.440  1.00  0.00     0.000 C 
BRANCH  14  15
ATOM     15  C   UNL     1      -9.593  24.101  18.573  1.00  0.00     0.000 C 
BRANCH  15  16
ATOM     16  C   UNL     1     -10.758  23.124  18.812  1.00  0.00     0.006 C 
BRANCH  16  17
ATOM     17  C   UNL     1     -11.125  23.012  20.298  1.00  0.00     0.053 C 
BRANCH  17  18
ATOM     18  C   UNL     1     -10.284  21.993  21.004  1.00  0.00     0.041 C 
ATOM     19  O   UNL     1     -10.267  20.799  20.604  1.00  0.00    -0.550 OA
ATOM     20  O   UNL     1      -9.548  22.352  22.125  1.00  0.00    -0.550 OA
ENDBRANCH  17  18
ENDBRANCH  16  17
ENDBRANCH  15  16
ENDBRANCH  14  15
ENDBRANCH  13  14
ENDBRANCH  12  13
ENDBRANCH  11  12
ENDBRANCH   1  11
TORSDOF 15
ENDMDL
MODEL 6
REMARK VINA RESULT:    -4.203      1.795      6.160
REMARK INTER + INTRA:          -9.441
REMARK INTER:                  -8.053
REMARK INTRA:                  -1.388
REMARK UNBOUND:                -1.553
REMARK SMILES O=C([O-])CCCCCCCCCCCCCCC(=O)[O-]
REMARK SMILES IDX 10 1 9 2 8 3 7 4 6 5 5 6 4 7 2 8 1 9 3 10 11 11 12 12 13 13
REMARK SMILES IDX 14 14 15 15 16 16 17 17 18 18 19 19 20 20
REMARK H PARENT
REMARK Flexibility Score: inf
ROOT
ATOM      1  C   UNL     1      -7.394  25.370  22.464  1.00  0.00     0.000 C 
ENDROOT
BRANCH   1   2
ATOM      2  C   UNL     1      -8.105  25.288  21.103  1.00  0.00     0.000 C 
BRANCH   2   3
ATOM      3  C   UNL     1      -8.895  26.567  20.771  1.00  0.00     0.000 C 
BRANCH   3   4
ATOM      4  C   UNL     1      -9.700  26.440  19.467  1.00  0.00     0.000 C 
BRANCH   4   5
ATOM      5  C   UNL     1      -9.633  25.024  18.869  1.00  0.00     0.000 C 
BRANCH   5   6
ATOM      6  C   UNL     1     -10.892  24.195  19.170  1.00  0.00     0.006 C 
BRANCH   6   7
ATOM      7  C   UNL     1     -10.616  22.686  19.204  1.00  0.00     0.053 C 
BRANCH   7   8
ATOM      8  C   UNL     1     -10.883  22.136  20.569  1.00  0.00     0.041 C 
ATOM      9  O   UNL     1     -11.125  22.913  21.529  1.00  0.00    -0.550 OA
ATOM     10  O   UNL     1     -10.918  20.761  20.770  1.00  0.00    -0.550 OA
ENDBRANCH   7   8
ENDBRANCH   6   7
ENDBRANCH   5   6
ENDBRANCH   4   5
ENDBRANCH   3   4
ENDBRANCH   2   3
ENDBRANCH   1   2
BRANCH   1  11
ATOM     11  C   UNL     1      -8.169  26.210  23.490  1.00  0.00     0.000 C 
BRANCH  11  12
ATOM     12  C   UNL     1      -8.485  25.385  24.746  1.00  0.00     0.000 C 
BRANCH  12  13
ATOM     13  C   UNL     1      -9.632  25.982  25.582  1.00  0.00     0.000 C 
BRANCH  13  14
ATOM     14  C   UNL     1      -9.495  27.484  25.905  1.00  0.00     0.000 C 
BRANCH  14  15
ATOM     15  C   UNL     1     -10.824  28.250  26.028  1.00  0.00     0.000 C 
BRANCH  15  16
ATOM     16  C   UNL     1     -11.034  29.267  24.893  1.00  0.00     0.006 C 
BRANCH  16  17
ATOM     17  C   UNL     1     -11.125  28.590  23.518  1.00  0.00     0.053 C 
BRANCH  17  18
ATOM     18  C   UNL     1     -10.247  29.261  22.508  1.00  0.00     0.041 C 
ATOM     19  O   UNL     1     -10.667  29.465  21.339  1.00  0.00    -0.550 OA
ATOM     20  O   UNL     1      -8.950  29.627  22.845  1.00  0.00    -0.550 OA
ENDBRANCH  17  18
ENDBRANCH  16  17
ENDBRANCH  15  16
ENDBRANCH  14  15
ENDBRANCH  13  14
ENDBRANCH  12  13
ENDBRANCH  11  12
ENDBRANCH   1  11
TORSDOF 15
ENDMDL
MODEL 7
REMARK VINA RESULT:    -4.178      1.777      3.190
REMARK INTER + INTRA:          -9.394
REMARK INTER:                  -8.276
REMARK INTRA:                  -1.117
REMARK UNBOUND:                -1.553
REMARK SMILES O=C([O-])CCCCCCCCCCCCCCC(=O)[O-]
REMARK SMILES IDX 10 1 9 2 8 3 7 4 6 5 5 6 4 7 2 8 1 9 3 10 11 11 12 12 13 13
REMARK SMILES IDX 14 14 15 15 16 16 17 17 18 18 19 19 20 20
REMARK H PARENT
REMARK Flexibility Score: inf
ROOT
ATOM      1  C   UNL     1      -7.808  26.104  23.001  1.00  0.00     0.000 C 
ENDROOT
BRANCH   1   2
ATOM      2  C   UNL     1      -8.433  25.716  24.351  1.00  0.00     0.000 C 
BRANCH   2   3
ATOM      3  C   UNL     1      -8.533  26.909  25.319  1.00  0.00     0.000 C 
BRANCH   3   4
ATOM      4  C   UNL     1      -9.725  26.785  26.282  1.00  0.00     0.000 C 
BRANCH   4   5
ATOM      5  C   UNL     1     -10.825  27.823  25.995  1.00  0.00     0.000 C 
BRANCH   5   6
ATOM      6  C   UNL     1     -10.397  28.862  24.946  1.00  0.00     0.006 C 
BRANCH   6   7
ATOM      7  C   UNL     1     -11.104  28.671  23.598  1.00  0.00     0.053 C 
BRANCH   7   8
ATOM      8  C   UNL     1     -10.253  29.189  22.483  1.00  0.00     0.041 C 
ATOM      9  O   UNL     1     -10.766  29.453  21.364  1.00  0.00    -0.550 OA
ATOM     10  O   UNL     1      -8.900  29.430  22.694  1.00  0.00    -0.550 OA
ENDBRANCH   7   8
ENDBRANCH   6   7
ENDBRANCH   5   6
ENDBRANCH   4   5
ENDBRANCH   3   4
ENDBRANCH   2   3
ENDBRANCH   1   2
BRANCH   1  11
ATOM     11  C   UNL     1      -7.547  24.891  22.095  1.00  0.00     0.000 C 
BRANCH  11  12
ATOM     12  C   UNL     1      -8.145  25.112  20.698  1.00  0.00     0.000 C 
BRANCH  12  13
ATOM     13  C   UNL     1      -9.053  26.352  20.624  1.00  0.00     0.000 C 
BRANCH  13  14
ATOM     14  C   UNL     1     -10.527  26.065  20.272  1.00  0.00     0.000 C 
BRANCH  14  15
ATOM     15  C   UNL     1     -10.772  25.580  18.832  1.00  0.00     0.000 C 
BRANCH  15  16
ATOM     16  C   UNL     1     -10.106  24.225  18.537  1.00  0.00     0.006 C 
BRANCH  16  17
ATOM     17  C   UNL     1     -11.112  23.067  18.562  1.00  0.00     0.053 C 
BRANCH  17  18
ATOM     18  C   UNL     1     -10.874  22.147  19.720  1.00  0.00     0.041 C 
ATOM     19  O   UNL     1     -10.467  22.604  20.819  1.00  0.00    -0.550 OA
ATOM     20  O   UNL     1     -11.066  20.779  19.574  1.00  0.00    -0.550 OA
ENDBRANCH  17  18
ENDBRANCH  16  17
ENDBRANCH  15  16
ENDBRANCH  14  15
ENDBRANCH  13  14
ENDBRANCH  12  13
ENDBRANCH  11  12
ENDBRANCH   1  11
TORSDOF 15
ENDMDL
MODEL 8
REMARK VINA RESULT:    -4.118      1.617      2.133
REMARK INTER + INTRA:          -9.281
REMARK INTER:                  -7.746
REMARK INTRA:                  -1.535
REMARK UNBOUND:                -1.553
REMARK SMILES O=C([O-])CCCCCCCCCCCCCCC(=O)[O-]
REMARK SMILES IDX 10 1 9 2 8 3 7 4 6 5 5 6 4 7 2 8 1 9 3 10 11 11 12 12 13 13
REMARK SMILES IDX 14 14 15 15 16 16 17 17 18 18 19 19 20 20
REMARK H PARENT
REMARK Flexibility Score: inf
ROOT
ATOM      1  C   UNL     1      -8.924  23.873  22.627  1.00  0.00     0.000 C 
ENDROOT
BRANCH   1   2
ATOM      2  C   UNL     1      -7.674  24.462  21.953  1.00  0.00     0.000 C 
BRANCH   2   3
ATOM      3  C   UNL     1      -7.364  25.893  22.430  1.00  0.00     0.000 C 
BRANCH   3   4
ATOM      4  C   UNL     1      -7.341  26.010  23.962  1.00  0.00     0.000 C 
BRANCH   4   5
ATOM      5  C   UNL     1      -8.490  26.879  24.504  1.00  0.00     0.000 C 
BRANCH   5   6
ATOM      6  C   UNL     1      -9.197  26.238  25.710  1.00  0.00     0.006 C 
BRANCH   6   7
ATOM      7  C   UNL     1     -10.695  26.567  25.763  1.00  0.00     0.053 C 
BRANCH   7   8
ATOM      8  C   UNL     1     -10.923  27.851  26.495  1.00  0.00     0.041 C 
ATOM      9  O   UNL     1     -11.125  27.845  27.738  1.00  0.00    -0.550 OA
ATOM     10  O   UNL     1     -10.860  29.061  25.814  1.00  0.00    -0.550 OA
ENDBRANCH   7   8
ENDBRANCH   6   7
ENDBRANCH   5   6
ENDBRANCH   4   5
ENDBRANCH   3   4
ENDBRANCH   2   3
ENDBRANCH   1   2
BRANCH   1  11
ATOM     11  C   UNL     1      -9.013  22.346  22.486  1.00  0.00     0.000 C 
BRANCH  11  12
ATOM     12  C   UNL     1      -9.782  21.958  21.214  1.00  0.00     0.000 C 
BRANCH  12  13
ATOM     13  C   UNL     1     -10.776  23.042  20.760  1.00  0.00     0.000 C 
BRANCH  13  14
ATOM     14  C   UNL     1     -11.068  23.071  19.246  1.00  0.00     0.000 C 
BRANCH  14  15
ATOM     15  C   UNL     1     -10.143  23.982  18.420  1.00  0.00     0.000 C 
BRANCH  15  16
ATOM     16  C   UNL     1      -9.688  25.231  19.194  1.00  0.00     0.006 C 
BRANCH  16  17
ATOM     17  C   UNL     1     -10.834  26.230  19.409  1.00  0.00     0.053 C 
BRANCH  17  18
ATOM     18  C   UNL     1     -10.642  27.039  20.654  1.00  0.00     0.041 C 
ATOM     19  O   UNL     1     -10.235  28.227  20.581  1.00  0.00    -0.550 OA
ATOM     20  O   UNL     1     -10.878  26.468  21.899  1.00  0.00    -0.550 OA
ENDBRANCH  17  18
ENDBRANCH  16  17
ENDBRANCH  15  16
ENDBRANCH  14  15
ENDBRANCH  13  14
ENDBRANCH  12  13
ENDBRANCH  11  12
ENDBRANCH   1  11
TORSDOF 15
ENDMDL
MODEL 9
REMARK VINA RESULT:    -4.068      2.136      3.045
REMARK INTER + INTRA:          -9.188
REMARK INTER:                  -7.407
REMARK INTRA:                  -1.781
REMARK UNBOUND:                -1.553
REMARK SMILES O=C([O-])CCCCCCCCCCCCCCC(=O)[O-]
REMARK SMILES IDX 10 1 9 2 8 3 7 4 6 5 5 6 4 7 2 8 1 9 3 10 11 11 12 12 13 13
REMARK SMILES IDX 14 14 15 15 16 16 17 17 18 18 19 19 20 20
REMARK H PARENT
REMARK Flexibility Score: inf
ROOT
ATOM      1  C   UNL     1      -7.882  25.296  21.545  1.00  0.00     0.000 C 
ENDROOT
BRANCH   1   2
ATOM      2  C   UNL     1      -8.126  26.805  21.378  1.00  0.00     0.000 C 
BRANCH   2   3
ATOM      3  C   UNL     1      -9.487  27.115  20.729  1.00  0.00     0.000 C 
BRANCH   3   4
ATOM      4  C   UNL     1     -10.478  27.752  21.716  1.00  0.00     0.000 C 
BRANCH   4   5
ATOM      5  C   UNL     1      -9.775  28.398  22.923  1.00  0.00     0.000 C 
BRANCH   5   6
ATOM      6  C   UNL     1     -10.341  27.911  24.267  1.00  0.00     0.006 C 
BRANCH   6   7
ATOM      7  C   UNL     1      -9.254  27.708  25.330  1.00  0.00     0.053 C 
BRANCH   7   8
ATOM      8  C   UNL     1      -9.798  26.942  26.494  1.00  0.00     0.041 C 
ATOM      9  O   UNL     1      -9.925  27.500  27.616  1.00  0.00    -0.550 OA
ATOM     10  O   UNL     1     -10.215  25.627  26.328  1.00  0.00    -0.550 OA
ENDBRANCH   7   8
ENDBRANCH   6   7
ENDBRANCH   5   6
ENDBRANCH   4   5
ENDBRANCH   3   4
ENDBRANCH   2   3
ENDBRANCH   1   2
BRANCH   1  11
ATOM     11  C   UNL     1      -8.541  24.723  22.809  1.00  0.00     0.000 C 
BRANCH  11  12
ATOM     12  C   UNL     1      -9.621  23.694  22.445  1.00  0.00     0.000 C 
BRANCH  12  13
ATOM     13  C   UNL     1      -9.043  22.301  22.137  1.00  0.00     0.000 C 
BRANCH  13  14
ATOM     14  C   UNL     1      -9.958  21.381  21.304  1.00  0.00     0.000 C 
BRANCH  14  15
ATOM     15  C   UNL     1     -11.125  22.088  20.594  1.00  0.00     0.000 C 
BRANCH  15  16
ATOM     16  C   UNL     1     -10.803  22.453  19.134  1.00  0.00     0.006 C 
BRANCH  16  17
ATOM     17  C   UNL     1     -11.125  23.920  18.819  1.00  0.00     0.053 C 
BRANCH  17  18
ATOM     18  C   UNL     1     -10.037  24.572  18.022  1.00  0.00     0.041 C 
ATOM     19  O   UNL     1      -8.839  24.490  18.401  1.00  0.00    -0.550 OA
ATOM     20  O   UNL     1     -10.349  25.300  16.882  1.00  0.00    -0.550 OA
ENDBRANCH  17  18
ENDBRANCH  16  17
ENDBRANCH  15  16
ENDBRANCH  14  15
ENDBRANCH  13  14
ENDBRANCH  12  13
ENDBRANCH  11  12
ENDBRANCH   1  11
TORSDOF 15
ENDMDL
