MODEL 1
REMARK VINA RESULT:    -6.491      0.000      0.000
REMARK INTER + INTRA:          -7.060
REMARK INTER:                  -7.060
REMARK INTRA:                   0.000
REMARK UNBOUND:                 0.000
REMARK SMILES Cc1cc(O)c2c(c1)C(=O)c1cc(O)cc(O)c1C2=O
REMARK SMILES IDX 1 1 2 2 8 3 7 4 6 5 4 6 3 7 19 8 20 9 18 10 11 11 9 12 10 13
REMARK SMILES IDX 12 14 13 15 15 16 16 17 5 18 17 20 14 22
REMARK H PARENT 5 19 17 21 14 23
REMARK Flexibility Score: inf
ROOT
ATOM      1  C   UNL     1     171.250 169.263 172.866  1.00  0.00     0.044 C 
ATOM      2  C   UNL     1     172.092 169.999 173.867  1.00  0.00    -0.047 A 
ATOM      3  C   UNL     1     171.493 170.639 174.956  1.00  0.00     0.016 A 
ATOM      4  C   UNL     1     172.275 171.307 175.913  1.00  0.00     0.038 A 
ATOM      5  C   UNL     1     173.680 171.333 175.779  1.00  0.00     0.076 A 
ATOM      6  C   UNL     1     174.287 170.610 174.719  1.00  0.00     0.127 A 
ATOM      7  C   UNL     1     173.487 169.970 173.767  1.00  0.00     0.050 A 
ATOM      8  C   UNL     1     174.463 172.172 176.724  1.00  0.00     0.201 C 
ATOM      9  O   UNL     1     175.550 172.689 176.352  1.00  0.00    -0.288 OA
ATOM     10  C   UNL     1     173.873 172.550 178.034  1.00  0.00     0.076 A 
ATOM     11  C   UNL     1     172.466 172.520 178.166  1.00  0.00     0.041 A 
ATOM     12  C   UNL     1     171.632 171.978 177.068  1.00  0.00     0.194 C 
ATOM     13  O   UNL     1     170.374 172.063 177.128  1.00  0.00    -0.289 OA
ATOM     14  C   UNL     1     171.864 173.002 179.342  1.00  0.00     0.059 A 
ATOM     15  C   UNL     1     172.644 173.495 180.386  1.00  0.00     0.120 A 
ATOM     16  C   UNL     1     174.037 173.490 180.277  1.00  0.00     0.093 A 
ATOM     17  C   UNL     1     174.661 172.998 179.127  1.00  0.00     0.131 A 
ENDROOT
BRANCH   6  18
ATOM     18  O   UNL     1     175.672 170.471 174.595  1.00  0.00    -0.507 OA
ATOM     19  H   UNL     1     176.337 170.997 175.145  1.00  0.00     0.293 HD
ENDBRANCH   6  18
BRANCH  17  20
ATOM     20  O   UNL     1     176.057 172.939 179.125  1.00  0.00    -0.507 OA
ATOM     21  H   UNL     1     176.640 173.504 179.727  1.00  0.00     0.293 HD
ENDBRANCH  17  20
BRANCH  15  22
ATOM     22  O   UNL     1     172.025 173.980 181.537  1.00  0.00    -0.508 OA
ATOM     23  H   UNL     1     172.551 174.174 182.381  1.00  0.00     0.293 HD
ENDBRANCH  15  22
TORSDOF 3
ENDMDL
MODEL 2
REMARK VINA RESULT:    -6.486      3.255      4.887
REMARK INTER + INTRA:          -7.055
REMARK INTER:                  -7.055
REMARK INTRA:                   0.000
REMARK UNBOUND:                 0.000
REMARK SMILES Cc1cc(O)c2c(c1)C(=O)c1cc(O)cc(O)c1C2=O
REMARK SMILES IDX 1 1 2 2 8 3 7 4 6 5 4 6 3 7 19 8 20 9 18 10 11 11 9 12 10 13
REMARK SMILES IDX 12 14 13 15 15 16 16 17 5 18 17 20 14 22
REMARK H PARENT 5 19 17 21 14 23
REMARK Flexibility Score: inf
ROOT
ATOM      1  C   UNL     1     175.138 177.128 172.918  1.00  0.00     0.044 C 
ATOM      2  C   UNL     1     174.281 176.396 173.909  1.00  0.00    -0.047 A 
ATOM      3  C   UNL     1     174.865 175.755 175.007  1.00  0.00     0.016 A 
ATOM      4  C   UNL     1     174.069 175.091 175.955  1.00  0.00     0.038 A 
ATOM      5  C   UNL     1     172.665 175.070 175.803  1.00  0.00     0.076 A 
ATOM      6  C   UNL     1     172.074 175.793 174.735  1.00  0.00     0.127 A 
ATOM      7  C   UNL     1     172.887 176.429 173.792  1.00  0.00     0.050 A 
ATOM      8  C   UNL     1     171.869 174.235 176.740  1.00  0.00     0.201 C 
ATOM      9  O   UNL     1     170.785 173.721 176.356  1.00  0.00    -0.288 OA
ATOM     10  C   UNL     1     172.441 173.856 178.058  1.00  0.00     0.076 A 
ATOM     11  C   UNL     1     173.847 173.882 178.207  1.00  0.00     0.041 A 
ATOM     12  C   UNL     1     174.695 174.420 177.119  1.00  0.00     0.194 C 
ATOM     13  O   UNL     1     175.952 174.330 177.194  1.00  0.00    -0.289 OA
ATOM     14  C   UNL     1     174.432 173.400 179.391  1.00  0.00     0.059 A 
ATOM     15  C   UNL     1     173.638 172.911 180.427  1.00  0.00     0.120 A 
ATOM     16  C   UNL     1     172.246 172.921 180.300  1.00  0.00     0.093 A 
ATOM     17  C   UNL     1     171.638 173.413 179.141  1.00  0.00     0.131 A 
ENDROOT
BRANCH   6  18
ATOM     18  O   UNL     1     170.691 175.937 174.595  1.00  0.00    -0.507 OA
ATOM     19  H   UNL     1     170.254 176.373 173.795  1.00  0.00     0.293 HD
ENDBRANCH   6  18
BRANCH  17  20
ATOM     20  O   UNL     1     170.242 173.477 179.123  1.00  0.00    -0.507 OA
ATOM     21  H   UNL     1     169.724 174.339 179.033  1.00  0.00     0.293 HD
ENDBRANCH  17  20
BRANCH  15  22
ATOM     22  O   UNL     1     174.241 172.426 181.585  1.00  0.00    -0.508 OA
ATOM     23  H   UNL     1     174.311 171.432 181.771  1.00  0.00     0.293 HD
ENDBRANCH  15  22
TORSDOF 3
ENDMDL
MODEL 3
REMARK VINA RESULT:    -6.184      2.124      5.432
REMARK INTER + INTRA:          -6.727
REMARK INTER:                  -6.727
REMARK INTRA:                   0.000
REMARK UNBOUND:                 0.000
REMARK SMILES Cc1cc(O)c2c(c1)C(=O)c1cc(O)cc(O)c1C2=O
REMARK SMILES IDX 1 1 2 2 8 3 7 4 6 5 4 6 3 7 19 8 20 9 18 10 11 11 9 12 10 13
REMARK SMILES IDX 12 14 13 15 15 16 16 17 5 18 17 20 14 22
REMARK H PARENT 5 19 17 21 14 23
REMARK Flexibility Score: inf
ROOT
ATOM      1  C   UNL     1     173.056 173.145 181.879  1.00  0.00     0.044 C 
ATOM      2  C   UNL     1     173.326 173.071 180.405  1.00  0.00    -0.047 A 
ATOM      3  C   UNL     1     172.264 172.987 179.498  1.00  0.00     0.016 A 
ATOM      4  C   UNL     1     172.507 172.946 178.115  1.00  0.00     0.038 A 
ATOM      5  C   UNL     1     173.833 172.990 177.631  1.00  0.00     0.076 A 
ATOM      6  C   UNL     1     174.899 173.161 178.552  1.00  0.00     0.127 A 
ATOM      7  C   UNL     1     174.635 173.179 179.925  1.00  0.00     0.050 A 
ATOM      8  C   UNL     1     174.058 172.795 176.175  1.00  0.00     0.201 C 
ATOM      9  O   UNL     1     175.129 172.268 175.771  1.00  0.00    -0.288 OA
ATOM     10  C   UNL     1     172.950 173.047 175.218  1.00  0.00     0.076 A 
ATOM     11  C   UNL     1     171.624 173.005 175.706  1.00  0.00     0.041 A 
ATOM     12  C   UNL     1     171.376 172.864 177.160  1.00  0.00     0.194 C 
ATOM     13  O   UNL     1     170.199 172.700 177.587  1.00  0.00    -0.289 OA
ATOM     14  C   UNL     1     170.546 173.101 174.808  1.00  0.00     0.059 A 
ATOM     15  C   UNL     1     170.773 173.253 173.442  1.00  0.00     0.120 A 
ATOM     16  C   UNL     1     172.082 173.336 172.959  1.00  0.00     0.093 A 
ATOM     17  C   UNL     1     173.171 173.264 173.832  1.00  0.00     0.131 A 
ENDROOT
BRANCH   6  18
ATOM     18  O   UNL     1     176.223 173.353 178.147  1.00  0.00    -0.507 OA
ATOM     19  H   UNL     1     176.937 172.641 178.218  1.00  0.00     0.293 HD
ENDBRANCH   6  18
BRANCH  17  20
ATOM     20  O   UNL     1     174.446 173.446 173.290  1.00  0.00    -0.507 OA
ATOM     21  H   UNL     1     175.200 172.784 173.403  1.00  0.00     0.293 HD
ENDBRANCH  17  20
BRANCH  15  22
ATOM     22  O   UNL     1     169.689 173.333 172.570  1.00  0.00    -0.508 OA
ATOM     23  H   UNL     1     169.455 172.572 171.942  1.00  0.00     0.293 HD
ENDBRANCH  15  22
TORSDOF 3
ENDMDL
MODEL 4
REMARK VINA RESULT:    -6.095      3.415      5.781
REMARK INTER + INTRA:          -6.630
REMARK INTER:                  -6.630
REMARK INTRA:                   0.000
REMARK UNBOUND:                 0.000
REMARK SMILES Cc1cc(O)c2c(c1)C(=O)c1cc(O)cc(O)c1C2=O
REMARK SMILES IDX 1 1 2 2 8 3 7 4 6 5 4 6 3 7 19 8 20 9 18 10 11 11 9 12 10 13
REMARK SMILES IDX 12 14 13 15 15 16 16 17 5 18 17 20 14 22
REMARK H PARENT 5 19 17 21 14 23
REMARK Flexibility Score: inf
ROOT
ATOM      1  C   UNL     1     172.253 173.633 181.392  1.00  0.00     0.044 C 
ATOM      2  C   UNL     1     172.612 173.487 179.943  1.00  0.00    -0.047 A 
ATOM      3  C   UNL     1     172.645 174.610 179.109  1.00  0.00     0.016 A 
ATOM      4  C   UNL     1     173.007 174.486 177.757  1.00  0.00     0.038 A 
ATOM      5  C   UNL     1     173.343 173.220 177.231  1.00  0.00     0.076 A 
ATOM      6  C   UNL     1     173.391 172.100 178.102  1.00  0.00     0.127 A 
ATOM      7  C   UNL     1     173.006 172.243 179.439  1.00  0.00     0.050 A 
ATOM      8  C   UNL     1     173.576 173.105 175.768  1.00  0.00     0.201 C 
ATOM      9  O   UNL     1     173.313 172.025 175.174  1.00  0.00    -0.288 OA
ATOM     10  C   UNL     1     173.936 174.313 174.981  1.00  0.00     0.076 A 
ATOM     11  C   UNL     1     173.601 175.579 175.512  1.00  0.00     0.041 A 
ATOM     12  C   UNL     1     173.045 175.682 176.882  1.00  0.00     0.194 C 
ATOM     13  O   UNL     1     172.628 176.794 177.312  1.00  0.00    -0.289 OA
ATOM     14  C   UNL     1     173.801 176.736 174.738  1.00  0.00     0.059 A 
ATOM     15  C   UNL     1     174.341 176.647 173.457  1.00  0.00     0.120 A 
ATOM     16  C   UNL     1     174.712 175.401 172.944  1.00  0.00     0.093 A 
ATOM     17  C   UNL     1     174.543 174.237 173.700  1.00  0.00     0.131 A 
ENDROOT
BRANCH   6  18
ATOM     18  O   UNL     1     173.846 170.844 177.693  1.00  0.00    -0.507 OA
ATOM     19  H   UNL     1     174.046 170.088 178.332  1.00  0.00     0.293 HD
ENDBRANCH   6  18
BRANCH  17  20
ATOM     20  O   UNL     1     175.020 173.041 173.159  1.00  0.00    -0.507 OA
ATOM     21  H   UNL     1     175.999 172.793 173.129  1.00  0.00     0.293 HD
ENDBRANCH  17  20
BRANCH  15  22
ATOM     22  O   UNL     1     174.518 177.805 172.703  1.00  0.00    -0.508 OA
ATOM     23  H   UNL     1     174.899 178.651 173.111  1.00  0.00     0.293 HD
ENDBRANCH  15  22
TORSDOF 3
ENDMDL
MODEL 5
REMARK VINA RESULT:    -6.040      1.842      6.295
REMARK INTER + INTRA:          -6.570
REMARK INTER:                  -6.570
REMARK INTRA:                   0.000
REMARK UNBOUND:                 0.000
REMARK SMILES Cc1cc(O)c2c(c1)C(=O)c1cc(O)cc(O)c1C2=O
REMARK SMILES IDX 1 1 2 2 8 3 7 4 6 5 4 6 3 7 19 8 20 9 18 10 11 11 9 12 10 13
REMARK SMILES IDX 12 14 13 15 15 16 16 17 5 18 17 20 14 22
REMARK H PARENT 5 19 17 21 14 23
REMARK Flexibility Score: inf
ROOT
ATOM      1  C   UNL     1     174.386 172.992 181.495  1.00  0.00     0.044 C 
ATOM      2  C   UNL     1     173.701 173.050 180.161  1.00  0.00    -0.047 A 
ATOM      3  C   UNL     1     174.432 172.850 178.985  1.00  0.00     0.016 A 
ATOM      4  C   UNL     1     173.794 172.875 177.734  1.00  0.00     0.038 A 
ATOM      5  C   UNL     1     172.403 173.102 177.657  1.00  0.00     0.076 A 
ATOM      6  C   UNL     1     171.654 173.219 178.857  1.00  0.00     0.127 A 
ATOM      7  C   UNL     1     172.313 173.212 180.090  1.00  0.00     0.050 A 
ATOM      8  C   UNL     1     171.790 173.269 176.313  1.00  0.00     0.201 C 
ATOM      9  O   UNL     1     170.773 174.000 176.174  1.00  0.00    -0.288 OA
ATOM     10  C   UNL     1     172.483 172.729 175.115  1.00  0.00     0.076 A 
ATOM     11  C   UNL     1     173.875 172.500 175.196  1.00  0.00     0.041 A 
ATOM     12  C   UNL     1     174.575 172.655 176.493  1.00  0.00     0.194 C 
ATOM     13  O   UNL     1     175.834 172.575 176.545  1.00  0.00    -0.289 OA
ATOM     14  C   UNL     1     174.589 172.122 174.045  1.00  0.00     0.059 A 
ATOM     15  C   UNL     1     173.933 171.955 172.827  1.00  0.00     0.120 A 
ATOM     16  C   UNL     1     172.550 172.141 172.751  1.00  0.00     0.093 A 
ATOM     17  C   UNL     1     171.814 172.498 173.885  1.00  0.00     0.131 A 
ENDROOT
BRANCH   6  18
ATOM     18  O   UNL     1     170.260 173.307 178.872  1.00  0.00    -0.507 OA
ATOM     19  H   UNL     1     169.702 173.180 179.704  1.00  0.00     0.293 HD
ENDBRANCH   6  18
BRANCH  17  20
ATOM     20  O   UNL     1     170.425 172.577 173.753  1.00  0.00    -0.507 OA
ATOM     21  H   UNL     1     169.915 172.189 172.971  1.00  0.00     0.293 HD
ENDBRANCH  17  20
BRANCH  15  22
ATOM     22  O   UNL     1     174.663 171.593 171.697  1.00  0.00    -0.508 OA
ATOM     23  H   UNL     1     174.828 170.621 171.461  1.00  0.00     0.293 HD
ENDBRANCH  15  22
TORSDOF 3
ENDMDL
MODEL 6
REMARK VINA RESULT:    -5.933      2.158      2.165
REMARK INTER + INTRA:          -6.453
REMARK INTER:                  -6.453
REMARK INTRA:                   0.000
REMARK UNBOUND:                 0.000
REMARK SMILES Cc1cc(O)c2c(c1)C(=O)c1cc(O)cc(O)c1C2=O
REMARK SMILES IDX 1 1 2 2 8 3 7 4 6 5 4 6 3 7 19 8 20 9 18 10 11 11 9 12 10 13
REMARK SMILES IDX 12 14 13 15 15 16 16 17 5 18 17 20 14 22
REMARK H PARENT 5 19 17 21 14 23
REMARK Flexibility Score: inf
ROOT
ATOM      1  C   UNL     1     172.381 173.318 171.672  1.00  0.00     0.044 C 
ATOM      2  C   UNL     1     173.023 173.384 173.027  1.00  0.00    -0.047 A 
ATOM      3  C   UNL     1     172.234 173.506 174.175  1.00  0.00     0.016 A 
ATOM      4  C   UNL     1     172.825 173.540 175.449  1.00  0.00     0.038 A 
ATOM      5  C   UNL     1     174.229 173.450 175.576  1.00  0.00     0.076 A 
ATOM      6  C   UNL     1     175.016 173.241 174.414  1.00  0.00     0.127 A 
ATOM      7  C   UNL     1     174.408 173.231 173.155  1.00  0.00     0.050 A 
ATOM      8  C   UNL     1     174.827 173.639 176.924  1.00  0.00     0.201 C 
ATOM      9  O   UNL     1     175.982 174.129 177.034  1.00  0.00    -0.288 OA
ATOM     10  C   UNL     1     173.994 173.427 178.136  1.00  0.00     0.076 A 
ATOM     11  C   UNL     1     172.589 173.515 178.004  1.00  0.00     0.041 A 
ATOM     12  C   UNL     1     171.981 173.663 176.662  1.00  0.00     0.194 C 
ATOM     13  O   UNL     1     170.740 173.868 176.549  1.00  0.00    -0.289 OA
ATOM     14  C   UNL     1     171.776 173.458 179.150  1.00  0.00     0.059 A 
ATOM     15  C   UNL     1     172.341 173.299 180.413  1.00  0.00     0.120 A 
ATOM     16  C   UNL     1     173.726 173.171 180.544  1.00  0.00     0.093 A 
ATOM     17  C   UNL     1     174.557 173.204 179.420  1.00  0.00     0.131 A 
ENDROOT
BRANCH   6  18
ATOM     18  O   UNL     1     176.392 173.004 174.467  1.00  0.00    -0.507 OA
ATOM     19  H   UNL     1     176.815 172.116 174.233  1.00  0.00     0.293 HD
ENDBRANCH   6  18
BRANCH  17  20
ATOM     20  O   UNL     1     175.921 172.978 179.618  1.00  0.00    -0.507 OA
ATOM     21  H   UNL     1     176.549 172.673 178.887  1.00  0.00     0.293 HD
ENDBRANCH  17  20
BRANCH  15  22
ATOM     22  O   UNL     1     171.516 173.259 181.535  1.00  0.00    -0.508 OA
ATOM     23  H   UNL     1     170.814 173.970 181.704  1.00  0.00     0.293 HD
ENDBRANCH  15  22
TORSDOF 3
ENDMDL
MODEL 7
REMARK VINA RESULT:    -5.890      1.969      3.636
REMARK INTER + INTRA:          -6.407
REMARK INTER:                  -6.407
REMARK INTRA:                   0.000
REMARK UNBOUND:                 0.000
REMARK SMILES Cc1cc(O)c2c(c1)C(=O)c1cc(O)cc(O)c1C2=O
REMARK SMILES IDX 1 1 2 2 8 3 7 4 6 5 4 6 3 7 19 8 20 9 18 10 11 11 9 12 10 13
REMARK SMILES IDX 12 14 13 15 15 16 16 17 5 18 17 20 14 22
REMARK H PARENT 5 19 17 21 14 23
REMARK Flexibility Score: inf
ROOT
ATOM      1  C   UNL     1     174.075 173.117 171.666  1.00  0.00     0.044 C 
ATOM      2  C   UNL     1     173.407 173.037 173.007  1.00  0.00    -0.047 A 
ATOM      3  C   UNL     1     174.175 172.927 174.172  1.00  0.00     0.016 A 
ATOM      4  C   UNL     1     173.559 172.880 175.433  1.00  0.00     0.038 A 
ATOM      5  C   UNL     1     172.152 172.946 175.532  1.00  0.00     0.076 A 
ATOM      6  C   UNL     1     171.384 173.144 174.355  1.00  0.00     0.127 A 
ATOM      7  C   UNL     1     172.017 173.166 173.109  1.00  0.00     0.050 A 
ATOM      8  C   UNL     1     171.530 172.745 176.867  1.00  0.00     0.201 C 
ATOM      9  O   UNL     1     170.381 172.235 176.953  1.00  0.00    -0.288 OA
ATOM     10  C   UNL     1     172.334 172.969 178.096  1.00  0.00     0.076 A 
ATOM     11  C   UNL     1     173.743 172.906 177.993  1.00  0.00     0.041 A 
ATOM     12  C   UNL     1     174.380 172.770 176.662  1.00  0.00     0.194 C 
ATOM     13  O   UNL     1     175.626 172.587 176.574  1.00  0.00    -0.289 OA
ATOM     14  C   UNL     1     174.532 172.975 179.154  1.00  0.00     0.059 A 
ATOM     15  C   UNL     1     173.939 173.122 180.406  1.00  0.00     0.120 A 
ATOM     16  C   UNL     1     172.549 173.226 180.510  1.00  0.00     0.093 A 
ATOM     17  C   UNL     1     171.742 173.180 179.369  1.00  0.00     0.131 A 
ENDROOT
BRANCH   6  18
ATOM     18  O   UNL     1     170.003 173.357 174.381  1.00  0.00    -0.507 OA
ATOM     19  H   UNL     1     169.367 172.824 174.957  1.00  0.00     0.293 HD
ENDBRANCH   6  18
BRANCH  17  20
ATOM     20  O   UNL     1     170.371 173.382 179.540  1.00  0.00    -0.507 OA
ATOM     21  H   UNL     1     169.684 172.645 179.465  1.00  0.00     0.293 HD
ENDBRANCH  17  20
BRANCH  15  22
ATOM     22  O   UNL     1     174.740 173.175 181.545  1.00  0.00    -0.508 OA
ATOM     23  H   UNL     1     175.699 173.502 181.504  1.00  0.00     0.293 HD
ENDBRANCH  15  22
TORSDOF 3
ENDMDL
MODEL 8
REMARK VINA RESULT:    -5.722      2.404      6.010
REMARK INTER + INTRA:          -6.224
REMARK INTER:                  -6.224
REMARK INTRA:                   0.000
REMARK UNBOUND:                 0.000
REMARK SMILES Cc1cc(O)c2c(c1)C(=O)c1cc(O)cc(O)c1C2=O
REMARK SMILES IDX 1 1 2 2 8 3 7 4 6 5 4 6 3 7 19 8 20 9 18 10 11 11 9 12 10 13
REMARK SMILES IDX 12 14 13 15 15 16 16 17 5 18 17 20 14 22
REMARK H PARENT 5 19 17 21 14 23
REMARK Flexibility Score: inf
ROOT
ATOM      1  C   UNL     1     174.106 172.638 181.205  1.00  0.00     0.044 C 
ATOM      2  C   UNL     1     173.733 172.846 179.766  1.00  0.00    -0.047 A 
ATOM      3  C   UNL     1     173.624 171.752 178.902  1.00  0.00     0.016 A 
ATOM      4  C   UNL     1     173.248 171.935 177.561  1.00  0.00     0.038 A 
ATOM      5  C   UNL     1     172.975 173.233 177.077  1.00  0.00     0.076 A 
ATOM      6  C   UNL     1     173.004 174.327 177.979  1.00  0.00     0.127 A 
ATOM      7  C   UNL     1     173.402 174.124 179.305  1.00  0.00     0.050 A 
ATOM      8  C   UNL     1     172.726 173.404 175.621  1.00  0.00     0.201 C 
ATOM      9  O   UNL     1     173.040 174.484 175.054  1.00  0.00    -0.288 OA
ATOM     10  C   UNL     1     172.286 172.241 174.808  1.00  0.00     0.076 A 
ATOM     11  C   UNL     1     172.558 170.943 175.296  1.00  0.00     0.041 A 
ATOM     12  C   UNL     1     173.129 170.769 176.652  1.00  0.00     0.194 C 
ATOM     13  O   UNL     1     173.490 169.624 177.044  1.00  0.00    -0.289 OA
ATOM     14  C   UNL     1     172.281 169.822 174.494  1.00  0.00     0.059 A 
ATOM     15  C   UNL     1     171.726 169.979 173.225  1.00  0.00     0.120 A 
ATOM     16  C   UNL     1     171.418 171.258 172.754  1.00  0.00     0.093 A 
ATOM     17  C   UNL     1     171.664 172.388 173.540  1.00  0.00     0.131 A 
ENDROOT
BRANCH   6  18
ATOM     18  O   UNL     1     172.614 175.618 177.614  1.00  0.00    -0.507 OA
ATOM     19  H   UNL     1     171.831 175.813 177.006  1.00  0.00     0.293 HD
ENDBRANCH   6  18
BRANCH  17  20
ATOM     20  O   UNL     1     171.246 173.624 173.041  1.00  0.00    -0.507 OA
ATOM     21  H   UNL     1     171.063 173.798 172.063  1.00  0.00     0.293 HD
ENDBRANCH  17  20
BRANCH  15  22
ATOM     22  O   UNL     1     171.473 168.854 172.442  1.00  0.00    -0.508 OA
ATOM     23  H   UNL     1     171.882 167.953 172.660  1.00  0.00     0.293 HD
ENDBRANCH  15  22
TORSDOF 3
ENDMDL
MODEL 9
REMARK VINA RESULT:    -5.643      4.186      6.250
REMARK INTER + INTRA:          -6.138
REMARK INTER:                  -6.138
REMARK INTRA:                   0.000
REMARK UNBOUND:                 0.000
REMARK SMILES Cc1cc(O)c2c(c1)C(=O)c1cc(O)cc(O)c1C2=O
REMARK SMILES IDX 1 1 2 2 8 3 7 4 6 5 4 6 3 7 19 8 20 9 18 10 11 11 9 12 10 13
REMARK SMILES IDX 12 14 13 15 15 16 16 17 5 18 17 20 14 22
REMARK H PARENT 5 19 17 21 14 23
REMARK Flexibility Score: inf
ROOT
ATOM      1  C   UNL     1     173.975 173.010 180.488  1.00  0.00     0.044 C 
ATOM      2  C   UNL     1     173.301 173.238 179.167  1.00  0.00    -0.047 A 
ATOM      3  C   UNL     1     173.251 174.522 178.614  1.00  0.00     0.016 A 
ATOM      4  C   UNL     1     172.647 174.739 177.364  1.00  0.00     0.038 A 
ATOM      5  C   UNL     1     172.086 173.655 176.655  1.00  0.00     0.076 A 
ATOM      6  C   UNL     1     172.216 172.344 177.182  1.00  0.00     0.127 A 
ATOM      7  C   UNL     1     172.802 172.154 178.437  1.00  0.00     0.050 A 
ATOM      8  C   UNL     1     171.327 173.945 175.411  1.00  0.00     0.201 C 
ATOM      9  O   UNL     1     170.375 173.195 175.068  1.00  0.00    -0.288 OA
ATOM     10  C   UNL     1     171.569 175.216 174.679  1.00  0.00     0.076 A 
ATOM     11  C   UNL     1     172.134 176.298 175.391  1.00  0.00     0.041 A 
ATOM     12  C   UNL     1     172.604 176.102 176.783  1.00  0.00     0.194 C 
ATOM     13  O   UNL     1     172.992 177.092 177.463  1.00  0.00    -0.289 OA
ATOM     14  C   UNL     1     172.250 177.555 174.773  1.00  0.00     0.059 A 
ATOM     15  C   UNL     1     171.828 177.741 173.458  1.00  0.00     0.120 A 
ATOM     16  C   UNL     1     171.306 176.664 172.737  1.00  0.00     0.093 A 
ATOM     17  C   UNL     1     171.198 175.398 173.321  1.00  0.00     0.131 A 
ENDROOT
BRANCH   6  18
ATOM     18  O   UNL     1     171.812 171.205 176.480  1.00  0.00    -0.507 OA
ATOM     19  H   UNL     1     171.641 171.194 175.485  1.00  0.00     0.293 HD
ENDBRANCH   6  18
BRANCH  17  20
ATOM     20  O   UNL     1     170.754 174.350 172.512  1.00  0.00    -0.507 OA
ATOM     21  H   UNL     1     170.483 173.444 172.870  1.00  0.00     0.293 HD
ENDBRANCH  17  20
BRANCH  15  22
ATOM     22  O   UNL     1     171.940 178.999 172.871  1.00  0.00    -0.508 OA
ATOM     23  H   UNL     1     172.039 179.839 173.430  1.00  0.00     0.293 HD
ENDBRANCH  15  22
TORSDOF 3
ENDMDL
