MODEL 1
REMARK VINA RESULT:    -3.383      0.000      0.000
REMARK INTER + INTRA:          -5.267
REMARK INTER:                  -5.163
REMARK INTRA:                  -0.104
REMARK UNBOUND:                -0.104
REMARK SMILES CC1=CCC[C@@H](C)C(=O)C[C@H](C(C)C)C(=O)C1
REMARK SMILES IDX 8 1 9 2 6 3 7 4 5 5 4 6 3 7 2 8 1 9 10 11 11 12 15 13 16 14
REMARK SMILES IDX 17 15 12 17 13 18 14 19
REMARK H PARENT
REMARK Flexibility Score: 70.00
ROOT
ATOM      1  C   UNL     1       6.028  -0.293  -7.012  1.00  0.00     0.136 C 
ATOM      2  O   UNL     1       5.372  -0.784  -7.917  1.00  0.00    -0.299 OA
ENDROOT
BRANCH   1   3
ATOM      3  C   UNL     1       7.215  -1.035  -6.388  1.00  0.00     0.053 C 
ATOM      4  C   UNL     1       6.748  -1.872  -5.193  1.00  0.00     0.016 C 
BRANCH   3   5
ATOM      5  C   UNL     1       8.454  -0.125  -6.021  1.00  0.00     0.015 C 
BRANCH   5   6
ATOM      6  C   UNL     1       9.622   0.072  -7.063  1.00  0.00     0.028 C 
BRANCH   6   7
ATOM      7  C   UNL     1       9.730   1.518  -7.568  1.00  0.00    -0.028 C 
ATOM      8  C   UNL     1       8.953   2.189  -8.483  1.00  0.00    -0.070 CG0
ATOM      9  C   UNL     1       9.384   3.586  -8.852  1.00  0.00     0.039 C 
ATOM     10  G   UNL     1       7.702   1.651  -9.188  1.00  0.00     0.000 G0
ENDBRANCH   6   7
ENDBRANCH   5   6
ENDBRANCH   3   5
ENDBRANCH   1   3
BRANCH   1  11
ATOM     11  C   UNL     1       5.716   1.049  -6.472  1.00  0.00     0.087 C 
BRANCH  11  12
ATOM     12  C   UNL     1       6.129   2.385  -7.083  1.00  0.00     0.066 C 
BRANCH  12  13
ATOM     13  C   UNL     1       6.364   2.172  -8.604  1.00  0.00     0.140 C 
ATOM     14  O   UNL     1       5.495   2.526  -9.386  1.00  0.00    -0.299 OA
BRANCH  13  15
ATOM     15  C   UNL     1       7.690   1.648  -9.203  1.00  0.00     0.106 CG0
ATOM     16  G   UNL     1       8.946   2.189  -8.509  1.00  0.00     0.000 G0
ENDBRANCH  13  15
ENDBRANCH  12  13
BRANCH  12  17
ATOM     17  C   UNL     1       5.084   3.495  -6.746  1.00  0.00    -0.006 C 
ATOM     18  C   UNL     1       5.716   4.855  -6.395  1.00  0.00     0.008 C 
ATOM     19  C   UNL     1       4.121   3.054  -5.633  1.00  0.00     0.008 C 
ENDBRANCH  12  17
ENDBRANCH  11  12
ENDBRANCH   1  11
TORSDOF 1
ENDMDL
MODEL 2
REMARK VINA RESULT:    -3.050      1.973      4.032
REMARK INTER + INTRA:          -4.759
REMARK INTER:                  -4.333
REMARK INTRA:                  -0.426
REMARK UNBOUND:                -0.104
REMARK SMILES CC1=CCC[C@@H](C)C(=O)C[C@H](C(C)C)C(=O)C1
REMARK SMILES IDX 8 1 9 2 6 3 7 4 5 5 4 6 3 7 2 8 1 9 10 11 11 12 15 13 16 14
REMARK SMILES IDX 17 15 12 17 13 18 14 19
REMARK H PARENT
REMARK Flexibility Score: 70.00
ROOT
ATOM      1  C   UNL     1       5.661   1.246  -6.706  1.00  0.00     0.136 C 
ATOM      2  O   UNL     1       5.992   0.622  -5.710  1.00  0.00    -0.299 OA
ENDROOT
BRANCH   1   3
ATOM      3  C   UNL     1       5.366   2.748  -6.650  1.00  0.00     0.053 C 
ATOM      4  C   UNL     1       4.194   3.024  -5.703  1.00  0.00     0.016 C 
BRANCH   3   5
ATOM      5  C   UNL     1       5.160   3.441  -8.056  1.00  0.00     0.015 C 
BRANCH   5   6
ATOM      6  C   UNL     1       6.379   4.139  -8.776  1.00  0.00     0.028 C 
BRANCH   6   7
ATOM      7  C   UNL     1       7.679   4.044  -7.967  1.00  0.00    -0.028 C 
ATOM      8  C   UNL     1       8.649   3.068  -7.973  1.00  0.00    -0.070 CG0
ATOM      9  C   UNL     1       9.769   3.210  -6.974  1.00  0.00     0.039 C 
ATOM     10  G   UNL     1       8.696   1.834  -8.882  1.00  0.00     0.000 G0
ENDBRANCH   6   7
ENDBRANCH   5   6
ENDBRANCH   3   5
ENDBRANCH   1   3
BRANCH   1  11
ATOM     11  C   UNL     1       5.535   0.585  -8.024  1.00  0.00     0.087 C 
BRANCH  11  12
ATOM     12  C   UNL     1       6.674  -0.012  -8.846  1.00  0.00     0.066 C 
BRANCH  12  13
ATOM     13  C   UNL     1       8.014   0.566  -8.313  1.00  0.00     0.140 C 
ATOM     14  O   UNL     1       8.621  -0.058  -7.456  1.00  0.00    -0.299 OA
BRANCH  13  15
ATOM     15  C   UNL     1       8.694   1.829  -8.890  1.00  0.00     0.106 CG0
ATOM     16  G   UNL     1       8.627   3.052  -7.967  1.00  0.00     0.000 G0
ENDBRANCH  13  15
ENDBRANCH  12  13
BRANCH  12  17
ATOM     17  C   UNL     1       6.602  -1.572  -8.841  1.00  0.00    -0.006 C 
ATOM     18  C   UNL     1       7.445  -2.235  -9.948  1.00  0.00     0.008 C 
ATOM     19  C   UNL     1       5.153  -2.078  -8.902  1.00  0.00     0.008 C 
ENDBRANCH  12  17
ENDBRANCH  11  12
ENDBRANCH   1  11
TORSDOF 1
ENDMDL
MODEL 3
REMARK VINA RESULT:    -3.040      1.906      4.232
REMARK INTER + INTRA:          -4.744
REMARK INTER:                  -4.432
REMARK INTRA:                  -0.312
REMARK UNBOUND:                -0.104
REMARK SMILES CC1=CCC[C@@H](C)C(=O)C[C@H](C(C)C)C(=O)C1
REMARK SMILES IDX 8 1 9 2 6 3 7 4 5 5 4 6 3 7 2 8 1 9 10 11 11 12 15 13 16 14
REMARK SMILES IDX 17 15 12 17 13 18 14 19
REMARK H PARENT
REMARK Flexibility Score: 70.00
ROOT
ATOM      1  C   UNL     1       5.131   2.482  -6.204  1.00  0.00     0.136 C 
ATOM      2  O   UNL     1       4.406   2.707  -5.249  1.00  0.00    -0.299 OA
ENDROOT
BRANCH   1   3
ATOM      3  C   UNL     1       5.463   3.568  -7.233  1.00  0.00     0.053 C 
ATOM      4  C   UNL     1       5.664   4.917  -6.534  1.00  0.00     0.016 C 
BRANCH   3   5
ATOM      5  C   UNL     1       4.448   3.678  -8.440  1.00  0.00     0.015 C 
BRANCH   5   6
ATOM      6  C   UNL     1       4.953   3.444  -9.917  1.00  0.00     0.028 C 
BRANCH   6   7
ATOM      7  C   UNL     1       6.454   3.718 -10.081  1.00  0.00    -0.028 C 
ATOM      8  C   UNL     1       7.518   2.849 -10.017  1.00  0.00    -0.070 CG0
ATOM      9  C   UNL     1       8.897   3.448 -10.116  1.00  0.00     0.039 C 
ATOM     10  G   UNL     1       7.444   1.328  -9.833  1.00  0.00     0.000 G0
ENDBRANCH   6   7
ENDBRANCH   5   6
ENDBRANCH   3   5
ENDBRANCH   1   3
BRANCH   1  11
ATOM     11  C   UNL     1       5.736   1.148  -6.418  1.00  0.00     0.087 C 
BRANCH  11  12
ATOM     12  C   UNL     1       5.908   0.439  -7.758  1.00  0.00     0.066 C 
BRANCH  12  13
ATOM     13  C   UNL     1       7.272   0.869  -8.364  1.00  0.00     0.140 C 
ATOM     14  O   UNL     1       8.278   0.752  -7.682  1.00  0.00    -0.299 OA
BRANCH  13  15
ATOM     15  C   UNL     1       7.455   1.324  -9.831  1.00  0.00     0.106 CG0
ATOM     16  G   UNL     1       7.515   2.846 -10.010  1.00  0.00     0.000 G0
ENDBRANCH  13  15
ENDBRANCH  12  13
BRANCH  12  17
ATOM     17  C   UNL     1       5.737  -1.104  -7.594  1.00  0.00    -0.006 C 
ATOM     18  C   UNL     1       6.258  -1.646  -6.250  1.00  0.00     0.008 C 
ATOM     19  C   UNL     1       6.372  -1.876  -8.761  1.00  0.00     0.008 C 
ENDBRANCH  12  17
ENDBRANCH  11  12
ENDBRANCH   1  11
TORSDOF 1
ENDMDL
MODEL 4
REMARK VINA RESULT:    -2.917      2.047      4.758
REMARK INTER + INTRA:          -4.556
REMARK INTER:                  -4.517
REMARK INTRA:                  -0.040
REMARK UNBOUND:                -0.104
REMARK SMILES CC1=CCC[C@@H](C)C(=O)C[C@H](C(C)C)C(=O)C1
REMARK SMILES IDX 8 1 9 2 6 3 7 4 5 5 4 6 3 7 2 8 1 9 10 11 11 12 15 13 16 14
REMARK SMILES IDX 17 15 12 17 13 18 14 19
REMARK H PARENT
REMARK Flexibility Score: 70.00
ROOT
ATOM      1  C   UNL     1       8.687   2.476  -7.386  1.00  0.00     0.136 C 
ATOM      2  O   UNL     1       9.487   2.322  -6.477  1.00  0.00    -0.299 OA
ENDROOT
BRANCH   1   3
ATOM      3  C   UNL     1       8.554   3.816  -8.118  1.00  0.00     0.053 C 
ATOM      4  C   UNL     1       9.824   4.109  -8.922  1.00  0.00     0.016 C 
BRANCH   3   5
ATOM      5  C   UNL     1       8.140   5.038  -7.204  1.00  0.00     0.015 C 
BRANCH   5   6
ATOM      6  C   UNL     1       6.649   5.555  -7.208  1.00  0.00     0.028 C 
BRANCH   6   7
ATOM      7  C   UNL     1       5.721   4.693  -6.341  1.00  0.00    -0.028 C 
ATOM      8  C   UNL     1       4.874   3.674  -6.706  1.00  0.00    -0.070 CG0
ATOM      9  C   UNL     1       4.004   3.087  -5.623  1.00  0.00     0.039 C 
ATOM     10  G   UNL     1       4.706   3.085  -8.112  1.00  0.00     0.000 G0
ENDBRANCH   6   7
ENDBRANCH   5   6
ENDBRANCH   3   5
ENDBRANCH   1   3
BRANCH   1  11
ATOM     11  C   UNL     1       7.807   1.374  -7.836  1.00  0.00     0.087 C 
BRANCH  11  12
ATOM     12  C   UNL     1       6.402   1.076  -7.322  1.00  0.00     0.066 C 
BRANCH  12  13
ATOM     13  C   UNL     1       5.378   1.690  -8.317  1.00  0.00     0.140 C 
ATOM     14  O   UNL     1       4.997   1.010  -9.257  1.00  0.00    -0.299 OA
BRANCH  13  15
ATOM     15  C   UNL     1       4.716   3.074  -8.122  1.00  0.00     0.106 CG0
ATOM     16  G   UNL     1       4.871   3.648  -6.709  1.00  0.00     0.000 G0
ENDBRANCH  13  15
ENDBRANCH  12  13
BRANCH  12  17
ATOM     17  C   UNL     1       6.215  -0.455  -7.075  1.00  0.00    -0.006 C 
ATOM     18  C   UNL     1       6.499  -0.887  -5.623  1.00  0.00     0.008 C 
ATOM     19  C   UNL     1       7.049  -1.297  -8.053  1.00  0.00     0.008 C 
ENDBRANCH  12  17
ENDBRANCH  11  12
ENDBRANCH   1  11
TORSDOF 1
ENDMDL
MODEL 5
REMARK VINA RESULT:    -2.913      1.880      2.791
REMARK INTER + INTRA:          -4.550
REMARK INTER:                  -4.139
REMARK INTRA:                  -0.411
REMARK UNBOUND:                -0.104
REMARK SMILES CC1=CCC[C@@H](C)C(=O)C[C@H](C(C)C)C(=O)C1
REMARK SMILES IDX 8 1 9 2 6 3 7 4 5 5 4 6 3 7 2 8 1 9 10 11 11 12 15 13 16 14
REMARK SMILES IDX 17 15 12 17 13 18 14 19
REMARK H PARENT
REMARK Flexibility Score: 70.00
ROOT
ATOM      1  C   UNL     1       4.979  -0.097  -9.479  1.00  0.00     0.136 C 
ATOM      2  O   UNL     1       3.964  -0.504 -10.021  1.00  0.00    -0.299 OA
ENDROOT
BRANCH   1   3
ATOM      3  C   UNL     1       5.992  -1.058  -8.847  1.00  0.00     0.053 C 
ATOM      4  C   UNL     1       6.254  -2.242  -9.782  1.00  0.00     0.016 C 
BRANCH   3   5
ATOM      5  C   UNL     1       5.636  -1.533  -7.381  1.00  0.00     0.015 C 
BRANCH   5   6
ATOM      6  C   UNL     1       6.604  -1.186  -6.185  1.00  0.00     0.028 C 
BRANCH   6   7
ATOM      7  C   UNL     1       8.043  -0.916  -6.644  1.00  0.00    -0.028 C 
ATOM      8  C   UNL     1       8.660   0.275  -6.948  1.00  0.00    -0.070 CG0
ATOM      9  C   UNL     1      10.069   0.199  -7.480  1.00  0.00     0.039 C 
ATOM     10  G   UNL     1       8.051   1.677  -6.823  1.00  0.00     0.000 G0
ENDBRANCH   6   7
ENDBRANCH   5   6
ENDBRANCH   3   5
ENDBRANCH   1   3
BRANCH   1  11
ATOM     11  C   UNL     1       5.291   1.349  -9.410  1.00  0.00     0.087 C 
BRANCH  11  12
ATOM     12  C   UNL     1       5.694   2.125  -8.160  1.00  0.00     0.066 C 
BRANCH  12  13
ATOM     13  C   UNL     1       7.245   2.137  -8.073  1.00  0.00     0.140 C 
ATOM     14  O   UNL     1       7.879   2.629  -8.993  1.00  0.00    -0.299 OA
BRANCH  13  15
ATOM     15  C   UNL     1       8.038   1.671  -6.830  1.00  0.00     0.106 CG0
ATOM     16  G   UNL     1       8.645   0.270  -6.965  1.00  0.00     0.000 G0
ENDBRANCH  13  15
ENDBRANCH  12  13
BRANCH  12  17
ATOM     17  C   UNL     1       5.041   3.544  -8.156  1.00  0.00    -0.006 C 
ATOM     18  C   UNL     1       4.505   3.975  -6.777  1.00  0.00     0.008 C 
ATOM     19  C   UNL     1       3.938   3.669  -9.218  1.00  0.00     0.008 C 
ENDBRANCH  12  17
ENDBRANCH  11  12
ENDBRANCH   1  11
TORSDOF 1
ENDMDL
MODEL 6
REMARK VINA RESULT:    -2.909      1.848      2.447
REMARK INTER + INTRA:          -4.545
REMARK INTER:                  -4.164
REMARK INTRA:                  -0.381
REMARK UNBOUND:                -0.104
REMARK SMILES CC1=CCC[C@@H](C)C(=O)C[C@H](C(C)C)C(=O)C1
REMARK SMILES IDX 8 1 9 2 6 3 7 4 5 5 4 6 3 7 2 8 1 9 10 11 11 12 15 13 16 14
REMARK SMILES IDX 17 15 12 17 13 18 14 19
REMARK H PARENT
REMARK Flexibility Score: 70.00
ROOT
ATOM      1  C   UNL     1       6.033   0.839  -5.899  1.00  0.00     0.136 C 
ATOM      2  O   UNL     1       5.512   1.003  -4.807  1.00  0.00    -0.299 OA
ENDROOT
BRANCH   1   3
ATOM      3  C   UNL     1       7.105  -0.233  -6.123  1.00  0.00     0.053 C 
ATOM      4  C   UNL     1       6.963  -1.350  -5.084  1.00  0.00     0.016 C 
BRANCH   3   5
ATOM      5  C   UNL     1       8.587   0.311  -6.203  1.00  0.00     0.015 C 
BRANCH   5   6
ATOM      6  C   UNL     1       9.486  -0.036  -7.453  1.00  0.00     0.028 C 
BRANCH   6   7
ATOM      7  C   UNL     1       8.835  -1.068  -8.384  1.00  0.00    -0.028 C 
ATOM      8  C   UNL     1       8.017  -0.876  -9.473  1.00  0.00    -0.070 CG0
ATOM      9  C   UNL     1       7.446  -2.110 -10.125  1.00  0.00     0.039 C 
ATOM     10  G   UNL     1       7.606   0.470 -10.081  1.00  0.00     0.000 G0
ENDBRANCH   6   7
ENDBRANCH   5   6
ENDBRANCH   3   5
ENDBRANCH   1   3
BRANCH   1  11
ATOM     11  C   UNL     1       5.652   1.663  -7.068  1.00  0.00     0.087 C 
BRANCH  11  12
ATOM     12  C   UNL     1       6.585   2.141  -8.176  1.00  0.00     0.066 C 
BRANCH  12  13
ATOM     13  C   UNL     1       6.430   1.184  -9.390  1.00  0.00     0.140 C 
ATOM     14  O   UNL     1       5.324   1.045  -9.889  1.00  0.00    -0.299 OA
BRANCH  13  15
ATOM     15  C   UNL     1       7.620   0.483 -10.088  1.00  0.00     0.106 CG0
ATOM     16  G   UNL     1       8.012  -0.858  -9.457  1.00  0.00     0.000 G0
ENDBRANCH  13  15
ENDBRANCH  12  13
BRANCH  12  17
ATOM     17  C   UNL     1       6.324   3.645  -8.510  1.00  0.00    -0.006 C 
ATOM     18  C   UNL     1       7.494   4.574  -8.133  1.00  0.00     0.008 C 
ATOM     19  C   UNL     1       5.018   4.152  -7.879  1.00  0.00     0.008 C 
ENDBRANCH  12  17
ENDBRANCH  11  12
ENDBRANCH   1  11
TORSDOF 1
ENDMDL
MODEL 7
REMARK VINA RESULT:    -2.907      2.077      2.732
REMARK INTER + INTRA:          -4.541
REMARK INTER:                  -4.206
REMARK INTRA:                  -0.335
REMARK UNBOUND:                -0.104
REMARK SMILES CC1=CCC[C@@H](C)C(=O)C[C@H](C(C)C)C(=O)C1
REMARK SMILES IDX 8 1 9 2 6 3 7 4 5 5 4 6 3 7 2 8 1 9 10 11 11 12 15 13 16 14
REMARK SMILES IDX 17 15 12 17 13 18 14 19
REMARK H PARENT
REMARK Flexibility Score: 70.00
ROOT
ATOM      1  C   UNL     1       5.894   0.661  -6.497  1.00  0.00     0.136 C 
ATOM      2  O   UNL     1       5.257   1.126  -5.565  1.00  0.00    -0.299 OA
ENDROOT
BRANCH   1   3
ATOM      3  C   UNL     1       5.982  -0.851  -6.733  1.00  0.00     0.053 C 
ATOM      4  C   UNL     1       7.052  -1.468  -5.827  1.00  0.00     0.016 C 
BRANCH   3   5
ATOM      5  C   UNL     1       6.170  -1.282  -8.242  1.00  0.00     0.015 C 
BRANCH   5   6
ATOM      6  C   UNL     1       7.530  -1.931  -8.712  1.00  0.00     0.028 C 
BRANCH   6   7
ATOM      7  C   UNL     1       8.409  -0.956  -9.507  1.00  0.00    -0.028 C 
ATOM      8  C   UNL     1       9.148   0.118  -9.069  1.00  0.00    -0.070 CG0
ATOM      9  C   UNL     1       9.829   0.954 -10.122  1.00  0.00     0.039 C 
ATOM     10  G   UNL     1       9.334   0.566  -7.614  1.00  0.00     0.000 G0
ENDBRANCH   6   7
ENDBRANCH   5   6
ENDBRANCH   3   5
ENDBRANCH   1   3
BRANCH   1  11
ATOM     11  C   UNL     1       6.610   1.533  -7.454  1.00  0.00     0.087 C 
BRANCH  11  12
ATOM     12  C   UNL     1       7.618   2.623  -7.101  1.00  0.00     0.066 C 
BRANCH  12  13
ATOM     13  C   UNL     1       9.047   2.058  -7.330  1.00  0.00     0.140 C 
ATOM     14  O   UNL     1      10.001   2.808  -7.195  1.00  0.00    -0.299 OA
BRANCH  13  15
ATOM     15  C   UNL     1       9.347   0.565  -7.602  1.00  0.00     0.106 CG0
ATOM     16  G   UNL     1       9.134   0.140  -9.060  1.00  0.00     0.000 G0
ENDBRANCH  13  15
ENDBRANCH  12  13
BRANCH  12  17
ATOM     17  C   UNL     1       7.313   3.935  -7.891  1.00  0.00    -0.006 C 
ATOM     18  C   UNL     1       6.678   5.043  -7.029  1.00  0.00     0.008 C 
ATOM     19  C   UNL     1       6.451   3.667  -9.133  1.00  0.00     0.008 C 
ENDBRANCH  12  17
ENDBRANCH  11  12
ENDBRANCH   1  11
TORSDOF 1
ENDMDL
MODEL 8
REMARK VINA RESULT:    -2.879      1.677      2.378
REMARK INTER + INTRA:          -4.499
REMARK INTER:                  -4.244
REMARK INTRA:                  -0.254
REMARK UNBOUND:                -0.104
REMARK SMILES CC1=CCC[C@@H](C)C(=O)C[C@H](C(C)C)C(=O)C1
REMARK SMILES IDX 8 1 9 2 6 3 7 4 5 5 4 6 3 7 2 8 1 9 10 11 11 12 15 13 16 14
REMARK SMILES IDX 17 15 12 17 13 18 14 19
REMARK H PARENT
REMARK Flexibility Score: 70.00
ROOT
ATOM      1  C   UNL     1       5.733  -0.183  -8.073  1.00  0.00     0.136 C 
ATOM      2  O   UNL     1       5.562  -0.598  -6.938  1.00  0.00    -0.299 OA
ENDROOT
BRANCH   1   3
ATOM      3  C   UNL     1       5.983  -1.137  -9.246  1.00  0.00     0.053 C 
ATOM      4  C   UNL     1       4.842  -2.154  -9.356  1.00  0.00     0.016 C 
BRANCH   3   5
ATOM      5  C   UNL     1       7.399  -1.840  -9.246  1.00  0.00     0.015 C 
BRANCH   5   6
ATOM      6  C   UNL     1       8.712  -0.965  -9.240  1.00  0.00     0.028 C 
BRANCH   6   7
ATOM      7  C   UNL     1       9.125  -0.524  -7.829  1.00  0.00    -0.028 C 
ATOM      8  C   UNL     1       9.404   0.734  -7.348  1.00  0.00    -0.070 CG0
ATOM      9  C   UNL     1       9.890   0.829  -5.924  1.00  0.00     0.039 C 
ATOM     10  G   UNL     1       9.291   2.053  -8.122  1.00  0.00     0.000 G0
ENDBRANCH   6   7
ENDBRANCH   5   6
ENDBRANCH   3   5
ENDBRANCH   1   3
BRANCH   1  11
ATOM     11  C   UNL     1       5.701   1.265  -8.379  1.00  0.00     0.087 C 
BRANCH  11  12
ATOM     12  C   UNL     1       6.616   2.332  -7.787  1.00  0.00     0.066 C 
BRANCH  12  13
ATOM     13  C   UNL     1       7.903   2.405  -8.655  1.00  0.00     0.140 C 
ATOM     14  O   UNL     1       7.819   2.850  -9.790  1.00  0.00    -0.299 OA
BRANCH  13  15
ATOM     15  C   UNL     1       9.316   2.063  -8.127  1.00  0.00     0.106 CG0
ATOM     16  G   UNL     1       9.388   0.745  -7.345  1.00  0.00     0.000 G0
ENDBRANCH  13  15
ENDBRANCH  12  13
BRANCH  12  17
ATOM     17  C   UNL     1       5.862   3.692  -7.644  1.00  0.00    -0.006 C 
ATOM     18  C   UNL     1       6.684   4.785  -6.935  1.00  0.00     0.008 C 
ATOM     19  C   UNL     1       4.500   3.519  -6.954  1.00  0.00     0.008 C 
ENDBRANCH  12  17
ENDBRANCH  11  12
ENDBRANCH   1  11
TORSDOF 1
ENDMDL
MODEL 9
REMARK VINA RESULT:    -2.730      1.972      4.231
REMARK INTER + INTRA:          -4.271
REMARK INTER:                  -3.996
REMARK INTRA:                  -0.275
REMARK UNBOUND:                -0.104
REMARK SMILES CC1=CCC[C@@H](C)C(=O)C[C@H](C(C)C)C(=O)C1
REMARK SMILES IDX 8 1 9 2 6 3 7 4 5 5 4 6 3 7 2 8 1 9 10 11 11 12 15 13 16 14
REMARK SMILES IDX 17 15 12 17 13 18 14 19
REMARK H PARENT
REMARK Flexibility Score: 70.00
ROOT
ATOM      1  C   UNL     1       5.719   1.581  -6.782  1.00  0.00     0.136 C 
ATOM      2  O   UNL     1       5.769   0.912  -5.762  1.00  0.00    -0.299 OA
ENDROOT
BRANCH   1   3
ATOM      3  C   UNL     1       5.128   2.995  -6.785  1.00  0.00     0.053 C 
ATOM      4  C   UNL     1       4.079   3.133  -5.677  1.00  0.00     0.016 C 
BRANCH   3   5
ATOM      5  C   UNL     1       4.575   3.485  -8.182  1.00  0.00     0.015 C 
BRANCH   5   6
ATOM      6  C   UNL     1       5.554   4.142  -9.230  1.00  0.00     0.028 C 
BRANCH   6   7
ATOM      7  C   UNL     1       6.609   5.042  -8.573  1.00  0.00    -0.028 C 
ATOM      8  C   UNL     1       7.942   4.802  -8.331  1.00  0.00    -0.070 CG0
ATOM      9  C   UNL     1       8.698   5.856  -7.562  1.00  0.00     0.039 C 
ATOM     10  G   UNL     1       8.735   3.557  -8.745  1.00  0.00     0.000 G0
ENDBRANCH   6   7
ENDBRANCH   5   6
ENDBRANCH   3   5
ENDBRANCH   1   3
BRANCH   1  11
ATOM     11  C   UNL     1       6.234   1.065  -8.070  1.00  0.00     0.087 C 
BRANCH  11  12
ATOM     12  C   UNL     1       7.695   1.032  -8.508  1.00  0.00     0.066 C 
BRANCH  12  13
ATOM     13  C   UNL     1       8.409   2.281  -7.922  1.00  0.00     0.140 C 
ATOM     14  O   UNL     1       8.825   2.233  -6.775  1.00  0.00    -0.299 OA
BRANCH  13  15
ATOM     15  C   UNL     1       8.735   3.549  -8.746  1.00  0.00     0.106 CG0
ATOM     16  G   UNL     1       7.944   4.792  -8.319  1.00  0.00     0.000 G0
ENDBRANCH  13  15
ENDBRANCH  12  13
BRANCH  12  17
ATOM     17  C   UNL     1       8.359  -0.327  -8.118  1.00  0.00    -0.006 C 
ATOM     18  C   UNL     1       9.661  -0.623  -8.886  1.00  0.00     0.008 C 
ATOM     19  C   UNL     1       7.380  -1.502  -8.258  1.00  0.00     0.008 C 
ENDBRANCH  12  17
ENDBRANCH  11  12
ENDBRANCH   1  11
TORSDOF 1
ENDMDL
