MODEL 1
REMARK VINA RESULT:     5.972      0.000      0.000
REMARK INTER + INTRA:           6.268
REMARK INTER:                   6.321
REMARK INTRA:                  -0.053
REMARK UNBOUND:                -0.053
REMARK SMILES CC1=C[C@H]2C(=C(C)CC[C@@H]2C(C)C)CC1
REMARK SMILES IDX 1 1 2 2 3 3 4 4 10 5 9 6 8 7 6 8 5 9 14 10 15 11 7 12 11 13
REMARK SMILES IDX 12 14 13 15
REMARK H PARENT
REMARK Flexibility Score: inf
ROOT
ATOM      1  C   UNL     1     151.012 135.976 158.673  1.00  0.00     0.039 C 
ATOM      2  C   UNL     1     151.394 136.302 160.090  1.00  0.00    -0.076 C 
ATOM      3  C   UNL     1     152.188 137.356 160.352  1.00  0.00    -0.020 C 
ATOM      4  C   UNL     1     152.611 137.640 161.780  1.00  0.00     0.041 C 
ATOM      5  C   UNL     1     153.659 138.793 161.875  1.00  0.00     0.003 C 
ATOM      6  C   UNL     1     154.400 138.706 163.223  1.00  0.00     0.009 C 
ATOM      7  C   UNL     1     155.125 137.370 163.341  1.00  0.00     0.031 C 
ATOM      8  C   UNL     1     154.189 136.200 163.154  1.00  0.00    -0.073 C 
ATOM      9  C   UNL     1     153.064 136.307 162.393  1.00  0.00    -0.064 C 
ATOM     10  C   UNL     1     152.177 135.087 162.135  1.00  0.00     0.036 C 
ATOM     11  C   UNL     1     150.970 135.413 161.238  1.00  0.00     0.035 C 
ATOM     12  C   UNL     1     154.608 134.875 163.750  1.00  0.00     0.039 C 
ENDROOT
BRANCH   5  13
ATOM     13  C   UNL     1     153.088 140.243 161.673  1.00  0.00    -0.013 C 
ATOM     14  C   UNL     1     151.557 140.315 161.520  1.00  0.00     0.007 C 
ATOM     15  C   UNL     1     153.760 141.003 160.522  1.00  0.00     0.007 C 
ENDBRANCH   5  13
TORSDOF 1
ENDMDL
MODEL 2
REMARK VINA RESULT:     6.453     18.990     22.260
REMARK INTER + INTRA:           6.777
REMARK INTER:                   6.884
REMARK INTRA:                  -0.107
REMARK UNBOUND:                -0.053
REMARK SMILES CC1=C[C@H]2C(=C(C)CC[C@@H]2C(C)C)CC1
REMARK SMILES IDX 1 1 2 2 3 3 4 4 10 5 9 6 8 7 6 8 5 9 14 10 15 11 7 12 11 13
REMARK SMILES IDX 12 14 13 15
REMARK H PARENT
REMARK Flexibility Score: inf
ROOT
ATOM      1  C   UNL     1     139.739 154.695 159.240  1.00  0.00     0.039 C 
ATOM      2  C   UNL     1     139.217 154.184 160.555  1.00  0.00    -0.076 C 
ATOM      3  C   UNL     1     138.410 153.108 160.590  1.00  0.00    -0.020 C 
ATOM      4  C   UNL     1     137.845 152.638 161.916  1.00  0.00     0.041 C 
ATOM      5  C   UNL     1     136.804 151.487 161.749  1.00  0.00     0.003 C 
ATOM      6  C   UNL     1     135.928 151.397 163.013  1.00  0.00     0.009 C 
ATOM      7  C   UNL     1     135.182 152.707 163.231  1.00  0.00     0.031 C 
ATOM      8  C   UNL     1     136.121 153.888 163.300  1.00  0.00    -0.073 C 
ATOM      9  C   UNL     1     137.319 153.879 162.652  1.00  0.00    -0.064 C 
ATOM     10  C   UNL     1     138.215 155.119 162.651  1.00  0.00     0.036 C 
ATOM     11  C   UNL     1     139.512 154.910 161.848  1.00  0.00     0.035 C 
ATOM     12  C   UNL     1     135.630 155.124 164.020  1.00  0.00     0.039 C 
ENDROOT
BRANCH   5  13
ATOM     13  C   UNL     1     137.407 150.075 161.415  1.00  0.00    -0.013 C 
ATOM     14  C   UNL     1     138.940 149.988 161.529  1.00  0.00     0.007 C 
ATOM     15  C   UNL     1     136.957 149.531 160.052  1.00  0.00     0.007 C 
ENDBRANCH   5  13
TORSDOF 1
ENDMDL
MODEL 3
REMARK VINA RESULT:     6.703     19.716     22.607
REMARK INTER + INTRA:           7.042
REMARK INTER:                   7.329
REMARK INTRA:                  -0.287
REMARK UNBOUND:                -0.053
REMARK SMILES CC1=C[C@H]2C(=C(C)CC[C@@H]2C(C)C)CC1
REMARK SMILES IDX 1 1 2 2 3 3 4 4 10 5 9 6 8 7 6 8 5 9 14 10 15 11 7 12 11 13
REMARK SMILES IDX 12 14 13 15
REMARK H PARENT
REMARK Flexibility Score: inf
ROOT
ATOM      1  C   UNL     1     140.715 152.590 159.979  1.00  0.00     0.039 C 
ATOM      2  C   UNL     1     139.676 153.291 160.810  1.00  0.00    -0.076 C 
ATOM      3  C   UNL     1     138.927 152.595 161.686  1.00  0.00    -0.020 C 
ATOM      4  C   UNL     1     137.845 153.304 162.476  1.00  0.00     0.041 C 
ATOM      5  C   UNL     1     136.971 152.318 163.313  1.00  0.00     0.003 C 
ATOM      6  C   UNL     1     135.637 152.994 163.679  1.00  0.00     0.009 C 
ATOM      7  C   UNL     1     134.875 153.376 162.415  1.00  0.00     0.031 C 
ATOM      8  C   UNL     1     135.699 154.250 161.500  1.00  0.00    -0.073 C 
ATOM      9  C   UNL     1     137.060 154.179 161.489  1.00  0.00    -0.064 C 
ATOM     10  C   UNL     1     137.875 155.002 160.488  1.00  0.00     0.036 C 
ATOM     11  C   UNL     1     139.390 154.764 160.625  1.00  0.00     0.035 C 
ATOM     12  C   UNL     1     134.952 155.125 160.519  1.00  0.00     0.039 C 
ENDROOT
BRANCH   5  13
ATOM     13  C   UNL     1     137.653 151.744 164.607  1.00  0.00    -0.013 C 
ATOM     14  C   UNL     1     136.740 150.859 165.476  1.00  0.00     0.007 C 
ATOM     15  C   UNL     1     138.306 152.827 165.478  1.00  0.00     0.007 C 
ENDBRANCH   5  13
TORSDOF 1
ENDMDL
MODEL 4
REMARK VINA RESULT:     7.029      1.027      4.530
REMARK INTER + INTRA:           7.387
REMARK INTER:                   7.277
REMARK INTRA:                   0.110
REMARK UNBOUND:                -0.053
REMARK SMILES CC1=C[C@H]2C(=C(C)CC[C@@H]2C(C)C)CC1
REMARK SMILES IDX 1 1 2 2 3 3 4 4 10 5 9 6 8 7 6 8 5 9 14 10 15 11 7 12 11 13
REMARK SMILES IDX 12 14 13 15
REMARK H PARENT
REMARK Flexibility Score: inf
ROOT
ATOM      1  C   UNL     1     155.105 135.005 164.096  1.00  0.00     0.039 C 
ATOM      2  C   UNL     1     154.234 136.174 163.729  1.00  0.00    -0.076 C 
ATOM      3  C   UNL     1     153.600 136.200 162.542  1.00  0.00    -0.020 C 
ATOM      4  C   UNL     1     152.771 137.410 162.161  1.00  0.00     0.041 C 
ATOM      5  C   UNL     1     152.249 137.340 160.691  1.00  0.00     0.003 C 
ATOM      6  C   UNL     1     151.861 138.752 160.215  1.00  0.00     0.009 C 
ATOM      7  C   UNL     1     153.071 139.677 160.264  1.00  0.00     0.031 C 
ATOM      8  C   UNL     1     153.697 139.716 161.638  1.00  0.00    -0.073 C 
ATOM      9  C   UNL     1     153.606 138.656 162.488  1.00  0.00    -0.064 C 
ATOM     10  C   UNL     1     154.327 138.674 163.838  1.00  0.00     0.036 C 
ATOM     11  C   UNL     1     154.115 137.376 164.639  1.00  0.00     0.035 C 
ATOM     12  C   UNL     1     154.524 140.933 161.988  1.00  0.00     0.039 C 
ENDROOT
BRANCH   5  13
ATOM     13  C   UNL     1     151.058 136.346 160.445  1.00  0.00    -0.013 C 
ATOM     14  C   UNL     1     151.369 134.875 160.777  1.00  0.00     0.007 C 
ATOM     15  C   UNL     1     150.469 136.445 159.031  1.00  0.00     0.007 C 
ENDBRANCH   5  13
TORSDOF 1
ENDMDL
MODEL 5
REMARK VINA RESULT:     7.738      0.858      4.458
REMARK INTER + INTRA:           8.137
REMARK INTER:                   8.110
REMARK INTRA:                   0.027
REMARK UNBOUND:                -0.053
REMARK SMILES CC1=C[C@H]2C(=C(C)CC[C@@H]2C(C)C)CC1
REMARK SMILES IDX 1 1 2 2 3 3 4 4 10 5 9 6 8 7 6 8 5 9 14 10 15 11 7 12 11 13
REMARK SMILES IDX 12 14 13 15
REMARK H PARENT
REMARK Flexibility Score: inf
ROOT
ATOM      1  C   UNL     1     153.688 141.090 160.748  1.00  0.00     0.039 C 
ATOM      2  C   UNL     1     152.941 139.848 161.147  1.00  0.00    -0.076 C 
ATOM      3  C   UNL     1     153.613 138.724 161.457  1.00  0.00    -0.020 C 
ATOM      4  C   UNL     1     152.846 137.463 161.803  1.00  0.00     0.041 C 
ATOM      5  C   UNL     1     153.778 136.222 161.970  1.00  0.00     0.003 C 
ATOM      6  C   UNL     1     152.950 134.932 161.825  1.00  0.00     0.009 C 
ATOM      7  C   UNL     1     152.298 134.875 160.449  1.00  0.00     0.031 C 
ATOM      8  C   UNL     1     151.458 136.099 160.171  1.00  0.00    -0.073 C 
ATOM      9  C   UNL     1     151.741 137.299 160.749  1.00  0.00    -0.064 C 
ATOM     10  C   UNL     1     150.940 138.550 160.382  1.00  0.00     0.036 C 
ATOM     11  C   UNL     1     151.429 139.805 161.128  1.00  0.00     0.035 C 
ATOM     12  C   UNL     1     150.360 135.966 159.139  1.00  0.00     0.039 C 
ENDROOT
BRANCH   5  13
ATOM     13  C   UNL     1     154.609 136.177 163.303  1.00  0.00    -0.013 C 
ATOM     14  C   UNL     1     154.458 134.876 164.111  1.00  0.00     0.007 C 
ATOM     15  C   UNL     1     154.357 137.386 164.215  1.00  0.00     0.007 C 
ENDBRANCH   5  13
TORSDOF 1
ENDMDL
MODEL 6
REMARK VINA RESULT:     8.965     13.311     15.334
REMARK INTER + INTRA:           9.436
REMARK INTER:                   9.692
REMARK INTRA:                  -0.257
REMARK UNBOUND:                -0.053
REMARK SMILES CC1=C[C@H]2C(=C(C)CC[C@@H]2C(C)C)CC1
REMARK SMILES IDX 1 1 2 2 3 3 4 4 10 5 9 6 8 7 6 8 5 9 14 10 15 11 7 12 11 13
REMARK SMILES IDX 12 14 13 15
REMARK H PARENT
REMARK Flexibility Score: inf
ROOT
ATOM      1  C   UNL     1     134.875 138.782 163.379  1.00  0.00     0.039 C 
ATOM      2  C   UNL     1     135.739 137.553 163.301  1.00  0.00    -0.076 C 
ATOM      3  C   UNL     1     137.012 137.592 163.736  1.00  0.00    -0.020 C 
ATOM      4  C   UNL     1     137.888 136.363 163.600  1.00  0.00     0.041 C 
ATOM      5  C   UNL     1     139.372 136.639 164.000  1.00  0.00     0.003 C 
ATOM      6  C   UNL     1     140.280 135.554 163.391  1.00  0.00     0.009 C 
ATOM      7  C   UNL     1     140.170 135.565 161.871  1.00  0.00     0.031 C 
ATOM      8  C   UNL     1     138.742 135.408 161.407  1.00  0.00    -0.073 C 
ATOM      9  C   UNL     1     137.696 135.823 162.176  1.00  0.00    -0.064 C 
ATOM     10  C   UNL     1     136.261 135.744 161.650  1.00  0.00     0.036 C 
ATOM     11  C   UNL     1     135.232 136.280 162.661  1.00  0.00     0.035 C 
ATOM     12  C   UNL     1     138.522 134.875 160.008  1.00  0.00     0.039 C 
ENDROOT
BRANCH   5  13
ATOM     13  C   UNL     1     139.643 136.759 165.543  1.00  0.00    -0.013 C 
ATOM     14  C   UNL     1     140.820 137.680 165.918  1.00  0.00     0.007 C 
ATOM     15  C   UNL     1     139.806 135.400 166.237  1.00  0.00     0.007 C 
ENDBRANCH   5  13
TORSDOF 1
ENDMDL
