MODEL 1
REMARK VINA RESULT:    -5.088      0.000      0.000
REMARK INTER + INTRA:          -5.088
REMARK INTER:                  -5.088
REMARK INTRA:                   0.000
REMARK UNBOUND:                 0.000
REMARK SMILES O=c1ccc2ccccc2o1
REMARK SMILES IDX 7 1 8 2 9 3 10 4 5 5 6 6 4 7 3 8 2 9 1 10 11 11
REMARK H PARENT
REMARK Flexibility Score: inf
ROOT
ATOM      1  C   UNL     1      13.863 -17.069   6.838  1.00  0.00     0.001 A 
ATOM      2  C   UNL     1      13.718 -15.780   7.361  1.00  0.00     0.004 A 
ATOM      3  C   UNL     1      12.469 -15.340   7.811  1.00  0.00     0.048 A 
ATOM      4  C   UNL     1      11.359 -16.187   7.739  1.00  0.00     0.138 A 
ATOM      5  C   UNL     1      11.505 -17.490   7.210  1.00  0.00     0.018 A 
ATOM      6  C   UNL     1      12.760 -17.926   6.761  1.00  0.00     0.012 A 
ATOM      7  C   UNL     1      10.378 -18.316   7.149  1.00  0.00     0.019 A 
ATOM      8  C   UNL     1       9.153 -17.834   7.610  1.00  0.00     0.094 A 
ATOM      9  C   UNL     1       9.083 -16.533   8.120  1.00  0.00     0.336 A 
ATOM     10  O   UNL     1       7.985 -16.081   8.540  1.00  0.00    -0.246 OA
ATOM     11  O   UNL     1      10.170 -15.768   8.166  1.00  0.00    -0.423 OA
ENDROOT
TORSDOF 0
ENDMDL
MODEL 2
REMARK VINA RESULT:    -5.034      1.721      3.859
REMARK INTER + INTRA:          -5.034
REMARK INTER:                  -5.034
REMARK INTRA:                   0.000
REMARK UNBOUND:                 0.000
REMARK SMILES O=c1ccc2ccccc2o1
REMARK SMILES IDX 7 1 8 2 9 3 10 4 5 5 6 6 4 7 3 8 2 9 1 10 11 11
REMARK H PARENT
REMARK Flexibility Score: inf
ROOT
ATOM      1  C   UNL     1       9.741 -18.105   7.422  1.00  0.00     0.001 A 
ATOM      2  C   UNL     1       9.326 -16.831   7.827  1.00  0.00     0.004 A 
ATOM      3  C   UNL     1      10.251 -15.787   7.920  1.00  0.00     0.048 A 
ATOM      4  C   UNL     1      11.595 -16.011   7.611  1.00  0.00     0.138 A 
ATOM      5  C   UNL     1      12.016 -17.297   7.202  1.00  0.00     0.018 A 
ATOM      6  C   UNL     1      11.084 -18.340   7.110  1.00  0.00     0.012 A 
ATOM      7  C   UNL     1      13.367 -17.493   6.899  1.00  0.00     0.019 A 
ATOM      8  C   UNL     1      14.253 -16.422   7.006  1.00  0.00     0.094 A 
ATOM      9  C   UNL     1      13.766 -15.176   7.418  1.00  0.00     0.336 A 
ATOM     10  O   UNL     1      14.552 -14.197   7.521  1.00  0.00    -0.246 OA
ATOM     11  O   UNL     1      12.476 -15.017   7.701  1.00  0.00    -0.423 OA
ENDROOT
TORSDOF 0
ENDMDL
MODEL 3
REMARK VINA RESULT:    -4.795      1.369      2.216
REMARK INTER + INTRA:          -4.795
REMARK INTER:                  -4.795
REMARK INTRA:                   0.000
REMARK UNBOUND:                 0.000
REMARK SMILES O=c1ccc2ccccc2o1
REMARK SMILES IDX 7 1 8 2 9 3 10 4 5 5 6 6 4 7 3 8 2 9 1 10 11 11
REMARK H PARENT
REMARK Flexibility Score: inf
ROOT
ATOM      1  C   UNL     1      14.166 -16.254   7.609  1.00  0.00     0.001 A 
ATOM      2  C   UNL     1      14.220 -17.573   7.147  1.00  0.00     0.004 A 
ATOM      3  C   UNL     1      13.041 -18.294   6.937  1.00  0.00     0.048 A 
ATOM      4  C   UNL     1      11.801 -17.699   7.190  1.00  0.00     0.138 A 
ATOM      5  C   UNL     1      11.745 -16.367   7.657  1.00  0.00     0.018 A 
ATOM      6  C   UNL     1      12.931 -15.648   7.865  1.00  0.00     0.012 A 
ATOM      7  C   UNL     1      10.491 -15.797   7.901  1.00  0.00     0.019 A 
ATOM      8  C   UNL     1       9.342 -16.554   7.678  1.00  0.00     0.094 A 
ATOM      9  C   UNL     1       9.473 -17.868   7.215  1.00  0.00     0.336 A 
ATOM     10  O   UNL     1       8.447 -18.567   7.008  1.00  0.00    -0.246 OA
ATOM     11  O   UNL     1      10.678 -18.386   6.991  1.00  0.00    -0.423 OA
ENDROOT
TORSDOF 0
ENDMDL
MODEL 4
REMARK VINA RESULT:    -4.720      1.261      3.855
REMARK INTER + INTRA:          -4.720
REMARK INTER:                  -4.720
REMARK INTRA:                   0.000
REMARK UNBOUND:                 0.000
REMARK SMILES O=c1ccc2ccccc2o1
REMARK SMILES IDX 7 1 8 2 9 3 10 4 5 5 6 6 4 7 3 8 2 9 1 10 11 11
REMARK H PARENT
REMARK Flexibility Score: inf
ROOT
ATOM      1  C   UNL     1       7.945 -18.830   7.634  1.00  0.00     0.001 A 
ATOM      2  C   UNL     1       7.453 -17.570   7.987  1.00  0.00     0.004 A 
ATOM      3  C   UNL     1       8.316 -16.471   8.057  1.00  0.00     0.048 A 
ATOM      4  C   UNL     1       9.676 -16.630   7.775  1.00  0.00     0.138 A 
ATOM      5  C   UNL     1      10.175 -17.904   7.418  1.00  0.00     0.018 A 
ATOM      6  C   UNL     1       9.304 -19.001   7.349  1.00  0.00     0.012 A 
ATOM      7  C   UNL     1      11.539 -18.033   7.142  1.00  0.00     0.019 A 
ATOM      8  C   UNL     1      12.363 -16.910   7.224  1.00  0.00     0.094 A 
ATOM      9  C   UNL     1      11.800 -15.681   7.584  1.00  0.00     0.336 A 
ATOM     10  O   UNL     1      12.527 -14.656   7.664  1.00  0.00    -0.246 OA
ATOM     11  O   UNL     1      10.498 -15.585   7.842  1.00  0.00    -0.423 OA
ENDROOT
TORSDOF 0
ENDMDL
MODEL 5
REMARK VINA RESULT:    -4.602      1.882      4.398
REMARK INTER + INTRA:          -4.602
REMARK INTER:                  -4.602
REMARK INTRA:                   0.000
REMARK UNBOUND:                 0.000
REMARK SMILES O=c1ccc2ccccc2o1
REMARK SMILES IDX 7 1 8 2 9 3 10 4 5 5 6 6 4 7 3 8 2 9 1 10 11 11
REMARK H PARENT
REMARK Flexibility Score: inf
ROOT
ATOM      1  C   UNL     1       8.023 -16.946   8.162  1.00  0.00     0.001 A 
ATOM      2  C   UNL     1       8.136 -18.227   7.613  1.00  0.00     0.004 A 
ATOM      3  C   UNL     1       9.373 -18.687   7.149  1.00  0.00     0.048 A 
ATOM      4  C   UNL     1      10.501 -17.865   7.231  1.00  0.00     0.138 A 
ATOM      5  C   UNL     1      10.388 -16.570   7.785  1.00  0.00     0.018 A 
ATOM      6  C   UNL     1       9.145 -16.116   8.250  1.00  0.00     0.012 A 
ATOM      7  C   UNL     1      11.533 -15.770   7.854  1.00  0.00     0.019 A 
ATOM      8  C   UNL     1      12.745 -16.270   7.379  1.00  0.00     0.094 A 
ATOM      9  C   UNL     1      12.783 -17.562   6.842  1.00  0.00     0.336 A 
ATOM     10  O   UNL     1      13.868 -18.030   6.408  1.00  0.00    -0.246 OA
ATOM     11  O   UNL     1      11.679 -18.302   6.788  1.00  0.00    -0.423 OA
ENDROOT
TORSDOF 0
ENDMDL
MODEL 6
REMARK VINA RESULT:    -4.305      2.143      4.991
REMARK INTER + INTRA:          -4.305
REMARK INTER:                  -4.305
REMARK INTRA:                   0.000
REMARK UNBOUND:                 0.000
REMARK SMILES O=c1ccc2ccccc2o1
REMARK SMILES IDX 7 1 8 2 9 3 10 4 5 5 6 6 4 7 3 8 2 9 1 10 11 11
REMARK H PARENT
REMARK Flexibility Score: inf
ROOT
ATOM      1  C   UNL     1       6.175 -17.101   8.749  1.00  0.00     0.001 A 
ATOM      2  C   UNL     1       6.208 -18.409   8.254  1.00  0.00     0.004 A 
ATOM      3  C   UNL     1       7.401 -18.941   7.753  1.00  0.00     0.048 A 
ATOM      4  C   UNL     1       8.565 -18.167   7.745  1.00  0.00     0.138 A 
ATOM      5  C   UNL     1       8.532 -16.845   8.245  1.00  0.00     0.018 A 
ATOM      6  C   UNL     1       7.334 -16.318   8.746  1.00  0.00     0.012 A 
ATOM      7  C   UNL     1       9.711 -16.094   8.225  1.00  0.00     0.019 A 
ATOM      8  C   UNL     1      10.877 -16.666   7.716  1.00  0.00     0.094 A 
ATOM      9  C   UNL     1      10.835 -17.980   7.237  1.00  0.00     0.336 A 
ATOM     10  O   UNL     1      11.878 -18.513   6.774  1.00  0.00    -0.246 OA
ATOM     11  O   UNL     1       9.700 -18.673   7.268  1.00  0.00    -0.423 OA
ENDROOT
TORSDOF 0
ENDMDL
MODEL 7
REMARK VINA RESULT:    -4.067      1.725      4.194
REMARK INTER + INTRA:          -4.067
REMARK INTER:                  -4.067
REMARK INTRA:                   0.000
REMARK UNBOUND:                 0.000
REMARK SMILES O=c1ccc2ccccc2o1
REMARK SMILES IDX 7 1 8 2 9 3 10 4 5 5 6 6 4 7 3 8 2 9 1 10 11 11
REMARK H PARENT
REMARK Flexibility Score: inf
ROOT
ATOM      1  C   UNL     1       6.771 -17.599   8.219  1.00  0.00     0.001 A 
ATOM      2  C   UNL     1       7.226 -16.357   8.675  1.00  0.00     0.004 A 
ATOM      3  C   UNL     1       8.587 -16.040   8.609  1.00  0.00     0.048 A 
ATOM      4  C   UNL     1       9.498 -16.964   8.088  1.00  0.00     0.138 A 
ATOM      5  C   UNL     1       9.038 -18.219   7.628  1.00  0.00     0.018 A 
ATOM      6  C   UNL     1       7.673 -18.531   7.696  1.00  0.00     0.012 A 
ATOM      7  C   UNL     1       9.972 -19.123   7.112  1.00  0.00     0.019 A 
ATOM      8  C   UNL     1      11.318 -18.764   7.066  1.00  0.00     0.094 A 
ATOM      9  C   UNL     1      11.701 -17.504   7.540  1.00  0.00     0.336 A 
ATOM     10  O   UNL     1      12.912 -17.162   7.506  1.00  0.00    -0.246 OA
ATOM     11  O   UNL     1      10.793 -16.662   8.026  1.00  0.00    -0.423 OA
ENDROOT
TORSDOF 0
ENDMDL
