MODEL 1
REMARK VINA RESULT:    -3.367      0.000      0.000
REMARK INTER + INTRA:          -3.703
REMARK INTER:                  -3.663
REMARK INTRA:                  -0.041
REMARK UNBOUND:                -0.041
REMARK SMILES COc1ccccc1O
REMARK SMILES IDX 3 1 4 2 5 3 6 4 7 5 8 6 2 7 1 8 9 9
REMARK H PARENT 9 10
REMARK Flexibility Score: inf
ROOT
ATOM      1  C   UNL     1     -19.928   4.605  -2.912  1.00  0.00     0.160 A 
ATOM      2  C   UNL     1     -20.401   5.932  -2.876  1.00  0.00     0.050 A 
ATOM      3  C   UNL     1     -19.501   7.002  -2.913  1.00  0.00     0.004 A 
ATOM      4  C   UNL     1     -18.128   6.760  -2.986  1.00  0.00     0.004 A 
ATOM      5  C   UNL     1     -17.650   5.449  -3.021  1.00  0.00     0.050 A 
ATOM      6  C   UNL     1     -18.546   4.370  -2.984  1.00  0.00     0.157 A 
ENDROOT
BRANCH   1   7
ATOM      7  O   UNL     1     -20.795   3.501  -2.877  1.00  0.00    -0.493 OA
ATOM      8  C   UNL     1     -21.451   2.956  -4.017  1.00  0.00     0.278 C 
ENDBRANCH   1   7
BRANCH   6   9
ATOM      9  O   UNL     1     -18.070   3.060  -3.020  1.00  0.00    -0.504 OA
ATOM     10  H   UNL     1     -17.079   2.857  -3.069  1.00  0.00     0.293 HD
ENDBRANCH   6   9
TORSDOF 2
ENDMDL
MODEL 2
REMARK VINA RESULT:    -3.326      1.347      3.141
REMARK INTER + INTRA:          -3.659
REMARK INTER:                  -3.630
REMARK INTRA:                  -0.029
REMARK UNBOUND:                -0.041
REMARK SMILES COc1ccccc1O
REMARK SMILES IDX 3 1 4 2 5 3 6 4 7 5 8 6 2 7 1 8 9 9
REMARK H PARENT 9 10
REMARK Flexibility Score: inf
ROOT
ATOM      1  C   UNL     1     -18.976   5.069  -2.969  1.00  0.00     0.160 A 
ATOM      2  C   UNL     1     -20.124   5.881  -2.875  1.00  0.00     0.050 A 
ATOM      3  C   UNL     1     -21.399   5.314  -2.973  1.00  0.00     0.004 A 
ATOM      4  C   UNL     1     -21.541   3.938  -3.166  1.00  0.00     0.004 A 
ATOM      5  C   UNL     1     -20.409   3.126  -3.261  1.00  0.00     0.050 A 
ATOM      6  C   UNL     1     -19.127   3.686  -3.163  1.00  0.00     0.157 A 
ENDROOT
BRANCH   1   7
ATOM      7  O   UNL     1     -17.678   5.595  -2.876  1.00  0.00    -0.493 OA
ATOM      8  C   UNL     1     -17.316   6.919  -3.252  1.00  0.00     0.278 C 
ENDBRANCH   1   7
BRANCH   6   9
ATOM      9  O   UNL     1     -17.997   2.876  -3.257  1.00  0.00    -0.504 OA
ATOM     10  H   UNL     1     -17.565   2.670  -4.150  1.00  0.00     0.293 HD
ENDBRANCH   6   9
TORSDOF 2
ENDMDL
MODEL 3
REMARK VINA RESULT:    -0.671     21.559     22.365
REMARK INTER + INTRA:          -0.770
REMARK INTER:                  -1.059
REMARK INTRA:                   0.289
REMARK UNBOUND:                -0.041
REMARK SMILES COc1ccccc1O
REMARK SMILES IDX 3 1 4 2 5 3 6 4 7 5 8 6 2 7 1 8 9 9
REMARK H PARENT 9 10
REMARK Flexibility Score: inf
ROOT
ATOM      1  C   UNL     1      -8.106   4.784 -22.415  1.00  0.00     0.160 A 
ATOM      2  C   UNL     1      -6.891   4.703 -23.125  1.00  0.00     0.050 A 
ATOM      3  C   UNL     1      -5.929   3.751 -22.770  1.00  0.00     0.004 A 
ATOM      4  C   UNL     1      -6.168   2.875 -21.709  1.00  0.00     0.004 A 
ATOM      5  C   UNL     1      -7.369   2.949 -21.000  1.00  0.00     0.050 A 
ATOM      6  C   UNL     1      -8.339   3.900 -21.349  1.00  0.00     0.157 A 
ENDROOT
BRANCH   1   7
ATOM      7  O   UNL     1      -9.099   5.723 -22.737  1.00  0.00    -0.493 OA
ATOM      8  C   UNL     1     -10.427   5.390 -23.125  1.00  0.00     0.278 C 
ENDBRANCH   1   7
BRANCH   6   9
ATOM      9  O   UNL     1      -9.537   3.974 -20.642  1.00  0.00    -0.504 OA
ATOM     10  H   UNL     1      -9.611   3.644 -19.687  1.00  0.00     0.293 HD
ENDBRANCH   6   9
TORSDOF 2
ENDMDL
