MODEL 1
REMARK VINA RESULT:    -3.356      0.000      0.000
REMARK INTER + INTRA:          -6.512
REMARK INTER:                  -5.121
REMARK INTRA:                  -1.391
REMARK UNBOUND:                -1.391
REMARK SMILES CCCCCCCCCC=CC(=O)[O-]
REMARK SMILES IDX 7 1 8 2 9 3 10 4 11 5 12 6 13 7 14 8 6 9 5 10 4 11 3 12 2 13
REMARK SMILES IDX 1 14
REMARK H PARENT
REMARK Flexibility Score: inf
ROOT
ATOM      1  C   UNL     1      57.123  28.858  51.857  1.00  0.00     0.000 C 
ENDROOT
BRANCH   1   2
ATOM      2  C   UNL     1      57.374  29.200  50.381  1.00  0.00     0.004 C 
BRANCH   2   3
ATOM      3  C   UNL     1      58.847  29.530  50.093  1.00  0.00     0.027 C 
BRANCH   3   4
ATOM      4  C   UNL     1      59.543  28.377  49.421  1.00  0.00    -0.025 C 
ATOM      5  C   UNL     1      60.255  27.419  50.037  1.00  0.00     0.020 C 
BRANCH   5   6
ATOM      6  C   UNL     1      60.525  27.314  51.487  1.00  0.00     0.064 C 
ATOM      7  O   UNL     1      61.440  27.971  52.047  1.00  0.00    -0.545 OA
ATOM      8  O   UNL     1      59.754  26.448  52.251  1.00  0.00    -0.545 OA
ENDBRANCH   5   6
ENDBRANCH   3   4
ENDBRANCH   2   3
ENDBRANCH   1   2
BRANCH   1   9
ATOM      9  C   UNL     1      56.403  27.514  52.040  1.00  0.00     0.000 C 
BRANCH   9  10
ATOM     10  C   UNL     1      56.449  26.687  50.746  1.00  0.00     0.000 C 
BRANCH  10  11
ATOM     11  C   UNL     1      55.064  26.511  50.101  1.00  0.00    -0.000 C 
BRANCH  11  12
ATOM     12  C   UNL     1      53.933  27.097  50.964  1.00  0.00    -0.000 C 
BRANCH  12  13
ATOM     13  C   UNL     1      53.155  28.206  50.238  1.00  0.00    -0.003 C 
ATOM     14  C   UNL     1      53.647  29.608  50.596  1.00  0.00     0.004 C 
ENDBRANCH  12  13
ENDBRANCH  11  12
ENDBRANCH  10  11
ENDBRANCH   9  10
ENDBRANCH   1   9
TORSDOF 9
ENDMDL
MODEL 2
REMARK VINA RESULT:    -3.309      1.422      2.468
REMARK INTER + INTRA:          -6.442
REMARK INTER:                  -5.064
REMARK INTRA:                  -1.378
REMARK UNBOUND:                -1.391
REMARK SMILES CCCCCCCCCC=CC(=O)[O-]
REMARK SMILES IDX 7 1 8 2 9 3 10 4 11 5 12 6 13 7 14 8 6 9 5 10 4 11 3 12 2 13
REMARK SMILES IDX 1 14
REMARK H PARENT
REMARK Flexibility Score: inf
ROOT
ATOM      1  C   UNL     1      56.072  29.210  53.369  1.00  0.00     0.000 C 
ENDROOT
BRANCH   1   2
ATOM      2  C   UNL     1      56.932  30.085  52.445  1.00  0.00     0.004 C 
BRANCH   2   3
ATOM      3  C   UNL     1      58.057  29.294  51.760  1.00  0.00     0.027 C 
BRANCH   3   4
ATOM      4  C   UNL     1      58.124  29.604  50.288  1.00  0.00    -0.025 C 
ATOM      5  C   UNL     1      58.950  29.027  49.399  1.00  0.00     0.020 C 
BRANCH   5   6
ATOM      6  C   UNL     1      59.974  27.999  49.682  1.00  0.00     0.064 C 
ATOM      7  O   UNL     1      61.188  28.290  49.839  1.00  0.00    -0.545 OA
ATOM      8  O   UNL     1      59.586  26.669  49.759  1.00  0.00    -0.545 OA
ENDBRANCH   5   6
ENDBRANCH   3   4
ENDBRANCH   2   3
ENDBRANCH   1   2
BRANCH   1   9
ATOM      9  C   UNL     1      54.648  29.002  52.832  1.00  0.00     0.000 C 
BRANCH   9  10
ATOM     10  C   UNL     1      54.436  29.782  51.525  1.00  0.00     0.000 C 
BRANCH  10  11
ATOM     11  C   UNL     1      54.062  28.873  50.343  1.00  0.00    -0.000 C 
BRANCH  11  12
ATOM     12  C   UNL     1      53.781  27.424  50.778  1.00  0.00    -0.000 C 
BRANCH  12  13
ATOM     13  C   UNL     1      54.663  26.406  50.038  1.00  0.00    -0.003 C 
ATOM     14  C   UNL     1      56.116  26.423  50.516  1.00  0.00     0.004 C 
ENDBRANCH  12  13
ENDBRANCH  11  12
ENDBRANCH  10  11
ENDBRANCH   9  10
ENDBRANCH   1   9
TORSDOF 9
ENDMDL
MODEL 3
REMARK VINA RESULT:    -3.192      1.110      1.809
REMARK INTER + INTRA:          -6.263
REMARK INTER:                  -4.922
REMARK INTRA:                  -1.341
REMARK UNBOUND:                -1.391
REMARK SMILES CCCCCCCCCC=CC(=O)[O-]
REMARK SMILES IDX 7 1 8 2 9 3 10 4 11 5 12 6 13 7 14 8 6 9 5 10 4 11 3 12 2 13
REMARK SMILES IDX 1 14
REMARK H PARENT
REMARK Flexibility Score: inf
ROOT
ATOM      1  C   UNL     1      58.235  29.627  50.887  1.00  0.00     0.000 C 
ENDROOT
BRANCH   1   2
ATOM      2  C   UNL     1      58.880  29.316  49.528  1.00  0.00     0.004 C 
BRANCH   2   3
ATOM      3  C   UNL     1      59.972  28.240  49.624  1.00  0.00     0.027 C 
BRANCH   3   4
ATOM      4  C   UNL     1      59.373  26.864  49.739  1.00  0.00    -0.025 C 
ATOM      5  C   UNL     1      59.562  26.004  50.754  1.00  0.00     0.020 C 
BRANCH   5   6
ATOM      6  C   UNL     1      60.413  26.217  51.944  1.00  0.00     0.064 C 
ATOM      7  O   UNL     1      61.605  25.818  51.995  1.00  0.00    -0.545 OA
ATOM      8  O   UNL     1      59.872  26.863  53.048  1.00  0.00    -0.545 OA
ENDBRANCH   5   6
ENDBRANCH   3   4
ENDBRANCH   2   3
ENDBRANCH   1   2
BRANCH   1   9
ATOM      9  C   UNL     1      56.811  29.065  51.009  1.00  0.00     0.000 C 
BRANCH   9  10
ATOM     10  C   UNL     1      56.701  28.105  52.205  1.00  0.00     0.000 C 
BRANCH  10  11
ATOM     11  C   UNL     1      55.859  26.858  51.892  1.00  0.00    -0.000 C 
BRANCH  11  12
ATOM     12  C   UNL     1      55.771  26.567  50.384  1.00  0.00    -0.000 C 
BRANCH  12  13
ATOM     13  C   UNL     1      54.321  26.413  49.898  1.00  0.00    -0.003 C 
ATOM     14  C   UNL     1      53.451  27.624  50.236  1.00  0.00     0.004 C 
ENDBRANCH  12  13
ENDBRANCH  11  12
ENDBRANCH  10  11
ENDBRANCH   9  10
ENDBRANCH   1   9
TORSDOF 9
ENDMDL
MODEL 4
REMARK VINA RESULT:    -3.188      1.500      2.939
REMARK INTER + INTRA:          -6.257
REMARK INTER:                  -4.629
REMARK INTRA:                  -1.628
REMARK UNBOUND:                -1.391
REMARK SMILES CCCCCCCCCC=CC(=O)[O-]
REMARK SMILES IDX 7 1 8 2 9 3 10 4 11 5 12 6 13 7 14 8 6 9 5 10 4 11 3 12 2 13
REMARK SMILES IDX 1 14
REMARK H PARENT
REMARK Flexibility Score: inf
ROOT
ATOM      1  C   UNL     1      55.220  29.568  51.153  1.00  0.00     0.000 C 
ENDROOT
BRANCH   1   2
ATOM      2  C   UNL     1      56.238  29.666  52.299  1.00  0.00     0.004 C 
BRANCH   2   3
ATOM      3  C   UNL     1      57.691  29.575  51.808  1.00  0.00     0.027 C 
BRANCH   3   4
ATOM      4  C   UNL     1      57.754  29.452  50.309  1.00  0.00    -0.025 C 
ATOM      5  C   UNL     1      58.863  29.239  49.582  1.00  0.00     0.020 C 
BRANCH   5   6
ATOM      6  C   UNL     1      60.244  29.113  50.095  1.00  0.00     0.064 C 
ATOM      7  O   UNL     1      60.897  30.104  50.510  1.00  0.00    -0.545 OA
ATOM      8  O   UNL     1      60.845  27.861  50.101  1.00  0.00    -0.545 OA
ENDBRANCH   5   6
ENDBRANCH   3   4
ENDBRANCH   2   3
ENDBRANCH   1   2
BRANCH   1   9
ATOM      9  C   UNL     1      54.165  28.476  51.390  1.00  0.00     0.000 C 
BRANCH   9  10
ATOM     10  C   UNL     1      54.211  27.420  50.275  1.00  0.00     0.000 C 
BRANCH  10  11
ATOM     11  C   UNL     1      55.444  26.507  50.369  1.00  0.00    -0.000 C 
BRANCH  11  12
ATOM     12  C   UNL     1      55.644  25.928  51.780  1.00  0.00    -0.000 C 
BRANCH  12  13
ATOM     13  C   UNL     1      57.107  26.003  52.245  1.00  0.00    -0.003 C 
ATOM     14  C   UNL     1      58.103  25.858  51.094  1.00  0.00     0.004 C 
ENDBRANCH  12  13
ENDBRANCH  11  12
ENDBRANCH  10  11
ENDBRANCH   9  10
ENDBRANCH   1   9
TORSDOF 9
ENDMDL
MODEL 5
REMARK VINA RESULT:    -3.186      1.649      2.603
REMARK INTER + INTRA:          -6.254
REMARK INTER:                  -5.073
REMARK INTRA:                  -1.181
REMARK UNBOUND:                -1.391
REMARK SMILES CCCCCCCCCC=CC(=O)[O-]
REMARK SMILES IDX 7 1 8 2 9 3 10 4 11 5 12 6 13 7 14 8 6 9 5 10 4 11 3 12 2 13
REMARK SMILES IDX 1 14
REMARK H PARENT
REMARK Flexibility Score: inf
ROOT
ATOM      1  C   UNL     1      58.869  26.361  51.728  1.00  0.00     0.000 C 
ENDROOT
BRANCH   1   2
ATOM      2  C   UNL     1      59.456  26.275  50.312  1.00  0.00     0.004 C 
BRANCH   2   3
ATOM      3  C   UNL     1      60.217  27.548  49.908  1.00  0.00     0.027 C 
BRANCH   3   4
ATOM      4  C   UNL     1      59.278  28.599  49.378  1.00  0.00    -0.025 C 
ATOM      5  C   UNL     1      58.986  29.766  49.975  1.00  0.00     0.020 C 
BRANCH   5   6
ATOM      6  C   UNL     1      59.496  30.245  51.277  1.00  0.00     0.064 C 
ATOM      7  O   UNL     1      58.780  30.258  52.312  1.00  0.00    -0.545 OA
ATOM      8  O   UNL     1      60.801  30.711  51.356  1.00  0.00    -0.545 OA
ENDBRANCH   5   6
ENDBRANCH   3   4
ENDBRANCH   2   3
ENDBRANCH   1   2
BRANCH   1   9
ATOM      9  C   UNL     1      57.455  25.770  51.821  1.00  0.00     0.000 C 
BRANCH   9  10
ATOM     10  C   UNL     1      56.449  26.629  51.038  1.00  0.00     0.000 C 
BRANCH  10  11
ATOM     11  C   UNL     1      56.231  28.015  51.669  1.00  0.00    -0.000 C 
BRANCH  11  12
ATOM     12  C   UNL     1      55.412  28.952  50.765  1.00  0.00    -0.000 C 
BRANCH  12  13
ATOM     13  C   UNL     1      54.041  28.364  50.397  1.00  0.00    -0.003 C 
ATOM     14  C   UNL     1      52.925  29.409  50.409  1.00  0.00     0.004 C 
ENDBRANCH  12  13
ENDBRANCH  11  12
ENDBRANCH  10  11
ENDBRANCH   9  10
ENDBRANCH   1   9
TORSDOF 9
ENDMDL
MODEL 6
REMARK VINA RESULT:    -3.182      2.556      3.899
REMARK INTER + INTRA:          -6.247
REMARK INTER:                  -5.217
REMARK INTRA:                  -1.030
REMARK UNBOUND:                -1.391
REMARK SMILES CCCCCCCCCC=CC(=O)[O-]
REMARK SMILES IDX 7 1 8 2 9 3 10 4 11 5 12 6 13 7 14 8 6 9 5 10 4 11 3 12 2 13
REMARK SMILES IDX 1 14
REMARK H PARENT
REMARK Flexibility Score: inf
ROOT
ATOM      1  C   UNL     1      59.709  27.940  49.689  1.00  0.00     0.000 C 
ENDROOT
BRANCH   1   2
ATOM      2  C   UNL     1      58.902  26.634  49.752  1.00  0.00     0.004 C 
BRANCH   2   3
ATOM      3  C   UNL     1      59.398  25.686  50.855  1.00  0.00     0.027 C 
BRANCH   3   4
ATOM      4  C   UNL     1      60.893  25.522  50.802  1.00  0.00    -0.025 C 
ATOM      5  C   UNL     1      61.552  24.377  50.559  1.00  0.00     0.020 C 
BRANCH   5   6
ATOM      6  C   UNL     1      60.952  23.046  50.324  1.00  0.00     0.064 C 
ATOM      7  O   UNL     1      60.456  22.361  51.255  1.00  0.00    -0.545 OA
ATOM      8  O   UNL     1      60.953  22.529  49.035  1.00  0.00    -0.545 OA
ENDBRANCH   5   6
ENDBRANCH   3   4
ENDBRANCH   2   3
ENDBRANCH   1   2
BRANCH   1   9
ATOM      9  C   UNL     1      58.816  29.185  49.593  1.00  0.00     0.000 C 
BRANCH   9  10
ATOM     10  C   UNL     1      58.657  29.853  50.968  1.00  0.00     0.000 C 
BRANCH  10  11
ATOM     11  C   UNL     1      57.347  29.461  51.672  1.00  0.00    -0.000 C 
BRANCH  11  12
ATOM     12  C   UNL     1      56.263  28.995  50.686  1.00  0.00    -0.000 C 
BRANCH  12  13
ATOM     13  C   UNL     1      55.415  27.842  51.246  1.00  0.00    -0.003 C 
ATOM     14  C   UNL     1      55.271  26.679  50.264  1.00  0.00     0.004 C 
ENDBRANCH  12  13
ENDBRANCH  11  12
ENDBRANCH  10  11
ENDBRANCH   9  10
ENDBRANCH   1   9
TORSDOF 9
ENDMDL
MODEL 7
REMARK VINA RESULT:    -3.155      1.502      2.081
REMARK INTER + INTRA:          -6.206
REMARK INTER:                  -4.963
REMARK INTRA:                  -1.242
REMARK UNBOUND:                -1.391
REMARK SMILES CCCCCCCCCC=CC(=O)[O-]
REMARK SMILES IDX 7 1 8 2 9 3 10 4 11 5 12 6 13 7 14 8 6 9 5 10 4 11 3 12 2 13
REMARK SMILES IDX 1 14
REMARK H PARENT
REMARK Flexibility Score: inf
ROOT
ATOM      1  C   UNL     1      57.251  30.228  52.530  1.00  0.00     0.000 C 
ENDROOT
BRANCH   1   2
ATOM      2  C   UNL     1      58.692  30.757  52.477  1.00  0.00     0.004 C 
BRANCH   2   3
ATOM      3  C   UNL     1      59.617  29.870  51.628  1.00  0.00     0.027 C 
BRANCH   3   4
ATOM      4  C   UNL     1      59.157  29.815  50.196  1.00  0.00    -0.025 C 
ATOM      5  C   UNL     1      59.048  28.707  49.445  1.00  0.00     0.020 C 
BRANCH   5   6
ATOM      6  C   UNL     1      59.383  27.326  49.855  1.00  0.00     0.064 C 
ATOM      7  O   UNL     1      58.497  26.467  50.100  1.00  0.00    -0.545 OA
ATOM      8  O   UNL     1      60.718  26.972  49.991  1.00  0.00    -0.545 OA
ENDBRANCH   5   6
ENDBRANCH   3   4
ENDBRANCH   2   3
ENDBRANCH   1   2
BRANCH   1   9
ATOM      9  C   UNL     1      57.155  28.834  53.169  1.00  0.00     0.000 C 
BRANCH   9  10
ATOM     10  C   UNL     1      56.146  27.954  52.415  1.00  0.00     0.000 C 
BRANCH  10  11
ATOM     11  C   UNL     1      55.751  28.538  51.048  1.00  0.00    -0.000 C 
BRANCH  11  12
ATOM     12  C   UNL     1      54.538  27.823  50.429  1.00  0.00    -0.000 C 
BRANCH  12  13
ATOM     13  C   UNL     1      53.300  28.729  50.347  1.00  0.00    -0.003 C 
ATOM     14  C   UNL     1      53.594  30.174  50.751  1.00  0.00     0.004 C 
ENDBRANCH  12  13
ENDBRANCH  11  12
ENDBRANCH  10  11
ENDBRANCH   9  10
ENDBRANCH   1   9
TORSDOF 9
ENDMDL
MODEL 8
REMARK VINA RESULT:    -3.154      2.685      5.173
REMARK INTER + INTRA:          -6.205
REMARK INTER:                  -4.983
REMARK INTRA:                  -1.222
REMARK UNBOUND:                -1.391
REMARK SMILES CCCCCCCCCC=CC(=O)[O-]
REMARK SMILES IDX 7 1 8 2 9 3 10 4 11 5 12 6 13 7 14 8 6 9 5 10 4 11 3 12 2 13
REMARK SMILES IDX 1 14
REMARK H PARENT
REMARK Flexibility Score: inf
ROOT
ATOM      1  C   UNL     1      58.498  29.906  51.484  1.00  0.00     0.000 C 
ENDROOT
BRANCH   1   2
ATOM      2  C   UNL     1      57.251  29.629  50.632  1.00  0.00     0.004 C 
BRANCH   2   3
ATOM      3  C   UNL     1      56.091  29.045  51.455  1.00  0.00     0.027 C 
BRANCH   3   4
ATOM      4  C   UNL     1      54.776  29.218  50.743  1.00  0.00    -0.025 C 
ATOM      5  C   UNL     1      53.951  28.229  50.363  1.00  0.00     0.020 C 
BRANCH   5   6
ATOM      6  C   UNL     1      54.173  26.777  50.535  1.00  0.00     0.064 C 
ATOM      7  O   UNL     1      54.757  26.082  49.665  1.00  0.00    -0.545 OA
ATOM      8  O   UNL     1      53.707  26.160  51.688  1.00  0.00    -0.545 OA
ENDBRANCH   5   6
ENDBRANCH   3   4
ENDBRANCH   2   3
ENDBRANCH   1   2
BRANCH   1   9
ATOM      9  C   UNL     1      59.806  29.645  50.723  1.00  0.00     0.000 C 
BRANCH   9  10
ATOM     10  C   UNL     1      59.633  28.500  49.713  1.00  0.00     0.000 C 
BRANCH  10  11
ATOM     11  C   UNL     1      60.578  27.318  49.986  1.00  0.00    -0.000 C 
BRANCH  11  12
ATOM     12  C   UNL     1      59.822  25.994  50.196  1.00  0.00    -0.000 C 
BRANCH  12  13
ATOM     13  C   UNL     1      58.308  26.202  50.360  1.00  0.00    -0.003 C 
ATOM     14  C   UNL     1      57.802  25.812  51.749  1.00  0.00     0.004 C 
ENDBRANCH  12  13
ENDBRANCH  11  12
ENDBRANCH  10  11
ENDBRANCH   9  10
ENDBRANCH   1   9
TORSDOF 9
ENDMDL
MODEL 9
REMARK VINA RESULT:    -3.094      1.496      2.419
REMARK INTER + INTRA:          -6.113
REMARK INTER:                  -4.749
REMARK INTRA:                  -1.364
REMARK UNBOUND:                -1.391
REMARK SMILES CCCCCCCCCC=CC(=O)[O-]
REMARK SMILES IDX 7 1 8 2 9 3 10 4 11 5 12 6 13 7 14 8 6 9 5 10 4 11 3 12 2 13
REMARK SMILES IDX 1 14
REMARK H PARENT
REMARK Flexibility Score: inf
ROOT
ATOM      1  C   UNL     1      56.485  27.245  52.077  1.00  0.00     0.000 C 
ENDROOT
BRANCH   1   2
ATOM      2  C   UNL     1      56.823  28.617  52.679  1.00  0.00     0.004 C 
BRANCH   2   3
ATOM      3  C   UNL     1      58.131  29.200  52.122  1.00  0.00     0.027 C 
BRANCH   3   4
ATOM      4  C   UNL     1      57.974  29.617  50.684  1.00  0.00    -0.025 C 
ATOM      5  C   UNL     1      58.628  29.090  49.635  1.00  0.00     0.020 C 
BRANCH   5   6
ATOM      6  C   UNL     1      59.650  28.022  49.677  1.00  0.00     0.064 C 
ATOM      7  O   UNL     1      60.882  28.274  49.647  1.00  0.00    -0.545 OA
ATOM      8  O   UNL     1      59.234  26.699  49.736  1.00  0.00    -0.545 OA
ENDBRANCH   5   6
ENDBRANCH   3   4
ENDBRANCH   2   3
ENDBRANCH   1   2
BRANCH   1   9
ATOM      9  C   UNL     1      54.986  27.079  51.785  1.00  0.00     0.000 C 
BRANCH   9  10
ATOM     10  C   UNL     1      54.644  27.583  50.375  1.00  0.00     0.000 C 
BRANCH  10  11
ATOM     11  C   UNL     1      53.507  28.619  50.373  1.00  0.00    -0.000 C 
BRANCH  11  12
ATOM     12  C   UNL     1      54.004  30.042  50.682  1.00  0.00    -0.000 C 
BRANCH  12  13
ATOM     13  C   UNL     1      53.391  30.612  51.970  1.00  0.00    -0.003 C 
ATOM     14  C   UNL     1      54.408  31.365  52.829  1.00  0.00     0.004 C 
ENDBRANCH  12  13
ENDBRANCH  11  12
ENDBRANCH  10  11
ENDBRANCH   9  10
ENDBRANCH   1   9
TORSDOF 9
ENDMDL
