MODEL 1
REMARK VINA RESULT:    -4.692      0.000      0.000
REMARK INTER + INTRA:         -11.155
REMARK INTER:                  -8.532
REMARK INTRA:                  -2.623
REMARK UNBOUND:                -2.623
REMARK SMILES CCCCCC=CCC=CCCCCCCCC(=O)[O-]
REMARK SMILES IDX 11 1 12 2 13 3 14 4 15 5 16 6 17 7 18 8 19 9 20 10 10 11
REMARK SMILES IDX 9 12 8 13 7 14 6 15 5 16 4 17 3 18 2 19 1 20
REMARK H PARENT
REMARK Flexibility Score: inf
ROOT
ATOM      1  C   UNL     1      -0.133  17.058   8.165  1.00  0.00     0.027 C 
ENDROOT
BRANCH   1   2
ATOM      2  C   UNL     1       0.227  18.499   7.780  1.00  0.00     0.004 C 
BRANCH   2   3
ATOM      3  C   UNL     1       1.705  18.820   8.057  1.00  0.00     0.000 C 
BRANCH   3   4
ATOM      4  C   UNL     1       1.910  19.602   9.366  1.00  0.00     0.000 C 
BRANCH   4   5
ATOM      5  C   UNL     1       3.140  19.141  10.176  1.00  0.00     0.000 C 
BRANCH   5   6
ATOM      6  C   UNL     1       2.893  19.208  11.693  1.00  0.00     0.006 C 
BRANCH   6   7
ATOM      7  C   UNL     1       2.702  17.816  12.314  1.00  0.00     0.053 C 
BRANCH   7   8
ATOM      8  C   UNL     1       1.278  17.575  12.709  1.00  0.00     0.041 C 
ATOM      9  O   UNL     1       1.008  16.805  13.668  1.00  0.00    -0.550 OA
ATOM     10  O   UNL     1       0.245  18.170  11.993  1.00  0.00    -0.550 OA
ENDBRANCH   7   8
ENDBRANCH   6   7
ENDBRANCH   5   6
ENDBRANCH   4   5
ENDBRANCH   3   4
ENDBRANCH   2   3
ENDBRANCH   1   2
BRANCH   1  11
ATOM     11  C   UNL     1       1.086  16.272   8.570  1.00  0.00    -0.031 C 
ATOM     12  C   UNL     1       1.120  15.558   9.705  1.00  0.00    -0.027 C 
BRANCH  12  13
ATOM     13  C   UNL     1       2.344  14.791  10.117  1.00  0.00     0.054 C 
BRANCH  13  14
ATOM     14  C   UNL     1       3.589  15.470   9.623  1.00  0.00    -0.027 C 
ATOM     15  C   UNL     1       4.508  14.815   8.897  1.00  0.00    -0.031 C 
BRANCH  15  16
ATOM     16  C   UNL     1       5.761  15.494   8.412  1.00  0.00     0.027 C 
BRANCH  16  17
ATOM     17  C   UNL     1       5.589  17.016   8.281  1.00  0.00     0.004 C 
BRANCH  17  18
ATOM     18  C   UNL     1       6.912  17.769   8.508  1.00  0.00     0.000 C 
BRANCH  18  19
ATOM     19  C   UNL     1       6.773  18.905   9.533  1.00  0.00    -0.003 C 
ATOM     20  C   UNL     1       6.661  18.395  10.970  1.00  0.00     0.004 C 
ENDBRANCH  18  19
ENDBRANCH  17  18
ENDBRANCH  16  17
ENDBRANCH  15  16
ENDBRANCH  13  14
ENDBRANCH  12  13
ENDBRANCH   1  11
TORSDOF 14
ENDMDL
MODEL 2
REMARK VINA RESULT:    -4.551      1.653      1.998
REMARK INTER + INTRA:         -10.898
REMARK INTER:                  -8.244
REMARK INTRA:                  -2.655
REMARK UNBOUND:                -2.623
REMARK SMILES CCCCCC=CCC=CCCCCCCCC(=O)[O-]
REMARK SMILES IDX 11 1 12 2 13 3 14 4 15 5 16 6 17 7 18 8 19 9 20 10 10 11
REMARK SMILES IDX 9 12 8 13 7 14 6 15 5 16 4 17 3 18 2 19 1 20
REMARK H PARENT
REMARK Flexibility Score: inf
ROOT
ATOM      1  C   UNL     1      -0.061  17.366   8.065  1.00  0.00     0.027 C 
ENDROOT
BRANCH   1   2
ATOM      2  C   UNL     1       0.772  18.610   7.727  1.00  0.00     0.004 C 
BRANCH   2   3
ATOM      3  C   UNL     1       2.169  18.563   8.368  1.00  0.00     0.000 C 
BRANCH   3   4
ATOM      4  C   UNL     1       2.305  19.511   9.572  1.00  0.00     0.000 C 
BRANCH   4   5
ATOM      5  C   UNL     1       2.232  18.793  10.936  1.00  0.00     0.000 C 
BRANCH   5   6
ATOM      6  C   UNL     1       0.952  19.150  11.711  1.00  0.00     0.006 C 
BRANCH   6   7
ATOM      7  C   UNL     1       0.052  20.122  10.934  1.00  0.00     0.053 C 
BRANCH   7   8
ATOM      8  C   UNL     1      -1.335  19.583  10.767  1.00  0.00     0.041 C 
ATOM      9  O   UNL     1      -1.837  18.840  11.649  1.00  0.00    -0.550 OA
ATOM     10  O   UNL     1      -2.060  19.872   9.616  1.00  0.00    -0.550 OA
ENDBRANCH   7   8
ENDBRANCH   6   7
ENDBRANCH   5   6
ENDBRANCH   4   5
ENDBRANCH   3   4
ENDBRANCH   2   3
ENDBRANCH   1   2
BRANCH   1  11
ATOM     11  C   UNL     1       0.802  16.248   8.587  1.00  0.00    -0.031 C 
ATOM     12  C   UNL     1       0.546  15.647   9.758  1.00  0.00    -0.027 C 
BRANCH  12  13
ATOM     13  C   UNL     1       1.419  14.545  10.287  1.00  0.00     0.054 C 
BRANCH  13  14
ATOM     14  C   UNL     1       2.787  15.065  10.622  1.00  0.00    -0.027 C 
ATOM     15  C   UNL     1       3.807  14.975   9.756  1.00  0.00    -0.031 C 
BRANCH  15  16
ATOM     16  C   UNL     1       5.182  15.486  10.099  1.00  0.00     0.027 C 
BRANCH  16  17
ATOM     17  C   UNL     1       5.231  17.020  10.189  1.00  0.00     0.004 C 
BRANCH  17  18
ATOM     18  C   UNL     1       6.177  17.630   9.140  1.00  0.00     0.000 C 
BRANCH  18  19
ATOM     19  C   UNL     1       6.586  19.070   9.485  1.00  0.00    -0.003 C 
ATOM     20  C   UNL     1       5.897  19.595  10.744  1.00  0.00     0.004 C 
ENDBRANCH  18  19
ENDBRANCH  17  18
ENDBRANCH  16  17
ENDBRANCH  15  16
ENDBRANCH  13  14
ENDBRANCH  12  13
ENDBRANCH   1  11
TORSDOF 14
ENDMDL
MODEL 3
REMARK VINA RESULT:    -4.543      1.252      3.547
REMARK INTER + INTRA:         -10.884
REMARK INTER:                  -8.114
REMARK INTRA:                  -2.770
REMARK UNBOUND:                -2.623
REMARK SMILES CCCCCC=CCC=CCCCCCCCC(=O)[O-]
REMARK SMILES IDX 11 1 12 2 13 3 14 4 15 5 16 6 17 7 18 8 19 9 20 10 10 11
REMARK SMILES IDX 9 12 8 13 7 14 6 15 5 16 4 17 3 18 2 19 1 20
REMARK H PARENT
REMARK Flexibility Score: inf
ROOT
ATOM      1  C   UNL     1       2.025  15.097  11.112  1.00  0.00     0.027 C 
ENDROOT
BRANCH   1   2
ATOM      2  C   UNL     1       1.007  15.066   9.964  1.00  0.00     0.004 C 
BRANCH   2   3
ATOM      3  C   UNL     1       1.381  16.036   8.831  1.00  0.00     0.000 C 
BRANCH   3   4
ATOM      4  C   UNL     1       0.161  16.767   8.245  1.00  0.00     0.000 C 
BRANCH   4   5
ATOM      5  C   UNL     1       0.341  18.297   8.158  1.00  0.00     0.000 C 
BRANCH   5   6
ATOM      6  C   UNL     1       1.774  18.734   8.514  1.00  0.00     0.006 C 
BRANCH   6   7
ATOM      7  C   UNL     1       1.809  19.699   9.707  1.00  0.00     0.053 C 
BRANCH   7   8
ATOM      8  C   UNL     1       0.522  19.682  10.474  1.00  0.00     0.041 C 
ATOM      9  O   UNL     1      -0.241  20.683  10.452  1.00  0.00    -0.550 OA
ATOM     10  O   UNL     1       0.185  18.576  11.245  1.00  0.00    -0.550 OA
ENDBRANCH   7   8
ENDBRANCH   6   7
ENDBRANCH   5   6
ENDBRANCH   4   5
ENDBRANCH   3   4
ENDBRANCH   2   3
ENDBRANCH   1   2
BRANCH   1  11
ATOM     11  C   UNL     1       2.823  16.374  11.109  1.00  0.00    -0.031 C 
ATOM     12  C   UNL     1       3.227  16.956  12.248  1.00  0.00    -0.027 C 
BRANCH  12  13
ATOM     13  C   UNL     1       4.006  18.241  12.243  1.00  0.00     0.054 C 
BRANCH  13  14
ATOM     14  C   UNL     1       5.239  18.112  11.397  1.00  0.00    -0.027 C 
ATOM     15  C   UNL     1       5.359  18.753  10.224  1.00  0.00    -0.031 C 
BRANCH  15  16
ATOM     16  C   UNL     1       6.592  18.613   9.371  1.00  0.00     0.027 C 
BRANCH  16  17
ATOM     17  C   UNL     1       6.534  17.378   8.456  1.00  0.00     0.004 C 
BRANCH  17  18
ATOM     18  C   UNL     1       5.091  16.900   8.223  1.00  0.00     0.000 C 
BRANCH  18  19
ATOM     19  C   UNL     1       4.976  15.367   8.207  1.00  0.00    -0.003 C 
ATOM     20  C   UNL     1       5.521  14.720   9.480  1.00  0.00     0.004 C 
ENDBRANCH  18  19
ENDBRANCH  17  18
ENDBRANCH  16  17
ENDBRANCH  15  16
ENDBRANCH  13  14
ENDBRANCH  12  13
ENDBRANCH   1  11
TORSDOF 14
ENDMDL
MODEL 4
REMARK VINA RESULT:    -4.526      1.718      3.660
REMARK INTER + INTRA:         -10.852
REMARK INTER:                  -8.141
REMARK INTRA:                  -2.711
REMARK UNBOUND:                -2.623
REMARK SMILES CCCCCC=CCC=CCCCCCCCC(=O)[O-]
REMARK SMILES IDX 11 1 12 2 13 3 14 4 15 5 16 6 17 7 18 8 19 9 20 10 10 11
REMARK SMILES IDX 9 12 8 13 7 14 6 15 5 16 4 17 3 18 2 19 1 20
REMARK H PARENT
REMARK Flexibility Score: inf
ROOT
ATOM      1  C   UNL     1       1.785  19.621   9.635  1.00  0.00     0.027 C 
ENDROOT
BRANCH   1   2
ATOM      2  C   UNL     1       1.324  18.894   8.365  1.00  0.00     0.004 C 
BRANCH   2   3
ATOM      3  C   UNL     1      -0.080  18.288   8.522  1.00  0.00     0.000 C 
BRANCH   3   4
ATOM      4  C   UNL     1      -0.119  16.783   8.209  1.00  0.00     0.000 C 
BRANCH   4   5
ATOM      5  C   UNL     1       1.154  16.028   8.645  1.00  0.00     0.000 C 
BRANCH   5   6
ATOM      6  C   UNL     1       0.901  15.116   9.858  1.00  0.00     0.006 C 
BRANCH   6   7
ATOM      7  C   UNL     1       2.119  15.034  10.789  1.00  0.00     0.053 C 
BRANCH   7   8
ATOM      8  C   UNL     1       2.141  16.160  11.776  1.00  0.00     0.041 C 
ATOM      9  O   UNL     1       3.223  16.506  12.317  1.00  0.00    -0.550 OA
ATOM     10  O   UNL     1       0.959  16.801  12.128  1.00  0.00    -0.550 OA
ENDBRANCH   7   8
ENDBRANCH   6   7
ENDBRANCH   5   6
ENDBRANCH   4   5
ENDBRANCH   3   4
ENDBRANCH   2   3
ENDBRANCH   1   2
BRANCH   1  11
ATOM     11  C   UNL     1       3.192  19.239  10.012  1.00  0.00    -0.031 C 
ATOM     12  C   UNL     1       3.881  18.316   9.324  1.00  0.00    -0.027 C 
BRANCH  12  13
ATOM     13  C   UNL     1       5.276  17.921   9.714  1.00  0.00     0.054 C 
BRANCH  13  14
ATOM     14  C   UNL     1       5.545  16.489   9.351  1.00  0.00    -0.027 C 
ATOM     15  C   UNL     1       4.823  15.851   8.418  1.00  0.00    -0.031 C 
BRANCH  15  16
ATOM     16  C   UNL     1       5.087  14.411   8.064  1.00  0.00     0.027 C 
BRANCH  16  17
ATOM     17  C   UNL     1       5.864  13.671   9.164  1.00  0.00     0.004 C 
BRANCH  17  18
ATOM     18  C   UNL     1       4.936  12.853  10.078  1.00  0.00     0.000 C 
BRANCH  18  19
ATOM     19  C   UNL     1       5.570  12.556  11.446  1.00  0.00    -0.003 C 
ATOM     20  C   UNL     1       5.153  13.560  12.521  1.00  0.00     0.004 C 
ENDBRANCH  18  19
ENDBRANCH  17  18
ENDBRANCH  16  17
ENDBRANCH  15  16
ENDBRANCH  13  14
ENDBRANCH  12  13
ENDBRANCH   1  11
TORSDOF 14
ENDMDL
MODEL 5
REMARK VINA RESULT:    -4.519      1.238      2.989
REMARK INTER + INTRA:         -10.841
REMARK INTER:                  -8.049
REMARK INTRA:                  -2.792
REMARK UNBOUND:                -2.623
REMARK SMILES CCCCCC=CCC=CCCCCCCCC(=O)[O-]
REMARK SMILES IDX 11 1 12 2 13 3 14 4 15 5 16 6 17 7 18 8 19 9 20 10 10 11
REMARK SMILES IDX 9 12 8 13 7 14 6 15 5 16 4 17 3 18 2 19 1 20
REMARK H PARENT
REMARK Flexibility Score: inf
ROOT
ATOM      1  C   UNL     1       0.948  14.937   9.875  1.00  0.00     0.027 C 
ENDROOT
BRANCH   1   2
ATOM      2  C   UNL     1       1.207  16.016   8.815  1.00  0.00     0.004 C 
BRANCH   2   3
ATOM      3  C   UNL     1      -0.060  16.825   8.489  1.00  0.00     0.000 C 
BRANCH   3   4
ATOM      4  C   UNL     1       0.245  18.287   8.121  1.00  0.00     0.000 C 
BRANCH   4   5
ATOM      5  C   UNL     1       1.719  18.685   8.340  1.00  0.00     0.000 C 
BRANCH   5   6
ATOM      6  C   UNL     1       1.892  19.634   9.540  1.00  0.00     0.006 C 
BRANCH   6   7
ATOM      7  C   UNL     1       0.556  19.955  10.225  1.00  0.00     0.053 C 
BRANCH   7   8
ATOM      8  C   UNL     1       0.490  19.387  11.608  1.00  0.00     0.041 C 
ATOM      9  O   UNL     1      -0.425  18.579  11.918  1.00  0.00    -0.550 OA
ATOM     10  O   UNL     1       1.416  19.779  12.568  1.00  0.00    -0.550 OA
ENDBRANCH   7   8
ENDBRANCH   6   7
ENDBRANCH   5   6
ENDBRANCH   4   5
ENDBRANCH   3   4
ENDBRANCH   2   3
ENDBRANCH   1   2
BRANCH   1  11
ATOM     11  C   UNL     1       1.804  15.145  11.096  1.00  0.00    -0.031 C 
ATOM     12  C   UNL     1       2.274  16.356  11.431  1.00  0.00    -0.027 C 
BRANCH  12  13
ATOM     13  C   UNL     1       3.144  16.558  12.638  1.00  0.00     0.054 C 
BRANCH  13  14
ATOM     14  C   UNL     1       4.461  17.165  12.249  1.00  0.00    -0.027 C 
ATOM     15  C   UNL     1       4.531  18.313  11.556  1.00  0.00    -0.031 C 
BRANCH  15  16
ATOM     16  C   UNL     1       5.853  18.913  11.156  1.00  0.00     0.027 C 
BRANCH  16  17
ATOM     17  C   UNL     1       6.077  18.875   9.635  1.00  0.00     0.004 C 
BRANCH  17  18
ATOM     18  C   UNL     1       6.215  17.436   9.108  1.00  0.00     0.000 C 
BRANCH  18  19
ATOM     19  C   UNL     1       4.977  16.977   8.321  1.00  0.00    -0.003 C 
ATOM     20  C   UNL     1       4.737  15.471   8.422  1.00  0.00     0.004 C 
ENDBRANCH  18  19
ENDBRANCH  17  18
ENDBRANCH  16  17
ENDBRANCH  15  16
ENDBRANCH  13  14
ENDBRANCH  12  13
ENDBRANCH   1  11
TORSDOF 14
ENDMDL
MODEL 6
REMARK VINA RESULT:    -4.405      1.203      2.294
REMARK INTER + INTRA:         -10.633
REMARK INTER:                  -8.136
REMARK INTRA:                  -2.498
REMARK UNBOUND:                -2.623
REMARK SMILES CCCCCC=CCC=CCCCCCCCC(=O)[O-]
REMARK SMILES IDX 11 1 12 2 13 3 14 4 15 5 16 6 17 7 18 8 19 9 20 10 10 11
REMARK SMILES IDX 9 12 8 13 7 14 6 15 5 16 4 17 3 18 2 19 1 20
REMARK H PARENT
REMARK Flexibility Score: inf
ROOT
ATOM      1  C   UNL     1       0.653  15.234   9.748  1.00  0.00     0.027 C 
ENDROOT
BRANCH   1   2
ATOM      2  C   UNL     1       0.899  16.056   8.476  1.00  0.00     0.004 C 
BRANCH   2   3
ATOM      3  C   UNL     1      -0.078  17.237   8.353  1.00  0.00     0.000 C 
BRANCH   3   4
ATOM      4  C   UNL     1       0.637  18.585   8.155  1.00  0.00     0.000 C 
BRANCH   4   5
ATOM      5  C   UNL     1       2.173  18.491   8.268  1.00  0.00     0.000 C 
BRANCH   5   6
ATOM      6  C   UNL     1       2.707  19.206   9.522  1.00  0.00     0.006 C 
BRANCH   6   7
ATOM      7  C   UNL     1       1.609  19.441  10.570  1.00  0.00     0.053 C 
BRANCH   7   8
ATOM      8  C   UNL     1       1.631  18.396  11.642  1.00  0.00     0.041 C 
ATOM      9  O   UNL     1       0.556  17.873  12.038  1.00  0.00    -0.550 OA
ATOM     10  O   UNL     1       2.834  18.028  12.232  1.00  0.00    -0.550 OA
ENDBRANCH   7   8
ENDBRANCH   6   7
ENDBRANCH   5   6
ENDBRANCH   4   5
ENDBRANCH   3   4
ENDBRANCH   2   3
ENDBRANCH   1   2
BRANCH   1  11
ATOM     11  C   UNL     1       1.947  14.803  10.387  1.00  0.00    -0.031 C 
ATOM     12  C   UNL     1       3.129  15.305   9.996  1.00  0.00    -0.027 C 
BRANCH  12  13
ATOM     13  C   UNL     1       4.420  14.860  10.620  1.00  0.00     0.054 C 
BRANCH  13  14
ATOM     14  C   UNL     1       5.575  15.648  10.074  1.00  0.00    -0.027 C 
ATOM     15  C   UNL     1       5.390  16.687   9.245  1.00  0.00    -0.031 C 
BRANCH  15  16
ATOM     16  C   UNL     1       6.551  17.469   8.689  1.00  0.00     0.027 C 
BRANCH  16  17
ATOM     17  C   UNL     1       6.643  18.884   9.282  1.00  0.00     0.004 C 
BRANCH  17  18
ATOM     18  C   UNL     1       6.993  18.860  10.780  1.00  0.00     0.000 C 
BRANCH  18  19
ATOM     19  C   UNL     1       5.969  19.622  11.636  1.00  0.00    -0.003 C 
ATOM     20  C   UNL     1       6.568  20.163  12.934  1.00  0.00     0.004 C 
ENDBRANCH  18  19
ENDBRANCH  17  18
ENDBRANCH  16  17
ENDBRANCH  15  16
ENDBRANCH  13  14
ENDBRANCH  12  13
ENDBRANCH   1  11
TORSDOF 14
ENDMDL
MODEL 7
REMARK VINA RESULT:    -4.311      2.398      3.768
REMARK INTER + INTRA:         -10.463
REMARK INTER:                  -7.551
REMARK INTRA:                  -2.912
REMARK UNBOUND:                -2.623
REMARK SMILES CCCCCC=CCC=CCCCCCCCC(=O)[O-]
REMARK SMILES IDX 11 1 12 2 13 3 14 4 15 5 16 6 17 7 18 8 19 9 20 10 10 11
REMARK SMILES IDX 9 12 8 13 7 14 6 15 5 16 4 17 3 18 2 19 1 20
REMARK H PARENT
REMARK Flexibility Score: inf
ROOT
ATOM      1  C   UNL     1      -0.236  17.168   8.104  1.00  0.00     0.027 C 
ENDROOT
BRANCH   1   2
ATOM      2  C   UNL     1       0.257  18.615   8.230  1.00  0.00     0.004 C 
BRANCH   2   3
ATOM      3  C   UNL     1      -0.025  19.204   9.623  1.00  0.00     0.000 C 
BRANCH   3   4
ATOM      4  C   UNL     1       1.250  19.379  10.466  1.00  0.00     0.000 C 
BRANCH   4   5
ATOM      5  C   UNL     1       2.514  19.652   9.624  1.00  0.00     0.000 C 
BRANCH   5   6
ATOM      6  C   UNL     1       3.592  18.573   9.831  1.00  0.00     0.006 C 
BRANCH   6   7
ATOM      7  C   UNL     1       3.839  17.746   8.561  1.00  0.00     0.053 C 
BRANCH   7   8
ATOM      8  C   UNL     1       4.775  16.605   8.814  1.00  0.00     0.041 C 
ATOM      9  O   UNL     1       5.051  15.795   7.890  1.00  0.00    -0.550 OA
ATOM     10  O   UNL     1       5.314  16.413  10.081  1.00  0.00    -0.550 OA
ENDBRANCH   7   8
ENDBRANCH   6   7
ENDBRANCH   5   6
ENDBRANCH   4   5
ENDBRANCH   3   4
ENDBRANCH   2   3
ENDBRANCH   1   2
BRANCH   1  11
ATOM     11  C   UNL     1       0.817  16.184   8.543  1.00  0.00    -0.031 C 
ATOM     12  C   UNL     1       0.832  15.672   9.783  1.00  0.00    -0.027 C 
BRANCH  12  13
ATOM     13  C   UNL     1       1.894  14.707  10.224  1.00  0.00     0.054 C 
BRANCH  13  14
ATOM     14  C   UNL     1       2.443  15.099  11.566  1.00  0.00    -0.027 C 
ATOM     15  C   UNL     1       2.069  16.233  12.178  1.00  0.00    -0.031 C 
BRANCH  15  16
ATOM     16  C   UNL     1       2.630  16.629  13.517  1.00  0.00     0.027 C 
BRANCH  16  17
ATOM     17  C   UNL     1       3.159  18.073  13.527  1.00  0.00     0.004 C 
BRANCH  17  18
ATOM     18  C   UNL     1       4.683  18.131  13.327  1.00  0.00     0.000 C 
BRANCH  18  19
ATOM     19  C   UNL     1       5.207  19.572  13.220  1.00  0.00    -0.003 C 
ATOM     20  C   UNL     1       6.224  19.749  12.093  1.00  0.00     0.004 C 
ENDBRANCH  18  19
ENDBRANCH  17  18
ENDBRANCH  16  17
ENDBRANCH  15  16
ENDBRANCH  13  14
ENDBRANCH  12  13
ENDBRANCH   1  11
TORSDOF 14
ENDMDL
MODEL 8
REMARK VINA RESULT:    -4.305      2.618      3.875
REMARK INTER + INTRA:         -10.452
REMARK INTER:                  -8.198
REMARK INTRA:                  -2.254
REMARK UNBOUND:                -2.623
REMARK SMILES CCCCCC=CCC=CCCCCCCCC(=O)[O-]
REMARK SMILES IDX 11 1 12 2 13 3 14 4 15 5 16 6 17 7 18 8 19 9 20 10 10 11
REMARK SMILES IDX 9 12 8 13 7 14 6 15 5 16 4 17 3 18 2 19 1 20
REMARK H PARENT
REMARK Flexibility Score: inf
ROOT
ATOM      1  C   UNL     1      -0.147  17.037   8.117  1.00  0.00     0.027 C 
ENDROOT
BRANCH   1   2
ATOM      2  C   UNL     1      -0.055  18.550   8.357  1.00  0.00     0.004 C 
BRANCH   2   3
ATOM      3  C   UNL     1      -0.391  18.927   9.810  1.00  0.00     0.000 C 
BRANCH   3   4
ATOM      4  C   UNL     1       0.740  19.708  10.500  1.00  0.00     0.000 C 
BRANCH   4   5
ATOM      5  C   UNL     1       2.057  19.730   9.695  1.00  0.00     0.000 C 
BRANCH   5   6
ATOM      6  C   UNL     1       3.223  19.096  10.474  1.00  0.00     0.006 C 
BRANCH   6   7
ATOM      7  C   UNL     1       4.382  18.685   9.555  1.00  0.00     0.053 C 
BRANCH   7   8
ATOM      8  C   UNL     1       5.708  19.099  10.113  1.00  0.00     0.041 C 
ATOM      9  O   UNL     1       5.868  20.260  10.572  1.00  0.00    -0.550 OA
ATOM     10  O   UNL     1       6.780  18.215  10.090  1.00  0.00    -0.550 OA
ENDBRANCH   7   8
ENDBRANCH   6   7
ENDBRANCH   5   6
ENDBRANCH   4   5
ENDBRANCH   3   4
ENDBRANCH   2   3
ENDBRANCH   1   2
BRANCH   1  11
ATOM     11  C   UNL     1       0.615  16.263   9.159  1.00  0.00    -0.031 C 
ATOM     12  C   UNL     1       1.885  15.877   8.963  1.00  0.00    -0.027 C 
BRANCH  12  13
ATOM     13  C   UNL     1       2.637  15.087   9.996  1.00  0.00     0.054 C 
BRANCH  13  14
ATOM     14  C   UNL     1       4.101  15.038   9.666  1.00  0.00    -0.027 C 
ATOM     15  C   UNL     1       4.550  15.252   8.420  1.00  0.00    -0.031 C 
BRANCH  15  16
ATOM     16  C   UNL     1       6.017  15.189   8.088  1.00  0.00     0.027 C 
BRANCH  16  17
ATOM     17  C   UNL     1       6.558  13.750   8.093  1.00  0.00     0.004 C 
BRANCH  17  18
ATOM     18  C   UNL     1       5.827  12.855   7.078  1.00  0.00     0.000 C 
BRANCH  18  19
ATOM     19  C   UNL     1       5.454  11.484   7.664  1.00  0.00    -0.003 C 
ATOM     20  C   UNL     1       5.480  11.467   9.192  1.00  0.00     0.004 C 
ENDBRANCH  18  19
ENDBRANCH  17  18
ENDBRANCH  16  17
ENDBRANCH  15  16
ENDBRANCH  13  14
ENDBRANCH  12  13
ENDBRANCH   1  11
TORSDOF 14
ENDMDL
MODEL 9
REMARK VINA RESULT:    -4.288      1.316      4.352
REMARK INTER + INTRA:         -10.420
REMARK INTER:                  -7.733
REMARK INTRA:                  -2.686
REMARK UNBOUND:                -2.623
REMARK SMILES CCCCCC=CCC=CCCCCCCCC(=O)[O-]
REMARK SMILES IDX 11 1 12 2 13 3 14 4 15 5 16 6 17 7 18 8 19 9 20 10 10 11
REMARK SMILES IDX 9 12 8 13 7 14 6 15 5 16 4 17 3 18 2 19 1 20
REMARK H PARENT
REMARK Flexibility Score: inf
ROOT
ATOM      1  C   UNL     1       3.612  15.566   8.776  1.00  0.00     0.027 C 
ENDROOT
BRANCH   1   2
ATOM      2  C   UNL     1       2.917  15.825  10.119  1.00  0.00     0.004 C 
BRANCH   2   3
ATOM      3  C   UNL     1       1.399  16.009   9.960  1.00  0.00     0.000 C 
BRANCH   3   4
ATOM      4  C   UNL     1       0.935  15.898   8.498  1.00  0.00     0.000 C 
BRANCH   4   5
ATOM      5  C   UNL     1      -0.129  16.944   8.106  1.00  0.00     0.000 C 
BRANCH   5   6
ATOM      6  C   UNL     1       0.295  18.374   8.487  1.00  0.00     0.006 C 
BRANCH   6   7
ATOM      7  C   UNL     1      -0.827  19.146   9.194  1.00  0.00     0.053 C 
BRANCH   7   8
ATOM      8  C   UNL     1      -0.434  19.555  10.580  1.00  0.00     0.041 C 
ATOM      9  O   UNL     1      -0.069  20.737  10.812  1.00  0.00    -0.550 OA
ATOM     10  O   UNL     1      -0.433  18.620  11.609  1.00  0.00    -0.550 OA
ENDBRANCH   7   8
ENDBRANCH   6   7
ENDBRANCH   5   6
ENDBRANCH   4   5
ENDBRANCH   3   4
ENDBRANCH   2   3
ENDBRANCH   1   2
BRANCH   1  11
ATOM     11  C   UNL     1       4.577  16.670   8.430  1.00  0.00    -0.031 C 
ATOM     12  C   UNL     1       5.871  16.610   8.776  1.00  0.00    -0.027 C 
BRANCH  12  13
ATOM     13  C   UNL     1       6.827  17.721   8.448  1.00  0.00     0.054 C 
BRANCH  13  14
ATOM     14  C   UNL     1       6.876  18.726   9.561  1.00  0.00    -0.027 C 
ATOM     15  C   UNL     1       6.877  18.352  10.850  1.00  0.00    -0.031 C 
BRANCH  15  16
ATOM     16  C   UNL     1       6.913  19.362  11.966  1.00  0.00     0.027 C 
BRANCH  16  17
ATOM     17  C   UNL     1       5.509  19.722  12.477  1.00  0.00     0.004 C 
BRANCH  17  18
ATOM     18  C   UNL     1       4.496  18.590  12.229  1.00  0.00     0.000 C 
BRANCH  18  19
ATOM     19  C   UNL     1       3.168  19.106  11.653  1.00  0.00    -0.003 C 
ATOM     20  C   UNL     1       3.289  19.556  10.198  1.00  0.00     0.004 C 
ENDBRANCH  18  19
ENDBRANCH  17  18
ENDBRANCH  16  17
ENDBRANCH  15  16
ENDBRANCH  13  14
ENDBRANCH  12  13
ENDBRANCH   1  11
TORSDOF 14
ENDMDL
