MODEL 1
REMARK VINA RESULT:    -4.471      0.000      0.000
REMARK INTER + INTRA:          -4.663
REMARK INTER:                  -5.517
REMARK INTRA:                   0.854
REMARK UNBOUND:                 0.854
REMARK SMILES CC1=CC=CC(C)(C)CC1=O
REMARK SMILES IDX 1 1 2 2 3 3 10 4 11 5 9 6 4 8 5 9 6 10 7 11 8 12
REMARK H PARENT
REMARK Flexibility Score: 80.00
ROOT
ATOM      1  C   UNL     1     -14.755 -31.045  28.373  1.00  0.00     0.048 C 
ATOM      2  C   UNL     1     -14.373 -32.350  29.034  1.00  0.00    -0.008 C 
ATOM      3  C   UNL     1     -14.383 -32.400  30.383  1.00  0.00     0.007 C 
ENDROOT
BRANCH   2   4
ATOM      4  C   UNL     1     -14.071 -33.493  28.131  1.00  0.00     0.159 C 
ATOM      5  O   UNL     1     -14.048 -33.288  26.887  1.00  0.00    -0.295 OA
BRANCH   4   6
ATOM      6  C   UNL     1     -13.827 -34.895  28.603  1.00  0.00     0.091 CG0
ATOM      7  G   UNL     1     -12.742 -35.009  29.697  1.00  0.00     0.000 G0
ENDBRANCH   4   6
ENDBRANCH   2   4
BRANCH   3   8
ATOM      8  C   UNL     1     -14.049 -33.520  31.292  1.00  0.00    -0.003 C 
ATOM      9  C   UNL     1     -13.330 -34.619  31.033  1.00  0.00    -0.020 C 
BRANCH   9  10
ATOM     10  C   UNL     1     -12.740 -35.002  29.697  1.00  0.00    -0.010 CG0
ATOM     11  C   UNL     1     -11.493 -34.140  29.394  1.00  0.00     0.016 C 
ATOM     12  C   UNL     1     -12.288 -36.478  29.774  1.00  0.00     0.016 C 
ATOM     13  G   UNL     1     -13.825 -34.888  28.603  1.00  0.00     0.000 G0
ENDBRANCH   9  10
ENDBRANCH   3   8
TORSDOF 0
ENDMDL
MODEL 2
REMARK VINA RESULT:    -4.306      1.811      3.045
REMARK INTER + INTRA:          -4.459
REMARK INTER:                  -5.313
REMARK INTRA:                   0.854
REMARK UNBOUND:                 0.854
REMARK SMILES CC1=CC=CC(C)(C)CC1=O
REMARK SMILES IDX 1 1 2 2 3 3 10 4 11 5 9 6 4 8 5 9 6 10 7 11 8 12
REMARK H PARENT
REMARK Flexibility Score: 80.00
ROOT
ATOM      1  C   UNL     1     -14.661 -33.510  32.508  1.00  0.00     0.048 C 
ATOM      2  C   UNL     1     -13.987 -33.390  31.159  1.00  0.00    -0.008 C 
ATOM      3  C   UNL     1     -14.375 -32.384  30.348  1.00  0.00     0.007 C 
ENDROOT
BRANCH   2   4
ATOM      4  C   UNL     1     -12.904 -34.367  30.865  1.00  0.00     0.159 C 
ATOM      5  O   UNL     1     -12.686 -35.293  31.694  1.00  0.00    -0.295 OA
BRANCH   4   6
ATOM      6  C   UNL     1     -12.021 -34.304  29.655  1.00  0.00     0.091 CG0
ATOM      7  G   UNL     1     -12.792 -34.222  28.319  1.00  0.00     0.000 G0
ENDBRANCH   4   6
ENDBRANCH   2   4
BRANCH   3   8
ATOM      8  C   UNL     1     -13.908 -32.031  28.988  1.00  0.00    -0.003 C 
ATOM      9  C   UNL     1     -13.264 -32.799  28.101  1.00  0.00    -0.020 C 
BRANCH   9  10
ATOM     10  C   UNL     1     -12.797 -34.217  28.325  1.00  0.00    -0.010 CG0
ATOM     11  C   UNL     1     -13.996 -35.192  28.264  1.00  0.00     0.016 C 
ATOM     12  C   UNL     1     -11.824 -34.591  27.184  1.00  0.00     0.016 C 
ATOM     13  G   UNL     1     -12.026 -34.301  29.661  1.00  0.00     0.000 G0
ENDBRANCH   9  10
ENDBRANCH   3   8
TORSDOF 0
ENDMDL
MODEL 3
REMARK VINA RESULT:    -4.259      1.473      2.278
REMARK INTER + INTRA:          -4.401
REMARK INTER:                  -5.240
REMARK INTRA:                   0.839
REMARK UNBOUND:                 0.854
REMARK SMILES CC1=CC=CC(C)(C)CC1=O
REMARK SMILES IDX 1 1 2 2 3 3 10 4 11 5 9 6 4 8 5 9 6 10 7 11 8 12
REMARK H PARENT
REMARK Flexibility Score: 80.00
ROOT
ATOM      1  C   UNL     1     -14.688 -32.074  32.589  1.00  0.00     0.048 C 
ATOM      2  C   UNL     1     -14.194 -33.114  31.609  1.00  0.00    -0.008 C 
ATOM      3  C   UNL     1     -13.721 -34.276  32.106  1.00  0.00     0.007 C 
ENDROOT
BRANCH   2   4
ATOM      4  C   UNL     1     -14.325 -32.784  30.164  1.00  0.00     0.159 C 
ATOM      5  O   UNL     1     -14.759 -31.644  29.842  1.00  0.00    -0.295 OA
BRANCH   4   6
ATOM      6  C   UNL     1     -14.010 -33.740  29.052  1.00  0.00     0.091 CG0
ATOM      7  G   UNL     1     -12.610 -34.386  29.158  1.00  0.00     0.000 G0
ENDBRANCH   4   6
ENDBRANCH   2   4
BRANCH   3   8
ATOM      8  C   UNL     1     -13.169 -35.453  31.400  1.00  0.00    -0.003 C 
ATOM      9  C   UNL     1     -12.671 -35.525  30.159  1.00  0.00    -0.020 C 
BRANCH   9  10
ATOM     10  C   UNL     1     -12.623 -34.401  29.153  1.00  0.00    -0.010 CG0
ATOM     11  C   UNL     1     -11.499 -33.403  29.516  1.00  0.00     0.016 C 
ATOM     12  C   UNL     1     -12.293 -35.004  27.769  1.00  0.00     0.016 C 
ATOM     13  G   UNL     1     -14.012 -33.729  29.065  1.00  0.00     0.000 G0
ENDBRANCH   9  10
ENDBRANCH   3   8
TORSDOF 0
ENDMDL
MODEL 4
REMARK VINA RESULT:    -4.160      1.594      2.524
REMARK INTER + INTRA:          -4.279
REMARK INTER:                  -5.131
REMARK INTRA:                   0.852
REMARK UNBOUND:                 0.854
REMARK SMILES CC1=CC=CC(C)(C)CC1=O
REMARK SMILES IDX 1 1 2 2 3 3 10 4 11 5 9 6 4 8 5 9 6 10 7 11 8 12
REMARK H PARENT
REMARK Flexibility Score: 80.00
ROOT
ATOM      1  C   UNL     1     -14.749 -31.390  28.951  1.00  0.00     0.048 C 
ATOM      2  C   UNL     1     -13.739 -32.513  29.037  1.00  0.00    -0.008 C 
ATOM      3  C   UNL     1     -12.995 -32.778  27.942  1.00  0.00     0.007 C 
ENDROOT
BRANCH   2   4
ATOM      4  C   UNL     1     -13.615 -33.200  30.351  1.00  0.00     0.159 C 
ATOM      5  O   UNL     1     -14.422 -32.893  31.270  1.00  0.00    -0.295 OA
BRANCH   4   6
ATOM      6  C   UNL     1     -12.559 -34.215  30.672  1.00  0.00     0.091 CG0
ATOM      7  G   UNL     1     -12.480 -35.380  29.660  1.00  0.00     0.000 G0
ENDBRANCH   4   6
ENDBRANCH   2   4
BRANCH   3   8
ATOM      8  C   UNL     1     -11.954 -33.809  27.731  1.00  0.00    -0.003 C 
ATOM      9  C   UNL     1     -11.738 -34.931  28.427  1.00  0.00    -0.020 C 
BRANCH   9  10
ATOM     10  C   UNL     1     -12.489 -35.373  29.660  1.00  0.00    -0.010 CG0
ATOM     11  C   UNL     1     -13.885 -35.915  29.273  1.00  0.00     0.016 C 
ATOM     12  C   UNL     1     -11.700 -36.526  30.321  1.00  0.00     0.016 C 
ATOM     13  G   UNL     1     -12.562 -34.202  30.666  1.00  0.00     0.000 G0
ENDBRANCH   9  10
ENDBRANCH   3   8
TORSDOF 0
ENDMDL
MODEL 5
REMARK VINA RESULT:    -4.145      1.461      2.741
REMARK INTER + INTRA:          -4.261
REMARK INTER:                  -5.117
REMARK INTRA:                   0.856
REMARK UNBOUND:                 0.854
REMARK SMILES CC1=CC=CC(C)(C)CC1=O
REMARK SMILES IDX 1 1 2 2 3 3 10 4 11 5 9 6 4 8 5 9 6 10 7 11 8 12
REMARK H PARENT
REMARK Flexibility Score: 80.00
ROOT
ATOM      1  C   UNL     1     -11.798 -34.239  26.143  1.00  0.00     0.048 C 
ATOM      2  C   UNL     1     -12.054 -33.892  27.592  1.00  0.00    -0.008 C 
ATOM      3  C   UNL     1     -10.986 -33.642  28.379  1.00  0.00     0.007 C 
ENDROOT
BRANCH   2   4
ATOM      4  C   UNL     1     -13.477 -33.800  28.016  1.00  0.00     0.159 C 
ATOM      5  O   UNL     1     -14.375 -34.103  27.182  1.00  0.00    -0.295 OA
BRANCH   4   6
ATOM      6  C   UNL     1     -13.924 -33.331  29.368  1.00  0.00     0.091 CG0
ATOM      7  G   UNL     1     -13.231 -34.055  30.544  1.00  0.00     0.000 G0
ENDBRANCH   4   6
ENDBRANCH   2   4
BRANCH   3   8
ATOM      8  C   UNL     1     -10.930 -33.293  29.817  1.00  0.00    -0.003 C 
ATOM      9  C   UNL     1     -11.859 -33.489  30.760  1.00  0.00    -0.020 C 
BRANCH   9  10
ATOM     10  C   UNL     1     -13.238 -34.066  30.545  1.00  0.00    -0.010 CG0
ATOM     11  C   UNL     1     -13.153 -35.595  30.334  1.00  0.00     0.016 C 
ATOM     12  C   UNL     1     -14.074 -33.809  31.820  1.00  0.00     0.016 C 
ATOM     13  G   UNL     1     -13.923 -33.338  29.367  1.00  0.00     0.000 G0
ENDBRANCH   9  10
ENDBRANCH   3   8
TORSDOF 0
ENDMDL
MODEL 6
REMARK VINA RESULT:    -4.047      2.062      3.474
REMARK INTER + INTRA:          -4.139
REMARK INTER:                  -4.969
REMARK INTRA:                   0.829
REMARK UNBOUND:                 0.854
REMARK SMILES CC1=CC=CC(C)(C)CC1=O
REMARK SMILES IDX 1 1 2 2 3 3 10 4 11 5 9 6 4 8 5 9 6 10 7 11 8 12
REMARK H PARENT
REMARK Flexibility Score: 80.00
ROOT
ATOM      1  C   UNL     1     -14.392 -37.568  28.340  1.00  0.00     0.048 C 
ATOM      2  C   UNL     1     -13.395 -36.880  29.246  1.00  0.00    -0.008 C 
ATOM      3  C   UNL     1     -13.199 -37.399  30.477  1.00  0.00     0.007 C 
ENDROOT
BRANCH   2   4
ATOM      4  C   UNL     1     -12.670 -35.713  28.676  1.00  0.00     0.159 C 
ATOM      5  O   UNL     1     -12.992 -35.306  27.526  1.00  0.00    -0.295 OA
BRANCH   4   6
ATOM      6  C   UNL     1     -11.544 -35.003  29.368  1.00  0.00     0.091 CG0
ATOM      7  G   UNL     1     -11.879 -34.546  30.805  1.00  0.00     0.000 G0
ENDBRANCH   4   6
ENDBRANCH   2   4
BRANCH   3   8
ATOM      8  C   UNL     1     -12.309 -36.939  31.567  1.00  0.00    -0.003 C 
ATOM      9  C   UNL     1     -11.759 -35.732  31.743  1.00  0.00    -0.020 C 
BRANCH   9  10
ATOM     10  C   UNL     1     -11.875 -34.555  30.803  1.00  0.00    -0.010 CG0
ATOM     11  C   UNL     1     -13.267 -33.895  30.939  1.00  0.00     0.016 C 
ATOM     12  C   UNL     1     -10.812 -33.508  31.206  1.00  0.00     0.016 C 
ATOM     13  G   UNL     1     -11.572 -35.017  29.360  1.00  0.00     0.000 G0
ENDBRANCH   9  10
ENDBRANCH   3   8
TORSDOF 0
ENDMDL
MODEL 7
REMARK VINA RESULT:    -4.004      2.427      3.587
REMARK INTER + INTRA:          -4.086
REMARK INTER:                  -4.938
REMARK INTRA:                   0.852
REMARK UNBOUND:                 0.854
REMARK SMILES CC1=CC=CC(C)(C)CC1=O
REMARK SMILES IDX 1 1 2 2 3 3 10 4 11 5 9 6 4 8 5 9 6 10 7 11 8 12
REMARK H PARENT
REMARK Flexibility Score: 80.00
ROOT
ATOM      1  C   UNL     1     -14.351 -37.453  28.383  1.00  0.00     0.048 C 
ATOM      2  C   UNL     1     -13.782 -36.266  29.127  1.00  0.00    -0.008 C 
ATOM      3  C   UNL     1     -13.923 -35.045  28.569  1.00  0.00     0.007 C 
ENDROOT
BRANCH   2   4
ATOM      4  C   UNL     1     -13.158 -36.543  30.449  1.00  0.00     0.159 C 
ATOM      5  O   UNL     1     -13.049 -37.742  30.824  1.00  0.00    -0.295 OA
BRANCH   4   6
ATOM      6  C   UNL     1     -12.681 -35.479  31.392  1.00  0.00     0.091 CG0
ATOM      7  G   UNL     1     -11.724 -34.452  30.747  1.00  0.00     0.000 G0
ENDBRANCH   4   6
ENDBRANCH   2   4
BRANCH   3   8
ATOM      8  C   UNL     1     -13.465 -33.724  29.053  1.00  0.00    -0.003 C 
ATOM      9  C   UNL     1     -12.517 -33.449  29.958  1.00  0.00    -0.020 C 
BRANCH   9  10
ATOM     10  C   UNL     1     -11.730 -34.459  30.757  1.00  0.00    -0.010 CG0
ATOM     11  C   UNL     1     -10.653 -35.124  29.868  1.00  0.00     0.016 C 
ATOM     12  C   UNL     1     -11.006 -33.713  31.901  1.00  0.00     0.016 C 
ATOM     13  G   UNL     1     -12.698 -35.484  31.389  1.00  0.00     0.000 G0
ENDBRANCH   9  10
ENDBRANCH   3   8
TORSDOF 0
ENDMDL
MODEL 8
REMARK VINA RESULT:    -3.935      1.025      1.411
REMARK INTER + INTRA:          -4.002
REMARK INTER:                  -5.109
REMARK INTRA:                   1.107
REMARK UNBOUND:                 0.854
REMARK SMILES CC1=CC=CC(C)(C)CC1=O
REMARK SMILES IDX 1 1 2 2 3 3 10 4 11 5 9 6 4 8 5 9 6 10 7 11 8 12
REMARK H PARENT
REMARK Flexibility Score: 80.00
ROOT
ATOM      1  C   UNL     1     -14.720 -31.465  28.560  1.00  0.00     0.048 C 
ATOM      2  C   UNL     1     -13.933 -32.458  29.386  1.00  0.00    -0.008 C 
ATOM      3  C   UNL     1     -14.339 -32.686  30.653  1.00  0.00     0.007 C 
ENDROOT
BRANCH   2   4
ATOM      4  C   UNL     1     -12.802 -33.144  28.705  1.00  0.00     0.159 C 
ATOM      5  O   UNL     1     -12.689 -33.024  27.455  1.00  0.00    -0.295 OA
BRANCH   4   6
ATOM      6  C   UNL     1     -11.799 -34.009  29.408  1.00  0.00     0.091 CG0
ATOM      7  G   UNL     1     -12.425 -35.170  30.212  1.00  0.00     0.000 G0
ENDBRANCH   4   6
ENDBRANCH   2   4
BRANCH   3   8
ATOM      8  C   UNL     1     -13.766 -33.581  31.683  1.00  0.00    -0.003 C 
ATOM      9  C   UNL     1     -12.932 -34.615  31.521  1.00  0.00    -0.020 C 
BRANCH   9  10
ATOM     10  C   UNL     1     -12.430 -35.156  30.204  1.00  0.00    -0.010 CG0
ATOM     11  C   UNL     1     -11.450 -36.328  30.443  1.00  0.00     0.016 C 
ATOM     12  C   UNL     1     -13.640 -35.703  29.412  1.00  0.00     0.016 C 
ATOM     13  G   UNL     1     -11.799 -34.009  29.383  1.00  0.00     0.000 G0
ENDBRANCH   9  10
ENDBRANCH   3   8
TORSDOF 0
ENDMDL
MODEL 9
REMARK VINA RESULT:    -3.893      1.974      4.021
REMARK INTER + INTRA:          -3.950
REMARK INTER:                  -4.792
REMARK INTRA:                   0.842
REMARK UNBOUND:                 0.854
REMARK SMILES CC1=CC=CC(C)(C)CC1=O
REMARK SMILES IDX 1 1 2 2 3 3 10 4 11 5 9 6 4 8 5 9 6 10 7 11 8 12
REMARK H PARENT
REMARK Flexibility Score: 80.00
ROOT
ATOM      1  C   UNL     1     -12.436 -37.625  31.612  1.00  0.00     0.048 C 
ATOM      2  C   UNL     1     -13.042 -36.686  30.594  1.00  0.00    -0.008 C 
ATOM      3  C   UNL     1     -13.414 -37.202  29.403  1.00  0.00     0.007 C 
ENDROOT
BRANCH   2   4
ATOM      4  C   UNL     1     -13.229 -35.272  31.017  1.00  0.00     0.159 C 
ATOM      5  O   UNL     1     -12.797 -34.919  32.149  1.00  0.00    -0.295 OA
BRANCH   4   6
ATOM      6  C   UNL     1     -13.937 -34.235  30.197  1.00  0.00     0.091 CG0
ATOM      7  G   UNL     1     -13.417 -34.119  28.747  1.00  0.00     0.000 G0
ENDBRANCH   4   6
ENDBRANCH   2   4
BRANCH   3   8
ATOM      8  C   UNL     1     -14.015 -36.532  28.227  1.00  0.00    -0.003 C 
ATOM      9  C   UNL     1     -14.002 -35.232  27.910  1.00  0.00    -0.020 C 
BRANCH   9  10
ATOM     10  C   UNL     1     -13.413 -34.118  28.743  1.00  0.00    -0.010 CG0
ATOM     11  C   UNL     1     -11.870 -34.130  28.640  1.00  0.00     0.016 C 
ATOM     12  C   UNL     1     -13.916 -32.771  28.174  1.00  0.00     0.016 C 
ATOM     13  G   UNL     1     -13.915 -34.243  30.198  1.00  0.00     0.000 G0
ENDBRANCH   9  10
ENDBRANCH   3   8
TORSDOF 0
ENDMDL
