MODEL 1
REMARK VINA RESULT:    -3.796      0.000      0.000
REMARK INTER + INTRA:          -4.511
REMARK INTER:                  -4.462
REMARK INTRA:                  -0.050
REMARK UNBOUND:                -0.050
REMARK SMILES O=C([O-])CCC(=O)[O-]
REMARK SMILES IDX 4 1 2 2 1 3 3 4 5 5 6 6 7 7 8 8
REMARK H PARENT
REMARK Flexibility Score: inf
ROOT
ATOM      1  C   UNL     1       2.047 -36.773  16.885  1.00  0.00     0.059 C 
ENDROOT
BRANCH   1   2
ATOM      2  C   UNL     1       2.447 -37.355  18.204  1.00  0.00     0.042 C 
ATOM      3  O   UNL     1       3.649 -37.312  18.576  1.00  0.00    -0.550 OA
ATOM      4  O   UNL     1       1.484 -37.900  19.044  1.00  0.00    -0.550 OA
ENDBRANCH   1   2
BRANCH   1   5
ATOM      5  C   UNL     1       3.271 -36.231  16.144  1.00  0.00     0.059 C 
BRANCH   5   6
ATOM      6  C   UNL     1       3.263 -36.686  14.719  1.00  0.00     0.042 C 
ATOM      7  O   UNL     1       2.342 -36.321  13.943  1.00  0.00    -0.550 OA
ATOM      8  O   UNL     1       4.300 -37.474  14.235  1.00  0.00    -0.550 OA
ENDBRANCH   5   6
ENDBRANCH   1   5
TORSDOF 3
ENDMDL
MODEL 2
REMARK VINA RESULT:    -3.793      0.126      4.112
REMARK INTER + INTRA:          -4.508
REMARK INTER:                  -4.464
REMARK INTRA:                  -0.044
REMARK UNBOUND:                -0.050
REMARK SMILES O=C([O-])CCC(=O)[O-]
REMARK SMILES IDX 4 1 2 2 1 3 3 4 5 5 6 6 7 7 8 8
REMARK H PARENT
REMARK Flexibility Score: inf
ROOT
ATOM      1  C   UNL     1       3.282 -36.279  16.208  1.00  0.00     0.059 C 
ENDROOT
BRANCH   1   2
ATOM      2  C   UNL     1       3.270 -36.692  14.770  1.00  0.00     0.042 C 
ATOM      3  O   UNL     1       2.354 -36.295  14.005  1.00  0.00    -0.550 OA
ATOM      4  O   UNL     1       4.301 -37.474  14.264  1.00  0.00    -0.550 OA
ENDBRANCH   1   2
BRANCH   1   5
ATOM      5  C   UNL     1       2.089 -36.887  16.950  1.00  0.00     0.059 C 
BRANCH   5   6
ATOM      6  C   UNL     1       2.508 -37.380  18.299  1.00  0.00     0.042 C 
ATOM      7  O   UNL     1       1.658 -37.876  19.084  1.00  0.00    -0.550 OA
ATOM      8  O   UNL     1       3.846 -37.334  18.671  1.00  0.00    -0.550 OA
ENDBRANCH   5   6
ENDBRANCH   1   5
TORSDOF 3
ENDMDL
MODEL 3
REMARK VINA RESULT:    -3.782      0.065      4.222
REMARK INTER + INTRA:          -4.495
REMARK INTER:                  -4.448
REMARK INTRA:                  -0.048
REMARK UNBOUND:                -0.050
REMARK SMILES O=C([O-])CCC(=O)[O-]
REMARK SMILES IDX 4 1 2 2 1 3 3 4 5 5 6 6 7 7 8 8
REMARK H PARENT
REMARK Flexibility Score: inf
ROOT
ATOM      1  C   UNL     1       3.325 -36.272  16.158  1.00  0.00     0.059 C 
ENDROOT
BRANCH   1   2
ATOM      2  C   UNL     1       3.300 -36.700  14.725  1.00  0.00     0.042 C 
ATOM      3  O   UNL     1       2.378 -36.308  13.963  1.00  0.00    -0.550 OA
ATOM      4  O   UNL     1       4.323 -37.491  14.218  1.00  0.00    -0.550 OA
ENDBRANCH   1   2
BRANCH   1   5
ATOM      5  C   UNL     1       2.108 -36.824  16.903  1.00  0.00     0.059 C 
BRANCH   5   6
ATOM      6  C   UNL     1       2.514 -37.375  18.234  1.00  0.00     0.042 C 
ATOM      7  O   UNL     1       3.717 -37.318  18.602  1.00  0.00    -0.550 OA
ATOM      8  O   UNL     1       1.557 -37.908  19.087  1.00  0.00    -0.550 OA
ENDBRANCH   5   6
ENDBRANCH   1   5
TORSDOF 3
ENDMDL
MODEL 4
REMARK VINA RESULT:    -3.704      2.509      4.676
REMARK INTER + INTRA:          -4.403
REMARK INTER:                  -4.343
REMARK INTRA:                  -0.060
REMARK UNBOUND:                -0.050
REMARK SMILES O=C([O-])CCC(=O)[O-]
REMARK SMILES IDX 4 1 2 2 1 3 3 4 5 5 6 6 7 7 8 8
REMARK H PARENT
REMARK Flexibility Score: inf
ROOT
ATOM      1  C   UNL     1       3.676 -37.053  18.554  1.00  0.00     0.059 C 
ENDROOT
BRANCH   1   2
ATOM      2  C   UNL     1       2.256 -37.320  18.166  1.00  0.00     0.042 C 
ATOM      3  O   UNL     1       1.475 -37.886  18.975  1.00  0.00    -0.550 OA
ATOM      4  O   UNL     1       1.782 -36.899  16.930  1.00  0.00    -0.550 OA
ENDBRANCH   1   2
BRANCH   1   5
ATOM      5  C   UNL     1       3.830 -37.077  20.076  1.00  0.00     0.059 C 
BRANCH   5   6
ATOM      6  C   UNL     1       4.460 -35.809  20.558  1.00  0.00     0.042 C 
ATOM      7  O   UNL     1       5.125 -35.091  19.766  1.00  0.00    -0.550 OA
ATOM      8  O   UNL     1       4.275 -35.396  21.872  1.00  0.00    -0.550 OA
ENDBRANCH   5   6
ENDBRANCH   1   5
TORSDOF 3
ENDMDL
MODEL 5
REMARK VINA RESULT:    -3.620      2.523      3.827
REMARK INTER + INTRA:          -4.304
REMARK INTER:                  -4.248
REMARK INTRA:                  -0.056
REMARK UNBOUND:                -0.050
REMARK SMILES O=C([O-])CCC(=O)[O-]
REMARK SMILES IDX 4 1 2 2 1 3 3 4 5 5 6 6 7 7 8 8
REMARK H PARENT
REMARK Flexibility Score: inf
ROOT
ATOM      1  C   UNL     1       3.748 -37.068  20.057  1.00  0.00     0.059 C 
ENDROOT
BRANCH   1   2
ATOM      2  C   UNL     1       4.551 -35.877  20.475  1.00  0.00     0.042 C 
ATOM      3  O   UNL     1       5.124 -35.164  19.610  1.00  0.00    -0.550 OA
ATOM      4  O   UNL     1       4.624 -35.525  21.816  1.00  0.00    -0.550 OA
ENDBRANCH   1   2
BRANCH   1   5
ATOM      5  C   UNL     1       3.634 -37.129  18.532  1.00  0.00     0.059 C 
BRANCH   5   6
ATOM      6  C   UNL     1       2.208 -37.313  18.120  1.00  0.00     0.042 C 
ATOM      7  O   UNL     1       1.829 -36.960  16.973  1.00  0.00    -0.550 OA
ATOM      8  O   UNL     1       1.307 -37.918  18.988  1.00  0.00    -0.550 OA
ENDBRANCH   5   6
ENDBRANCH   1   5
TORSDOF 3
ENDMDL
MODEL 6
REMARK VINA RESULT:    -3.575      3.131      5.524
REMARK INTER + INTRA:          -4.251
REMARK INTER:                  -4.162
REMARK INTRA:                  -0.089
REMARK UNBOUND:                -0.050
REMARK SMILES O=C([O-])CCC(=O)[O-]
REMARK SMILES IDX 4 1 2 2 1 3 3 4 5 5 6 6 7 7 8 8
REMARK H PARENT
REMARK Flexibility Score: inf
ROOT
ATOM      1  C   UNL     1       4.632 -37.148  19.512  1.00  0.00     0.059 C 
ENDROOT
BRANCH   1   2
ATOM      2  C   UNL     1       3.383 -37.179  18.689  1.00  0.00     0.042 C 
ATOM      3  O   UNL     1       2.303 -37.581  19.194  1.00  0.00    -0.550 OA
ATOM      4  O   UNL     1       3.402 -36.717  17.380  1.00  0.00    -0.550 OA
ENDBRANCH   1   2
BRANCH   1   5
ATOM      5  C   UNL     1       4.698 -35.862  20.338  1.00  0.00     0.059 C 
BRANCH   5   6
ATOM      6  C   UNL     1       4.758 -36.181  21.799  1.00  0.00     0.042 C 
ATOM      7  O   UNL     1       4.757 -35.254  22.650  1.00  0.00    -0.550 OA
ATOM      8  O   UNL     1       4.768 -37.505  22.221  1.00  0.00    -0.550 OA
ENDBRANCH   5   6
ENDBRANCH   1   5
TORSDOF 3
ENDMDL
MODEL 7
REMARK VINA RESULT:    -3.543      3.082      4.326
REMARK INTER + INTRA:          -4.214
REMARK INTER:                  -4.134
REMARK INTRA:                  -0.080
REMARK UNBOUND:                -0.050
REMARK SMILES O=C([O-])CCC(=O)[O-]
REMARK SMILES IDX 4 1 2 2 1 3 3 4 5 5 6 6 7 7 8 8
REMARK H PARENT
REMARK Flexibility Score: inf
ROOT
ATOM      1  C   UNL     1       4.361 -36.044  20.537  1.00  0.00     0.059 C 
ENDROOT
BRANCH   1   2
ATOM      2  C   UNL     1       4.686 -36.555  21.905  1.00  0.00     0.042 C 
ATOM      3  O   UNL     1       4.863 -35.750  22.856  1.00  0.00    -0.550 OA
ATOM      4  O   UNL     1       4.743 -37.923  22.140  1.00  0.00    -0.550 OA
ENDBRANCH   1   2
BRANCH   1   5
ATOM      5  C   UNL     1       4.492 -37.163  19.502  1.00  0.00     0.059 C 
BRANCH   5   6
ATOM      6  C   UNL     1       3.271 -37.221  18.638  1.00  0.00     0.042 C 
ATOM      7  O   UNL     1       2.179 -37.628  19.113  1.00  0.00    -0.550 OA
ATOM      8  O   UNL     1       3.330 -36.782  17.322  1.00  0.00    -0.550 OA
ENDBRANCH   5   6
ENDBRANCH   1   5
TORSDOF 3
ENDMDL
MODEL 8
REMARK VINA RESULT:    -3.487      1.714      4.389
REMARK INTER + INTRA:          -4.148
REMARK INTER:                  -4.114
REMARK INTRA:                  -0.034
REMARK UNBOUND:                -0.050
REMARK SMILES O=C([O-])CCC(=O)[O-]
REMARK SMILES IDX 4 1 2 2 1 3 3 4 5 5 6 6 7 7 8 8
REMARK H PARENT
REMARK Flexibility Score: inf
ROOT
ATOM      1  C   UNL     1       3.617 -36.184  17.237  1.00  0.00     0.059 C 
ENDROOT
BRANCH   1   2
ATOM      2  C   UNL     1       2.975 -36.678  15.980  1.00  0.00     0.042 C 
ATOM      3  O   UNL     1       1.802 -36.327  15.688  1.00  0.00    -0.550 OA
ATOM      4  O   UNL     1       3.690 -37.486  15.105  1.00  0.00    -0.550 OA
ENDBRANCH   1   2
BRANCH   1   5
ATOM      5  C   UNL     1       3.383 -37.170  18.383  1.00  0.00     0.059 C 
BRANCH   5   6
ATOM      6  C   UNL     1       4.131 -36.740  19.605  1.00  0.00     0.042 C 
ATOM      7  O   UNL     1       4.894 -35.740  19.561  1.00  0.00    -0.550 OA
ATOM      8  O   UNL     1       3.949 -37.417  20.805  1.00  0.00    -0.550 OA
ENDBRANCH   5   6
ENDBRANCH   1   5
TORSDOF 3
ENDMDL
MODEL 9
REMARK VINA RESULT:    -3.449      1.716      2.212
REMARK INTER + INTRA:          -4.103
REMARK INTER:                  -4.072
REMARK INTRA:                  -0.031
REMARK UNBOUND:                -0.050
REMARK SMILES O=C([O-])CCC(=O)[O-]
REMARK SMILES IDX 4 1 2 2 1 3 3 4 5 5 6 6 7 7 8 8
REMARK H PARENT
REMARK Flexibility Score: inf
ROOT
ATOM      1  C   UNL     1       3.250 -37.138  18.471  1.00  0.00     0.059 C 
ENDROOT
BRANCH   1   2
ATOM      2  C   UNL     1       4.052 -36.762  19.677  1.00  0.00     0.042 C 
ATOM      3  O   UNL     1       4.006 -37.474  20.714  1.00  0.00    -0.550 OA
ATOM      4  O   UNL     1       4.888 -35.653  19.638  1.00  0.00    -0.550 OA
ENDBRANCH   1   2
BRANCH   1   5
ATOM      5  C   UNL     1       3.629 -36.255  17.280  1.00  0.00     0.059 C 
BRANCH   5   6
ATOM      6  C   UNL     1       2.949 -36.734  16.037  1.00  0.00     0.042 C 
ATOM      7  O   UNL     1       1.763 -36.390  15.791  1.00  0.00    -0.550 OA
ATOM      8  O   UNL     1       3.640 -37.522  15.125  1.00  0.00    -0.550 OA
ENDBRANCH   5   6
ENDBRANCH   1   5
TORSDOF 3
ENDMDL
