MODEL 1
REMARK VINA RESULT:    -7.323      0.000      0.000
REMARK INTER + INTRA:          -9.134
REMARK INTER:                  -8.821
REMARK INTRA:                  -0.312
REMARK UNBOUND:                -0.312
REMARK SMILES O=c1c(O)c(-c2ccc(O)c(O)c2)oc2cc(O)cc(O)c12
REMARK SMILES IDX 5 1 3 2 2 3 1 4 22 5 20 6 19 7 17 8 16 9 15 10 14 11 6 12
REMARK SMILES IDX 7 13 8 14 9 15 13 16 11 17 10 18 12 20 4 22 21 24 18 26
REMARK H PARENT 10 19 12 21 4 23 21 25 18 27
REMARK Flexibility Score: inf
ROOT
ATOM      1  C   UNL     1      -0.787  -1.339  -3.737  1.00  0.00     0.180 A 
ATOM      2  C   UNL     1      -1.511  -0.349  -3.051  1.00  0.00     0.208 A 
ATOM      3  C   UNL     1      -2.551  -0.739  -2.192  1.00  0.00     0.238 A 
ATOM      4  O   UNL     1      -3.232   0.154  -1.622  1.00  0.00    -0.285 OA
ATOM      5  C   UNL     1      -2.844  -2.113  -2.018  1.00  0.00     0.111 A 
ATOM      6  C   UNL     1      -3.849  -2.623  -1.142  1.00  0.00     0.134 A 
ATOM      7  C   UNL     1      -4.139  -3.993  -1.147  1.00  0.00     0.093 A 
ATOM      8  C   UNL     1      -3.417  -4.879  -1.946  1.00  0.00     0.123 A 
ATOM      9  C   UNL     1      -2.393  -4.399  -2.763  1.00  0.00     0.094 A 
ATOM     10  C   UNL     1      -2.104  -3.032  -2.806  1.00  0.00     0.146 A 
ATOM     11  O   UNL     1      -1.128  -2.615  -3.604  1.00  0.00    -0.452 OA
ENDROOT
BRANCH   1  12
ATOM     12  C   UNL     1       0.339  -1.008  -4.640  1.00  0.00     0.025 A 
ATOM     13  C   UNL     1       0.077  -0.683  -5.980  1.00  0.00     0.016 A 
ATOM     14  C   UNL     1       1.125  -0.387  -6.856  1.00  0.00     0.051 A 
ATOM     15  C   UNL     1       2.452  -0.427  -6.407  1.00  0.00     0.157 A 
ATOM     16  C   UNL     1       1.673  -1.067  -4.199  1.00  0.00     0.062 A 
ATOM     17  C   UNL     1       2.727  -0.774  -5.074  1.00  0.00     0.158 A 
BRANCH  15  18
ATOM     18  O   UNL     1       3.496  -0.130  -7.282  1.00  0.00    -0.504 OA
ATOM     19  H   UNL     1       4.386   0.221  -6.948  1.00  0.00     0.293 HD
ENDBRANCH  15  18
BRANCH  17  20
ATOM     20  O   UNL     1       4.037  -0.836  -4.600  1.00  0.00    -0.504 OA
ATOM     21  H   UNL     1       4.771  -1.314  -5.109  1.00  0.00     0.293 HD
ENDBRANCH  17  20
ENDBRANCH   1  12
BRANCH   2  22
ATOM     22  O   UNL     1      -1.221   1.003  -3.255  1.00  0.00    -0.502 OA
ATOM     23  H   UNL     1      -1.019   1.384  -4.171  1.00  0.00     0.293 HD
ENDBRANCH   2  22
BRANCH   6  24
ATOM     24  O   UNL     1      -4.566  -1.837  -0.235  1.00  0.00    -0.507 OA
ATOM     25  H   UNL     1      -4.223  -0.987   0.186  1.00  0.00     0.293 HD
ENDBRANCH   6  24
BRANCH   8  26
ATOM     26  O   UNL     1      -3.722  -6.238  -1.915  1.00  0.00    -0.508 OA
ATOM     27  H   UNL     1      -3.575  -6.834  -2.721  1.00  0.00     0.293 HD
ENDBRANCH   8  26
TORSDOF 6
ENDMDL
MODEL 2
REMARK VINA RESULT:    -7.311      2.737      4.438
REMARK INTER + INTRA:          -9.119
REMARK INTER:                  -9.330
REMARK INTRA:                   0.212
REMARK UNBOUND:                -0.312
REMARK SMILES O=c1c(O)c(-c2ccc(O)c(O)c2)oc2cc(O)cc(O)c12
REMARK SMILES IDX 5 1 3 2 2 3 1 4 22 5 20 6 19 7 17 8 16 9 15 10 14 11 6 12
REMARK SMILES IDX 7 13 8 14 9 15 13 16 11 17 10 18 12 20 4 22 21 24 18 26
REMARK H PARENT 10 19 12 21 4 23 21 25 18 27
REMARK Flexibility Score: inf
ROOT
ATOM      1  C   UNL     1      -3.606  -2.733  -1.661  1.00  0.00     0.180 A 
ATOM      2  C   UNL     1      -4.477  -1.649  -1.866  1.00  0.00     0.208 A 
ATOM      3  C   UNL     1      -5.489  -1.401  -0.925  1.00  0.00     0.238 A 
ATOM      4  O   UNL     1      -6.299  -0.461  -1.141  1.00  0.00    -0.285 OA
ATOM      5  C   UNL     1      -5.609  -2.230   0.217  1.00  0.00     0.111 A 
ATOM      6  C   UNL     1      -6.571  -2.046   1.254  1.00  0.00     0.134 A 
ATOM      7  C   UNL     1      -6.683  -3.004   2.271  1.00  0.00     0.093 A 
ATOM      8  C   UNL     1      -5.824  -4.101   2.323  1.00  0.00     0.123 A 
ATOM      9  C   UNL     1      -4.840  -4.259   1.346  1.00  0.00     0.094 A 
ATOM     10  C   UNL     1      -4.728  -3.339   0.299  1.00  0.00     0.146 A 
ATOM     11  O   UNL     1      -3.785  -3.532  -0.615  1.00  0.00    -0.452 OA
ENDROOT
BRANCH   1  12
ATOM     12  C   UNL     1      -2.500  -3.043  -2.595  1.00  0.00     0.025 A 
ATOM     13  C   UNL     1      -1.803  -1.992  -3.212  1.00  0.00     0.016 A 
ATOM     14  C   UNL     1      -0.769  -2.261  -4.113  1.00  0.00     0.051 A 
ATOM     15  C   UNL     1      -0.428  -3.585  -4.422  1.00  0.00     0.157 A 
ATOM     16  C   UNL     1      -2.169  -4.370  -2.924  1.00  0.00     0.062 A 
ATOM     17  C   UNL     1      -1.136  -4.643  -3.829  1.00  0.00     0.158 A 
BRANCH  15  18
ATOM     18  O   UNL     1       0.604  -3.850  -5.321  1.00  0.00    -0.504 OA
ATOM     19  H   UNL     1       1.466  -4.293  -5.024  1.00  0.00     0.293 HD
ENDBRANCH  15  18
BRANCH  17  20
ATOM     20  O   UNL     1      -0.831  -5.971  -4.126  1.00  0.00    -0.504 OA
ATOM     21  H   UNL     1      -0.668  -6.286  -5.075  1.00  0.00     0.293 HD
ENDBRANCH  17  20
ENDBRANCH   1  12
BRANCH   2  22
ATOM     22  O   UNL     1      -4.355  -0.857  -3.011  1.00  0.00    -0.502 OA
ATOM     23  H   UNL     1      -5.041  -0.155  -3.263  1.00  0.00     0.293 HD
ENDBRANCH   2  22
BRANCH   6  24
ATOM     24  O   UNL     1      -7.416  -0.936   1.347  1.00  0.00    -0.507 OA
ATOM     25  H   UNL     1      -7.291  -0.170   1.992  1.00  0.00     0.293 HD
ENDBRANCH   6  24
BRANCH   8  26
ATOM     26  O   UNL     1      -5.953  -5.026   3.357  1.00  0.00    -0.508 OA
ATOM     27  H   UNL     1      -6.693  -5.718   3.361  1.00  0.00     0.293 HD
ENDBRANCH   8  26
TORSDOF 6
ENDMDL
MODEL 3
REMARK VINA RESULT:    -7.287      1.592      1.847
REMARK INTER + INTRA:          -9.091
REMARK INTER:                  -9.004
REMARK INTRA:                  -0.086
REMARK UNBOUND:                -0.312
REMARK SMILES O=c1c(O)c(-c2ccc(O)c(O)c2)oc2cc(O)cc(O)c12
REMARK SMILES IDX 5 1 3 2 2 3 1 4 22 5 20 6 19 7 17 8 16 9 15 10 14 11 6 12
REMARK SMILES IDX 7 13 8 14 9 15 13 16 11 17 10 18 12 20 4 22 21 24 18 26
REMARK H PARENT 10 19 12 21 4 23 21 25 18 27
REMARK Flexibility Score: inf
ROOT
ATOM      1  C   UNL     1      -1.458  -1.504  -3.479  1.00  0.00     0.180 A 
ATOM      2  C   UNL     1      -2.424  -0.489  -3.595  1.00  0.00     0.208 A 
ATOM      3  C   UNL     1      -3.592  -0.570  -2.819  1.00  0.00     0.238 A 
ATOM      4  O   UNL     1      -4.478   0.313  -2.967  1.00  0.00    -0.285 OA
ATOM      5  C   UNL     1      -3.773  -1.654  -1.927  1.00  0.00     0.111 A 
ATOM      6  C   UNL     1      -4.897  -1.814  -1.064  1.00  0.00     0.134 A 
ATOM      7  C   UNL     1      -5.034  -2.992  -0.318  1.00  0.00     0.093 A 
ATOM      8  C   UNL     1      -4.054  -3.984  -0.354  1.00  0.00     0.123 A 
ATOM      9  C   UNL     1      -2.921  -3.811  -1.150  1.00  0.00     0.094 A 
ATOM     10  C   UNL     1      -2.774  -2.663  -1.932  1.00  0.00     0.146 A 
ATOM     11  O   UNL     1      -1.686  -2.542  -2.683  1.00  0.00    -0.452 OA
ENDROOT
BRANCH   1  12
ATOM     12  C   UNL     1      -0.192  -1.477  -4.245  1.00  0.00     0.025 A 
ATOM     13  C   UNL     1       0.671  -0.377  -4.113  1.00  0.00     0.016 A 
ATOM     14  C   UNL     1       1.862  -0.319  -4.842  1.00  0.00     0.051 A 
ATOM     15  C   UNL     1       2.201  -1.354  -5.725  1.00  0.00     0.157 A 
ATOM     16  C   UNL     1       0.141  -2.502  -5.148  1.00  0.00     0.062 A 
ATOM     17  C   UNL     1       1.333  -2.447  -5.882  1.00  0.00     0.158 A 
BRANCH  15  18
ATOM     18  O   UNL     1       3.389  -1.295  -6.450  1.00  0.00    -0.504 OA
ATOM     19  H   UNL     1       3.718  -0.429  -6.863  1.00  0.00     0.293 HD
ENDBRANCH  15  18
BRANCH  17  20
ATOM     20  O   UNL     1       1.633  -3.486  -6.763  1.00  0.00    -0.504 OA
ATOM     21  H   UNL     1       0.926  -4.129  -7.097  1.00  0.00     0.293 HD
ENDBRANCH  17  20
ENDBRANCH   1  12
BRANCH   2  22
ATOM     22  O   UNL     1      -2.237   0.560  -4.499  1.00  0.00    -0.502 OA
ATOM     23  H   UNL     1      -1.593   0.499  -5.278  1.00  0.00     0.293 HD
ENDBRANCH   2  22
BRANCH   6  24
ATOM     24  O   UNL     1      -5.887  -0.843  -0.883  1.00  0.00    -0.507 OA
ATOM     25  H   UNL     1      -6.749  -0.987  -0.379  1.00  0.00     0.293 HD
ENDBRANCH   6  24
BRANCH   8  26
ATOM     26  O   UNL     1      -4.215  -5.136   0.413  1.00  0.00    -0.508 OA
ATOM     27  H   UNL     1      -4.125  -5.119   1.422  1.00  0.00     0.293 HD
ENDBRANCH   8  26
TORSDOF 6
ENDMDL
MODEL 4
REMARK VINA RESULT:    -7.277      3.598      4.812
REMARK INTER + INTRA:          -9.078
REMARK INTER:                  -8.790
REMARK INTRA:                  -0.289
REMARK UNBOUND:                -0.312
REMARK SMILES O=c1c(O)c(-c2ccc(O)c(O)c2)oc2cc(O)cc(O)c12
REMARK SMILES IDX 5 1 3 2 2 3 1 4 22 5 20 6 19 7 17 8 16 9 15 10 14 11 6 12
REMARK SMILES IDX 7 13 8 14 9 15 13 16 11 17 10 18 12 20 4 22 21 24 18 26
REMARK H PARENT 10 19 12 21 4 23 21 25 18 27
REMARK Flexibility Score: inf
ROOT
ATOM      1  C   UNL     1      -3.598  -0.332  -3.642  1.00  0.00     0.180 A 
ATOM      2  C   UNL     1      -4.246  -0.465  -2.402  1.00  0.00     0.208 A 
ATOM      3  C   UNL     1      -4.098  -1.662  -1.683  1.00  0.00     0.238 A 
ATOM      4  O   UNL     1      -4.725  -1.797  -0.598  1.00  0.00    -0.285 OA
ATOM      5  C   UNL     1      -3.292  -2.703  -2.203  1.00  0.00     0.111 A 
ATOM      6  C   UNL     1      -3.040  -3.941  -1.540  1.00  0.00     0.134 A 
ATOM      7  C   UNL     1      -2.333  -4.950  -2.207  1.00  0.00     0.093 A 
ATOM      8  C   UNL     1      -1.815  -4.742  -3.484  1.00  0.00     0.123 A 
ATOM      9  C   UNL     1      -2.005  -3.514  -4.118  1.00  0.00     0.094 A 
ATOM     10  C   UNL     1      -2.736  -2.500  -3.493  1.00  0.00     0.146 A 
ATOM     11  O   UNL     1      -2.903  -1.350  -4.135  1.00  0.00    -0.452 OA
ENDROOT
BRANCH   1  12
ATOM     12  C   UNL     1      -3.686   0.908  -4.447  1.00  0.00     0.025 A 
ATOM     13  C   UNL     1      -2.907   2.020  -4.090  1.00  0.00     0.016 A 
ATOM     14  C   UNL     1      -2.990   3.207  -4.822  1.00  0.00     0.051 A 
ATOM     15  C   UNL     1      -3.863   3.304  -5.914  1.00  0.00     0.157 A 
ATOM     16  C   UNL     1      -4.577   1.016  -5.530  1.00  0.00     0.062 A 
ATOM     17  C   UNL     1      -4.664   2.205  -6.265  1.00  0.00     0.158 A 
BRANCH  15  18
ATOM     18  O   UNL     1      -3.943   4.489  -6.644  1.00  0.00    -0.504 OA
ATOM     19  H   UNL     1      -4.812   5.004  -6.728  1.00  0.00     0.293 HD
ENDBRANCH  15  18
BRANCH  17  20
ATOM     20  O   UNL     1      -5.554   2.274  -7.337  1.00  0.00    -0.504 OA
ATOM     21  H   UNL     1      -5.287   2.003  -8.276  1.00  0.00     0.293 HD
ENDBRANCH  17  20
ENDBRANCH   1  12
BRANCH   2  22
ATOM     22  O   UNL     1      -5.055   0.566  -1.917  1.00  0.00    -0.502 OA
ATOM     23  H   UNL     1      -4.750   1.531  -1.893  1.00  0.00     0.293 HD
ENDBRANCH   2  22
BRANCH   6  24
ATOM     24  O   UNL     1      -3.434  -4.218  -0.228  1.00  0.00    -0.507 OA
ATOM     25  H   UNL     1      -4.391  -4.261   0.088  1.00  0.00     0.293 HD
ENDBRANCH   6  24
BRANCH   8  26
ATOM     26  O   UNL     1      -1.103  -5.763  -4.112  1.00  0.00    -0.508 OA
ATOM     27  H   UNL     1      -0.608  -5.607  -4.982  1.00  0.00     0.293 HD
ENDBRANCH   8  26
TORSDOF 6
ENDMDL
MODEL 5
REMARK VINA RESULT:    -7.206      4.233      7.162
REMARK INTER + INTRA:          -8.993
REMARK INTER:                  -8.664
REMARK INTRA:                  -0.329
REMARK UNBOUND:                -0.312
REMARK SMILES O=c1c(O)c(-c2ccc(O)c(O)c2)oc2cc(O)cc(O)c12
REMARK SMILES IDX 5 1 3 2 2 3 1 4 22 5 20 6 19 7 17 8 16 9 15 10 14 11 6 12
REMARK SMILES IDX 7 13 8 14 9 15 13 16 11 17 10 18 12 20 4 22 21 24 18 26
REMARK H PARENT 10 19 12 21 4 23 21 25 18 27
REMARK Flexibility Score: inf
ROOT
ATOM      1  C   UNL     1       2.313   1.324  -3.607  1.00  0.00     0.180 A 
ATOM      2  C   UNL     1       3.453   1.504  -2.804  1.00  0.00     0.208 A 
ATOM      3  C   UNL     1       3.582   2.688  -2.062  1.00  0.00     0.238 A 
ATOM      4  O   UNL     1       4.630   2.868  -1.387  1.00  0.00    -0.285 OA
ATOM      5  C   UNL     1       2.564   3.671  -2.118  1.00  0.00     0.111 A 
ATOM      6  C   UNL     1       2.571   4.890  -1.376  1.00  0.00     0.134 A 
ATOM      7  C   UNL     1       1.576   5.847  -1.609  1.00  0.00     0.093 A 
ATOM      8  C   UNL     1       0.537   5.601  -2.507  1.00  0.00     0.123 A 
ATOM      9  C   UNL     1       0.487   4.387  -3.194  1.00  0.00     0.094 A 
ATOM     10  C   UNL     1       1.487   3.428  -3.010  1.00  0.00     0.146 A 
ATOM     11  O   UNL     1       1.407   2.291  -3.691  1.00  0.00    -0.452 OA
ENDROOT
BRANCH   1  12
ATOM     12  C   UNL     1       2.094   0.092  -4.398  1.00  0.00     0.025 A 
ATOM     13  C   UNL     1       2.554   0.031  -5.723  1.00  0.00     0.016 A 
ATOM     14  C   UNL     1       2.340  -1.113  -6.496  1.00  0.00     0.051 A 
ATOM     15  C   UNL     1       1.649  -2.209  -5.959  1.00  0.00     0.157 A 
ATOM     16  C   UNL     1       1.383  -1.001  -3.871  1.00  0.00     0.062 A 
ATOM     17  C   UNL     1       1.164  -2.149  -4.642  1.00  0.00     0.158 A 
BRANCH  15  18
ATOM     18  O   UNL     1       1.438  -3.350  -6.732  1.00  0.00    -0.504 OA
ATOM     19  H   UNL     1       1.572  -4.280  -6.353  1.00  0.00     0.293 HD
ENDBRANCH  15  18
BRANCH  17  20
ATOM     20  O   UNL     1       0.461  -3.216  -4.084  1.00  0.00    -0.504 OA
ATOM     21  H   UNL     1       0.077  -3.176  -3.148  1.00  0.00     0.293 HD
ENDBRANCH  17  20
ENDBRANCH   1  12
BRANCH   2  22
ATOM     22  O   UNL     1       4.457   0.532  -2.780  1.00  0.00    -0.502 OA
ATOM     23  H   UNL     1       4.929   0.217  -3.618  1.00  0.00     0.293 HD
ENDBRANCH   2  22
BRANCH   6  24
ATOM     24  O   UNL     1       3.512   5.196  -0.388  1.00  0.00    -0.507 OA
ATOM     25  H   UNL     1       4.425   4.774  -0.312  1.00  0.00     0.293 HD
ENDBRANCH   6  24
BRANCH   8  26
ATOM     26  O   UNL     1      -0.446   6.569  -2.703  1.00  0.00    -0.508 OA
ATOM     27  H   UNL     1      -1.414   6.317  -2.864  1.00  0.00     0.293 HD
ENDBRANCH   8  26
TORSDOF 6
ENDMDL
MODEL 6
REMARK VINA RESULT:    -7.144      3.328      6.709
REMARK INTER + INTRA:          -8.918
REMARK INTER:                  -8.658
REMARK INTRA:                  -0.261
REMARK UNBOUND:                -0.312
REMARK SMILES O=c1c(O)c(-c2ccc(O)c(O)c2)oc2cc(O)cc(O)c12
REMARK SMILES IDX 5 1 3 2 2 3 1 4 22 5 20 6 19 7 17 8 16 9 15 10 14 11 6 12
REMARK SMILES IDX 7 13 8 14 9 15 13 16 11 17 10 18 12 20 4 22 21 24 18 26
REMARK H PARENT 10 19 12 21 4 23 21 25 18 27
REMARK Flexibility Score: inf
ROOT
ATOM      1  C   UNL     1      -3.341  -0.829  -4.150  1.00  0.00     0.180 A 
ATOM      2  C   UNL     1      -2.686  -0.153  -3.105  1.00  0.00     0.208 A 
ATOM      3  C   UNL     1      -1.285  -0.204  -3.035  1.00  0.00     0.238 A 
ATOM      4  O   UNL     1      -0.708   0.358  -2.066  1.00  0.00    -0.285 OA
ATOM      5  C   UNL     1      -0.554  -0.916  -4.016  1.00  0.00     0.111 A 
ATOM      6  C   UNL     1       0.869  -1.000  -4.065  1.00  0.00     0.134 A 
ATOM      7  C   UNL     1       1.480  -1.840  -5.004  1.00  0.00     0.093 A 
ATOM      8  C   UNL     1       0.723  -2.546  -5.938  1.00  0.00     0.123 A 
ATOM      9  C   UNL     1      -0.667  -2.425  -5.938  1.00  0.00     0.094 A 
ATOM     10  C   UNL     1      -1.308  -1.623  -4.989  1.00  0.00     0.146 A 
ATOM     11  O   UNL     1      -2.633  -1.543  -5.017  1.00  0.00    -0.452 OA
ENDROOT
BRANCH   1  12
ATOM     12  C   UNL     1      -4.812  -0.801  -4.305  1.00  0.00     0.025 A 
ATOM     13  C   UNL     1      -5.611  -1.600  -3.471  1.00  0.00     0.016 A 
ATOM     14  C   UNL     1      -7.001  -1.605  -3.614  1.00  0.00     0.051 A 
ATOM     15  C   UNL     1      -7.612  -0.824  -4.604  1.00  0.00     0.157 A 
ATOM     16  C   UNL     1      -5.428  -0.035  -5.311  1.00  0.00     0.062 A 
ATOM     17  C   UNL     1      -6.821  -0.039  -5.459  1.00  0.00     0.158 A 
BRANCH  15  18
ATOM     18  O   UNL     1      -8.999  -0.830  -4.743  1.00  0.00    -0.504 OA
ATOM     19  H   UNL     1      -9.537   0.028  -4.743  1.00  0.00     0.293 HD
ENDBRANCH  15  18
BRANCH  17  20
ATOM     20  O   UNL     1      -7.397   0.738  -6.464  1.00  0.00    -0.504 OA
ATOM     21  H   UNL     1      -6.884   1.010  -7.294  1.00  0.00     0.293 HD
ENDBRANCH  17  20
ENDBRANCH   1  12
BRANCH   2  22
ATOM     22  O   UNL     1      -3.427   0.526  -2.134  1.00  0.00    -0.502 OA
ATOM     23  H   UNL     1      -4.427   0.404  -2.029  1.00  0.00     0.293 HD
ENDBRANCH   2  22
BRANCH   6  24
ATOM     24  O   UNL     1       1.723  -0.264  -3.237  1.00  0.00    -0.507 OA
ATOM     25  H   UNL     1       2.542  -0.636  -2.780  1.00  0.00     0.293 HD
ENDBRANCH   6  24
BRANCH   8  26
ATOM     26  O   UNL     1       1.364  -3.360  -6.869  1.00  0.00    -0.508 OA
ATOM     27  H   UNL     1       1.347  -4.370  -6.792  1.00  0.00     0.293 HD
ENDBRANCH   8  26
TORSDOF 6
ENDMDL
MODEL 7
REMARK VINA RESULT:    -7.110      4.476      7.011
REMARK INTER + INTRA:          -8.877
REMARK INTER:                  -8.696
REMARK INTRA:                  -0.181
REMARK UNBOUND:                -0.312
REMARK SMILES O=c1c(O)c(-c2ccc(O)c(O)c2)oc2cc(O)cc(O)c12
REMARK SMILES IDX 5 1 3 2 2 3 1 4 22 5 20 6 19 7 17 8 16 9 15 10 14 11 6 12
REMARK SMILES IDX 7 13 8 14 9 15 13 16 11 17 10 18 12 20 4 22 21 24 18 26
REMARK H PARENT 10 19 12 21 4 23 21 25 18 27
REMARK Flexibility Score: inf
ROOT
ATOM      1  C   UNL     1      -0.681   2.111  -4.323  1.00  0.00     0.180 A 
ATOM      2  C   UNL     1      -0.495   2.666  -3.045  1.00  0.00     0.208 A 
ATOM      3  C   UNL     1       0.763   2.555  -2.432  1.00  0.00     0.238 A 
ATOM      4  O   UNL     1       0.909   3.006  -1.265  1.00  0.00    -0.285 OA
ATOM      5  C   UNL     1       1.823   1.905  -3.109  1.00  0.00     0.111 A 
ATOM      6  C   UNL     1       3.149   1.771  -2.599  1.00  0.00     0.134 A 
ATOM      7  C   UNL     1       4.083   0.995  -3.298  1.00  0.00     0.093 A 
ATOM      8  C   UNL     1       3.758   0.405  -4.519  1.00  0.00     0.123 A 
ATOM      9  C   UNL     1       2.482   0.579  -5.056  1.00  0.00     0.094 A 
ATOM     10  C   UNL     1       1.518   1.317  -4.364  1.00  0.00     0.146 A 
ATOM     11  O   UNL     1       0.313   1.450  -4.905  1.00  0.00    -0.452 OA
ENDROOT
BRANCH   1  12
ATOM     12  C   UNL     1      -1.970   2.210  -5.044  1.00  0.00     0.025 A 
ATOM     13  C   UNL     1      -2.659   1.037  -5.392  1.00  0.00     0.016 A 
ATOM     14  C   UNL     1      -3.867   1.105  -6.091  1.00  0.00     0.051 A 
ATOM     15  C   UNL     1      -4.397   2.347  -6.466  1.00  0.00     0.157 A 
ATOM     16  C   UNL     1      -2.494   3.453  -5.441  1.00  0.00     0.062 A 
ATOM     17  C   UNL     1      -3.703   3.526  -6.144  1.00  0.00     0.158 A 
BRANCH  15  18
ATOM     18  O   UNL     1      -5.602   2.413  -7.162  1.00  0.00    -0.504 OA
ATOM     19  H   UNL     1      -6.302   3.114  -6.949  1.00  0.00     0.293 HD
ENDBRANCH  15  18
BRANCH  17  20
ATOM     20  O   UNL     1      -4.196   4.776  -6.515  1.00  0.00    -0.504 OA
ATOM     21  H   UNL     1      -3.603   5.488  -6.927  1.00  0.00     0.293 HD
ENDBRANCH  17  20
ENDBRANCH   1  12
BRANCH   2  22
ATOM     22  O   UNL     1      -1.560   3.284  -2.385  1.00  0.00    -0.502 OA
ATOM     23  H   UNL     1      -2.104   2.814  -1.671  1.00  0.00     0.293 HD
ENDBRANCH   2  22
BRANCH   6  24
ATOM     24  O   UNL     1       3.605   2.396  -1.434  1.00  0.00    -0.507 OA
ATOM     25  H   UNL     1       4.563   2.660  -1.260  1.00  0.00     0.293 HD
ENDBRANCH   6  24
BRANCH   8  26
ATOM     26  O   UNL     1       4.717  -0.348  -5.195  1.00  0.00    -0.508 OA
ATOM     27  H   UNL     1       4.696  -1.361  -5.190  1.00  0.00     0.293 HD
ENDBRANCH   8  26
TORSDOF 6
ENDMDL
MODEL 8
REMARK VINA RESULT:    -7.014      3.937      6.021
REMARK INTER + INTRA:          -8.762
REMARK INTER:                  -8.533
REMARK INTRA:                  -0.229
REMARK UNBOUND:                -0.312
REMARK SMILES O=c1c(O)c(-c2ccc(O)c(O)c2)oc2cc(O)cc(O)c12
REMARK SMILES IDX 5 1 3 2 2 3 1 4 22 5 20 6 19 7 17 8 16 9 15 10 14 11 6 12
REMARK SMILES IDX 7 13 8 14 9 15 13 16 11 17 10 18 12 20 4 22 21 24 18 26
REMARK H PARENT 10 19 12 21 4 23 21 25 18 27
REMARK Flexibility Score: inf
ROOT
ATOM      1  C   UNL     1      -0.096   2.188  -3.415  1.00  0.00     0.180 A 
ATOM      2  C   UNL     1      -0.990   1.204  -2.960  1.00  0.00     0.208 A 
ATOM      3  C   UNL     1      -2.296   1.179  -3.477  1.00  0.00     0.238 A 
ATOM      4  O   UNL     1      -3.109   0.330  -3.027  1.00  0.00    -0.285 OA
ATOM      5  C   UNL     1      -2.686   2.129  -4.452  1.00  0.00     0.111 A 
ATOM      6  C   UNL     1      -3.970   2.171  -5.074  1.00  0.00     0.134 A 
ATOM      7  C   UNL     1      -4.289   3.234  -5.929  1.00  0.00     0.093 A 
ATOM      8  C   UNL     1      -3.349   4.217  -6.237  1.00  0.00     0.123 A 
ATOM      9  C   UNL     1      -2.070   4.153  -5.681  1.00  0.00     0.094 A 
ATOM     10  C   UNL     1      -1.735   3.124  -4.796  1.00  0.00     0.146 A 
ATOM     11  O   UNL     1      -0.511   3.105  -4.281  1.00  0.00    -0.452 OA
ENDROOT
BRANCH   1  12
ATOM     12  C   UNL     1       1.303   2.263  -2.936  1.00  0.00     0.025 A 
ATOM     13  C   UNL     1       1.718   3.373  -2.184  1.00  0.00     0.016 A 
ATOM     14  C   UNL     1       3.038   3.475  -1.739  1.00  0.00     0.051 A 
ATOM     15  C   UNL     1       3.968   2.474  -2.053  1.00  0.00     0.157 A 
ATOM     16  C   UNL     1       2.244   1.272  -3.267  1.00  0.00     0.062 A 
ATOM     17  C   UNL     1       3.570   1.371  -2.825  1.00  0.00     0.158 A 
BRANCH  15  18
ATOM     18  O   UNL     1       5.285   2.577  -1.608  1.00  0.00    -0.504 OA
ATOM     19  H   UNL     1       5.757   3.472  -1.549  1.00  0.00     0.293 HD
ENDBRANCH  15  18
BRANCH  17  20
ATOM     20  O   UNL     1       4.474   0.366  -3.167  1.00  0.00    -0.504 OA
ATOM     21  H   UNL     1       4.195  -0.606  -3.241  1.00  0.00     0.293 HD
ENDBRANCH  17  20
ENDBRANCH   1  12
BRANCH   2  22
ATOM     22  O   UNL     1      -0.592   0.290  -1.981  1.00  0.00    -0.502 OA
ATOM     23  H   UNL     1      -0.385   0.568  -1.029  1.00  0.00     0.293 HD
ENDBRANCH   2  22
BRANCH   6  24
ATOM     24  O   UNL     1      -4.951   1.189  -4.907  1.00  0.00    -0.507 OA
ATOM     25  H   UNL     1      -5.936   1.327  -5.070  1.00  0.00     0.293 HD
ENDBRANCH   6  24
BRANCH   8  26
ATOM     26  O   UNL     1      -3.695   5.251  -7.104  1.00  0.00    -0.508 OA
ATOM     27  H   UNL     1      -4.543   5.790  -6.976  1.00  0.00     0.293 HD
ENDBRANCH   8  26
TORSDOF 6
ENDMDL
MODEL 9
REMARK VINA RESULT:    -6.969      3.202      7.605
REMARK INTER + INTRA:          -8.707
REMARK INTER:                  -8.395
REMARK INTRA:                  -0.312
REMARK UNBOUND:                -0.312
REMARK SMILES O=c1c(O)c(-c2ccc(O)c(O)c2)oc2cc(O)cc(O)c12
REMARK SMILES IDX 5 1 3 2 2 3 1 4 22 5 20 6 19 7 17 8 16 9 15 10 14 11 6 12
REMARK SMILES IDX 7 13 8 14 9 15 13 16 11 17 10 18 12 20 4 22 21 24 18 26
REMARK H PARENT 10 19 12 21 4 23 21 25 18 27
REMARK Flexibility Score: inf
ROOT
ATOM      1  C   UNL     1       1.178   1.637  -3.194  1.00  0.00     0.180 A 
ATOM      2  C   UNL     1       1.747   2.454  -2.202  1.00  0.00     0.208 A 
ATOM      3  C   UNL     1       3.143   2.604  -2.162  1.00  0.00     0.238 A 
ATOM      4  O   UNL     1       3.651   3.292  -1.237  1.00  0.00    -0.285 OA
ATOM      5  C   UNL     1       3.951   1.948  -3.122  1.00  0.00     0.111 A 
ATOM      6  C   UNL     1       5.371   2.062  -3.200  1.00  0.00     0.134 A 
ATOM      7  C   UNL     1       6.079   1.266  -4.110  1.00  0.00     0.093 A 
ATOM      8  C   UNL     1       5.414   0.412  -4.988  1.00  0.00     0.123 A 
ATOM      9  C   UNL     1       4.021   0.337  -4.961  1.00  0.00     0.094 A 
ATOM     10  C   UNL     1       3.289   1.092  -4.040  1.00  0.00     0.146 A 
ATOM     11  O   UNL     1       1.966   0.983  -4.040  1.00  0.00    -0.452 OA
ENDROOT
BRANCH   1  12
ATOM     12  C   UNL     1      -0.285   1.450  -3.317  1.00  0.00     0.025 A 
ATOM     13  C   UNL     1      -1.050   2.410  -3.998  1.00  0.00     0.016 A 
ATOM     14  C   UNL     1      -2.435   2.265  -4.108  1.00  0.00     0.051 A 
ATOM     15  C   UNL     1      -3.079   1.166  -3.524  1.00  0.00     0.157 A 
ATOM     16  C   UNL     1      -0.937   0.360  -2.714  1.00  0.00     0.062 A 
ATOM     17  C   UNL     1      -2.326   0.212  -2.819  1.00  0.00     0.158 A 
BRANCH  15  18
ATOM     18  O   UNL     1      -4.461   1.023  -3.636  1.00  0.00    -0.504 OA
ATOM     19  H   UNL     1      -5.082   1.822  -3.593  1.00  0.00     0.293 HD
ENDBRANCH  15  18
BRANCH  17  20
ATOM     20  O   UNL     1      -2.938  -0.885  -2.214  1.00  0.00    -0.504 OA
ATOM     21  H   UNL     1      -3.924  -1.084  -2.333  1.00  0.00     0.293 HD
ENDBRANCH  17  20
ENDBRANCH   1  12
BRANCH   2  22
ATOM     22  O   UNL     1       0.934   3.073  -1.249  1.00  0.00    -0.502 OA
ATOM     23  H   UNL     1       1.237   3.235  -0.297  1.00  0.00     0.293 HD
ENDBRANCH   2  22
BRANCH   6  24
ATOM     24  O   UNL     1       6.126   2.954  -2.431  1.00  0.00    -0.507 OA
ATOM     25  H   UNL     1       6.676   3.711  -2.805  1.00  0.00     0.293 HD
ENDBRANCH   6  24
BRANCH   8  26
ATOM     26  O   UNL     1       6.149  -0.354  -5.891  1.00  0.00    -0.508 OA
ATOM     27  H   UNL     1       7.000  -0.829  -5.614  1.00  0.00     0.293 HD
ENDBRANCH   8  26
TORSDOF 6
ENDMDL
