MODEL 1
REMARK VINA RESULT:    -2.518      0.000      0.000
REMARK INTER + INTRA:          -2.518
REMARK INTER:                  -2.518
REMARK INTRA:                   0.000
REMARK UNBOUND:                 0.000
REMARK SMILES CC(=O)[O-]
REMARK SMILES IDX 1 1 2 2 3 3 4 4
REMARK H PARENT
REMARK Flexibility Score: inf
ROOT
ATOM      1  C   UNL     1      45.290  13.043  12.279  1.00  0.00     0.063 C 
ATOM      2  C   UNL     1      46.094  14.273  12.028  1.00  0.00     0.038 C 
ATOM      3  O   UNL     1      47.125  14.219  11.308  1.00  0.00    -0.550 OA
ATOM      4  O   UNL     1      45.676  15.495  12.542  1.00  0.00    -0.550 OA
ENDROOT
TORSDOF 0
ENDMDL
MODEL 2
REMARK VINA RESULT:    -2.428      1.367      1.799
REMARK INTER + INTRA:          -2.428
REMARK INTER:                  -2.428
REMARK INTRA:                   0.000
REMARK UNBOUND:                 0.000
REMARK SMILES CC(=O)[O-]
REMARK SMILES IDX 1 1 2 2 3 3 4 4
REMARK H PARENT
REMARK Flexibility Score: inf
ROOT
ATOM      1  C   UNL     1      45.270  12.980  12.462  1.00  0.00     0.063 C 
ATOM      2  C   UNL     1      46.554  12.972  11.704  1.00  0.00     0.038 C 
ATOM      3  O   UNL     1      47.099  11.880  11.397  1.00  0.00    -0.550 OA
ATOM      4  O   UNL     1      47.123  14.169  11.287  1.00  0.00    -0.550 OA
ENDROOT
TORSDOF 0
ENDMDL
MODEL 3
REMARK VINA RESULT:    -2.282      1.910      2.174
REMARK INTER + INTRA:          -2.282
REMARK INTER:                  -2.282
REMARK INTRA:                   0.000
REMARK UNBOUND:                 0.000
REMARK SMILES CC(=O)[O-]
REMARK SMILES IDX 1 1 2 2 3 3 4 4
REMARK H PARENT
REMARK Flexibility Score: inf
ROOT
ATOM      1  C   UNL     1      46.731  14.259  11.660  1.00  0.00     0.063 C 
ATOM      2  C   UNL     1      46.209  12.939  12.118  1.00  0.00     0.038 C 
ATOM      3  O   UNL     1      46.668  11.874  11.629  1.00  0.00    -0.550 OA
ATOM      4  O   UNL     1      45.254  12.880  13.125  1.00  0.00    -0.550 OA
ENDROOT
TORSDOF 0
ENDMDL
MODEL 4
REMARK VINA RESULT:    -2.268     18.339     18.645
REMARK INTER + INTRA:          -2.268
REMARK INTER:                  -2.268
REMARK INTRA:                   0.000
REMARK UNBOUND:                 0.000
REMARK SMILES CC(=O)[O-]
REMARK SMILES IDX 1 1 2 2 3 3 4 4
REMARK H PARENT
REMARK Flexibility Score: inf
ROOT
ATOM      1  C   UNL     1      34.360  25.967   0.867  1.00  0.00     0.063 C 
ATOM      2  C   UNL     1      34.919  24.804   1.613  1.00  0.00     0.038 C 
ATOM      3  O   UNL     1      35.884  24.151   1.137  1.00  0.00    -0.550 OA
ATOM      4  O   UNL     1      34.411  24.469   2.863  1.00  0.00    -0.550 OA
ENDROOT
TORSDOF 0
ENDMDL
MODEL 5
REMARK VINA RESULT:    -2.215     18.355     18.627
REMARK INTER + INTRA:          -2.215
REMARK INTER:                  -2.215
REMARK INTRA:                   0.000
REMARK UNBOUND:                 0.000
REMARK SMILES CC(=O)[O-]
REMARK SMILES IDX 1 1 2 2 3 3 4 4
REMARK H PARENT
REMARK Flexibility Score: inf
ROOT
ATOM      1  C   UNL     1      34.233  24.517   2.692  1.00  0.00     0.063 C 
ATOM      2  C   UNL     1      35.030  24.857   1.478  1.00  0.00     0.038 C 
ATOM      3  O   UNL     1      36.005  24.137   1.140  1.00  0.00    -0.550 OA
ATOM      4  O   UNL     1      34.664  25.938   0.686  1.00  0.00    -0.550 OA
ENDROOT
TORSDOF 0
ENDMDL
MODEL 6
REMARK VINA RESULT:    -2.202     24.007     24.180
REMARK INTER + INTRA:          -2.202
REMARK INTER:                  -2.202
REMARK INTRA:                   0.000
REMARK UNBOUND:                 0.000
REMARK SMILES CC(=O)[O-]
REMARK SMILES IDX 1 1 2 2 3 3 4 4
REMARK H PARENT
REMARK Flexibility Score: inf
ROOT
ATOM      1  C   UNL     1      29.152  10.090  -4.660  1.00  0.00     0.063 C 
ATOM      2  C   UNL     1      28.236  10.947  -3.855  1.00  0.00     0.038 C 
ATOM      3  O   UNL     1      28.494  12.167  -3.689  1.00  0.00    -0.550 OA
ATOM      4  O   UNL     1      27.065  10.413  -3.330  1.00  0.00    -0.550 OA
ENDROOT
TORSDOF 0
ENDMDL
MODEL 7
REMARK VINA RESULT:    -2.126     14.500     14.881
REMARK INTER + INTRA:          -2.126
REMARK INTER:                  -2.126
REMARK INTRA:                   0.000
REMARK UNBOUND:                 0.000
REMARK SMILES CC(=O)[O-]
REMARK SMILES IDX 1 1 2 2 3 3 4 4
REMARK H PARENT
REMARK Flexibility Score: inf
ROOT
ATOM      1  C   UNL     1      44.045  27.070   2.863  1.00  0.00     0.063 C 
ATOM      2  C   UNL     1      45.007  26.482   3.839  1.00  0.00     0.038 C 
ATOM      3  O   UNL     1      45.273  25.253   3.802  1.00  0.00    -0.550 OA
ATOM      4  O   UNL     1      45.654  27.300   4.757  1.00  0.00    -0.550 OA
ENDROOT
TORSDOF 0
ENDMDL
MODEL 8
REMARK VINA RESULT:    -2.019     12.516     13.088
REMARK INTER + INTRA:          -2.019
REMARK INTER:                  -2.019
REMARK INTRA:                   0.000
REMARK UNBOUND:                 0.000
REMARK SMILES CC(=O)[O-]
REMARK SMILES IDX 1 1 2 2 3 3 4 4
REMARK H PARENT
REMARK Flexibility Score: inf
ROOT
ATOM      1  C   UNL     1      44.871  28.156   9.759  1.00  0.00     0.063 C 
ATOM      2  C   UNL     1      45.436  26.876   9.245  1.00  0.00     0.038 C 
ATOM      3  O   UNL     1      45.516  26.673   8.005  1.00  0.00    -0.550 OA
ATOM      4  O   UNL     1      45.929  25.926  10.132  1.00  0.00    -0.550 OA
ENDROOT
TORSDOF 0
ENDMDL
MODEL 9
REMARK VINA RESULT:    -1.998     13.998     14.218
REMARK INTER + INTRA:          -1.998
REMARK INTER:                  -1.998
REMARK INTRA:                   0.000
REMARK UNBOUND:                 0.000
REMARK SMILES CC(=O)[O-]
REMARK SMILES IDX 1 1 2 2 3 3 4 4
REMARK H PARENT
REMARK Flexibility Score: inf
ROOT
ATOM      1  C   UNL     1      45.970  26.732   5.390  1.00  0.00     0.063 C 
ATOM      2  C   UNL     1      45.821  25.962   4.122  1.00  0.00     0.038 C 
ATOM      3  O   UNL     1      46.742  25.197   3.735  1.00  0.00    -0.550 OA
ATOM      4  O   UNL     1      44.641  26.044   3.393  1.00  0.00    -0.550 OA
ENDROOT
TORSDOF 0
ENDMDL
