MODEL 1
REMARK VINA RESULT:    -4.003      0.000      0.000
REMARK INTER + INTRA:          -5.391
REMARK INTER:                  -5.641
REMARK INTRA:                   0.251
REMARK UNBOUND:                 0.251
REMARK SMILES CC1=CCC(=C(C)C)C(=O)CC(C)=CCC1
REMARK SMILES IDX 12 1 14 2 13 3 15 4 16 5 2 6 1 7 3 8 11 10 9 11 10 12 5 13
REMARK SMILES IDX 6 14 7 15 8 16 4 17
REMARK H PARENT
REMARK Flexibility Score: 60.00
ROOT
ATOM      1  C   UNL     1      -9.166  73.148  25.078  1.00  0.00    -0.070 C 
ATOM      2  C   UNL     1      -9.564  74.263  24.427  1.00  0.00    -0.027 C 
ATOM      3  C   UNL     1      -9.349  73.101  26.574  1.00  0.00     0.039 C 
ENDROOT
BRANCH   2   4
ATOM      4  C   UNL     1      -9.552  74.461  22.927  1.00  0.00     0.032 C 
BRANCH   4   5
ATOM      5  C   UNL     1      -8.197  74.908  22.343  1.00  0.00     0.034 C 
BRANCH   5   6
ATOM      6  C   UNL     1      -7.716  74.025  21.205  1.00  0.00    -0.077 C 
ATOM      7  C   UNL     1      -8.417  74.149  19.876  1.00  0.00     0.039 C 
ATOM      8  C   UNL     1      -6.656  73.184  21.287  1.00  0.00    -0.023 CG0
ATOM      9  G   UNL     1      -5.819  72.884  22.514  1.00  0.00     0.000 G0
ENDBRANCH   5   6
ENDBRANCH   4   5
ENDBRANCH   2   4
BRANCH   1  10
ATOM     10  C   UNL     1      -8.636  71.916  24.372  1.00  0.00     0.111 C 
BRANCH  10  11
ATOM     11  C   UNL     1      -7.135  71.831  24.456  1.00  0.00     0.163 C 
ATOM     12  O   UNL     1      -6.600  71.875  25.597  1.00  0.00    -0.294 OA
BRANCH  11  13
ATOM     13  C   UNL     1      -6.275  71.634  23.251  1.00  0.00    -0.002 C 
ATOM     14  C   UNL     1      -6.000  70.377  22.786  1.00  0.00    -0.069 C 
ATOM     15  C   UNL     1      -6.420  69.146  23.560  1.00  0.00     0.039 C 
ATOM     16  C   UNL     1      -5.267  70.149  21.483  1.00  0.00     0.039 C 
BRANCH  13  17
ATOM     17  C   UNL     1      -5.807  72.882  22.519  1.00  0.00     0.066 CG0
ATOM     18  G   UNL     1      -6.654  73.184  21.299  1.00  0.00     0.000 G0
ENDBRANCH  13  17
ENDBRANCH  11  13
ENDBRANCH  10  11
ENDBRANCH   1  10
TORSDOF 0
ENDMDL
MODEL 2
REMARK VINA RESULT:    -3.908      2.057      3.969
REMARK INTER + INTRA:          -5.257
REMARK INTER:                  -5.792
REMARK INTRA:                   0.535
REMARK UNBOUND:                 0.251
REMARK SMILES CC1=CCC(=C(C)C)C(=O)CC(C)=CCC1
REMARK SMILES IDX 12 1 14 2 13 3 15 4 16 5 2 6 1 7 3 8 11 10 9 11 10 12 5 13
REMARK SMILES IDX 6 14 7 15 8 16 4 17
REMARK H PARENT
REMARK Flexibility Score: 60.00
ROOT
ATOM      1  C   UNL     1      -9.669  74.515  21.376  1.00  0.00    -0.070 C 
ATOM      2  C   UNL     1     -10.519  74.375  22.417  1.00  0.00    -0.027 C 
ATOM      3  C   UNL     1     -10.259  74.626  19.993  1.00  0.00     0.039 C 
ENDROOT
BRANCH   2   4
ATOM      4  C   UNL     1     -10.128  74.344  23.878  1.00  0.00     0.032 C 
BRANCH   4   5
ATOM      5  C   UNL     1     -10.040  72.933  24.496  1.00  0.00     0.034 C 
BRANCH   5   6
ATOM      6  C   UNL     1      -8.678  72.626  25.092  1.00  0.00    -0.077 C 
ATOM      7  C   UNL     1      -8.460  72.953  26.549  1.00  0.00     0.039 C 
ATOM      8  C   UNL     1      -7.670  72.017  24.422  1.00  0.00    -0.023 CG0
ATOM      9  G   UNL     1      -7.655  71.618  22.960  1.00  0.00     0.000 G0
ENDBRANCH   5   6
ENDBRANCH   4   5
ENDBRANCH   2   4
BRANCH   1  10
ATOM     10  C   UNL     1      -8.170  74.659  21.540  1.00  0.00     0.111 C 
BRANCH  10  11
ATOM     11  C   UNL     1      -7.442  73.410  21.117  1.00  0.00     0.163 C 
ATOM     12  O   UNL     1      -7.354  73.164  19.883  1.00  0.00    -0.294 OA
BRANCH  11  13
ATOM     13  C   UNL     1      -6.777  72.500  22.096  1.00  0.00    -0.002 C 
ATOM     14  C   UNL     1      -5.420  72.530  22.268  1.00  0.00    -0.069 C 
ATOM     15  C   UNL     1      -4.534  73.364  21.368  1.00  0.00     0.039 C 
ATOM     16  C   UNL     1      -4.734  71.737  23.358  1.00  0.00     0.039 C 
BRANCH  13  17
ATOM     17  C   UNL     1      -7.676  71.620  22.950  1.00  0.00     0.066 CG0
ATOM     18  G   UNL     1      -7.659  72.027  24.410  1.00  0.00     0.000 G0
ENDBRANCH  13  17
ENDBRANCH  11  13
ENDBRANCH  10  11
ENDBRANCH   1  10
TORSDOF 0
ENDMDL
MODEL 3
REMARK VINA RESULT:    -3.851     10.951     14.131
REMARK INTER + INTRA:          -5.176
REMARK INTER:                  -5.354
REMARK INTRA:                   0.179
REMARK UNBOUND:                 0.251
REMARK SMILES CC1=CCC(=C(C)C)C(=O)CC(C)=CCC1
REMARK SMILES IDX 12 1 14 2 13 3 15 4 16 5 2 6 1 7 3 8 11 10 9 11 10 12 5 13
REMARK SMILES IDX 6 14 7 15 8 16 4 17
REMARK H PARENT
REMARK Flexibility Score: 60.00
ROOT
ATOM      1  C   UNL     1     -11.819  71.920  38.622  1.00  0.00    -0.070 C 
ATOM      2  C   UNL     1     -11.155  70.953  39.292  1.00  0.00    -0.027 C 
ATOM      3  C   UNL     1     -12.317  73.108  39.406  1.00  0.00     0.039 C 
ENDROOT
BRANCH   2   4
ATOM      4  C   UNL     1     -10.499  69.739  38.670  1.00  0.00     0.032 C 
BRANCH   4   5
ATOM      5  C   UNL     1      -9.155  70.017  37.966  1.00  0.00     0.034 C 
BRANCH   5   6
ATOM      6  C   UNL     1      -9.056  69.374  36.594  1.00  0.00    -0.077 C 
ATOM      7  C   UNL     1      -9.089  67.868  36.522  1.00  0.00     0.039 C 
ATOM      8  C   UNL     1      -9.009  70.064  35.429  1.00  0.00    -0.023 CG0
ATOM      9  G   UNL     1      -8.946  71.569  35.259  1.00  0.00     0.000 G0
ENDBRANCH   5   6
ENDBRANCH   4   5
ENDBRANCH   2   4
BRANCH   1  10
ATOM     10  C   UNL     1     -12.004  71.913  37.118  1.00  0.00     0.111 C 
BRANCH  10  11
ATOM     11  C   UNL     1     -10.923  72.699  36.422  1.00  0.00     0.163 C 
ATOM     12  O   UNL     1     -10.510  73.756  36.971  1.00  0.00    -0.294 OA
BRANCH  11  13
ATOM     13  C   UNL     1     -10.291  72.238  35.150  1.00  0.00    -0.002 C 
ATOM     14  C   UNL     1     -10.881  72.493  33.943  1.00  0.00    -0.069 C 
ATOM     15  C   UNL     1     -12.262  73.106  33.860  1.00  0.00     0.039 C 
ATOM     16  C   UNL     1     -10.192  72.181  32.633  1.00  0.00     0.039 C 
BRANCH  13  17
ATOM     17  C   UNL     1      -8.930  71.566  35.253  1.00  0.00     0.066 CG0
ATOM     18  G   UNL     1      -9.042  70.064  35.423  1.00  0.00     0.000 G0
ENDBRANCH  13  17
ENDBRANCH  11  13
ENDBRANCH  10  11
ENDBRANCH   1  10
TORSDOF 0
ENDMDL
MODEL 4
REMARK VINA RESULT:    -3.605      1.709      3.951
REMARK INTER + INTRA:          -4.830
REMARK INTER:                  -5.870
REMARK INTRA:                   1.040
REMARK UNBOUND:                 0.251
REMARK SMILES CC1=CCC(=C(C)C)C(=O)CC(C)=CCC1
REMARK SMILES IDX 12 1 14 2 13 3 15 4 16 5 2 6 1 7 3 8 11 10 9 11 10 12 5 13
REMARK SMILES IDX 6 14 7 15 8 16 4 17
REMARK H PARENT
REMARK Flexibility Score: 60.00
ROOT
ATOM      1  C   UNL     1      -9.165  73.162  25.773  1.00  0.00    -0.070 C 
ATOM      2  C   UNL     1      -8.086  72.363  25.922  1.00  0.00    -0.027 C 
ATOM      3  C   UNL     1     -10.250  73.086  26.817  1.00  0.00     0.039 C 
ENDROOT
BRANCH   2   4
ATOM      4  C   UNL     1      -6.858  72.363  25.038  1.00  0.00     0.032 C 
BRANCH   4   5
ATOM      5  C   UNL     1      -6.386  70.967  24.583  1.00  0.00     0.034 C 
BRANCH   5   6
ATOM      6  C   UNL     1      -6.942  70.561  23.229  1.00  0.00    -0.077 C 
ATOM      7  C   UNL     1      -7.065  69.087  22.935  1.00  0.00     0.039 C 
ATOM      8  C   UNL     1      -7.398  71.433  22.298  1.00  0.00    -0.023 CG0
ATOM      9  G   UNL     1      -7.358  72.947  22.366  1.00  0.00     0.000 G0
ENDBRANCH   5   6
ENDBRANCH   4   5
ENDBRANCH   2   4
BRANCH   1  10
ATOM     10  C   UNL     1      -9.292  74.190  24.667  1.00  0.00     0.111 C 
BRANCH  10  11
ATOM     11  C   UNL     1      -9.640  73.549  23.349  1.00  0.00     0.163 C 
ATOM     12  O   UNL     1     -10.773  73.005  23.235  1.00  0.00    -0.294 OA
BRANCH  11  13
ATOM     13  C   UNL     1      -8.725  73.591  22.171  1.00  0.00    -0.002 C 
ATOM     14  C   UNL     1      -9.088  74.247  21.026  1.00  0.00    -0.069 C 
ATOM     15  C   UNL     1     -10.481  74.812  20.856  1.00  0.00     0.039 C 
ATOM     16  C   UNL     1      -8.125  74.443  19.876  1.00  0.00     0.039 C 
BRANCH  13  17
ATOM     17  C   UNL     1      -7.350  72.963  22.334  1.00  0.00     0.066 CG0
ATOM     18  G   UNL     1      -7.400  71.449  22.295  1.00  0.00     0.000 G0
ENDBRANCH  13  17
ENDBRANCH  11  13
ENDBRANCH  10  11
ENDBRANCH   1  10
TORSDOF 0
ENDMDL
MODEL 5
REMARK VINA RESULT:    -3.364     11.868     14.793
REMARK INTER + INTRA:          -4.489
REMARK INTER:                  -4.723
REMARK INTRA:                   0.233
REMARK UNBOUND:                 0.251
REMARK SMILES CC1=CCC(=C(C)C)C(=O)CC(C)=CCC1
REMARK SMILES IDX 12 1 14 2 13 3 15 4 16 5 2 6 1 7 3 8 11 10 9 11 10 12 5 13
REMARK SMILES IDX 6 14 7 15 8 16 4 17
REMARK H PARENT
REMARK Flexibility Score: 60.00
ROOT
ATOM      1  C   UNL     1     -10.311  72.343  35.121  1.00  0.00    -0.070 C 
ATOM      2  C   UNL     1     -11.503  72.653  35.676  1.00  0.00    -0.027 C 
ATOM      3  C   UNL     1     -10.122  72.628  33.652  1.00  0.00     0.039 C 
ENDROOT
BRANCH   2   4
ATOM      4  C   UNL     1     -11.851  72.532  37.144  1.00  0.00     0.032 C 
BRANCH   4   5
ATOM      5  C   UNL     1     -12.072  71.088  37.641  1.00  0.00     0.034 C 
BRANCH   5   6
ATOM      6  C   UNL     1     -11.201  70.727  38.831  1.00  0.00    -0.077 C 
ATOM      7  C   UNL     1     -11.436  71.468  40.123  1.00  0.00     0.039 C 
ATOM      8  C   UNL     1     -10.275  69.737  38.827  1.00  0.00    -0.023 CG0
ATOM      9  G   UNL     1      -9.858  68.880  37.649  1.00  0.00     0.000 G0
ENDBRANCH   5   6
ENDBRANCH   4   5
ENDBRANCH   2   4
BRANCH   1  10
ATOM     10  C   UNL     1      -9.134  71.816  35.916  1.00  0.00     0.111 C 
BRANCH  10  11
ATOM     11  C   UNL     1      -8.968  70.329  35.742  1.00  0.00     0.163 C 
ATOM     12  O   UNL     1      -9.028  69.857  34.573  1.00  0.00    -0.294 OA
BRANCH  11  13
ATOM     13  C   UNL     1      -8.675  69.416  36.887  1.00  0.00    -0.002 C 
ATOM     14  C   UNL     1      -7.386  69.164  37.269  1.00  0.00    -0.069 C 
ATOM     15  C   UNL     1      -6.215  69.670  36.456  1.00  0.00     0.039 C 
ATOM     16  C   UNL     1      -7.061  68.374  38.517  1.00  0.00     0.039 C 
BRANCH  13  17
ATOM     17  C   UNL     1      -9.864  68.863  37.657  1.00  0.00     0.066 CG0
ATOM     18  G   UNL     1     -10.253  69.747  38.826  1.00  0.00     0.000 G0
ENDBRANCH  13  17
ENDBRANCH  11  13
ENDBRANCH  10  11
ENDBRANCH   1  10
TORSDOF 0
ENDMDL
MODEL 6
REMARK VINA RESULT:    -3.208     11.947     14.418
REMARK INTER + INTRA:          -4.270
REMARK INTER:                  -4.410
REMARK INTRA:                   0.140
REMARK UNBOUND:                 0.251
REMARK SMILES CC1=CCC(=C(C)C)C(=O)CC(C)=CCC1
REMARK SMILES IDX 12 1 14 2 13 3 15 4 16 5 2 6 1 7 3 8 11 10 9 11 10 12 5 13
REMARK SMILES IDX 6 14 7 15 8 16 4 17
REMARK H PARENT
REMARK Flexibility Score: 60.00
ROOT
ATOM      1  C   UNL     1      -5.581  67.621  33.941  1.00  0.00    -0.070 C 
ATOM      2  C   UNL     1      -6.920  67.722  33.791  1.00  0.00    -0.027 C 
ATOM      3  C   UNL     1      -4.726  67.680  32.700  1.00  0.00     0.039 C 
ENDROOT
BRANCH   2   4
ATOM      4  C   UNL     1      -7.932  67.780  34.915  1.00  0.00     0.032 C 
BRANCH   4   5
ATOM      5  C   UNL     1      -8.277  69.202  35.404  1.00  0.00     0.034 C 
BRANCH   5   6
ATOM      6  C   UNL     1      -8.267  69.331  36.917  1.00  0.00    -0.077 C 
ATOM      7  C   UNL     1      -9.458  68.798  37.674  1.00  0.00     0.039 C 
ATOM      8  C   UNL     1      -7.231  69.830  37.634  1.00  0.00    -0.023 CG0
ATOM      9  G   UNL     1      -5.952  70.435  37.092  1.00  0.00     0.000 G0
ENDBRANCH   5   6
ENDBRANCH   4   5
ENDBRANCH   2   4
BRANCH   1  10
ATOM     10  C   UNL     1      -4.898  67.546  35.291  1.00  0.00     0.111 C 
BRANCH  10  11
ATOM     11  C   UNL     1      -4.421  68.899  35.748  1.00  0.00     0.163 C 
ATOM     12  O   UNL     1      -3.728  69.586  34.949  1.00  0.00    -0.294 OA
BRANCH  11  13
ATOM     13  C   UNL     1      -4.790  69.472  37.077  1.00  0.00    -0.002 C 
ATOM     14  C   UNL     1      -4.052  69.183  38.192  1.00  0.00    -0.069 C 
ATOM     15  C   UNL     1      -2.940  68.157  38.152  1.00  0.00     0.039 C 
ATOM     16  C   UNL     1      -4.302  69.869  39.517  1.00  0.00     0.039 C 
BRANCH  13  17
ATOM     17  C   UNL     1      -5.950  70.454  37.114  1.00  0.00     0.066 CG0
ATOM     18  G   UNL     1      -7.224  69.820  37.636  1.00  0.00     0.000 G0
ENDBRANCH  13  17
ENDBRANCH  11  13
ENDBRANCH  10  11
ENDBRANCH   1  10
TORSDOF 0
ENDMDL
MODEL 7
REMARK VINA RESULT:    -3.118      1.949      2.675
REMARK INTER + INTRA:          -4.143
REMARK INTER:                  -4.409
REMARK INTRA:                   0.266
REMARK UNBOUND:                 0.251
REMARK SMILES CC1=CCC(=C(C)C)C(=O)CC(C)=CCC1
REMARK SMILES IDX 12 1 14 2 13 3 15 4 16 5 2 6 1 7 3 8 11 10 9 11 10 12 5 13
REMARK SMILES IDX 6 14 7 15 8 16 4 17
REMARK H PARENT
REMARK Flexibility Score: 60.00
ROOT
ATOM      1  C   UNL     1      -8.235  72.796  23.737  1.00  0.00    -0.070 C 
ATOM      2  C   UNL     1      -8.288  73.554  22.620  1.00  0.00    -0.027 C 
ATOM      3  C   UNL     1      -9.538  72.411  24.391  1.00  0.00     0.039 C 
ENDROOT
BRANCH   2   4
ATOM      4  C   UNL     1      -7.103  73.960  21.772  1.00  0.00     0.032 C 
BRANCH   4   5
ATOM      5  C   UNL     1      -6.553  72.851  20.852  1.00  0.00     0.034 C 
BRANCH   5   6
ATOM      6  C   UNL     1      -5.036  72.773  20.850  1.00  0.00    -0.077 C 
ATOM      7  C   UNL     1      -4.274  73.970  20.338  1.00  0.00     0.039 C 
ATOM      8  C   UNL     1      -4.324  71.731  21.342  1.00  0.00    -0.023 CG0
ATOM      9  G   UNL     1      -4.871  70.426  21.885  1.00  0.00     0.000 G0
ENDBRANCH   5   6
ENDBRANCH   4   5
ENDBRANCH   2   4
BRANCH   1  10
ATOM     10  C   UNL     1      -6.945  72.242  24.306  1.00  0.00     0.111 C 
BRANCH  10  11
ATOM     11  C   UNL     1      -6.611  70.896  23.717  1.00  0.00     0.163 C 
ATOM     12  O   UNL     1      -7.561  70.105  23.468  1.00  0.00    -0.294 OA
BRANCH  11  13
ATOM     13  C   UNL     1      -5.215  70.499  23.366  1.00  0.00    -0.002 C 
ATOM     14  C   UNL     1      -4.323  70.145  24.340  1.00  0.00    -0.069 C 
ATOM     15  C   UNL     1      -4.664  70.295  25.807  1.00  0.00     0.039 C 
ATOM     16  C   UNL     1      -2.956  69.588  24.010  1.00  0.00     0.039 C 
BRANCH  13  17
ATOM     17  C   UNL     1      -4.867  70.414  21.888  1.00  0.00     0.066 CG0
ATOM     18  G   UNL     1      -4.325  71.723  21.349  1.00  0.00     0.000 G0
ENDBRANCH  13  17
ENDBRANCH  11  13
ENDBRANCH  10  11
ENDBRANCH   1  10
TORSDOF 0
ENDMDL
MODEL 8
REMARK VINA RESULT:    -3.094     12.546     14.197
REMARK INTER + INTRA:          -4.110
REMARK INTER:                  -4.350
REMARK INTRA:                   0.240
REMARK UNBOUND:                 0.251
REMARK SMILES CC1=CCC(=C(C)C)C(=O)CC(C)=CCC1
REMARK SMILES IDX 12 1 14 2 13 3 15 4 16 5 2 6 1 7 3 8 11 10 9 11 10 12 5 13
REMARK SMILES IDX 6 14 7 15 8 16 4 17
REMARK H PARENT
REMARK Flexibility Score: 60.00
ROOT
ATOM      1  C   UNL     1      -7.557  67.943  35.928  1.00  0.00    -0.070 C 
ATOM      2  C   UNL     1      -7.392  67.306  34.748  1.00  0.00    -0.027 C 
ATOM      3  C   UNL     1      -8.947  68.396  36.296  1.00  0.00     0.039 C 
ENDROOT
BRANCH   2   4
ATOM      4  C   UNL     1      -6.101  66.695  34.248  1.00  0.00     0.032 C 
BRANCH   4   5
ATOM      5  C   UNL     1      -5.035  67.713  33.791  1.00  0.00     0.034 C 
BRANCH   5   6
ATOM      6  C   UNL     1      -3.697  67.528  34.485  1.00  0.00    -0.077 C 
ATOM      7  C   UNL     1      -2.968  66.227  34.264  1.00  0.00     0.039 C 
ATOM      8  C   UNL     1      -3.085  68.480  35.230  1.00  0.00    -0.023 CG0
ATOM      9  G   UNL     1      -3.632  69.844  35.600  1.00  0.00     0.000 G0
ENDBRANCH   5   6
ENDBRANCH   4   5
ENDBRANCH   2   4
BRANCH   1  10
ATOM     10  C   UNL     1      -6.439  68.139  36.931  1.00  0.00     0.111 C 
BRANCH  10  11
ATOM     11  C   UNL     1      -5.863  69.529  36.857  1.00  0.00     0.163 C 
ATOM     12  O   UNL     1      -6.664  70.500  36.774  1.00  0.00    -0.294 OA
BRANCH  11  13
ATOM     13  C   UNL     1      -4.396  69.794  36.941  1.00  0.00    -0.002 C 
ATOM     14  C   UNL     1      -3.772  69.899  38.153  1.00  0.00    -0.069 C 
ATOM     15  C   UNL     1      -4.564  69.910  39.443  1.00  0.00     0.039 C 
ATOM     16  C   UNL     1      -2.269  70.008  38.274  1.00  0.00     0.039 C 
BRANCH  13  17
ATOM     17  C   UNL     1      -3.622  69.843  35.632  1.00  0.00     0.066 CG0
ATOM     18  G   UNL     1      -3.083  68.485  35.231  1.00  0.00     0.000 G0
ENDBRANCH  13  17
ENDBRANCH  11  13
ENDBRANCH  10  11
ENDBRANCH   1  10
TORSDOF 0
ENDMDL
MODEL 9
REMARK VINA RESULT:    -2.957      4.405      6.894
REMARK INTER + INTRA:          -3.917
REMARK INTER:                  -4.281
REMARK INTRA:                   0.364
REMARK UNBOUND:                 0.251
REMARK SMILES CC1=CCC(=C(C)C)C(=O)CC(C)=CCC1
REMARK SMILES IDX 12 1 14 2 13 3 15 4 16 5 2 6 1 7 3 8 11 10 9 11 10 12 5 13
REMARK SMILES IDX 6 14 7 15 8 16 4 17
REMARK H PARENT
REMARK Flexibility Score: 60.00
ROOT
ATOM      1  C   UNL     1      -5.283  70.709  24.470  1.00  0.00    -0.070 C 
ATOM      2  C   UNL     1      -5.665  69.839  23.510  1.00  0.00    -0.027 C 
ATOM      3  C   UNL     1      -4.945  72.118  24.052  1.00  0.00     0.039 C 
ENDROOT
BRANCH   2   4
ATOM      4  C   UNL     1      -6.133  68.418  23.740  1.00  0.00     0.032 C 
BRANCH   4   5
ATOM      5  C   UNL     1      -5.033  67.344  23.615  1.00  0.00     0.034 C 
BRANCH   5   6
ATOM      6  C   UNL     1      -5.069  66.320  24.736  1.00  0.00    -0.077 C 
ATOM      7  C   UNL     1      -6.040  65.174  24.606  1.00  0.00     0.039 C 
ATOM      8  C   UNL     1      -4.240  66.331  25.808  1.00  0.00    -0.023 CG0
ATOM      9  G   UNL     1      -3.207  67.385  26.154  1.00  0.00     0.000 G0
ENDBRANCH   5   6
ENDBRANCH   4   5
ENDBRANCH   2   4
BRANCH   1  10
ATOM     10  C   UNL     1      -5.270  70.366  25.946  1.00  0.00     0.111 C 
BRANCH  10  11
ATOM     11  C   UNL     1      -3.931  69.829  26.379  1.00  0.00     0.163 C 
ATOM     12  O   UNL     1      -2.919  70.568  26.232  1.00  0.00    -0.294 OA
BRANCH  11  13
ATOM     13  C   UNL     1      -3.775  68.493  27.027  1.00  0.00    -0.002 C 
ATOM     14  C   UNL     1      -4.217  68.278  28.303  1.00  0.00    -0.069 C 
ATOM     15  C   UNL     1      -4.731  69.417  29.156  1.00  0.00     0.039 C 
ATOM     16  C   UNL     1      -4.218  66.901  28.929  1.00  0.00     0.039 C 
BRANCH  13  17
ATOM     17  C   UNL     1      -3.197  67.371  26.177  1.00  0.00     0.066 CG0
ATOM     18  G   UNL     1      -4.240  66.337  25.803  1.00  0.00     0.000 G0
ENDBRANCH  13  17
ENDBRANCH  11  13
ENDBRANCH  10  11
ENDBRANCH   1  10
TORSDOF 0
ENDMDL
