MODEL 1
REMARK VINA RESULT:    10.184      0.000      0.000
REMARK INTER + INTRA:          14.305
REMARK INTER:                  14.947
REMARK INTRA:                  -0.643
REMARK UNBOUND:                -0.643
REMARK SMILES CC(C)(O)CC[C@@H](O)[C@@](C)(O)[C@@H]1CC[C@]2(O)C3=CC(=O)[C@H]4C[C@@H](O)[C@H](O)C[C@]4(C)[C@@H]3CC[C@]12C
REMARK SMILES IDX 6 1 7 2 9 3 10 4 12 5 34 6 33 7 32 8 15 9 31 10 17 11 14 12
REMARK SMILES IDX 13 13 30 14 18 15 28 16 19 17 21 18 27 19 29 20 20 21 22 22
REMARK SMILES IDX 25 23 23 24 16 25 26 27 24 29 11 31 8 33 5 35 2 36 1 37 3 38
REMARK SMILES IDX 4 39
REMARK H PARENT 16 26 26 28 24 30 11 32 8 34 4 40
REMARK Flexibility Score: inf
ROOT
ATOM      1  C   UNL     1      -4.011  32.889  24.543  1.00  0.00     0.038 C 
ENDROOT
BRANCH   1   2
ATOM      2  C   UNL     1      -3.407  33.363  25.892  1.00  0.00     0.146 C 
BRANCH   2   3
ATOM      3  C   UNL     1      -4.382  33.390  27.123  1.00  0.00     0.091 C 
ATOM      4  C   UNL     1      -3.609  33.948  28.350  1.00  0.00     0.045 C 
BRANCH   3   5
ATOM      5  C   UNL     1      -5.069  31.980  27.436  1.00  0.00     0.032 C 
ATOM      6  C   UNL     1      -4.451  29.987  25.962  1.00  0.00     0.015 C 
ATOM      7  C   UNL     1      -4.289  30.592  27.392  1.00  0.00     0.006 C 
ATOM      8  C   UNL     1      -2.767  30.692  27.737  1.00  0.00     0.011 C 
ATOM      9  C   UNL     1      -4.995  29.727  28.512  1.00  0.00     0.092 C 
ATOM     10  C   UNL     1      -2.028  29.332  27.861  1.00  0.00     0.009 C 
ATOM     11  C   UNL     1      -4.056  28.690  29.161  1.00  0.00    -0.031 C 
ATOM     12  C   UNL     1      -5.457  30.779  29.538  1.00  0.00     0.041 C 
ATOM     13  C   UNL     1      -5.863  32.004  28.756  1.00  0.00     0.010 C 
ATOM     14  C   UNL     1      -2.925  28.147  28.303  1.00  0.00     0.025 C 
ATOM     15  C   UNL     1      -4.185  28.331  30.458  1.00  0.00     0.050 C 
ATOM     16  C   UNL     1      -2.173  26.913  28.943  1.00  0.00    -0.013 C 
ATOM     17  C   UNL     1      -3.144  27.557  31.155  1.00  0.00     0.159 C 
ATOM     18  C   UNL     1      -1.862  27.235  30.433  1.00  0.00     0.070 C 
ATOM     19  C   UNL     1      -0.840  26.595  28.194  1.00  0.00     0.042 C 
ATOM     20  C   UNL     1      -3.116  25.672  28.814  1.00  0.00     0.013 C 
ATOM     21  O   UNL     1      -3.301  27.255  32.368  1.00  0.00    -0.295 OA
ATOM     22  C   UNL     1      -1.038  26.128  31.126  1.00  0.00     0.047 C 
ATOM     23  C   UNL     1      -0.013  25.486  28.874  1.00  0.00     0.143 C 
ATOM     24  C   UNL     1       0.264  25.845  30.353  1.00  0.00     0.143 C 
BRANCH   9  25
ATOM     25  O   UNL     1      -6.123  29.069  27.979  1.00  0.00    -0.385 OA
ATOM     26  H   UNL     1      -6.135  29.229  26.998  1.00  0.00     0.211 HD
ENDBRANCH   9  25
BRANCH  23  27
ATOM     27  O   UNL     1       1.201  25.344  28.179  1.00  0.00    -0.390 OA
ATOM     28  H   UNL     1       1.532  26.261  27.984  1.00  0.00     0.211 HD
ENDBRANCH  23  27
BRANCH  24  29
ATOM     29  O   UNL     1       0.992  24.824  30.992  1.00  0.00    -0.390 OA
ATOM     30  H   UNL     1       1.472  25.232  31.759  1.00  0.00     0.211 HD
ENDBRANCH  24  29
ENDBRANCH   3   5
BRANCH   3  31
ATOM     31  O   UNL     1      -5.388  34.349  26.859  1.00  0.00    -0.387 OA
ATOM     32  H   UNL     1      -6.273  33.902  26.843  1.00  0.00     0.211 HD
ENDBRANCH   3  31
ENDBRANCH   2   3
BRANCH   2  33
ATOM     33  O   UNL     1      -2.840  34.641  25.703  1.00  0.00    -0.390 OA
ATOM     34  H   UNL     1      -1.991  34.531  25.200  1.00  0.00     0.211 HD
ENDBRANCH   2  33
ENDBRANCH   1   2
BRANCH   1  35
ATOM     35  C   UNL     1      -3.935  33.929  23.392  1.00  0.00     0.037 C 
BRANCH  35  36
ATOM     36  C   UNL     1      -5.307  34.449  22.867  1.00  0.00     0.059 C 
ATOM     37  C   UNL     1      -6.124  33.324  22.198  1.00  0.00     0.042 C 
ATOM     38  C   UNL     1      -5.110  35.611  21.875  1.00  0.00     0.042 C 
BRANCH  36  39
ATOM     39  O   UNL     1      -6.039  34.963  23.956  1.00  0.00    -0.390 OA
ATOM     40  H   UNL     1      -6.850  35.413  23.599  1.00  0.00     0.211 HD
ENDBRANCH  36  39
ENDBRANCH  35  36
ENDBRANCH   1  35
TORSDOF 11
ENDMDL
MODEL 2
REMARK VINA RESULT:    10.488      1.230      1.472
REMARK INTER + INTRA:          14.750
REMARK INTER:                  12.436
REMARK INTRA:                   2.314
REMARK UNBOUND:                -0.643
REMARK SMILES CC(C)(O)CC[C@@H](O)[C@@](C)(O)[C@@H]1CC[C@]2(O)C3=CC(=O)[C@H]4C[C@@H](O)[C@H](O)C[C@]4(C)[C@@H]3CC[C@]12C
REMARK SMILES IDX 6 1 7 2 9 3 10 4 12 5 34 6 33 7 32 8 15 9 31 10 17 11 14 12
REMARK SMILES IDX 13 13 30 14 18 15 28 16 19 17 21 18 27 19 29 20 20 21 22 22
REMARK SMILES IDX 25 23 23 24 16 25 26 27 24 29 11 31 8 33 5 35 2 36 1 37 3 38
REMARK SMILES IDX 4 39
REMARK H PARENT 16 26 26 28 24 30 11 32 8 34 4 40
REMARK Flexibility Score: inf
ROOT
ATOM      1  C   UNL     1      -3.889  33.089  24.375  1.00  0.00     0.038 C 
ENDROOT
BRANCH   1   2
ATOM      2  C   UNL     1      -5.158  33.359  25.227  1.00  0.00     0.146 C 
BRANCH   2   3
ATOM      3  C   UNL     1      -4.937  33.534  26.773  1.00  0.00     0.091 C 
ATOM      4  C   UNL     1      -3.443  33.884  27.019  1.00  0.00     0.045 C 
BRANCH   3   5
ATOM      5  C   UNL     1      -5.411  32.276  27.641  1.00  0.00     0.032 C 
ATOM      6  C   UNL     1      -5.641  30.021  26.465  1.00  0.00     0.015 C 
ATOM      7  C   UNL     1      -4.784  30.820  27.495  1.00  0.00     0.006 C 
ATOM      8  C   UNL     1      -3.287  30.800  27.042  1.00  0.00     0.011 C 
ATOM      9  C   UNL     1      -4.866  30.226  28.959  1.00  0.00     0.092 C 
ATOM     10  C   UNL     1      -2.612  29.403  27.055  1.00  0.00     0.009 C 
ATOM     11  C   UNL     1      -3.751  29.204  29.263  1.00  0.00    -0.031 C 
ATOM     12  C   UNL     1      -4.740  31.471  29.858  1.00  0.00     0.041 C 
ATOM     13  C   UNL     1      -5.452  32.596  29.147  1.00  0.00     0.010 C 
ATOM     14  C   UNL     1      -3.200  28.410  28.091  1.00  0.00     0.025 C 
ATOM     15  C   UNL     1      -3.233  29.070  30.504  1.00  0.00     0.050 C 
ATOM     16  C   UNL     1      -2.257  27.214  28.515  1.00  0.00    -0.013 C 
ATOM     17  C   UNL     1      -2.001  28.303  30.752  1.00  0.00     0.159 C 
ATOM     18  C   UNL     1      -1.247  27.730  29.580  1.00  0.00     0.070 C 
ATOM     19  C   UNL     1      -1.472  26.636  27.296  1.00  0.00     0.042 C 
ATOM     20  C   UNL     1      -3.168  26.083  29.095  1.00  0.00     0.013 C 
ATOM     21  O   UNL     1      -1.547  28.214  31.924  1.00  0.00    -0.295 OA
ATOM     22  C   UNL     1      -0.212  26.659  29.991  1.00  0.00     0.047 C 
ATOM     23  C   UNL     1      -0.441  25.561  27.694  1.00  0.00     0.143 C 
ATOM     24  C   UNL     1       0.536  26.113  28.760  1.00  0.00     0.143 C 
BRANCH   9  25
ATOM     25  O   UNL     1      -6.124  29.624  29.169  1.00  0.00    -0.385 OA
ATOM     26  H   UNL     1      -5.975  28.657  29.342  1.00  0.00     0.211 HD
ENDBRANCH   9  25
BRANCH  23  27
ATOM     27  O   UNL     1       0.271  25.176  26.545  1.00  0.00    -0.390 OA
ATOM     28  H   UNL     1      -0.346  25.283  25.773  1.00  0.00     0.211 HD
ENDBRANCH  23  27
BRANCH  24  29
ATOM     29  O   UNL     1       1.461  25.131  29.154  1.00  0.00    -0.390 OA
ATOM     30  H   UNL     1       2.370  25.484  28.972  1.00  0.00     0.211 HD
ENDBRANCH  24  29
ENDBRANCH   3   5
BRANCH   3  31
ATOM     31  O   UNL     1      -5.654  34.681  27.187  1.00  0.00    -0.387 OA
ATOM     32  H   UNL     1      -5.695  34.705  28.176  1.00  0.00     0.211 HD
ENDBRANCH   3  31
ENDBRANCH   2   3
BRANCH   2  33
ATOM     33  O   UNL     1      -6.084  32.321  24.992  1.00  0.00    -0.390 OA
ATOM     34  H   UNL     1      -6.518  32.487  24.115  1.00  0.00     0.211 HD
ENDBRANCH   2  33
ENDBRANCH   1   2
BRANCH   1  35
ATOM     35  C   UNL     1      -3.851  33.828  23.009  1.00  0.00     0.037 C 
BRANCH  35  36
ATOM     36  C   UNL     1      -5.043  34.792  22.736  1.00  0.00     0.059 C 
ATOM     37  C   UNL     1      -5.672  35.306  24.048  1.00  0.00     0.042 C 
ATOM     38  C   UNL     1      -6.120  34.103  21.876  1.00  0.00     0.042 C 
BRANCH  36  39
ATOM     39  O   UNL     1      -4.571  35.891  21.991  1.00  0.00    -0.390 OA
ATOM     40  H   UNL     1      -4.319  36.612  22.628  1.00  0.00     0.211 HD
ENDBRANCH  36  39
ENDBRANCH  35  36
ENDBRANCH   1  35
TORSDOF 11
ENDMDL
MODEL 3
REMARK VINA RESULT:    10.650      0.892      1.033
REMARK INTER + INTRA:          14.989
REMARK INTER:                  15.009
REMARK INTRA:                  -0.021
REMARK UNBOUND:                -0.643
REMARK SMILES CC(C)(O)CC[C@@H](O)[C@@](C)(O)[C@@H]1CC[C@]2(O)C3=CC(=O)[C@H]4C[C@@H](O)[C@H](O)C[C@]4(C)[C@@H]3CC[C@]12C
REMARK SMILES IDX 6 1 7 2 9 3 10 4 12 5 34 6 33 7 32 8 15 9 31 10 17 11 14 12
REMARK SMILES IDX 13 13 30 14 18 15 28 16 19 17 21 18 27 19 29 20 20 21 22 22
REMARK SMILES IDX 25 23 23 24 16 25 26 27 24 29 11 31 8 33 5 35 2 36 1 37 3 38
REMARK SMILES IDX 4 39
REMARK H PARENT 16 26 26 28 24 30 11 32 8 34 4 40
REMARK Flexibility Score: inf
ROOT
ATOM      1  C   UNL     1      -5.749  33.188  25.215  1.00  0.00     0.038 C 
ENDROOT
BRANCH   1   2
ATOM      2  C   UNL     1      -4.630  33.750  26.133  1.00  0.00     0.146 C 
BRANCH   2   3
ATOM      3  C   UNL     1      -4.686  33.324  27.644  1.00  0.00     0.091 C 
ATOM      4  C   UNL     1      -3.268  33.496  28.256  1.00  0.00     0.045 C 
BRANCH   3   5
ATOM      5  C   UNL     1      -5.269  31.853  27.880  1.00  0.00     0.032 C 
ATOM      6  C   UNL     1      -4.694  30.043  26.173  1.00  0.00     0.015 C 
ATOM      7  C   UNL     1      -4.428  30.524  27.633  1.00  0.00     0.006 C 
ATOM      8  C   UNL     1      -2.887  30.681  27.849  1.00  0.00     0.011 C 
ATOM      9  C   UNL     1      -4.981  29.520  28.724  1.00  0.00     0.092 C 
ATOM     10  C   UNL     1      -2.072  29.362  27.776  1.00  0.00     0.009 C 
ATOM     11  C   UNL     1      -3.934  28.485  29.184  1.00  0.00    -0.031 C 
ATOM     12  C   UNL     1      -5.396  30.445  29.884  1.00  0.00     0.041 C 
ATOM     13  C   UNL     1      -5.935  31.710  29.262  1.00  0.00     0.010 C 
ATOM     14  C   UNL     1      -2.863  28.090  28.180  1.00  0.00     0.025 C 
ATOM     15  C   UNL     1      -3.921  28.003  30.446  1.00  0.00     0.050 C 
ATOM     16  C   UNL     1      -1.993  26.849  28.629  1.00  0.00    -0.013 C 
ATOM     17  C   UNL     1      -2.782  27.231  30.971  1.00  0.00     0.159 C 
ATOM     18  C   UNL     1      -1.559  27.053  30.110  1.00  0.00     0.070 C 
ATOM     19  C   UNL     1      -0.722  26.680  27.738  1.00  0.00     0.042 C 
ATOM     20  C   UNL     1      -2.880  25.572  28.466  1.00  0.00     0.013 C 
ATOM     21  O   UNL     1      -2.809  26.812  32.158  1.00  0.00    -0.295 OA
ATOM     22  C   UNL     1      -0.618  25.937  30.616  1.00  0.00     0.047 C 
ATOM     23  C   UNL     1       0.220  25.565  28.232  1.00  0.00     0.143 C 
ATOM     24  C   UNL     1       0.618  25.803  29.708  1.00  0.00     0.143 C 
BRANCH   9  25
ATOM     25  O   UNL     1      -6.119  28.848  28.233  1.00  0.00    -0.385 OA
ATOM     26  H   UNL     1      -5.839  28.302  27.451  1.00  0.00     0.211 HD
ENDBRANCH   9  25
BRANCH  23  27
ATOM     27  O   UNL     1       1.369  25.558  27.421  1.00  0.00    -0.390 OA
ATOM     28  H   UNL     1       1.189  24.935  26.668  1.00  0.00     0.211 HD
ENDBRANCH  23  27
BRANCH  24  29
ATOM     29  O   UNL     1       1.452  24.773  30.178  1.00  0.00    -0.390 OA
ATOM     30  H   UNL     1       1.549  24.108  29.449  1.00  0.00     0.211 HD
ENDBRANCH  24  29
ENDBRANCH   3   5
BRANCH   3  31
ATOM     31  O   UNL     1      -5.496  34.260  28.329  1.00  0.00    -0.387 OA
ATOM     32  H   UNL     1      -6.442  33.968  28.291  1.00  0.00     0.211 HD
ENDBRANCH   3  31
ENDBRANCH   2   3
BRANCH   2  33
ATOM     33  O   UNL     1      -4.635  35.157  26.033  1.00  0.00    -0.390 OA
ATOM     34  H   UNL     1      -5.558  35.448  25.810  1.00  0.00     0.211 HD
ENDBRANCH   2  33
ENDBRANCH   1   2
BRANCH   1  35
ATOM     35  C   UNL     1      -6.125  34.096  24.012  1.00  0.00     0.037 C 
BRANCH  35  36
ATOM     36  C   UNL     1      -5.380  33.783  22.679  1.00  0.00     0.059 C 
ATOM     37  C   UNL     1      -6.086  32.668  21.881  1.00  0.00     0.042 C 
ATOM     38  C   UNL     1      -3.917  33.384  22.951  1.00  0.00     0.042 C 
BRANCH  36  39
ATOM     39  O   UNL     1      -5.344  34.956  21.899  1.00  0.00    -0.390 OA
ATOM     40  H   UNL     1      -4.533  34.921  21.325  1.00  0.00     0.211 HD
ENDBRANCH  36  39
ENDBRANCH  35  36
ENDBRANCH   1  35
TORSDOF 11
ENDMDL
