MODEL 1
REMARK VINA RESULT:    -3.938      0.000      0.000
REMARK INTER + INTRA:          -5.856
REMARK INTER:                  -6.010
REMARK INTRA:                   0.154
REMARK UNBOUND:                 0.154
REMARK SMILES CC1=CCC[C@@H](C)C(=O)C[C@@H](C(C)C)C(=O)C1
REMARK SMILES IDX 8 1 9 2 6 3 7 4 5 5 4 6 3 7 2 8 1 9 10 11 11 12 15 13 16 14
REMARK SMILES IDX 17 15 12 17 13 18 14 19
REMARK H PARENT
REMARK Flexibility Score: 70.00
ROOT
ATOM      1  C   UNL     1      -6.824  72.964  21.002  1.00  0.00     0.136 C 
ATOM      2  O   UNL     1      -6.288  72.853  19.907  1.00  0.00    -0.299 OA
ENDROOT
BRANCH   1   3
ATOM      3  C   UNL     1      -8.169  73.664  21.080  1.00  0.00     0.053 C 
ATOM      4  C   UNL     1      -8.376  74.593  19.876  1.00  0.00     0.016 C 
BRANCH   3   5
ATOM      5  C   UNL     1      -8.285  74.442  22.414  1.00  0.00     0.015 C 
BRANCH   5   6
ATOM      6  C   UNL     1      -9.657  74.257  23.099  1.00  0.00     0.028 C 
BRANCH   6   7
ATOM      7  C   UNL     1      -9.541  74.239  24.605  1.00  0.00    -0.028 C 
ATOM      8  C   UNL     1      -9.099  73.191  25.341  1.00  0.00    -0.070 CG0
ATOM      9  C   UNL     1      -9.022  73.356  26.838  1.00  0.00     0.039 C 
ATOM     10  G   UNL     1      -8.673  71.865  24.733  1.00  0.00     0.000 G0
ENDBRANCH   6   7
ENDBRANCH   5   6
ENDBRANCH   3   5
ENDBRANCH   1   3
BRANCH   1  11
ATOM     11  C   UNL     1      -6.079  72.412  22.207  1.00  0.00     0.087 C 
BRANCH  11  12
ATOM     12  C   UNL     1      -6.780  71.281  23.014  1.00  0.00     0.066 C 
BRANCH  12  13
ATOM     13  C   UNL     1      -7.212  71.758  24.392  1.00  0.00     0.140 C 
ATOM     14  O   UNL     1      -6.368  72.001  25.243  1.00  0.00    -0.299 OA
BRANCH  13  15
ATOM     15  C   UNL     1      -8.680  71.847  24.745  1.00  0.00     0.106 CG0
ATOM     16  G   UNL     1      -9.061  73.200  25.324  1.00  0.00     0.000 G0
ENDBRANCH  13  15
ENDBRANCH  12  13
BRANCH  12  17
ATOM     17  C   UNL     1      -5.924  69.979  23.132  1.00  0.00    -0.006 C 
ATOM     18  C   UNL     1      -6.804  68.718  23.175  1.00  0.00     0.008 C 
ATOM     19  C   UNL     1      -4.849  69.826  22.042  1.00  0.00     0.008 C 
ENDBRANCH  12  17
ENDBRANCH  11  12
ENDBRANCH   1  11
TORSDOF 1
ENDMDL
MODEL 2
REMARK VINA RESULT:    -3.852      1.981      3.944
REMARK INTER + INTRA:          -5.725
REMARK INTER:                  -6.079
REMARK INTRA:                   0.354
REMARK UNBOUND:                 0.154
REMARK SMILES CC1=CCC[C@@H](C)C(=O)C[C@@H](C(C)C)C(=O)C1
REMARK SMILES IDX 8 1 9 2 6 3 7 4 5 5 4 6 3 7 2 8 1 9 10 11 11 12 15 13 16 14
REMARK SMILES IDX 17 15 12 17 13 18 14 19
REMARK H PARENT
REMARK Flexibility Score: 70.00
ROOT
ATOM      1  C   UNL     1      -8.601  72.703  25.030  1.00  0.00     0.136 C 
ATOM      2  O   UNL     1      -8.412  72.861  26.228  1.00  0.00    -0.299 OA
ENDROOT
BRANCH   1   3
ATOM      3  C   UNL     1      -9.617  73.595  24.335  1.00  0.00     0.053 C 
ATOM      4  C   UNL     1     -10.757  72.762  23.733  1.00  0.00     0.016 C 
BRANCH   3   5
ATOM      5  C   UNL     1      -8.916  74.450  23.251  1.00  0.00     0.015 C 
BRANCH   5   6
ATOM      6  C   UNL     1      -8.954  73.795  21.853  1.00  0.00     0.028 C 
BRANCH   6   7
ATOM      7  C   UNL     1      -7.702  74.082  21.058  1.00  0.00    -0.028 C 
ATOM      8  C   UNL     1      -6.603  73.291  21.021  1.00  0.00    -0.070 CG0
ATOM      9  C   UNL     1      -5.450  73.719  20.150  1.00  0.00     0.039 C 
ATOM     10  G   UNL     1      -6.481  71.996  21.807  1.00  0.00     0.000 G0
ENDBRANCH   6   7
ENDBRANCH   5   6
ENDBRANCH   3   5
ENDBRANCH   1   3
BRANCH   1  11
ATOM     11  C   UNL     1      -7.819  71.601  24.334  1.00  0.00     0.087 C 
BRANCH  11  12
ATOM     12  C   UNL     1      -6.267  71.685  24.401  1.00  0.00     0.066 C 
BRANCH  12  13
ATOM     13  C   UNL     1      -5.667  72.089  23.063  1.00  0.00     0.140 C 
ATOM     14  O   UNL     1      -4.548  72.582  23.023  1.00  0.00    -0.299 OA
BRANCH  13  15
ATOM     15  C   UNL     1      -6.479  71.969  21.793  1.00  0.00     0.106 CG0
ATOM     16  G   UNL     1      -6.596  73.288  21.047  1.00  0.00     0.000 G0
ENDBRANCH  13  15
ENDBRANCH  12  13
BRANCH  12  17
ATOM     17  C   UNL     1      -5.594  70.375  24.926  1.00  0.00    -0.006 C 
ATOM     18  C   UNL     1      -5.597  69.265  23.861  1.00  0.00     0.008 C 
ATOM     19  C   UNL     1      -4.170  70.569  25.472  1.00  0.00     0.008 C 
ENDBRANCH  12  17
ENDBRANCH  11  12
ENDBRANCH   1  11
TORSDOF 1
ENDMDL
MODEL 3
REMARK VINA RESULT:    -3.433     12.204     14.307
REMARK INTER + INTRA:          -5.085
REMARK INTER:                  -4.973
REMARK INTRA:                  -0.111
REMARK UNBOUND:                 0.154
REMARK SMILES CC1=CCC[C@@H](C)C(=O)C[C@@H](C(C)C)C(=O)C1
REMARK SMILES IDX 8 1 9 2 6 3 7 4 5 5 4 6 3 7 2 8 1 9 10 11 11 12 15 13 16 14
REMARK SMILES IDX 17 15 12 17 13 18 14 19
REMARK H PARENT
REMARK Flexibility Score: 70.00
ROOT
ATOM      1  C   UNL     1      -6.701  67.122  35.153  1.00  0.00     0.136 C 
ATOM      2  O   UNL     1      -6.374  66.082  35.708  1.00  0.00    -0.299 OA
ENDROOT
BRANCH   1   3
ATOM      3  C   UNL     1      -5.930  67.556  33.918  1.00  0.00     0.053 C 
ATOM      4  C   UNL     1      -6.233  66.633  32.729  1.00  0.00     0.016 C 
BRANCH   3   5
ATOM      5  C   UNL     1      -4.413  67.591  34.227  1.00  0.00     0.015 C 
BRANCH   5   6
ATOM      6  C   UNL     1      -3.953  68.944  34.815  1.00  0.00     0.028 C 
BRANCH   6   7
ATOM      7  C   UNL     1      -3.332  68.785  36.183  1.00  0.00    -0.028 C 
ATOM      8  C   UNL     1      -3.861  69.250  37.339  1.00  0.00    -0.070 CG0
ATOM      9  C   UNL     1      -3.117  68.977  38.622  1.00  0.00     0.039 C 
ATOM     10  G   UNL     1      -5.167  70.026  37.406  1.00  0.00     0.000 G0
ENDBRANCH   6   7
ENDBRANCH   5   6
ENDBRANCH   3   5
ENDBRANCH   1   3
BRANCH   1  11
ATOM     11  C   UNL     1      -7.843  67.916  35.766  1.00  0.00     0.087 C 
BRANCH  11  12
ATOM     12  C   UNL     1      -7.487  69.289  36.406  1.00  0.00     0.066 C 
BRANCH  12  13
ATOM     13  C   UNL     1      -6.395  69.154  37.456  1.00  0.00     0.140 C 
ATOM     14  O   UNL     1      -6.542  68.378  38.389  1.00  0.00    -0.299 OA
BRANCH  13  15
ATOM     15  C   UNL     1      -5.170  70.038  37.403  1.00  0.00     0.106 CG0
ATOM     16  G   UNL     1      -3.876  69.242  37.351  1.00  0.00     0.000 G0
ENDBRANCH  13  15
ENDBRANCH  12  13
BRANCH  12  17
ATOM     17  C   UNL     1      -8.723  70.039  36.999  1.00  0.00    -0.006 C 
ATOM     18  C   UNL     1      -9.384  70.963  35.961  1.00  0.00     0.008 C 
ATOM     19  C   UNL     1      -9.784  69.117  37.624  1.00  0.00     0.008 C 
ENDBRANCH  12  17
ENDBRANCH  11  12
ENDBRANCH   1  11
TORSDOF 1
ENDMDL
MODEL 4
REMARK VINA RESULT:    -3.200      3.810      6.086
REMARK INTER + INTRA:          -4.730
REMARK INTER:                  -4.721
REMARK INTRA:                  -0.009
REMARK UNBOUND:                 0.154
REMARK SMILES CC1=CCC[C@@H](C)C(=O)C[C@@H](C(C)C)C(=O)C1
REMARK SMILES IDX 8 1 9 2 6 3 7 4 5 5 4 6 3 7 2 8 1 9 10 11 11 12 15 13 16 14
REMARK SMILES IDX 17 15 12 17 13 18 14 19
REMARK H PARENT
REMARK Flexibility Score: 70.00
ROOT
ATOM      1  C   UNL     1      -5.125  71.280  24.835  1.00  0.00     0.136 C 
ATOM      2  O   UNL     1      -4.076  71.887  24.665  1.00  0.00    -0.299 OA
ENDROOT
BRANCH   1   3
ATOM      3  C   UNL     1      -6.263  71.517  23.857  1.00  0.00     0.053 C 
ATOM      4  C   UNL     1      -7.437  72.228  24.544  1.00  0.00     0.016 C 
BRANCH   3   5
ATOM      5  C   UNL     1      -6.710  70.174  23.230  1.00  0.00     0.015 C 
BRANCH   5   6
ATOM      6  C   UNL     1      -5.570  69.456  22.475  1.00  0.00     0.028 C 
BRANCH   6   7
ATOM      7  C   UNL     1      -5.737  67.955  22.491  1.00  0.00    -0.028 C 
ATOM      8  C   UNL     1      -5.030  67.098  23.266  1.00  0.00    -0.070 CG0
ATOM      9  C   UNL     1      -5.348  65.628  23.173  1.00  0.00     0.039 C 
ATOM     10  G   UNL     1      -3.941  67.549  24.227  1.00  0.00     0.000 G0
ENDBRANCH   6   7
ENDBRANCH   5   6
ENDBRANCH   3   5
ENDBRANCH   1   3
BRANCH   1  11
ATOM     11  C   UNL     1      -5.213  70.353  26.037  1.00  0.00     0.087 C 
BRANCH  11  12
ATOM     12  C   UNL     1      -4.086  69.292  26.196  1.00  0.00     0.066 C 
BRANCH  12  13
ATOM     13  C   UNL     1      -4.480  67.956  25.585  1.00  0.00     0.140 C 
ATOM     14  O   UNL     1      -5.182  67.181  26.219  1.00  0.00    -0.299 OA
BRANCH  13  15
ATOM     15  C   UNL     1      -3.935  67.542  24.237  1.00  0.00     0.106 CG0
ATOM     16  G   UNL     1      -5.027  67.098  23.277  1.00  0.00     0.000 G0
ENDBRANCH  13  15
ENDBRANCH  12  13
BRANCH  12  17
ATOM     17  C   UNL     1      -3.619  69.098  27.675  1.00  0.00    -0.006 C 
ATOM     18  C   UNL     1      -2.242  69.736  27.928  1.00  0.00     0.008 C 
ATOM     19  C   UNL     1      -4.624  69.596  28.728  1.00  0.00     0.008 C 
ENDBRANCH  12  17
ENDBRANCH  11  12
ENDBRANCH   1  11
TORSDOF 1
ENDMDL
MODEL 5
REMARK VINA RESULT:    -3.200     11.150     13.597
REMARK INTER + INTRA:          -4.729
REMARK INTER:                  -4.725
REMARK INTRA:                  -0.004
REMARK UNBOUND:                 0.154
REMARK SMILES CC1=CCC[C@@H](C)C(=O)C[C@@H](C(C)C)C(=O)C1
REMARK SMILES IDX 8 1 9 2 6 3 7 4 5 5 4 6 3 7 2 8 1 9 10 11 11 12 15 13 16 14
REMARK SMILES IDX 17 15 12 17 13 18 14 19
REMARK H PARENT
REMARK Flexibility Score: 70.00
ROOT
ATOM      1  C   UNL     1      -7.793  68.176  35.659  1.00  0.00     0.136 C 
ATOM      2  O   UNL     1      -8.510  67.188  35.736  1.00  0.00    -0.299 OA
ENDROOT
BRANCH   1   3
ATOM      3  C   UNL     1      -7.919  69.247  36.729  1.00  0.00     0.053 C 
ATOM      4  C   UNL     1      -9.076  70.206  36.411  1.00  0.00     0.016 C 
BRANCH   3   5
ATOM      5  C   UNL     1      -6.581  70.012  36.873  1.00  0.00     0.015 C 
BRANCH   5   6
ATOM      6  C   UNL     1      -5.590  69.311  37.828  1.00  0.00     0.028 C 
BRANCH   6   7
ATOM      7  C   UNL     1      -4.153  69.580  37.450  1.00  0.00    -0.028 C 
ATOM      8  C   UNL     1      -3.386  68.775  36.675  1.00  0.00    -0.070 CG0
ATOM      9  C   UNL     1      -1.975  69.213  36.376  1.00  0.00     0.039 C 
ATOM     10  G   UNL     1      -3.881  67.462  36.091  1.00  0.00     0.000 G0
ENDBRANCH   6   7
ENDBRANCH   5   6
ENDBRANCH   3   5
ENDBRANCH   1   3
BRANCH   1  11
ATOM     11  C   UNL     1      -6.846  68.265  34.473  1.00  0.00     0.087 C 
BRANCH  11  12
ATOM     12  C   UNL     1      -5.794  67.128  34.321  1.00  0.00     0.066 C 
BRANCH  12  13
ATOM     13  C   UNL     1      -4.394  67.606  34.672  1.00  0.00     0.140 C 
ATOM     14  O   UNL     1      -3.668  68.056  33.797  1.00  0.00    -0.299 OA
BRANCH  13  15
ATOM     15  C   UNL     1      -3.861  67.445  36.078  1.00  0.00     0.106 CG0
ATOM     16  G   UNL     1      -3.382  68.758  36.676  1.00  0.00     0.000 G0
ENDBRANCH  13  15
ENDBRANCH  12  13
BRANCH  12  17
ATOM     17  C   UNL     1      -5.803  66.457  32.909  1.00  0.00    -0.006 C 
ATOM     18  C   UNL     1      -6.490  65.081  32.934  1.00  0.00     0.008 C 
ATOM     19  C   UNL     1      -6.418  67.326  31.799  1.00  0.00     0.008 C 
ENDBRANCH  12  17
ENDBRANCH  11  12
ENDBRANCH   1  11
TORSDOF 1
ENDMDL
MODEL 6
REMARK VINA RESULT:    -3.086      2.267      5.361
REMARK INTER + INTRA:          -4.555
REMARK INTER:                  -5.115
REMARK INTRA:                   0.559
REMARK UNBOUND:                 0.154
REMARK SMILES CC1=CCC[C@@H](C)C(=O)C[C@@H](C(C)C)C(=O)C1
REMARK SMILES IDX 8 1 9 2 6 3 7 4 5 5 4 6 3 7 2 8 1 9 10 11 11 12 15 13 16 14
REMARK SMILES IDX 17 15 12 17 13 18 14 19
REMARK H PARENT
REMARK Flexibility Score: 70.00
ROOT
ATOM      1  C   UNL     1      -6.893  70.096  23.719  1.00  0.00     0.136 C 
ATOM      2  O   UNL     1      -7.641  69.250  23.249  1.00  0.00    -0.299 OA
ENDROOT
BRANCH   1   3
ATOM      3  C   UNL     1      -5.451  69.709  24.001  1.00  0.00     0.053 C 
ATOM      4  C   UNL     1      -5.367  68.291  24.583  1.00  0.00     0.016 C 
BRANCH   3   5
ATOM      5  C   UNL     1      -4.801  70.744  24.951  1.00  0.00     0.015 C 
BRANCH   5   6
ATOM      6  C   UNL     1      -3.774  71.651  24.237  1.00  0.00     0.028 C 
BRANCH   6   7
ATOM      7  C   UNL     1      -3.868  71.539  22.734  1.00  0.00    -0.028 C 
ATOM      8  C   UNL     1      -4.726  72.236  21.951  1.00  0.00    -0.070 CG0
ATOM      9  C   UNL     1      -4.665  72.019  20.461  1.00  0.00     0.039 C 
ATOM     10  G   UNL     1      -5.739  73.228  22.501  1.00  0.00     0.000 G0
ENDBRANCH   6   7
ENDBRANCH   5   6
ENDBRANCH   3   5
ENDBRANCH   1   3
BRANCH   1  11
ATOM     11  C   UNL     1      -7.479  71.468  24.012  1.00  0.00     0.087 C 
BRANCH  11  12
ATOM     12  C   UNL     1      -8.158  72.214  22.827  1.00  0.00     0.066 C 
BRANCH  12  13
ATOM     13  C   UNL     1      -7.146  72.984  21.993  1.00  0.00     0.140 C 
ATOM     14  O   UNL     1      -7.443  73.352  20.865  1.00  0.00    -0.299 OA
BRANCH  13  15
ATOM     15  C   UNL     1      -5.746  73.219  22.513  1.00  0.00     0.106 CG0
ATOM     16  G   UNL     1      -4.740  72.226  21.955  1.00  0.00     0.000 G0
ENDBRANCH  13  15
ENDBRANCH  12  13
BRANCH  12  17
ATOM     17  C   UNL     1      -9.326  73.153  23.271  1.00  0.00    -0.006 C 
ATOM     18  C   UNL     1     -10.651  72.387  23.421  1.00  0.00     0.008 C 
ATOM     19  C   UNL     1      -9.041  73.957  24.552  1.00  0.00     0.008 C 
ENDBRANCH  12  17
ENDBRANCH  11  12
ENDBRANCH   1  11
TORSDOF 1
ENDMDL
MODEL 7
REMARK VINA RESULT:    -3.082     12.132     13.830
REMARK INTER + INTRA:          -4.549
REMARK INTER:                  -4.427
REMARK INTRA:                  -0.123
REMARK UNBOUND:                 0.154
REMARK SMILES CC1=CCC[C@@H](C)C(=O)C[C@@H](C(C)C)C(=O)C1
REMARK SMILES IDX 8 1 9 2 6 3 7 4 5 5 4 6 3 7 2 8 1 9 10 11 11 12 15 13 16 14
REMARK SMILES IDX 17 15 12 17 13 18 14 19
REMARK H PARENT
REMARK Flexibility Score: 70.00
ROOT
ATOM      1  C   UNL     1      -4.273  67.958  34.167  1.00  0.00     0.136 C 
ATOM      2  O   UNL     1      -3.415  68.077  33.304  1.00  0.00    -0.299 OA
ENDROOT
BRANCH   1   3
ATOM      3  C   UNL     1      -5.298  66.846  34.019  1.00  0.00     0.053 C 
ATOM      4  C   UNL     1      -5.011  65.999  32.771  1.00  0.00     0.016 C 
BRANCH   3   5
ATOM      5  C   UNL     1      -6.725  67.443  33.976  1.00  0.00     0.015 C 
BRANCH   5   6
ATOM      6  C   UNL     1      -7.599  66.994  35.167  1.00  0.00     0.028 C 
BRANCH   6   7
ATOM      7  C   UNL     1      -8.494  68.105  35.665  1.00  0.00    -0.028 C 
ATOM      8  C   UNL     1      -8.287  68.827  36.792  1.00  0.00    -0.070 CG0
ATOM      9  C   UNL     1      -9.270  69.920  37.125  1.00  0.00     0.039 C 
ATOM     10  G   UNL     1      -7.114  68.593  37.730  1.00  0.00     0.000 G0
ENDBRANCH   6   7
ENDBRANCH   5   6
ENDBRANCH   3   5
ENDBRANCH   1   3
BRANCH   1  11
ATOM     11  C   UNL     1      -4.262  68.958  35.312  1.00  0.00     0.087 C 
BRANCH  11  12
ATOM     12  C   UNL     1      -4.702  68.437  36.711  1.00  0.00     0.066 C 
BRANCH  12  13
ATOM     13  C   UNL     1      -5.840  69.265  37.287  1.00  0.00     0.140 C 
ATOM     14  O   UNL     1      -5.697  70.469  37.445  1.00  0.00    -0.299 OA
BRANCH  13  15
ATOM     15  C   UNL     1      -7.114  68.596  37.751  1.00  0.00     0.106 CG0
ATOM     16  G   UNL     1      -8.272  68.815  36.791  1.00  0.00     0.000 G0
ENDBRANCH  13  15
ENDBRANCH  12  13
BRANCH  12  17
ATOM     17  C   UNL     1      -3.526  68.339  37.736  1.00  0.00    -0.006 C 
ATOM     18  C   UNL     1      -2.997  66.900  37.864  1.00  0.00     0.008 C 
ATOM     19  C   UNL     1      -2.358  69.300  37.455  1.00  0.00     0.008 C 
ENDBRANCH  12  17
ENDBRANCH  11  12
ENDBRANCH   1  11
TORSDOF 1
ENDMDL
MODEL 8
REMARK VINA RESULT:    -3.058      3.487      5.325
REMARK INTER + INTRA:          -4.513
REMARK INTER:                  -4.736
REMARK INTRA:                   0.223
REMARK UNBOUND:                 0.154
REMARK SMILES CC1=CCC[C@@H](C)C(=O)C[C@@H](C(C)C)C(=O)C1
REMARK SMILES IDX 8 1 9 2 6 3 7 4 5 5 4 6 3 7 2 8 1 9 10 11 11 12 15 13 16 14
REMARK SMILES IDX 17 15 12 17 13 18 14 19
REMARK H PARENT
REMARK Flexibility Score: 70.00
ROOT
ATOM      1  C   UNL     1      -6.843  70.476  23.485  1.00  0.00     0.136 C 
ATOM      2  O   UNL     1      -7.190  71.168  22.538  1.00  0.00    -0.299 OA
ENDROOT
BRANCH   1   3
ATOM      3  C   UNL     1      -6.259  71.164  24.707  1.00  0.00     0.053 C 
ATOM      4  C   UNL     1      -7.330  71.985  25.439  1.00  0.00     0.016 C 
BRANCH   3   5
ATOM      5  C   UNL     1      -5.059  72.051  24.293  1.00  0.00     0.015 C 
BRANCH   5   6
ATOM      6  C   UNL     1      -3.696  71.429  24.669  1.00  0.00     0.028 C 
BRANCH   6   7
ATOM      7  C   UNL     1      -3.807  70.493  25.849  1.00  0.00    -0.028 C 
ATOM      8  C   UNL     1      -3.660  69.147  25.794  1.00  0.00    -0.070 CG0
ATOM      9  C   UNL     1      -3.777  68.367  27.079  1.00  0.00     0.039 C 
ATOM     10  G   UNL     1      -3.377  68.391  24.506  1.00  0.00     0.000 G0
ENDBRANCH   6   7
ENDBRANCH   5   6
ENDBRANCH   3   5
ENDBRANCH   1   3
BRANCH   1  11
ATOM     11  C   UNL     1      -6.999  68.970  23.349  1.00  0.00     0.087 C 
BRANCH  11  12
ATOM     12  C   UNL     1      -5.937  68.082  24.059  1.00  0.00     0.066 C 
BRANCH  12  13
ATOM     13  C   UNL     1      -4.533  68.370  23.552  1.00  0.00     0.140 C 
ATOM     14  O   UNL     1      -4.337  68.524  22.355  1.00  0.00    -0.299 OA
BRANCH  13  15
ATOM     15  C   UNL     1      -3.361  68.380  24.509  1.00  0.00     0.106 CG0
ATOM     16  G   UNL     1      -3.654  69.154  25.784  1.00  0.00     0.000 G0
ENDBRANCH  13  15
ENDBRANCH  12  13
BRANCH  12  17
ATOM     17  C   UNL     1      -6.245  66.552  23.968  1.00  0.00    -0.006 C 
ATOM     18  C   UNL     1      -6.644  65.967  25.334  1.00  0.00     0.008 C 
ATOM     19  C   UNL     1      -7.301  66.179  22.914  1.00  0.00     0.008 C 
ENDBRANCH  12  17
ENDBRANCH  11  12
ENDBRANCH   1  11
TORSDOF 1
ENDMDL
MODEL 9
REMARK VINA RESULT:    -3.053      5.638      8.492
REMARK INTER + INTRA:          -4.506
REMARK INTER:                  -4.790
REMARK INTRA:                   0.284
REMARK UNBOUND:                 0.154
REMARK SMILES CC1=CCC[C@@H](C)C(=O)C[C@@H](C(C)C)C(=O)C1
REMARK SMILES IDX 8 1 9 2 6 3 7 4 5 5 4 6 3 7 2 8 1 9 10 11 11 12 15 13 16 14
REMARK SMILES IDX 17 15 12 17 13 18 14 19
REMARK H PARENT
REMARK Flexibility Score: 70.00
ROOT
ATOM      1  C   UNL     1      -4.404  68.872  29.170  1.00  0.00     0.136 C 
ATOM      2  O   UNL     1      -3.475  69.259  29.865  1.00  0.00    -0.299 OA
ENDROOT
BRANCH   1   3
ATOM      3  C   UNL     1      -5.223  67.687  29.653  1.00  0.00     0.053 C 
ATOM      4  C   UNL     1      -6.182  68.105  30.777  1.00  0.00     0.016 C 
BRANCH   3   5
ATOM      5  C   UNL     1      -4.284  66.546  30.114  1.00  0.00     0.015 C 
BRANCH   5   6
ATOM      6  C   UNL     1      -3.912  65.577  28.970  1.00  0.00     0.028 C 
BRANCH   6   7
ATOM      7  C   UNL     1      -5.065  65.354  28.019  1.00  0.00    -0.028 C 
ATOM      8  C   UNL     1      -5.058  65.658  26.699  1.00  0.00    -0.070 CG0
ATOM      9  C   UNL     1      -6.291  65.341  25.892  1.00  0.00     0.039 C 
ATOM     10  G   UNL     1      -3.871  66.295  25.996  1.00  0.00     0.000 G0
ENDBRANCH   6   7
ENDBRANCH   5   6
ENDBRANCH   3   5
ENDBRANCH   1   3
BRANCH   1  11
ATOM     11  C   UNL     1      -4.646  69.595  27.855  1.00  0.00     0.087 C 
BRANCH  11  12
ATOM     12  C   UNL     1      -4.760  68.717  26.575  1.00  0.00     0.066 C 
BRANCH  12  13
ATOM     13  C   UNL     1      -3.612  67.725  26.469  1.00  0.00     0.140 C 
ATOM     14  O   UNL     1      -2.469  68.092  26.697  1.00  0.00    -0.299 OA
BRANCH  13  15
ATOM     15  C   UNL     1      -3.865  66.311  25.995  1.00  0.00     0.106 CG0
ATOM     16  G   UNL     1      -5.056  65.667  26.685  1.00  0.00     0.000 G0
ENDBRANCH  13  15
ENDBRANCH  12  13
BRANCH  12  17
ATOM     17  C   UNL     1      -4.885  69.550  25.259  1.00  0.00    -0.006 C 
ATOM     18  C   UNL     1      -5.486  68.719  24.112  1.00  0.00     0.008 C 
ATOM     19  C   UNL     1      -5.666  70.866  25.413  1.00  0.00     0.008 C 
ENDBRANCH  12  17
ENDBRANCH  11  12
ENDBRANCH   1  11
TORSDOF 1
ENDMDL
