MODEL 1
REMARK VINA RESULT:    -4.521      0.000      0.000
REMARK INTER + INTRA:          -6.343
REMARK INTER:                  -6.106
REMARK INTRA:                  -0.237
REMARK UNBOUND:                -0.237
REMARK SMILES CCCCCCCC(=O)[O-]
REMARK SMILES IDX 5 1 6 2 7 3 8 4 9 5 10 6 4 7 3 8 2 9 1 10
REMARK H PARENT
REMARK Flexibility Score: inf
ROOT
ATOM      1  C   UNL     1       6.044   1.934   0.227  1.00  0.00     0.000 C 
ENDROOT
BRANCH   1   2
ATOM      2  C   UNL     1       6.092   0.659  -0.629  1.00  0.00     0.006 C 
BRANCH   2   3
ATOM      3  C   UNL     1       7.275   0.698  -1.602  1.00  0.00     0.053 C 
BRANCH   3   4
ATOM      4  C   UNL     1       6.791   0.667  -3.017  1.00  0.00     0.041 C 
ATOM      5  O   UNL     1       6.027   1.572  -3.445  1.00  0.00    -0.550 OA
ATOM      6  O   UNL     1       7.224  -0.332  -3.879  1.00  0.00    -0.550 OA
ENDBRANCH   3   4
ENDBRANCH   2   3
ENDBRANCH   1   2
BRANCH   1   7
ATOM      7  C   UNL     1       7.184   2.911  -0.101  1.00  0.00     0.000 C 
BRANCH   7   8
ATOM      8  C   UNL     1       6.856   4.358   0.295  1.00  0.00    -0.000 C 
BRANCH   8   9
ATOM      9  C   UNL     1       7.840   4.874   1.352  1.00  0.00    -0.003 C 
ATOM     10  C   UNL     1       7.800   6.397   1.446  1.00  0.00     0.004 C 
ENDBRANCH   8   9
ENDBRANCH   7   8
ENDBRANCH   1   7
TORSDOF 6
ENDMDL
MODEL 2
REMARK VINA RESULT:    -4.184      3.135      5.322
REMARK INTER + INTRA:          -5.888
REMARK INTER:                  -5.515
REMARK INTRA:                  -0.373
REMARK UNBOUND:                -0.237
REMARK SMILES CCCCCCCC(=O)[O-]
REMARK SMILES IDX 5 1 6 2 7 3 8 4 9 5 10 6 4 7 3 8 2 9 1 10
REMARK H PARENT
REMARK Flexibility Score: inf
ROOT
ATOM      1  C   UNL     1       6.087   2.232   0.489  1.00  0.00     0.000 C 
ENDROOT
BRANCH   1   2
ATOM      2  C   UNL     1       6.845   3.428  -0.106  1.00  0.00     0.006 C 
BRANCH   2   3
ATOM      3  C   UNL     1       7.856   3.990   0.898  1.00  0.00     0.053 C 
BRANCH   3   4
ATOM      4  C   UNL     1       7.680   5.468   1.048  1.00  0.00     0.041 C 
ATOM      5  O   UNL     1       6.873   6.088   0.307  1.00  0.00    -0.550 OA
ATOM      6  O   UNL     1       8.368   6.154   2.041  1.00  0.00    -0.550 OA
ENDBRANCH   3   4
ENDBRANCH   2   3
ENDBRANCH   1   2
BRANCH   1   7
ATOM      7  C   UNL     1       6.015   1.037  -0.475  1.00  0.00     0.000 C 
BRANCH   7   8
ATOM      8  C   UNL     1       7.403   0.519  -0.880  1.00  0.00    -0.000 C 
BRANCH   8   9
ATOM      9  C   UNL     1       7.614   0.643  -2.394  1.00  0.00    -0.003 C 
ATOM     10  C   UNL     1       6.364   1.185  -3.082  1.00  0.00     0.004 C 
ENDBRANCH   8   9
ENDBRANCH   7   8
ENDBRANCH   1   7
TORSDOF 6
ENDMDL
MODEL 3
REMARK VINA RESULT:    -3.969      2.261      3.434
REMARK INTER + INTRA:          -5.598
REMARK INTER:                  -5.264
REMARK INTRA:                  -0.334
REMARK UNBOUND:                -0.237
REMARK SMILES CCCCCCCC(=O)[O-]
REMARK SMILES IDX 5 1 6 2 7 3 8 4 9 5 10 6 4 7 3 8 2 9 1 10
REMARK H PARENT
REMARK Flexibility Score: inf
ROOT
ATOM      1  C   UNL     1       8.658   2.089  -1.581  1.00  0.00     0.000 C 
ENDROOT
BRANCH   1   2
ATOM      2  C   UNL     1       8.974   0.720  -2.201  1.00  0.00     0.006 C 
BRANCH   2   3
ATOM      3  C   UNL     1       8.359   0.597  -3.599  1.00  0.00     0.053 C 
BRANCH   3   4
ATOM      4  C   UNL     1       8.402  -0.823  -4.067  1.00  0.00     0.041 C 
ATOM      5  O   UNL     1       8.931  -1.711  -3.348  1.00  0.00    -0.550 OA
ATOM      6  O   UNL     1       7.811  -1.177  -5.274  1.00  0.00    -0.550 OA
ENDBRANCH   3   4
ENDBRANCH   2   3
ENDBRANCH   1   2
BRANCH   1   7
ATOM      7  C   UNL     1       7.148   2.360  -1.485  1.00  0.00     0.000 C 
BRANCH   7   8
ATOM      8  C   UNL     1       6.702   2.726  -0.060  1.00  0.00    -0.000 C 
BRANCH   8   9
ATOM      9  C   UNL     1       5.807   1.631   0.532  1.00  0.00    -0.003 C 
ATOM     10  C   UNL     1       5.649   0.464  -0.439  1.00  0.00     0.004 C 
ENDBRANCH   8   9
ENDBRANCH   7   8
ENDBRANCH   1   7
TORSDOF 6
ENDMDL
MODEL 4
REMARK VINA RESULT:    -3.950     18.436     19.735
REMARK INTER + INTRA:          -5.572
REMARK INTER:                  -5.141
REMARK INTRA:                  -0.431
REMARK UNBOUND:                -0.237
REMARK SMILES CCCCCCCC(=O)[O-]
REMARK SMILES IDX 5 1 6 2 7 3 8 4 9 5 10 6 4 7 3 8 2 9 1 10
REMARK H PARENT
REMARK Flexibility Score: inf
ROOT
ATOM      1  C   UNL     1     -11.036  -5.827   4.356  1.00  0.00     0.000 C 
ENDROOT
BRANCH   1   2
ATOM      2  C   UNL     1      -9.736  -6.397   3.769  1.00  0.00     0.006 C 
BRANCH   2   3
ATOM      3  C   UNL     1      -8.957  -7.185   4.827  1.00  0.00     0.053 C 
BRANCH   3   4
ATOM      4  C   UNL     1      -7.726  -6.440   5.235  1.00  0.00     0.041 C 
ATOM      5  O   UNL     1      -6.597  -6.802   4.810  1.00  0.00    -0.550 OA
ATOM      6  O   UNL     1      -7.828  -5.314   6.042  1.00  0.00    -0.550 OA
ENDBRANCH   3   4
ENDBRANCH   2   3
ENDBRANCH   1   2
BRANCH   1   7
ATOM      7  C   UNL     1     -10.876  -4.381   4.854  1.00  0.00     0.000 C 
BRANCH   7   8
ATOM      8  C   UNL     1     -11.085  -4.251   6.370  1.00  0.00    -0.000 C 
BRANCH   8   9
ATOM      9  C   UNL     1     -11.125  -5.630   7.038  1.00  0.00    -0.003 C 
ATOM     10  C   UNL     1     -10.388  -5.617   8.375  1.00  0.00     0.004 C 
ENDBRANCH   8   9
ENDBRANCH   7   8
ENDBRANCH   1   7
TORSDOF 6
ENDMDL
MODEL 5
REMARK VINA RESULT:    -3.944      3.176      5.173
REMARK INTER + INTRA:          -5.564
REMARK INTER:                  -5.235
REMARK INTRA:                  -0.329
REMARK UNBOUND:                -0.237
REMARK SMILES CCCCCCCC(=O)[O-]
REMARK SMILES IDX 5 1 6 2 7 3 8 4 9 5 10 6 4 7 3 8 2 9 1 10
REMARK H PARENT
REMARK Flexibility Score: inf
ROOT
ATOM      1  C   UNL     1       6.074   1.901   0.307  1.00  0.00     0.000 C 
ENDROOT
BRANCH   1   2
ATOM      2  C   UNL     1       6.603   3.277  -0.125  1.00  0.00     0.006 C 
BRANCH   2   3
ATOM      3  C   UNL     1       7.736   3.741   0.797  1.00  0.00     0.053 C 
BRANCH   3   4
ATOM      4  C   UNL     1       7.905   5.225   0.712  1.00  0.00     0.041 C 
ATOM      5  O   UNL     1       9.033   5.746   0.918  1.00  0.00    -0.550 OA
ATOM      6  O   UNL     1       6.831   6.030   0.356  1.00  0.00    -0.550 OA
ENDBRANCH   3   4
ENDBRANCH   2   3
ENDBRANCH   1   2
BRANCH   1   7
ATOM      7  C   UNL     1       6.289   0.821  -0.765  1.00  0.00     0.000 C 
BRANCH   7   8
ATOM      8  C   UNL     1       6.449   1.410  -2.175  1.00  0.00    -0.000 C 
BRANCH   8   9
ATOM      9  C   UNL     1       7.867   1.174  -2.709  1.00  0.00    -0.003 C 
ATOM     10  C   UNL     1       8.509  -0.044  -2.051  1.00  0.00     0.004 C 
ENDBRANCH   8   9
ENDBRANCH   7   8
ENDBRANCH   1   7
TORSDOF 6
ENDMDL
MODEL 6
REMARK VINA RESULT:    -3.916     13.580     14.786
REMARK INTER + INTRA:          -5.526
REMARK INTER:                  -5.180
REMARK INTRA:                  -0.346
REMARK UNBOUND:                -0.237
REMARK SMILES CCCCCCCC(=O)[O-]
REMARK SMILES IDX 5 1 6 2 7 3 8 4 9 5 10 6 4 7 3 8 2 9 1 10
REMARK H PARENT
REMARK Flexibility Score: inf
ROOT
ATOM      1  C   UNL     1      -2.052  -5.373  -5.865  1.00  0.00     0.000 C 
ENDROOT
BRANCH   1   2
ATOM      2  C   UNL     1      -3.043  -4.640  -6.781  1.00  0.00     0.006 C 
BRANCH   2   3
ATOM      3  C   UNL     1      -4.282  -5.501  -7.047  1.00  0.00     0.053 C 
BRANCH   3   4
ATOM      4  C   UNL     1      -5.523  -4.776  -6.634  1.00  0.00     0.041 C 
ATOM      5  O   UNL     1      -6.519  -5.418  -6.207  1.00  0.00    -0.550 OA
ATOM      6  O   UNL     1      -5.563  -3.388  -6.669  1.00  0.00    -0.550 OA
ENDBRANCH   3   4
ENDBRANCH   2   3
ENDBRANCH   1   2
BRANCH   1   7
ATOM      7  C   UNL     1      -2.584  -6.732  -5.384  1.00  0.00     0.000 C 
BRANCH   7   8
ATOM      8  C   UNL     1      -1.717  -7.909  -5.857  1.00  0.00    -0.000 C 
BRANCH   8   9
ATOM      9  C   UNL     1      -0.458  -7.408  -6.575  1.00  0.00    -0.003 C 
ATOM     10  C   UNL     1       0.710  -8.370  -6.377  1.00  0.00     0.004 C 
ENDBRANCH   8   9
ENDBRANCH   7   8
ENDBRANCH   1   7
TORSDOF 6
ENDMDL
MODEL 7
REMARK VINA RESULT:    -3.813     12.552     13.691
REMARK INTER + INTRA:          -5.387
REMARK INTER:                  -5.104
REMARK INTRA:                  -0.283
REMARK UNBOUND:                -0.237
REMARK SMILES CCCCCCCC(=O)[O-]
REMARK SMILES IDX 5 1 6 2 7 3 8 4 9 5 10 6 4 7 3 8 2 9 1 10
REMARK H PARENT
REMARK Flexibility Score: inf
ROOT
ATOM      1  C   UNL     1       0.260  -6.560  -6.686  1.00  0.00     0.000 C 
ENDROOT
BRANCH   1   2
ATOM      2  C   UNL     1      -1.248  -6.294  -6.805  1.00  0.00     0.006 C 
BRANCH   2   3
ATOM      3  C   UNL     1      -1.878  -6.088  -5.424  1.00  0.00     0.053 C 
BRANCH   3   4
ATOM      4  C   UNL     1      -3.030  -7.022  -5.229  1.00  0.00     0.041 C 
ATOM      5  O   UNL     1      -4.201  -6.568  -5.120  1.00  0.00    -0.550 OA
ATOM      6  O   UNL     1      -2.821  -8.394  -5.219  1.00  0.00    -0.550 OA
ENDBRANCH   3   4
ENDBRANCH   2   3
ENDBRANCH   1   2
BRANCH   1   7
ATOM      7  C   UNL     1       0.595  -8.060  -6.649  1.00  0.00     0.000 C 
BRANCH   7   8
ATOM      8  C   UNL     1       2.108  -8.328  -6.622  1.00  0.00    -0.000 C 
BRANCH   8   9
ATOM      9  C   UNL     1       2.897  -7.043  -6.900  1.00  0.00    -0.003 C 
ATOM     10  C   UNL     1       4.379  -7.227  -6.585  1.00  0.00     0.004 C 
ENDBRANCH   8   9
ENDBRANCH   7   8
ENDBRANCH   1   7
TORSDOF 6
ENDMDL
MODEL 8
REMARK VINA RESULT:    -3.810      1.400      2.129
REMARK INTER + INTRA:          -5.384
REMARK INTER:                  -5.177
REMARK INTRA:                  -0.207
REMARK UNBOUND:                -0.237
REMARK SMILES CCCCCCCC(=O)[O-]
REMARK SMILES IDX 5 1 6 2 7 3 8 4 9 5 10 6 4 7 3 8 2 9 1 10
REMARK H PARENT
REMARK Flexibility Score: inf
ROOT
ATOM      1  C   UNL     1       7.910   3.200  -0.137  1.00  0.00     0.000 C 
ENDROOT
BRANCH   1   2
ATOM      2  C   UNL     1       8.655   2.428  -1.236  1.00  0.00     0.006 C 
BRANCH   2   3
ATOM      3  C   UNL     1       8.075   1.020  -1.406  1.00  0.00     0.053 C 
BRANCH   3   4
ATOM      4  C   UNL     1       6.592   1.083  -1.591  1.00  0.00     0.041 C 
ATOM      5  O   UNL     1       6.105   1.617  -2.623  1.00  0.00    -0.550 OA
ATOM      6  O   UNL     1       5.748   0.508  -0.650  1.00  0.00    -0.550 OA
ENDBRANCH   3   4
ENDBRANCH   2   3
ENDBRANCH   1   2
BRANCH   1   7
ATOM      7  C   UNL     1       8.844   4.090   0.699  1.00  0.00     0.000 C 
BRANCH   7   8
ATOM      8  C   UNL     1       8.091   4.902   1.764  1.00  0.00    -0.000 C 
BRANCH   8   9
ATOM      9  C   UNL     1       8.163   6.403   1.461  1.00  0.00    -0.003 C 
ATOM     10  C   UNL     1       7.267   6.772   0.282  1.00  0.00     0.004 C 
ENDBRANCH   8   9
ENDBRANCH   7   8
ENDBRANCH   1   7
TORSDOF 6
ENDMDL
