MODEL 1
REMARK VINA RESULT:    -4.285      0.000      0.000
REMARK INTER + INTRA:          -6.001
REMARK INTER:                  -5.788
REMARK INTRA:                  -0.213
REMARK UNBOUND:                -0.213
REMARK SMILES CCCCCCCC(=O)[O-]
REMARK SMILES IDX 5 1 6 2 7 3 8 4 9 5 10 6 4 7 3 8 2 9 1 10
REMARK H PARENT
REMARK Flexibility Score: inf
ROOT
ATOM      1  C   UNL     1       1.450  24.277  45.758  1.00  0.00     0.000 C 
ENDROOT
BRANCH   1   2
ATOM      2  C   UNL     1       0.872  24.558  47.155  1.00  0.00     0.006 C 
BRANCH   2   3
ATOM      3  C   UNL     1       1.961  24.943  48.164  1.00  0.00     0.053 C 
BRANCH   3   4
ATOM      4  C   UNL     1       1.924  24.070  49.380  1.00  0.00     0.041 C 
ATOM      5  O   UNL     1       2.691  23.076  49.471  1.00  0.00    -0.550 OA
ATOM      6  O   UNL     1       1.015  24.333  50.397  1.00  0.00    -0.550 OA
ENDBRANCH   3   4
ENDBRANCH   2   3
ENDBRANCH   1   2
BRANCH   1   7
ATOM      7  C   UNL     1       2.326  23.012  45.717  1.00  0.00     0.000 C 
BRANCH   7   8
ATOM      8  C   UNL     1       2.745  22.553  44.305  1.00  0.00    -0.000 C 
BRANCH   8   9
ATOM      9  C   UNL     1       1.732  21.642  43.590  1.00  0.00    -0.003 C 
ATOM     10  C   UNL     1       2.109  21.359  42.136  1.00  0.00     0.004 C 
ENDBRANCH   8   9
ENDBRANCH   7   8
ENDBRANCH   1   7
TORSDOF 6
ENDMDL
MODEL 2
REMARK VINA RESULT:    -4.237      1.855      2.421
REMARK INTER + INTRA:          -5.935
REMARK INTER:                  -5.549
REMARK INTRA:                  -0.386
REMARK UNBOUND:                -0.213
REMARK SMILES CCCCCCCC(=O)[O-]
REMARK SMILES IDX 5 1 6 2 7 3 8 4 9 5 10 6 4 7 3 8 2 9 1 10
REMARK H PARENT
REMARK Flexibility Score: inf
ROOT
ATOM      1  C   UNL     1       3.467  24.355  43.722  1.00  0.00     0.000 C 
ENDROOT
BRANCH   1   2
ATOM      2  C   UNL     1       2.275  25.053  44.398  1.00  0.00     0.006 C 
BRANCH   2   3
ATOM      3  C   UNL     1       2.651  25.654  45.757  1.00  0.00     0.053 C 
BRANCH   3   4
ATOM      4  C   UNL     1       1.785  25.121  46.857  1.00  0.00     0.041 C 
ATOM      5  O   UNL     1       0.797  24.388  46.588  1.00  0.00    -0.550 OA
ATOM      6  O   UNL     1       2.048  25.464  48.177  1.00  0.00    -0.550 OA
ENDBRANCH   3   4
ENDBRANCH   2   3
ENDBRANCH   1   2
BRANCH   1   7
ATOM      7  C   UNL     1       3.474  22.833  43.950  1.00  0.00     0.000 C 
BRANCH   7   8
ATOM      8  C   UNL     1       2.100  22.214  44.276  1.00  0.00    -0.000 C 
BRANCH   8   9
ATOM      9  C   UNL     1       1.551  21.251  43.207  1.00  0.00    -0.003 C 
ATOM     10  C   UNL     1       2.229  21.422  41.848  1.00  0.00     0.004 C 
ENDBRANCH   8   9
ENDBRANCH   7   8
ENDBRANCH   1   7
TORSDOF 6
ENDMDL
MODEL 3
REMARK VINA RESULT:    -4.059      0.870      1.366
REMARK INTER + INTRA:          -5.696
REMARK INTER:                  -5.505
REMARK INTRA:                  -0.191
REMARK UNBOUND:                -0.213
REMARK SMILES CCCCCCCC(=O)[O-]
REMARK SMILES IDX 5 1 6 2 7 3 8 4 9 5 10 6 4 7 3 8 2 9 1 10
REMARK H PARENT
REMARK Flexibility Score: inf
ROOT
ATOM      1  C   UNL     1       0.945  24.553  46.895  1.00  0.00     0.000 C 
ENDROOT
BRANCH   1   2
ATOM      2  C   UNL     1       1.917  24.049  47.974  1.00  0.00     0.006 C 
BRANCH   2   3
ATOM      3  C   UNL     1       1.475  24.455  49.386  1.00  0.00     0.053 C 
BRANCH   3   4
ATOM      4  C   UNL     1       2.213  23.687  50.440  1.00  0.00     0.041 C 
ATOM      5  O   UNL     1       2.787  22.604  50.151  1.00  0.00    -0.550 OA
ATOM      6  O   UNL     1       2.236  24.150  51.749  1.00  0.00    -0.550 OA
ENDBRANCH   3   4
ENDBRANCH   2   3
ENDBRANCH   1   2
BRANCH   1   7
ATOM      7  C   UNL     1       1.314  24.065  45.483  1.00  0.00     0.000 C 
BRANCH   7   8
ATOM      8  C   UNL     1       2.417  22.988  45.432  1.00  0.00    -0.000 C 
BRANCH   8   9
ATOM      9  C   UNL     1       2.769  22.486  44.021  1.00  0.00    -0.003 C 
ATOM     10  C   UNL     1       1.730  21.517  43.457  1.00  0.00     0.004 C 
ENDBRANCH   8   9
ENDBRANCH   7   8
ENDBRANCH   1   7
TORSDOF 6
ENDMDL
MODEL 4
REMARK VINA RESULT:    -3.961      3.065      5.651
REMARK INTER + INTRA:          -5.564
REMARK INTER:                  -5.385
REMARK INTRA:                  -0.178
REMARK UNBOUND:                -0.213
REMARK SMILES CCCCCCCC(=O)[O-]
REMARK SMILES IDX 5 1 6 2 7 3 8 4 9 5 10 6 4 7 3 8 2 9 1 10
REMARK H PARENT
REMARK Flexibility Score: inf
ROOT
ATOM      1  C   UNL     1       0.877  24.692  47.103  1.00  0.00     0.000 C 
ENDROOT
BRANCH   1   2
ATOM      2  C   UNL     1       1.234  24.127  45.718  1.00  0.00     0.006 C 
BRANCH   2   3
ATOM      3  C   UNL     1       2.327  23.054  45.795  1.00  0.00     0.053 C 
BRANCH   3   4
ATOM      4  C   UNL     1       2.649  22.494  44.443  1.00  0.00     0.041 C 
ATOM      5  O   UNL     1       1.865  21.677  43.892  1.00  0.00    -0.550 OA
ATOM      6  O   UNL     1       3.834  22.846  43.809  1.00  0.00    -0.550 OA
ENDBRANCH   3   4
ENDBRANCH   2   3
ENDBRANCH   1   2
BRANCH   1   7
ATOM      7  C   UNL     1       1.848  24.230  48.204  1.00  0.00     0.000 C 
BRANCH   7   8
ATOM      8  C   UNL     1       1.387  24.522  49.647  1.00  0.00    -0.000 C 
BRANCH   8   9
ATOM      9  C   UNL     1       1.615  23.375  50.647  1.00  0.00    -0.003 C 
ATOM     10  C   UNL     1       0.437  23.175  51.600  1.00  0.00     0.004 C 
ENDBRANCH   8   9
ENDBRANCH   7   8
ENDBRANCH   1   7
TORSDOF 6
ENDMDL
MODEL 5
REMARK VINA RESULT:    -3.945      3.283      5.808
REMARK INTER + INTRA:          -5.542
REMARK INTER:                  -5.334
REMARK INTRA:                  -0.207
REMARK UNBOUND:                -0.213
REMARK SMILES CCCCCCCC(=O)[O-]
REMARK SMILES IDX 5 1 6 2 7 3 8 4 9 5 10 6 4 7 3 8 2 9 1 10
REMARK H PARENT
REMARK Flexibility Score: inf
ROOT
ATOM      1  C   UNL     1       1.347  24.082  45.424  1.00  0.00     0.000 C 
ENDROOT
BRANCH   1   2
ATOM      2  C   UNL     1       2.331  22.901  45.362  1.00  0.00     0.006 C 
BRANCH   2   3
ATOM      3  C   UNL     1       3.085  22.847  44.027  1.00  0.00     0.053 C 
BRANCH   3   4
ATOM      4  C   UNL     1       2.368  22.001  43.020  1.00  0.00     0.041 C 
ATOM      5  O   UNL     1       2.646  22.100  41.796  1.00  0.00    -0.550 OA
ATOM      6  O   UNL     1       1.367  21.129  43.431  1.00  0.00    -0.550 OA
ENDBRANCH   3   4
ENDBRANCH   2   3
ENDBRANCH   1   2
BRANCH   1   7
ATOM      7  C   UNL     1       0.898  24.410  46.859  1.00  0.00     0.000 C 
BRANCH   7   8
ATOM      8  C   UNL     1       1.967  24.180  47.946  1.00  0.00    -0.000 C 
BRANCH   8   9
ATOM      9  C   UNL     1       1.468  24.343  49.393  1.00  0.00    -0.003 C 
ATOM     10  C   UNL     1       1.440  25.800  49.852  1.00  0.00     0.004 C 
ENDBRANCH   8   9
ENDBRANCH   7   8
ENDBRANCH   1   7
TORSDOF 6
ENDMDL
MODEL 6
REMARK VINA RESULT:    -3.939      1.362      1.919
REMARK INTER + INTRA:          -5.533
REMARK INTER:                  -5.359
REMARK INTRA:                  -0.174
REMARK UNBOUND:                -0.213
REMARK SMILES CCCCCCCC(=O)[O-]
REMARK SMILES IDX 5 1 6 2 7 3 8 4 9 5 10 6 4 7 3 8 2 9 1 10
REMARK H PARENT
REMARK Flexibility Score: inf
ROOT
ATOM      1  C   UNL     1       1.247  24.829  47.535  1.00  0.00     0.000 C 
ENDROOT
BRANCH   1   2
ATOM      2  C   UNL     1       2.027  24.057  48.612  1.00  0.00     0.006 C 
BRANCH   2   3
ATOM      3  C   UNL     1       1.338  24.117  49.980  1.00  0.00     0.053 C 
BRANCH   3   4
ATOM      4  C   UNL     1       1.775  22.994  50.870  1.00  0.00     0.041 C 
ATOM      5  O   UNL     1       2.967  22.590  50.843  1.00  0.00    -0.550 OA
ATOM      6  O   UNL     1       0.856  22.370  51.704  1.00  0.00    -0.550 OA
ENDBRANCH   3   4
ENDBRANCH   2   3
ENDBRANCH   1   2
BRANCH   1   7
ATOM      7  C   UNL     1       1.181  24.080  46.192  1.00  0.00     0.000 C 
BRANCH   7   8
ATOM      8  C   UNL     1       2.323  23.072  45.950  1.00  0.00    -0.000 C 
BRANCH   8   9
ATOM      9  C   UNL     1       2.308  22.392  44.569  1.00  0.00    -0.003 C 
ATOM     10  C   UNL     1       3.474  22.824  43.681  1.00  0.00     0.004 C 
ENDBRANCH   8   9
ENDBRANCH   7   8
ENDBRANCH   1   7
TORSDOF 6
ENDMDL
MODEL 7
REMARK VINA RESULT:    -3.847      1.723      2.275
REMARK INTER + INTRA:          -5.408
REMARK INTER:                  -5.104
REMARK INTRA:                  -0.304
REMARK UNBOUND:                -0.213
REMARK SMILES CCCCCCCC(=O)[O-]
REMARK SMILES IDX 5 1 6 2 7 3 8 4 9 5 10 6 4 7 3 8 2 9 1 10
REMARK H PARENT
REMARK Flexibility Score: inf
ROOT
ATOM      1  C   UNL     1       2.408  22.859  45.401  1.00  0.00     0.000 C 
ENDROOT
BRANCH   1   2
ATOM      2  C   UNL     1       1.981  24.307  45.695  1.00  0.00     0.006 C 
BRANCH   2   3
ATOM      3  C   UNL     1       0.936  24.385  46.816  1.00  0.00     0.053 C 
BRANCH   3   4
ATOM      4  C   UNL     1       1.564  24.706  48.137  1.00  0.00     0.041 C 
ATOM      5  O   UNL     1       2.025  23.784  48.861  1.00  0.00    -0.550 OA
ATOM      6  O   UNL     1       1.607  26.020  48.586  1.00  0.00    -0.550 OA
ENDBRANCH   3   4
ENDBRANCH   2   3
ENDBRANCH   1   2
BRANCH   1   7
ATOM      7  C   UNL     1       3.455  22.763  44.278  1.00  0.00     0.000 C 
BRANCH   7   8
ATOM      8  C   UNL     1       2.877  22.710  42.849  1.00  0.00    -0.000 C 
BRANCH   8   9
ATOM      9  C   UNL     1       3.432  23.773  41.884  1.00  0.00    -0.003 C 
ATOM     10  C   UNL     1       3.349  25.190  42.449  1.00  0.00     0.004 C 
ENDBRANCH   8   9
ENDBRANCH   7   8
ENDBRANCH   1   7
TORSDOF 6
ENDMDL
MODEL 8
REMARK VINA RESULT:    -3.806      4.472      6.090
REMARK INTER + INTRA:          -5.354
REMARK INTER:                  -5.054
REMARK INTRA:                  -0.300
REMARK UNBOUND:                -0.213
REMARK SMILES CCCCCCCC(=O)[O-]
REMARK SMILES IDX 5 1 6 2 7 3 8 4 9 5 10 6 4 7 3 8 2 9 1 10
REMARK H PARENT
REMARK Flexibility Score: inf
ROOT
ATOM      1  C   UNL     1       2.370  22.778  45.234  1.00  0.00     0.000 C 
ENDROOT
BRANCH   1   2
ATOM      2  C   UNL     1       2.915  22.471  43.829  1.00  0.00     0.006 C 
BRANCH   2   3
ATOM      3  C   UNL     1       1.950  21.603  43.012  1.00  0.00     0.053 C 
BRANCH   3   4
ATOM      4  C   UNL     1       2.370  21.510  41.577  1.00  0.00     0.041 C 
ATOM      5  O   UNL     1       2.468  22.551  40.876  1.00  0.00    -0.550 OA
ATOM      6  O   UNL     1       2.616  20.268  41.004  1.00  0.00    -0.550 OA
ENDBRANCH   3   4
ENDBRANCH   2   3
ENDBRANCH   1   2
BRANCH   1   7
ATOM      7  C   UNL     1       2.002  24.260  45.422  1.00  0.00     0.000 C 
BRANCH   7   8
ATOM      8  C   UNL     1       2.429  25.190  44.268  1.00  0.00    -0.000 C 
BRANCH   8   9
ATOM      9  C   UNL     1       3.760  25.931  44.490  1.00  0.00    -0.003 C 
ATOM     10  C   UNL     1       4.630  25.979  43.234  1.00  0.00     0.004 C 
ENDBRANCH   8   9
ENDBRANCH   7   8
ENDBRANCH   1   7
TORSDOF 6
ENDMDL
MODEL 9
REMARK VINA RESULT:    -3.582      4.604      6.362
REMARK INTER + INTRA:          -5.051
REMARK INTER:                  -4.632
REMARK INTRA:                  -0.419
REMARK UNBOUND:                -0.213
REMARK SMILES CCCCCCCC(=O)[O-]
REMARK SMILES IDX 5 1 6 2 7 3 8 4 9 5 10 6 4 7 3 8 2 9 1 10
REMARK H PARENT
REMARK Flexibility Score: inf
ROOT
ATOM      1  C   UNL     1       2.359  21.941  52.738  1.00  0.00     0.000 C 
ENDROOT
BRANCH   1   2
ATOM      2  C   UNL     1       3.876  21.793  52.540  1.00  0.00     0.006 C 
BRANCH   2   3
ATOM      3  C   UNL     1       4.380  22.582  51.324  1.00  0.00     0.053 C 
BRANCH   3   4
ATOM      4  C   UNL     1       5.661  23.299  51.622  1.00  0.00     0.041 C 
ATOM      5  O   UNL     1       5.941  23.634  52.803  1.00  0.00    -0.550 OA
ATOM      6  O   UNL     1       6.529  23.629  50.589  1.00  0.00    -0.550 OA
ENDBRANCH   3   4
ENDBRANCH   2   3
ENDBRANCH   1   2
BRANCH   1   7
ATOM      7  C   UNL     1       1.605  22.181  51.418  1.00  0.00     0.000 C 
BRANCH   7   8
ATOM      8  C   UNL     1       0.664  23.403  51.415  1.00  0.00    -0.000 C 
BRANCH   8   9
ATOM      9  C   UNL     1       1.230  24.657  50.723  1.00  0.00    -0.003 C 
ATOM     10  C   UNL     1       1.727  24.380  49.305  1.00  0.00     0.004 C 
ENDBRANCH   8   9
ENDBRANCH   7   8
ENDBRANCH   1   7
TORSDOF 6
ENDMDL
