MODEL 1
REMARK VINA RESULT:     4.137      0.000      0.000
REMARK INTER + INTRA:           4.682
REMARK INTER:                   4.862
REMARK INTRA:                  -0.180
REMARK UNBOUND:                -0.180
REMARK SMILES C=C(C)[C@H]1CC[C@]2(CO)CC[C@]3(C)[C@@H](CC[C@@H]4[C@]5(C)CC[C@@H](O)C(C)(C)[C@@H]5CC[C@]43C)[C@H]12
REMARK SMILES IDX 4 1 5 2 6 3 7 4 32 5 14 6 15 7 16 8 17 9 18 10 20 11 21 12
REMARK SMILES IDX 22 13 24 14 27 15 28 16 29 17 30 18 12 19 11 20 10 21 13 22
REMARK SMILES IDX 31 23 25 24 26 25 19 26 2 27 3 28 1 29 8 30 9 31 23 33
REMARK H PARENT 9 32 23 34
REMARK Flexibility Score: inf
ROOT
ATOM      1  C   UNL     1      20.620 207.739  13.012  1.00  0.00     0.018 C 
ATOM      2  C   UNL     1      21.032 209.125  13.482  1.00  0.00     0.009 C 
ATOM      3  C   UNL     1      21.382 208.928  14.944  1.00  0.00     0.010 C 
ATOM      4  C   UNL     1      20.400 207.849  15.481  1.00  0.00    -0.003 C 
ATOM      5  C   UNL     1      19.895 207.088  14.209  1.00  0.00     0.008 C 
ATOM      6  C   UNL     1      19.962 205.505  14.230  1.00  0.00    -0.000 C 
ATOM      7  C   UNL     1      18.610 204.974  14.762  1.00  0.00     0.005 C 
ATOM      8  C   UNL     1      18.469 203.447  14.864  1.00  0.00     0.005 C 
ATOM      9  C   UNL     1      19.812 202.661  14.870  1.00  0.00     0.002 C 
ATOM     10  C   UNL     1      19.629 201.069  15.076  1.00  0.00    -0.026 C 
ATOM     11  C   UNL     1      18.580 200.752  16.194  1.00  0.00     0.010 C 
ATOM     12  C   UNL     1      18.463 199.272  16.580  1.00  0.00     0.033 C 
ATOM     13  C   UNL     1      19.808 198.664  16.974  1.00  0.00     0.120 C 
ATOM     14  C   UNL     1      20.880 198.807  15.852  1.00  0.00    -0.006 C 
ATOM     15  C   UNL     1      21.006 200.336  15.401  1.00  0.00     0.003 C 
ATOM     16  C   UNL     1      21.853 201.158  16.406  1.00  0.00     0.005 C 
ATOM     17  C   UNL     1      22.154 202.552  15.869  1.00  0.00     0.008 C 
ATOM     18  C   UNL     1      20.893 203.452  15.710  1.00  0.00    -0.024 C 
ATOM     19  C   UNL     1      21.252 204.837  14.910  1.00  0.00    -0.024 C 
ATOM     20  C   UNL     1      22.006 205.875  15.817  1.00  0.00     0.008 C 
ATOM     21  C   UNL     1      21.103 206.913  16.494  1.00  0.00     0.010 C 
ATOM     22  C   UNL     1      22.266 204.521  13.749  1.00  0.00     0.012 C 
ATOM     23  C   UNL     1      20.383 203.744  17.165  1.00  0.00     0.012 C 
ATOM     24  C   UNL     1      20.549 197.886  14.641  1.00  0.00     0.014 C 
ATOM     25  C   UNL     1      22.229 198.266  16.407  1.00  0.00     0.014 C 
ATOM     26  C   UNL     1      19.067 200.518  13.716  1.00  0.00     0.012 C 
ENDROOT
BRANCH   1  27
ATOM     27  C   UNL     1      19.790 207.752  11.731  1.00  0.00    -0.077 C 
ATOM     28  C   UNL     1      20.054 208.744  10.623  1.00  0.00     0.039 C 
ATOM     29  C   UNL     1      18.762 206.899  11.594  1.00  0.00     0.008 C 
ENDBRANCH   1  27
BRANCH   4  30
ATOM     30  C   UNL     1      19.236 208.599  16.196  1.00  0.00     0.163 C 
BRANCH  30  31
ATOM     31  O   UNL     1      19.643 209.125  17.428  1.00  0.00    -0.396 OA
ATOM     32  H   UNL     1      19.481 208.411  18.101  1.00  0.00     0.210 HD
ENDBRANCH  30  31
ENDBRANCH   4  30
BRANCH  13  33
ATOM     33  O   UNL     1      19.604 197.309  17.297  1.00  0.00    -0.393 OA
ATOM     34  H   UNL     1      20.461 196.834  17.142  1.00  0.00     0.210 HD
ENDBRANCH  13  33
TORSDOF 4
ENDMDL
