MODEL 1
REMARK VINA RESULT:    -4.683      0.000      0.000
REMARK INTER + INTRA:          -6.996
REMARK INTER:                  -6.599
REMARK INTRA:                  -0.398
REMARK UNBOUND:                -0.398
REMARK SMILES C=CCCCCCCC(=O)[O-]
REMARK SMILES IDX 6 1 7 2 8 3 9 4 10 5 11 6 5 7 4 8 3 9 2 10 1 11
REMARK H PARENT
REMARK Flexibility Score: inf
ROOT
ATOM      1  C   UNL     1      79.383  58.702  10.172  1.00  0.00     0.000 C 
ENDROOT
BRANCH   1   2
ATOM      2  C   UNL     1      80.534  59.710  10.322  1.00  0.00     0.006 C 
BRANCH   2   3
ATOM      3  C   UNL     1      81.847  59.046  10.755  1.00  0.00     0.053 C 
BRANCH   3   4
ATOM      4  C   UNL     1      82.971  60.033  10.709  1.00  0.00     0.041 C 
ATOM      5  O   UNL     1      84.154  59.656  10.921  1.00  0.00    -0.550 OA
ATOM      6  O   UNL     1      82.719  61.359  10.380  1.00  0.00    -0.550 OA
ENDBRANCH   3   4
ENDBRANCH   2   3
ENDBRANCH   1   2
BRANCH   1   7
ATOM      7  C   UNL     1      79.791  57.275  10.570  1.00  0.00     0.000 C 
BRANCH   7   8
ATOM      8  C   UNL     1      78.750  56.254  10.094  1.00  0.00     0.004 C 
BRANCH   8   9
ATOM      9  C   UNL     1      77.750  56.900   9.127  1.00  0.00     0.027 C 
BRANCH   9  10
ATOM     10  C   UNL     1      77.823  56.266   7.764  1.00  0.00    -0.035 C 
ATOM     11  C   UNL     1      77.775  56.996   6.646  1.00  0.00     0.004 C 
ENDBRANCH   9  10
ENDBRANCH   8   9
ENDBRANCH   7   8
ENDBRANCH   1   7
TORSDOF 7
ENDMDL
MODEL 2
REMARK VINA RESULT:    -4.522      4.812      6.498
REMARK INTER + INTRA:          -6.770
REMARK INTER:                  -6.071
REMARK INTRA:                  -0.699
REMARK UNBOUND:                -0.398
REMARK SMILES C=CCCCCCCC(=O)[O-]
REMARK SMILES IDX 6 1 7 2 8 3 9 4 10 5 11 6 5 7 4 8 3 9 2 10 1 11
REMARK H PARENT
REMARK Flexibility Score: inf
ROOT
ATOM      1  C   UNL     1      77.970  55.648   7.329  1.00  0.00     0.000 C 
ENDROOT
BRANCH   1   2
ATOM      2  C   UNL     1      78.112  54.383   8.190  1.00  0.00     0.006 C 
BRANCH   2   3
ATOM      3  C   UNL     1      79.459  53.679   7.986  1.00  0.00     0.053 C 
BRANCH   3   4
ATOM      4  C   UNL     1      79.250  52.222   7.714  1.00  0.00     0.041 C 
ATOM      5  O   UNL     1      78.715  51.850   6.636  1.00  0.00    -0.550 OA
ATOM      6  O   UNL     1      79.691  51.273   8.627  1.00  0.00    -0.550 OA
ENDBRANCH   3   4
ENDBRANCH   2   3
ENDBRANCH   1   2
BRANCH   1   7
ATOM      7  C   UNL     1      77.759  56.916   8.171  1.00  0.00     0.000 C 
BRANCH   7   8
ATOM      8  C   UNL     1      77.799  56.593   9.670  1.00  0.00     0.004 C 
BRANCH   8   9
ATOM      9  C   UNL     1      78.906  57.387  10.374  1.00  0.00     0.027 C 
BRANCH   9  10
ATOM     10  C   UNL     1      80.102  56.519  10.659  1.00  0.00    -0.035 C 
ATOM     11  C   UNL     1      79.991  55.363  11.319  1.00  0.00     0.004 C 
ENDBRANCH   9  10
ENDBRANCH   8   9
ENDBRANCH   7   8
ENDBRANCH   1   7
TORSDOF 7
ENDMDL
MODEL 3
REMARK VINA RESULT:    -4.364      3.261      4.436
REMARK INTER + INTRA:          -6.547
REMARK INTER:                  -6.034
REMARK INTRA:                  -0.513
REMARK UNBOUND:                -0.398
REMARK SMILES C=CCCCCCCC(=O)[O-]
REMARK SMILES IDX 6 1 7 2 8 3 9 4 10 5 11 6 5 7 4 8 3 9 2 10 1 11
REMARK H PARENT
REMARK Flexibility Score: inf
ROOT
ATOM      1  C   UNL     1      77.748  56.750   8.095  1.00  0.00     0.000 C 
ENDROOT
BRANCH   1   2
ATOM      2  C   UNL     1      77.767  56.557   9.619  1.00  0.00     0.006 C 
BRANCH   2   3
ATOM      3  C   UNL     1      78.862  57.384  10.305  1.00  0.00     0.053 C 
BRANCH   3   4
ATOM      4  C   UNL     1      79.947  56.490  10.818  1.00  0.00     0.041 C 
ATOM      5  O   UNL     1      79.659  55.476  11.508  1.00  0.00    -0.550 OA
ATOM      6  O   UNL     1      81.272  56.746  10.492  1.00  0.00    -0.550 OA
ENDBRANCH   3   4
ENDBRANCH   2   3
ENDBRANCH   1   2
BRANCH   1   7
ATOM      7  C   UNL     1      78.102  55.464   7.331  1.00  0.00     0.000 C 
BRANCH   7   8
ATOM      8  C   UNL     1      78.347  54.301   8.299  1.00  0.00     0.004 C 
BRANCH   8   9
ATOM      9  C   UNL     1      79.797  53.807   8.211  1.00  0.00     0.027 C 
BRANCH   9  10
ATOM     10  C   UNL     1      79.885  52.328   8.466  1.00  0.00    -0.035 C 
ATOM     11  C   UNL     1      79.114  51.454   7.814  1.00  0.00     0.004 C 
ENDBRANCH   9  10
ENDBRANCH   8   9
ENDBRANCH   7   8
ENDBRANCH   1   7
TORSDOF 7
ENDMDL
MODEL 4
REMARK VINA RESULT:    -4.279      3.535      6.029
REMARK INTER + INTRA:          -6.427
REMARK INTER:                  -6.180
REMARK INTRA:                  -0.247
REMARK UNBOUND:                -0.398
REMARK SMILES C=CCCCCCCC(=O)[O-]
REMARK SMILES IDX 6 1 7 2 8 3 9 4 10 5 11 6 5 7 4 8 3 9 2 10 1 11
REMARK H PARENT
REMARK Flexibility Score: inf
ROOT
ATOM      1  C   UNL     1      79.347  57.588  10.695  1.00  0.00     0.000 C 
ENDROOT
BRANCH   1   2
ATOM      2  C   UNL     1      78.995  56.450   9.723  1.00  0.00     0.006 C 
BRANCH   2   3
ATOM      3  C   UNL     1      77.675  56.694   8.982  1.00  0.00     0.053 C 
BRANCH   3   4
ATOM      4  C   UNL     1      77.749  56.147   7.590  1.00  0.00     0.041 C 
ATOM      5  O   UNL     1      77.747  54.903   7.398  1.00  0.00    -0.550 OA
ATOM      6  O   UNL     1      77.769  57.012   6.504  1.00  0.00    -0.550 OA
ENDBRANCH   3   4
ENDBRANCH   2   3
ENDBRANCH   1   2
BRANCH   1   7
ATOM      7  C   UNL     1      79.596  58.923   9.976  1.00  0.00     0.000 C 
BRANCH   7   8
ATOM      8  C   UNL     1      80.662  59.748  10.709  1.00  0.00     0.004 C 
BRANCH   8   9
ATOM      9  C   UNL     1      82.031  59.060  10.643  1.00  0.00     0.027 C 
BRANCH   9  10
ATOM     10  C   UNL     1      83.142  60.026  10.954  1.00  0.00    -0.035 C 
ATOM     11  C   UNL     1      83.678  60.113  12.174  1.00  0.00     0.004 C 
ENDBRANCH   9  10
ENDBRANCH   8   9
ENDBRANCH   7   8
ENDBRANCH   1   7
TORSDOF 7
ENDMDL
MODEL 5
REMARK VINA RESULT:    -4.277      3.441      4.682
REMARK INTER + INTRA:          -6.425
REMARK INTER:                  -6.027
REMARK INTRA:                  -0.398
REMARK UNBOUND:                -0.398
REMARK SMILES C=CCCCCCCC(=O)[O-]
REMARK SMILES IDX 6 1 7 2 8 3 9 4 10 5 11 6 5 7 4 8 3 9 2 10 1 11
REMARK H PARENT
REMARK Flexibility Score: inf
ROOT
ATOM      1  C   UNL     1      77.891  55.646   7.430  1.00  0.00     0.000 C 
ENDROOT
BRANCH   1   2
ATOM      2  C   UNL     1      77.639  56.828   8.380  1.00  0.00     0.006 C 
BRANCH   2   3
ATOM      3  C   UNL     1      78.013  56.507   9.832  1.00  0.00     0.053 C 
BRANCH   3   4
ATOM      4  C   UNL     1      79.233  57.274  10.238  1.00  0.00     0.041 C 
ATOM      5  O   UNL     1      80.255  56.666  10.653  1.00  0.00    -0.550 OA
ATOM      6  O   UNL     1      79.259  58.657  10.110  1.00  0.00    -0.550 OA
ENDBRANCH   3   4
ENDBRANCH   2   3
ENDBRANCH   1   2
BRANCH   1   7
ATOM      7  C   UNL     1      78.331  54.375   8.171  1.00  0.00     0.000 C 
BRANCH   7   8
ATOM      8  C   UNL     1      79.800  54.046   7.872  1.00  0.00     0.004 C 
BRANCH   8   9
ATOM      9  C   UNL     1      80.272  52.840   8.693  1.00  0.00     0.027 C 
BRANCH   9  10
ATOM     10  C   UNL     1      79.476  51.608   8.359  1.00  0.00    -0.035 C 
ATOM     11  C   UNL     1      79.565  51.015   7.166  1.00  0.00     0.004 C 
ENDBRANCH   9  10
ENDBRANCH   8   9
ENDBRANCH   7   8
ENDBRANCH   1   7
TORSDOF 7
ENDMDL
MODEL 6
REMARK VINA RESULT:    -4.272      4.639      6.359
REMARK INTER + INTRA:          -6.418
REMARK INTER:                  -5.772
REMARK INTRA:                  -0.646
REMARK UNBOUND:                -0.398
REMARK SMILES C=CCCCCCCC(=O)[O-]
REMARK SMILES IDX 6 1 7 2 8 3 9 4 10 5 11 6 5 7 4 8 3 9 2 10 1 11
REMARK H PARENT
REMARK Flexibility Score: inf
ROOT
ATOM      1  C   UNL     1      78.205  54.447   8.202  1.00  0.00     0.000 C 
ENDROOT
BRANCH   1   2
ATOM      2  C   UNL     1      79.577  53.906   7.770  1.00  0.00     0.006 C 
BRANCH   2   3
ATOM      3  C   UNL     1      80.366  53.298   8.936  1.00  0.00     0.053 C 
BRANCH   3   4
ATOM      4  C   UNL     1      80.280  51.804   8.902  1.00  0.00     0.041 C 
ATOM      5  O   UNL     1      79.594  51.230   8.016  1.00  0.00    -0.550 OA
ATOM      6  O   UNL     1      80.998  51.045   9.817  1.00  0.00    -0.550 OA
ENDBRANCH   3   4
ENDBRANCH   2   3
ENDBRANCH   1   2
BRANCH   1   7
ATOM      7  C   UNL     1      77.741  55.636   7.347  1.00  0.00     0.000 C 
BRANCH   7   8
ATOM      8  C   UNL     1      77.796  56.943   8.149  1.00  0.00     0.004 C 
BRANCH   8   9
ATOM      9  C   UNL     1      77.905  56.660   9.652  1.00  0.00     0.027 C 
BRANCH   9  10
ATOM     10  C   UNL     1      79.093  57.360  10.254  1.00  0.00    -0.035 C 
ATOM     11  C   UNL     1      80.183  56.690  10.638  1.00  0.00     0.004 C 
ENDBRANCH   9  10
ENDBRANCH   8   9
ENDBRANCH   7   8
ENDBRANCH   1   7
TORSDOF 7
ENDMDL
MODEL 7
REMARK VINA RESULT:    -4.249      7.355      9.664
REMARK INTER + INTRA:          -6.386
REMARK INTER:                  -5.896
REMARK INTRA:                  -0.490
REMARK UNBOUND:                -0.398
REMARK SMILES C=CCCCCCCC(=O)[O-]
REMARK SMILES IDX 6 1 7 2 8 3 9 4 10 5 11 6 5 7 4 8 3 9 2 10 1 11
REMARK H PARENT
REMARK Flexibility Score: inf
ROOT
ATOM      1  C   UNL     1      84.877  62.680  17.035  1.00  0.00     0.000 C 
ENDROOT
BRANCH   1   2
ATOM      2  C   UNL     1      85.626  61.481  16.432  1.00  0.00     0.006 C 
BRANCH   2   3
ATOM      3  C   UNL     1      85.708  61.546  14.902  1.00  0.00     0.053 C 
BRANCH   3   4
ATOM      4  C   UNL     1      84.852  60.484  14.287  1.00  0.00     0.041 C 
ATOM      5  O   UNL     1      85.349  59.662  13.473  1.00  0.00    -0.550 OA
ATOM      6  O   UNL     1      83.517  60.369  14.653  1.00  0.00    -0.550 OA
ENDBRANCH   3   4
ENDBRANCH   2   3
ENDBRANCH   1   2
BRANCH   1   7
ATOM      7  C   UNL     1      84.469  63.716  15.977  1.00  0.00     0.000 C 
BRANCH   7   8
ATOM      8  C   UNL     1      85.302  64.997  16.114  1.00  0.00     0.004 C 
BRANCH   8   9
ATOM      9  C   UNL     1      85.951  65.377  14.777  1.00  0.00     0.027 C 
BRANCH   9  10
ATOM     10  C   UNL     1      84.912  65.731  13.748  1.00  0.00    -0.035 C 
ATOM     11  C   UNL     1      84.205  66.862  13.823  1.00  0.00     0.004 C 
ENDBRANCH   9  10
ENDBRANCH   8   9
ENDBRANCH   7   8
ENDBRANCH   1   7
TORSDOF 7
ENDMDL
MODEL 8
REMARK VINA RESULT:    -4.206      4.842      6.124
REMARK INTER + INTRA:          -6.325
REMARK INTER:                  -5.710
REMARK INTRA:                  -0.614
REMARK UNBOUND:                -0.398
REMARK SMILES C=CCCCCCCC(=O)[O-]
REMARK SMILES IDX 6 1 7 2 8 3 9 4 10 5 11 6 5 7 4 8 3 9 2 10 1 11
REMARK H PARENT
REMARK Flexibility Score: inf
ROOT
ATOM      1  C   UNL     1      80.521  54.865   9.616  1.00  0.00     0.000 C 
ENDROOT
BRANCH   1   2
ATOM      2  C   UNL     1      80.557  54.008   8.341  1.00  0.00     0.006 C 
BRANCH   2   3
ATOM      3  C   UNL     1      79.287  53.167   8.160  1.00  0.00     0.053 C 
BRANCH   3   4
ATOM      4  C   UNL     1      79.594  51.713   8.336  1.00  0.00     0.041 C 
ATOM      5  O   UNL     1      80.417  51.342   9.215  1.00  0.00    -0.550 OA
ATOM      6  O   UNL     1      78.935  50.765   7.566  1.00  0.00    -0.550 OA
ENDBRANCH   3   4
ENDBRANCH   2   3
ENDBRANCH   1   2
BRANCH   1   7
ATOM      7  C   UNL     1      79.093  55.251  10.031  1.00  0.00     0.000 C 
BRANCH   7   8
ATOM      8  C   UNL     1      78.877  56.765   9.912  1.00  0.00     0.004 C 
BRANCH   8   9
ATOM      9  C   UNL     1      77.640  57.078   9.060  1.00  0.00     0.027 C 
BRANCH   9  10
ATOM     10  C   UNL     1      77.700  56.372   7.733  1.00  0.00    -0.035 C 
ATOM     11  C   UNL     1      77.719  57.043   6.578  1.00  0.00     0.004 C 
ENDBRANCH   9  10
ENDBRANCH   8   9
ENDBRANCH   7   8
ENDBRANCH   1   7
TORSDOF 7
ENDMDL
MODEL 9
REMARK VINA RESULT:    -4.140      1.312      1.774
REMARK INTER + INTRA:          -6.232
REMARK INTER:                  -5.889
REMARK INTRA:                  -0.343
REMARK UNBOUND:                -0.398
REMARK SMILES C=CCCCCCCC(=O)[O-]
REMARK SMILES IDX 6 1 7 2 8 3 9 4 10 5 11 6 5 7 4 8 3 9 2 10 1 11
REMARK H PARENT
REMARK Flexibility Score: inf
ROOT
ATOM      1  C   UNL     1      80.361  59.539  10.477  1.00  0.00     0.000 C 
ENDROOT
BRANCH   1   2
ATOM      2  C   UNL     1      81.695  58.816  10.719  1.00  0.00     0.006 C 
BRANCH   2   3
ATOM      3  C   UNL     1      82.910  59.687  10.373  1.00  0.00     0.053 C 
BRANCH   3   4
ATOM      4  C   UNL     1      83.985  58.857   9.744  1.00  0.00     0.041 C 
ATOM      5  O   UNL     1      84.119  57.646  10.065  1.00  0.00    -0.550 OA
ATOM      6  O   UNL     1      84.805  59.405   8.767  1.00  0.00    -0.550 OA
ENDBRANCH   3   4
ENDBRANCH   2   3
ENDBRANCH   1   2
BRANCH   1   7
ATOM      7  C   UNL     1      79.231  58.578  10.078  1.00  0.00     0.000 C 
BRANCH   7   8
ATOM      8  C   UNL     1      79.471  57.178  10.657  1.00  0.00     0.004 C 
BRANCH   8   9
ATOM      9  C   UNL     1      78.384  56.199  10.198  1.00  0.00     0.027 C 
BRANCH   9  10
ATOM     10  C   UNL     1      77.721  56.674   8.934  1.00  0.00    -0.035 C 
ATOM     11  C   UNL     1      77.735  55.945   7.815  1.00  0.00     0.004 C 
ENDBRANCH   9  10
ENDBRANCH   8   9
ENDBRANCH   7   8
ENDBRANCH   1   7
TORSDOF 7
ENDMDL
