MODEL 1
REMARK VINA RESULT:    -3.549      0.000      0.000
REMARK INTER + INTRA:          -3.860
REMARK INTER:                  -3.860
REMARK INTRA:                   0.000
REMARK UNBOUND:                 0.000
REMARK SMILES [NH3+]CC(=O)[O-]
REMARK SMILES IDX 2 1 1 2 3 6 4 7 5 8
REMARK H PARENT 1 3 1 4 1 5
REMARK Flexibility Score: inf
ROOT
ATOM      1  C   UNL     1      -6.996   6.660   0.149  1.00  0.00     0.312 C 
ENDROOT
BRANCH   1   2
ATOM      2  N   UNL     1      -6.922   6.327   1.571  1.00  0.00    -0.353 N 
ATOM      3  H   UNL     1      -7.314   5.371   1.737  1.00  0.00     0.344 HD
ATOM      4  H   UNL     1      -7.484   7.022   2.114  1.00  0.00     0.344 HD
ATOM      5  H   UNL     1      -5.928   6.364   1.897  1.00  0.00     0.344 HD
ENDBRANCH   1   2
BRANCH   1   6
ATOM      6  C   UNL     1      -8.218   6.057  -0.471  1.00  0.00     0.096 C 
ATOM      7  O   UNL     1      -8.236   5.786  -1.700  1.00  0.00    -0.544 OA
ATOM      8  O   UNL     1      -9.319   5.748   0.319  1.00  0.00    -0.544 OA
ENDBRANCH   1   6
TORSDOF 2
ENDMDL
MODEL 2
REMARK VINA RESULT:    -3.513      0.160      1.448
REMARK INTER + INTRA:          -3.821
REMARK INTER:                  -3.821
REMARK INTRA:                   0.000
REMARK UNBOUND:                 0.000
REMARK SMILES [NH3+]CC(=O)[O-]
REMARK SMILES IDX 2 1 1 2 3 6 4 7 5 8
REMARK H PARENT 1 3 1 4 1 5
REMARK Flexibility Score: inf
ROOT
ATOM      1  C   UNL     1      -7.039   6.656   0.173  1.00  0.00     0.312 C 
ENDROOT
BRANCH   1   2
ATOM      2  N   UNL     1      -6.940   6.316   1.592  1.00  0.00    -0.353 N 
ATOM      3  H   UNL     1      -7.875   6.016   1.954  1.00  0.00     0.344 HD
ATOM      4  H   UNL     1      -6.625   7.158   2.124  1.00  0.00     0.344 HD
ATOM      5  H   UNL     1      -6.244   5.547   1.728  1.00  0.00     0.344 HD
ENDBRANCH   1   2
BRANCH   1   6
ATOM      6  C   UNL     1      -8.299   6.103  -0.417  1.00  0.00     0.096 C 
ATOM      7  O   UNL     1      -9.248   5.753   0.333  1.00  0.00    -0.544 OA
ATOM      8  O   UNL     1      -8.445   6.022  -1.796  1.00  0.00    -0.544 OA
ENDBRANCH   1   6
TORSDOF 2
ENDMDL
MODEL 3
REMARK VINA RESULT:    -3.409      3.103      3.266
REMARK INTER + INTRA:          -3.708
REMARK INTER:                  -3.708
REMARK INTRA:                   0.000
REMARK UNBOUND:                 0.000
REMARK SMILES [NH3+]CC(=O)[O-]
REMARK SMILES IDX 2 1 1 2 3 6 4 7 5 8
REMARK H PARENT 1 3 1 4 1 5
REMARK Flexibility Score: inf
ROOT
ATOM      1  C   UNL     1      -5.258   5.341  -2.499  1.00  0.00     0.312 C 
ENDROOT
BRANCH   1   2
ATOM      2  N   UNL     1      -4.195   6.345  -2.543  1.00  0.00    -0.353 N 
ATOM      3  H   UNL     1      -3.322   5.963  -2.110  1.00  0.00     0.344 HD
ATOM      4  H   UNL     1      -4.499   7.188  -2.003  1.00  0.00     0.344 HD
ATOM      5  H   UNL     1      -4.007   6.625  -3.533  1.00  0.00     0.344 HD
ENDBRANCH   1   2
BRANCH   1   6
ATOM      6  C   UNL     1      -6.323   5.743  -1.525  1.00  0.00     0.096 C 
ATOM      7  O   UNL     1      -7.536   5.549  -1.800  1.00  0.00    -0.544 OA
ATOM      8  O   UNL     1      -5.972   6.283  -0.294  1.00  0.00    -0.544 OA
ENDBRANCH   1   6
TORSDOF 2
ENDMDL
MODEL 4
REMARK VINA RESULT:    -3.407      3.125      3.363
REMARK INTER + INTRA:          -3.706
REMARK INTER:                  -3.706
REMARK INTRA:                   0.000
REMARK UNBOUND:                 0.000
REMARK SMILES [NH3+]CC(=O)[O-]
REMARK SMILES IDX 2 1 1 2 3 6 4 7 5 8
REMARK H PARENT 1 3 1 4 1 5
REMARK Flexibility Score: inf
ROOT
ATOM      1  C   UNL     1      -5.239   5.361  -2.528  1.00  0.00     0.312 C 
ENDROOT
BRANCH   1   2
ATOM      2  N   UNL     1      -4.157   6.344  -2.582  1.00  0.00    -0.353 N 
ATOM      3  H   UNL     1      -3.689   6.311  -3.518  1.00  0.00     0.344 HD
ATOM      4  H   UNL     1      -3.453   6.117  -1.843  1.00  0.00     0.344 HD
ATOM      5  H   UNL     1      -4.535   7.303  -2.409  1.00  0.00     0.344 HD
ENDBRANCH   1   2
BRANCH   1   6
ATOM      6  C   UNL     1      -6.251   5.747  -1.493  1.00  0.00     0.096 C 
ATOM      7  O   UNL     1      -5.881   6.270  -0.410  1.00  0.00    -0.544 OA
ATOM      8  O   UNL     1      -7.606   5.575  -1.749  1.00  0.00    -0.544 OA
ENDBRANCH   1   6
TORSDOF 2
ENDMDL
MODEL 5
REMARK VINA RESULT:    -3.344      9.529      9.641
REMARK INTER + INTRA:          -3.638
REMARK INTER:                  -3.638
REMARK INTRA:                   0.000
REMARK UNBOUND:                 0.000
REMARK SMILES [NH3+]CC(=O)[O-]
REMARK SMILES IDX 2 1 1 2 3 6 4 7 5 8
REMARK H PARENT 1 3 1 4 1 5
REMARK Flexibility Score: inf
ROOT
ATOM      1  C   UNL     1      -4.206  -0.993   1.838  1.00  0.00     0.312 C 
ENDROOT
BRANCH   1   2
ATOM      2  N   UNL     1      -4.364  -1.486   0.470  1.00  0.00    -0.353 N 
ATOM      3  H   UNL     1      -5.315  -1.243   0.108  1.00  0.00     0.344 HD
ATOM      4  H   UNL     1      -4.256  -2.526   0.467  1.00  0.00     0.344 HD
ATOM      5  H   UNL     1      -3.632  -1.067  -0.149  1.00  0.00     0.344 HD
ENDBRANCH   1   2
BRANCH   1   6
ATOM      6  C   UNL     1      -3.061  -1.679   2.517  1.00  0.00     0.096 C 
ATOM      7  O   UNL     1      -2.553  -1.182   3.556  1.00  0.00    -0.544 OA
ATOM      8  O   UNL     1      -2.589  -2.892   2.030  1.00  0.00    -0.544 OA
ENDBRANCH   1   6
TORSDOF 2
ENDMDL
MODEL 6
REMARK VINA RESULT:    -3.312     10.002     10.395
REMARK INTER + INTRA:          -3.603
REMARK INTER:                  -3.603
REMARK INTRA:                   0.000
REMARK UNBOUND:                 0.000
REMARK SMILES [NH3+]CC(=O)[O-]
REMARK SMILES IDX 2 1 1 2 3 6 4 7 5 8
REMARK H PARENT 1 3 1 4 1 5
REMARK Flexibility Score: inf
ROOT
ATOM      1  C   UNL     1      -6.945  -2.296  -5.451  1.00  0.00     0.312 C 
ENDROOT
BRANCH   1   2
ATOM      2  N   UNL     1      -7.692  -2.838  -4.316  1.00  0.00    -0.353 N 
ATOM      3  H   UNL     1      -7.086  -3.490  -3.766  1.00  0.00     0.344 HD
ATOM      4  H   UNL     1      -8.520  -3.365  -4.674  1.00  0.00     0.344 HD
ATOM      5  H   UNL     1      -8.024  -2.059  -3.701  1.00  0.00     0.344 HD
ENDBRANCH   1   2
BRANCH   1   6
ATOM      6  C   UNL     1      -7.850  -2.080  -6.624  1.00  0.00     0.096 C 
ATOM      7  O   UNL     1      -8.051  -3.010  -7.448  1.00  0.00    -0.544 OA
ATOM      8  O   UNL     1      -8.511  -0.867  -6.778  1.00  0.00    -0.544 OA
ENDBRANCH   1   6
TORSDOF 2
ENDMDL
MODEL 7
REMARK VINA RESULT:    -3.240      3.487      3.813
REMARK INTER + INTRA:          -3.524
REMARK INTER:                  -3.524
REMARK INTRA:                   0.000
REMARK UNBOUND:                 0.000
REMARK SMILES [NH3+]CC(=O)[O-]
REMARK SMILES IDX 2 1 1 2 3 6 4 7 5 8
REMARK H PARENT 1 3 1 4 1 5
REMARK Flexibility Score: inf
ROOT
ATOM      1  C   UNL     1      -5.942   5.988  -1.197  1.00  0.00     0.312 C 
ENDROOT
BRANCH   1   2
ATOM      2  N   UNL     1      -6.337   7.389  -1.336  1.00  0.00    -0.353 N 
ATOM      3  H   UNL     1      -7.208   7.572  -0.786  1.00  0.00     0.344 HD
ATOM      4  H   UNL     1      -6.523   7.594  -2.344  1.00  0.00     0.344 HD
ATOM      5  H   UNL     1      -5.568   8.013  -0.998  1.00  0.00     0.344 HD
ENDBRANCH   1   2
BRANCH   1   6
ATOM      6  C   UNL     1      -5.136   5.548  -2.380  1.00  0.00     0.096 C 
ATOM      7  O   UNL     1      -4.346   6.351  -2.943  1.00  0.00    -0.544 OA
ATOM      8  O   UNL     1      -5.219   4.235  -2.829  1.00  0.00    -0.544 OA
ENDBRANCH   1   6
TORSDOF 2
ENDMDL
MODEL 8
REMARK VINA RESULT:    -3.217      1.741      2.057
REMARK INTER + INTRA:          -3.499
REMARK INTER:                  -3.499
REMARK INTRA:                   0.000
REMARK UNBOUND:                 0.000
REMARK SMILES [NH3+]CC(=O)[O-]
REMARK SMILES IDX 2 1 1 2 3 6 4 7 5 8
REMARK H PARENT 1 3 1 4 1 5
REMARK Flexibility Score: inf
ROOT
ATOM      1  C   UNL     1      -7.838   6.395   0.249  1.00  0.00     0.312 C 
ENDROOT
BRANCH   1   2
ATOM      2  N   UNL     1      -7.111   6.310   1.516  1.00  0.00    -0.353 N 
ATOM      3  H   UNL     1      -6.286   5.675   1.414  1.00  0.00     0.344 HD
ATOM      4  H   UNL     1      -7.748   5.923   2.249  1.00  0.00     0.344 HD
ATOM      5  H   UNL     1      -6.792   7.262   1.810  1.00  0.00     0.344 HD
ENDBRANCH   1   2
BRANCH   1   6
ATOM      6  C   UNL     1      -6.886   6.559  -0.895  1.00  0.00     0.096 C 
ATOM      7  O   UNL     1      -7.293   7.011  -1.997  1.00  0.00    -0.544 OA
ATOM      8  O   UNL     1      -5.540   6.260  -0.728  1.00  0.00    -0.544 OA
ENDBRANCH   1   6
TORSDOF 2
ENDMDL
MODEL 9
REMARK VINA RESULT:    -3.021      9.617      9.674
REMARK INTER + INTRA:          -3.286
REMARK INTER:                  -3.286
REMARK INTRA:                   0.000
REMARK UNBOUND:                 0.000
REMARK SMILES [NH3+]CC(=O)[O-]
REMARK SMILES IDX 2 1 1 2 3 6 4 7 5 8
REMARK H PARENT 1 3 1 4 1 5
REMARK Flexibility Score: inf
ROOT
ATOM      1  C   UNL     1      -3.312  -1.764   3.513  1.00  0.00     0.312 C 
ENDROOT
BRANCH   1   2
ATOM      2  N   UNL     1      -2.303  -0.775   3.887  1.00  0.00    -0.353 N 
ATOM      3  H   UNL     1      -1.882  -0.349   3.028  1.00  0.00     0.344 HD
ATOM      4  H   UNL     1      -1.549  -1.247   4.435  1.00  0.00     0.344 HD
ATOM      5  H   UNL     1      -2.735  -0.027   4.477  1.00  0.00     0.344 HD
ENDBRANCH   1   2
BRANCH   1   6
ATOM      6  C   UNL     1      -3.258  -2.043   2.042  1.00  0.00     0.096 C 
ATOM      7  O   UNL     1      -2.535  -2.974   1.600  1.00  0.00    -0.544 OA
ATOM      8  O   UNL     1      -4.047  -1.308   1.165  1.00  0.00    -0.544 OA
ENDBRANCH   1   6
TORSDOF 2
ENDMDL
