MODEL 1
REMARK VINA RESULT:    -3.760      0.000      0.000
REMARK INTER + INTRA:          -6.548
REMARK INTER:                  -5.739
REMARK INTRA:                  -0.810
REMARK UNBOUND:                -0.810
REMARK SMILES O=C([O-])CCCCCCCCC(=O)[O-]
REMARK SMILES IDX 7 1 6 2 5 3 4 4 2 5 1 6 3 7 8 8 9 9 10 10 11 11 12 12 13 13
REMARK SMILES IDX 14 14
REMARK H PARENT
REMARK Flexibility Score: inf
ROOT
ATOM      1  C   UNL     1      29.418  50.710  25.248  1.00  0.00     0.000 C 
ENDROOT
BRANCH   1   2
ATOM      2  C   UNL     1      28.921  52.123  25.589  1.00  0.00     0.000 C 
BRANCH   2   3
ATOM      3  C   UNL     1      29.638  52.672  26.833  1.00  0.00     0.006 C 
BRANCH   3   4
ATOM      4  C   UNL     1      30.447  53.938  26.525  1.00  0.00     0.053 C 
BRANCH   4   5
ATOM      5  C   UNL     1      31.524  53.677  25.516  1.00  0.00     0.041 C 
ATOM      6  O   UNL     1      31.406  54.104  24.338  1.00  0.00    -0.550 OA
ATOM      7  O   UNL     1      32.642  52.932  25.870  1.00  0.00    -0.550 OA
ENDBRANCH   4   5
ENDBRANCH   3   4
ENDBRANCH   2   3
ENDBRANCH   1   2
BRANCH   1   8
ATOM      8  C   UNL     1      30.226  50.664  23.942  1.00  0.00     0.000 C 
BRANCH   8   9
ATOM      9  C   UNL     1      31.614  50.026  24.126  1.00  0.00     0.000 C 
BRANCH   9  10
ATOM     10  C   UNL     1      31.894  49.634  25.586  1.00  0.00     0.006 C 
BRANCH  10  11
ATOM     11  C   UNL     1      32.805  48.406  25.705  1.00  0.00     0.053 C 
BRANCH  11  12
ATOM     12  C   UNL     1      34.242  48.823  25.755  1.00  0.00     0.041 C 
ATOM     13  O   UNL     1      34.569  49.902  26.315  1.00  0.00    -0.550 OA
ATOM     14  O   UNL     1      35.224  47.995  25.227  1.00  0.00    -0.550 OA
ENDBRANCH  11  12
ENDBRANCH  10  11
ENDBRANCH   9  10
ENDBRANCH   8   9
ENDBRANCH   1   8
TORSDOF 9
ENDMDL
MODEL 2
REMARK VINA RESULT:    -3.709      2.410      5.873
REMARK INTER + INTRA:          -6.470
REMARK INTER:                  -5.843
REMARK INTRA:                  -0.627
REMARK UNBOUND:                -0.810
REMARK SMILES O=C([O-])CCCCCCCCC(=O)[O-]
REMARK SMILES IDX 7 1 6 2 5 3 4 4 2 5 1 6 3 7 8 8 9 9 10 10 11 11 12 12 13 13
REMARK SMILES IDX 14 14
REMARK H PARENT
REMARK Flexibility Score: inf
ROOT
ATOM      1  C   UNL     1      33.568  50.098  26.749  1.00  0.00     0.000 C 
ENDROOT
BRANCH   1   2
ATOM      2  C   UNL     1      34.686  49.053  26.614  1.00  0.00     0.000 C 
BRANCH   2   3
ATOM      3  C   UNL     1      34.635  48.371  25.238  1.00  0.00     0.006 C 
BRANCH   3   4
ATOM      4  C   UNL     1      33.275  47.717  24.963  1.00  0.00     0.053 C 
BRANCH   4   5
ATOM      5  C   UNL     1      33.026  46.552  25.872  1.00  0.00     0.041 C 
ATOM      6  O   UNL     1      32.191  46.646  26.808  1.00  0.00    -0.550 OA
ATOM      7  O   UNL     1      33.742  45.374  25.703  1.00  0.00    -0.550 OA
ENDBRANCH   4   5
ENDBRANCH   3   4
ENDBRANCH   2   3
ENDBRANCH   1   2
BRANCH   1   8
ATOM      8  C   UNL     1      34.105  51.536  26.825  1.00  0.00     0.000 C 
BRANCH   8   9
ATOM      9  C   UNL     1      33.184  52.549  26.122  1.00  0.00     0.000 C 
BRANCH   9  10
ATOM     10  C   UNL     1      31.699  52.164  26.221  1.00  0.00     0.006 C 
BRANCH  10  11
ATOM     11  C   UNL     1      30.930  52.433  24.921  1.00  0.00     0.053 C 
BRANCH  11  12
ATOM     12  C   UNL     1      30.421  51.150  24.341  1.00  0.00     0.041 C 
ATOM     13  O   UNL     1      31.216  50.343  23.792  1.00  0.00    -0.550 OA
ATOM     14  O   UNL     1      29.075  50.823  24.452  1.00  0.00    -0.550 OA
ENDBRANCH  11  12
ENDBRANCH  10  11
ENDBRANCH   9  10
ENDBRANCH   8   9
ENDBRANCH   1   8
TORSDOF 9
ENDMDL
MODEL 3
REMARK VINA RESULT:    -3.633      2.186      3.149
REMARK INTER + INTRA:          -6.354
REMARK INTER:                  -5.437
REMARK INTRA:                  -0.917
REMARK UNBOUND:                -0.810
REMARK SMILES O=C([O-])CCCCCCCCC(=O)[O-]
REMARK SMILES IDX 7 1 6 2 5 3 4 4 2 5 1 6 3 7 8 8 9 9 10 10 11 11 12 12 13 13
REMARK SMILES IDX 14 14
REMARK H PARENT
REMARK Flexibility Score: inf
ROOT
ATOM      1  C   UNL     1      33.630  52.124  26.373  1.00  0.00     0.000 C 
ENDROOT
BRANCH   1   2
ATOM      2  C   UNL     1      32.193  52.575  26.674  1.00  0.00     0.000 C 
BRANCH   2   3
ATOM      3  C   UNL     1      31.581  53.298  25.465  1.00  0.00     0.006 C 
BRANCH   3   4
ATOM      4  C   UNL     1      30.822  52.340  24.538  1.00  0.00     0.053 C 
BRANCH   4   5
ATOM      5  C   UNL     1      29.608  51.768  25.205  1.00  0.00     0.041 C 
ATOM      6  O   UNL     1      29.304  50.558  25.039  1.00  0.00    -0.550 OA
ATOM      7  O   UNL     1      28.795  52.582  25.983  1.00  0.00    -0.550 OA
ENDBRANCH   4   5
ENDBRANCH   3   4
ENDBRANCH   2   3
ENDBRANCH   1   2
BRANCH   1   8
ATOM      8  C   UNL     1      33.895  50.667  26.786  1.00  0.00     0.000 C 
BRANCH   8   9
ATOM      9  C   UNL     1      32.669  49.761  26.579  1.00  0.00     0.000 C 
BRANCH   9  10
ATOM     10  C   UNL     1      32.636  49.123  25.181  1.00  0.00     0.006 C 
BRANCH  10  11
ATOM     11  C   UNL     1      33.905  48.321  24.866  1.00  0.00     0.053 C 
BRANCH  11  12
ATOM     12  C   UNL     1      33.971  47.091  25.716  1.00  0.00     0.041 C 
ATOM     13  O   UNL     1      35.007  46.836  26.383  1.00  0.00    -0.550 OA
ATOM     14  O   UNL     1      32.866  46.254  25.811  1.00  0.00    -0.550 OA
ENDBRANCH  11  12
ENDBRANCH  10  11
ENDBRANCH   9  10
ENDBRANCH   8   9
ENDBRANCH   1   8
TORSDOF 9
ENDMDL
MODEL 4
REMARK VINA RESULT:    -3.620      2.706      3.844
REMARK INTER + INTRA:          -6.334
REMARK INTER:                  -5.498
REMARK INTRA:                  -0.836
REMARK UNBOUND:                -0.810
REMARK SMILES O=C([O-])CCCCCCCCC(=O)[O-]
REMARK SMILES IDX 7 1 6 2 5 3 4 4 2 5 1 6 3 7 8 8 9 9 10 10 11 11 12 12 13 13
REMARK SMILES IDX 14 14
REMARK H PARENT
REMARK Flexibility Score: inf
ROOT
ATOM      1  C   UNL     1      33.580  50.692  27.022  1.00  0.00     0.000 C 
ENDROOT
BRANCH   1   2
ATOM      2  C   UNL     1      33.565  52.053  26.311  1.00  0.00     0.000 C 
BRANCH   2   3
ATOM      3  C   UNL     1      32.146  52.412  25.843  1.00  0.00     0.006 C 
BRANCH   3   4
ATOM      4  C   UNL     1      31.149  51.270  26.082  1.00  0.00     0.053 C 
BRANCH   4   5
ATOM      5  C   UNL     1      30.565  50.766  24.797  1.00  0.00     0.041 C 
ATOM      6  O   UNL     1      31.318  50.355  23.877  1.00  0.00    -0.550 OA
ATOM      7  O   UNL     1      29.190  50.782  24.606  1.00  0.00    -0.550 OA
ENDBRANCH   4   5
ENDBRANCH   3   4
ENDBRANCH   2   3
ENDBRANCH   1   2
BRANCH   1   8
ATOM      8  C   UNL     1      34.615  49.722  26.428  1.00  0.00     0.000 C 
BRANCH   8   9
ATOM      9  C   UNL     1      33.976  48.664  25.512  1.00  0.00     0.000 C 
BRANCH   9  10
ATOM     10  C   UNL     1      32.750  47.993  26.151  1.00  0.00     0.006 C 
BRANCH  10  11
ATOM     11  C   UNL     1      33.106  46.707  26.909  1.00  0.00     0.053 C 
BRANCH  11  12
ATOM     12  C   UNL     1      32.464  45.523  26.257  1.00  0.00     0.041 C 
ATOM     13  O   UNL     1      31.636  44.819  26.893  1.00  0.00    -0.550 OA
ATOM     14  O   UNL     1      32.743  45.225  24.929  1.00  0.00    -0.550 OA
ENDBRANCH  11  12
ENDBRANCH  10  11
ENDBRANCH   9  10
ENDBRANCH   8   9
ENDBRANCH   1   8
TORSDOF 9
ENDMDL
MODEL 5
REMARK VINA RESULT:    -3.598      0.886      5.368
REMARK INTER + INTRA:          -6.301
REMARK INTER:                  -5.620
REMARK INTRA:                  -0.682
REMARK UNBOUND:                -0.810
REMARK SMILES O=C([O-])CCCCCCCCC(=O)[O-]
REMARK SMILES IDX 7 1 6 2 5 3 4 4 2 5 1 6 3 7 8 8 9 9 10 10 11 11 12 12 13 13
REMARK SMILES IDX 14 14
REMARK H PARENT
REMARK Flexibility Score: inf
ROOT
ATOM      1  C   UNL     1      31.579  50.220  24.112  1.00  0.00     0.000 C 
ENDROOT
BRANCH   1   2
ATOM      2  C   UNL     1      31.855  49.733  25.542  1.00  0.00     0.000 C 
BRANCH   2   3
ATOM      3  C   UNL     1      32.510  48.343  25.531  1.00  0.00     0.006 C 
BRANCH   3   4
ATOM      4  C   UNL     1      33.896  48.358  24.873  1.00  0.00     0.053 C 
BRANCH   4   5
ATOM      5  C   UNL     1      34.989  48.148  25.876  1.00  0.00     0.041 C 
ATOM      6  O   UNL     1      35.711  47.119  25.820  1.00  0.00    -0.550 OA
ATOM      7  O   UNL     1      35.186  49.074  26.892  1.00  0.00    -0.550 OA
ENDBRANCH   4   5
ENDBRANCH   3   4
ENDBRANCH   2   3
ENDBRANCH   1   2
BRANCH   1   8
ATOM      8  C   UNL     1      30.135  50.709  23.918  1.00  0.00     0.000 C 
BRANCH   8   9
ATOM      9  C   UNL     1      29.350  50.776  25.240  1.00  0.00     0.000 C 
BRANCH   9  10
ATOM     10  C   UNL     1      29.042  52.218  25.671  1.00  0.00     0.006 C 
BRANCH  10  11
ATOM     11  C   UNL     1      30.180  52.850  26.483  1.00  0.00     0.053 C 
BRANCH  11  12
ATOM     12  C   UNL     1      30.847  53.932  25.693  1.00  0.00     0.041 C 
ATOM     13  O   UNL     1      30.450  55.123  25.787  1.00  0.00    -0.550 OA
ATOM     14  O   UNL     1      31.942  53.632  24.892  1.00  0.00    -0.550 OA
ENDBRANCH  11  12
ENDBRANCH  10  11
ENDBRANCH   9  10
ENDBRANCH   8   9
ENDBRANCH   1   8
TORSDOF 9
ENDMDL
MODEL 6
REMARK VINA RESULT:    -3.552      1.394      2.394
REMARK INTER + INTRA:          -6.230
REMARK INTER:                  -5.732
REMARK INTRA:                  -0.498
REMARK UNBOUND:                -0.810
REMARK SMILES O=C([O-])CCCCCCCCC(=O)[O-]
REMARK SMILES IDX 7 1 6 2 5 3 4 4 2 5 1 6 3 7 8 8 9 9 10 10 11 11 12 12 13 13
REMARK SMILES IDX 14 14
REMARK H PARENT
REMARK Flexibility Score: inf
ROOT
ATOM      1  C   UNL     1      31.527  49.990  24.294  1.00  0.00     0.000 C 
ENDROOT
BRANCH   1   2
ATOM      2  C   UNL     1      30.446  51.007  23.900  1.00  0.00     0.000 C 
BRANCH   2   3
ATOM      3  C   UNL     1      29.477  51.257  25.067  1.00  0.00     0.006 C 
BRANCH   3   4
ATOM      4  C   UNL     1      29.452  52.729  25.497  1.00  0.00     0.053 C 
BRANCH   4   5
ATOM      5  C   UNL     1      30.823  53.333  25.489  1.00  0.00     0.041 C 
ATOM      6  O   UNL     1      31.626  53.096  26.429  1.00  0.00    -0.550 OA
ATOM      7  O   UNL     1      31.201  54.184  24.458  1.00  0.00    -0.550 OA
ENDBRANCH   4   5
ENDBRANCH   3   4
ENDBRANCH   2   3
ENDBRANCH   1   2
BRANCH   1   8
ATOM      8  C   UNL     1      31.461  49.596  25.778  1.00  0.00     0.000 C 
BRANCH   8   9
ATOM      9  C   UNL     1      32.739  48.886  26.259  1.00  0.00     0.000 C 
BRANCH   9  10
ATOM     10  C   UNL     1      33.515  48.224  25.109  1.00  0.00     0.006 C 
BRANCH  10  11
ATOM     11  C   UNL     1      35.020  48.129  25.389  1.00  0.00     0.053 C 
BRANCH  11  12
ATOM     12  C   UNL     1      35.331  46.882  26.155  1.00  0.00     0.041 C 
ATOM     13  O   UNL     1      36.391  46.799  26.830  1.00  0.00    -0.550 OA
ATOM     14  O   UNL     1      34.426  45.828  26.164  1.00  0.00    -0.550 OA
ENDBRANCH  11  12
ENDBRANCH  10  11
ENDBRANCH   9  10
ENDBRANCH   8   9
ENDBRANCH   1   8
TORSDOF 9
ENDMDL
MODEL 7
REMARK VINA RESULT:    -3.527      2.279      5.566
REMARK INTER + INTRA:          -6.193
REMARK INTER:                  -5.621
REMARK INTRA:                  -0.571
REMARK UNBOUND:                -0.810
REMARK SMILES O=C([O-])CCCCCCCCC(=O)[O-]
REMARK SMILES IDX 7 1 6 2 5 3 4 4 2 5 1 6 3 7 8 8 9 9 10 10 11 11 12 12 13 13
REMARK SMILES IDX 14 14
REMARK H PARENT
REMARK Flexibility Score: inf
ROOT
ATOM      1  C   UNL     1      33.492  51.197  27.038  1.00  0.00     0.000 C 
ENDROOT
BRANCH   1   2
ATOM      2  C   UNL     1      34.585  50.315  26.416  1.00  0.00     0.000 C 
BRANCH   2   3
ATOM      3  C   UNL     1      34.466  48.865  26.909  1.00  0.00     0.006 C 
BRANCH   3   4
ATOM      4  C   UNL     1      34.804  47.848  25.812  1.00  0.00     0.053 C 
BRANCH   4   5
ATOM      5  C   UNL     1      33.572  47.343  25.124  1.00  0.00     0.041 C 
ATOM      6  O   UNL     1      32.882  48.118  24.412  1.00  0.00    -0.550 OA
ATOM      7  O   UNL     1      33.169  46.026  25.299  1.00  0.00    -0.550 OA
ENDBRANCH   4   5
ENDBRANCH   3   4
ENDBRANCH   2   3
ENDBRANCH   1   2
BRANCH   1   8
ATOM      8  C   UNL     1      33.223  52.474  26.225  1.00  0.00     0.000 C 
BRANCH   8   9
ATOM      9  C   UNL     1      31.801  53.021  26.435  1.00  0.00     0.000 C 
BRANCH   9  10
ATOM     10  C   UNL     1      31.002  53.108  25.125  1.00  0.00     0.006 C 
BRANCH  10  11
ATOM     11  C   UNL     1      30.989  51.783  24.351  1.00  0.00     0.053 C 
BRANCH  11  12
ATOM     12  C   UNL     1      30.045  50.814  24.990  1.00  0.00     0.041 C 
ATOM     13  O   UNL     1      30.487  49.876  25.705  1.00  0.00    -0.550 OA
ATOM     14  O   UNL     1      28.674  50.977  24.839  1.00  0.00    -0.550 OA
ENDBRANCH  11  12
ENDBRANCH  10  11
ENDBRANCH   9  10
ENDBRANCH   8   9
ENDBRANCH   1   8
TORSDOF 9
ENDMDL
MODEL 8
REMARK VINA RESULT:    -3.507      2.913      4.511
REMARK INTER + INTRA:          -6.162
REMARK INTER:                  -5.425
REMARK INTRA:                  -0.737
REMARK UNBOUND:                -0.810
REMARK SMILES O=C([O-])CCCCCCCCC(=O)[O-]
REMARK SMILES IDX 7 1 6 2 5 3 4 4 2 5 1 6 3 7 8 8 9 9 10 10 11 11 12 12 13 13
REMARK SMILES IDX 14 14
REMARK H PARENT
REMARK Flexibility Score: inf
ROOT
ATOM      1  C   UNL     1      33.709  48.355  24.826  1.00  0.00     0.000 C 
ENDROOT
BRANCH   1   2
ATOM      2  C   UNL     1      32.669  48.787  25.870  1.00  0.00     0.000 C 
BRANCH   2   3
ATOM      3  C   UNL     1      32.341  50.281  25.733  1.00  0.00     0.006 C 
BRANCH   3   4
ATOM      4  C   UNL     1      30.850  50.571  25.948  1.00  0.00     0.053 C 
BRANCH   4   5
ATOM      5  C   UNL     1      30.135  50.793  24.650  1.00  0.00     0.041 C 
ATOM      6  O   UNL     1      30.781  50.845  23.571  1.00  0.00    -0.550 OA
ATOM      7  O   UNL     1      28.758  50.974  24.638  1.00  0.00    -0.550 OA
ENDBRANCH   4   5
ENDBRANCH   3   4
ENDBRANCH   2   3
ENDBRANCH   1   2
BRANCH   1   8
ATOM      8  C   UNL     1      35.029  47.886  25.458  1.00  0.00     0.000 C 
BRANCH   8   9
ATOM      9  C   UNL     1      34.811  47.067  26.743  1.00  0.00     0.000 C 
BRANCH   9  10
ATOM     10  C   UNL     1      35.000  45.559  26.520  1.00  0.00     0.006 C 
BRANCH  10  11
ATOM     11  C   UNL     1      33.823  44.730  27.052  1.00  0.00     0.053 C 
BRANCH  11  12
ATOM     12  C   UNL     1      32.585  45.013  26.260  1.00  0.00     0.041 C 
ATOM     13  O   UNL     1      31.515  45.325  26.845  1.00  0.00    -0.550 OA
ATOM     14  O   UNL     1      32.627  44.983  24.872  1.00  0.00    -0.550 OA
ENDBRANCH  11  12
ENDBRANCH  10  11
ENDBRANCH   9  10
ENDBRANCH   8   9
ENDBRANCH   1   8
TORSDOF 9
ENDMDL
MODEL 9
REMARK VINA RESULT:    -3.484      1.909      5.904
REMARK INTER + INTRA:          -6.127
REMARK INTER:                  -5.431
REMARK INTRA:                  -0.697
REMARK UNBOUND:                -0.810
REMARK SMILES O=C([O-])CCCCCCCCC(=O)[O-]
REMARK SMILES IDX 7 1 6 2 5 3 4 4 2 5 1 6 3 7 8 8 9 9 10 10 11 11 12 12 13 13
REMARK SMILES IDX 14 14
REMARK H PARENT
REMARK Flexibility Score: inf
ROOT
ATOM      1  C   UNL     1      33.299  50.198  26.463  1.00  0.00     0.000 C 
ENDROOT
BRANCH   1   2
ATOM      2  C   UNL     1      34.651  49.498  26.264  1.00  0.00     0.000 C 
BRANCH   2   3
ATOM      3  C   UNL     1      34.523  48.328  25.277  1.00  0.00     0.006 C 
BRANCH   3   4
ATOM      4  C   UNL     1      34.518  46.967  25.985  1.00  0.00     0.053 C 
BRANCH   4   5
ATOM      5  C   UNL     1      33.156  46.342  25.977  1.00  0.00     0.041 C 
ATOM      6  O   UNL     1      32.292  46.695  26.821  1.00  0.00    -0.550 OA
ATOM      7  O   UNL     1      32.854  45.346  25.058  1.00  0.00    -0.550 OA
ENDBRANCH   4   5
ENDBRANCH   3   4
ENDBRANCH   2   3
ENDBRANCH   1   2
BRANCH   1   8
ATOM      8  C   UNL     1      32.306  49.910  25.325  1.00  0.00     0.000 C 
BRANCH   8   9
ATOM      9  C   UNL     1      30.847  49.867  25.809  1.00  0.00     0.000 C 
BRANCH   9  10
ATOM     10  C   UNL     1      30.016  51.049  25.285  1.00  0.00     0.006 C 
BRANCH  10  11
ATOM     11  C   UNL     1      30.792  51.924  24.292  1.00  0.00     0.053 C 
BRANCH  11  12
ATOM     12  C   UNL     1      31.119  53.248  24.909  1.00  0.00     0.041 C 
ATOM     13  O   UNL     1      31.082  53.392  26.159  1.00  0.00    -0.550 OA
ATOM     14  O   UNL     1      31.516  54.309  24.105  1.00  0.00    -0.550 OA
ENDBRANCH  11  12
ENDBRANCH  10  11
ENDBRANCH   9  10
ENDBRANCH   8   9
ENDBRANCH   1   8
TORSDOF 9
ENDMDL
