MODEL 1
REMARK VINA RESULT:    -6.813      0.000      0.000
REMARK INTER + INTRA:         -11.634
REMARK INTER:                 -10.596
REMARK INTRA:                  -1.038
REMARK UNBOUND:                -1.038
REMARK SMILES COc1cc(CNC(=O)CCCCC=CC(C)C)ccc1O
REMARK SMILES IDX 11 1 12 2 13 3 14 4 15 5 16 6 17 7 18 8 10 9 8 10 9 11 7 12
REMARK SMILES IDX 6 14 5 15 4 16 19 17 3 18 20 19 21 20 2 21 1 22 22 23
REMARK H PARENT 7 13 22 24
REMARK Flexibility Score: inf
ROOT
ATOM      1  C   UNL     1      44.627  46.669  45.919  1.00  0.00     0.010 C 
ENDROOT
BRANCH   1   2
ATOM      2  C   UNL     1      43.882  45.949  44.783  1.00  0.00     0.005 C 
BRANCH   2   3
ATOM      3  C   UNL     1      44.832  45.177  43.857  1.00  0.00     0.027 C 
BRANCH   3   4
ATOM      4  C   UNL     1      44.308  45.161  42.448  1.00  0.00    -0.031 C 
ATOM      5  C   UNL     1      43.041  45.518  42.169  1.00  0.00    -0.028 C 
BRANCH   5   6
ATOM      6  C   UNL     1      42.481  45.525  40.764  1.00  0.00     0.005 C 
ATOM      7  C   UNL     1      43.497  44.979  39.753  1.00  0.00     0.012 C 
ATOM      8  C   UNL     1      41.155  44.759  40.690  1.00  0.00     0.012 C 
ENDBRANCH   5   6
ENDBRANCH   3   4
ENDBRANCH   2   3
ENDBRANCH   1   2
BRANCH   1   9
ATOM      9  C   UNL     1      43.923  46.509  47.273  1.00  0.00     0.100 C 
BRANCH   9  10
ATOM     10  C   UNL     1      44.736  45.633  48.176  1.00  0.00     0.220 C 
ATOM     11  O   UNL     1      44.189  45.098  49.179  1.00  0.00    -0.275 OA
ATOM     12  N   UNL     1      46.111  45.362  47.866  1.00  0.00    -0.352 N 
ATOM     13  H   UNL     1      46.544  45.833  47.041  1.00  0.00     0.163 HD
BRANCH  12  14
ATOM     14  C   UNL     1      46.856  44.282  48.508  1.00  0.00     0.151 C 
BRANCH  14  15
ATOM     15  C   UNL     1      47.313  43.296  47.469  1.00  0.00    -0.025 A 
ATOM     16  C   UNL     1      48.629  42.804  47.482  1.00  0.00     0.056 A 
ATOM     17  C   UNL     1      46.400  42.798  46.528  1.00  0.00     0.009 A 
ATOM     18  C   UNL     1      49.038  41.829  46.547  1.00  0.00     0.160 A 
ATOM     19  C   UNL     1      46.802  41.840  45.595  1.00  0.00     0.050 A 
ATOM     20  C   UNL     1      48.117  41.355  45.601  1.00  0.00     0.157 A 
BRANCH  18  21
ATOM     21  O   UNL     1      50.341  41.309  46.530  1.00  0.00    -0.493 OA
ATOM     22  C   UNL     1      51.403  41.768  47.361  1.00  0.00     0.278 C 
ENDBRANCH  18  21
BRANCH  20  23
ATOM     23  O   UNL     1      48.516  40.398  44.670  1.00  0.00    -0.504 OA
ATOM     24  H   UNL     1      47.845  39.773  44.234  1.00  0.00     0.293 HD
ENDBRANCH  20  23
ENDBRANCH  14  15
ENDBRANCH  12  14
ENDBRANCH   9  10
ENDBRANCH   1   9
TORSDOF 10
ENDMDL
MODEL 2
REMARK VINA RESULT:    -6.729      3.575      8.104
REMARK INTER + INTRA:         -11.504
REMARK INTER:                 -10.763
REMARK INTRA:                  -0.741
REMARK UNBOUND:                -1.038
REMARK SMILES COc1cc(CNC(=O)CCCCC=CC(C)C)ccc1O
REMARK SMILES IDX 11 1 12 2 13 3 14 4 15 5 16 6 17 7 18 8 10 9 8 10 9 11 7 12
REMARK SMILES IDX 6 14 5 15 4 16 19 17 3 18 20 19 21 20 2 21 1 22 22 23
REMARK H PARENT 7 13 22 24
REMARK Flexibility Score: inf
ROOT
ATOM      1  C   UNL     1      48.152  40.515  45.149  1.00  0.00     0.010 C 
ENDROOT
BRANCH   1   2
ATOM      2  C   UNL     1      48.636  39.058  45.211  1.00  0.00     0.005 C 
BRANCH   2   3
ATOM      3  C   UNL     1      49.003  38.622  46.636  1.00  0.00     0.027 C 
BRANCH   3   4
ATOM      4  C   UNL     1      49.121  37.125  46.723  1.00  0.00    -0.031 C 
ATOM      5  C   UNL     1      48.305  36.318  46.021  1.00  0.00    -0.028 C 
BRANCH   5   6
ATOM      6  C   UNL     1      48.399  34.810  46.074  1.00  0.00     0.005 C 
ATOM      7  C   UNL     1      47.326  34.213  46.995  1.00  0.00     0.012 C 
ATOM      8  C   UNL     1      48.331  34.198  44.670  1.00  0.00     0.012 C 
ENDBRANCH   5   6
ENDBRANCH   3   4
ENDBRANCH   2   3
ENDBRANCH   1   2
BRANCH   1   9
ATOM      9  C   UNL     1      47.126  40.838  46.244  1.00  0.00     0.100 C 
BRANCH   9  10
ATOM     10  C   UNL     1      47.578  42.021  47.042  1.00  0.00     0.220 C 
ATOM     11  O   UNL     1      48.808  42.292  47.107  1.00  0.00    -0.275 OA
ATOM     12  N   UNL     1      46.612  42.870  47.678  1.00  0.00    -0.352 N 
ATOM     13  H   UNL     1      45.602  42.612  47.624  1.00  0.00     0.163 HD
BRANCH  12  14
ATOM     14  C   UNL     1      46.955  44.195  48.189  1.00  0.00     0.151 C 
BRANCH  14  15
ATOM     15  C   UNL     1      46.122  45.236  47.493  1.00  0.00    -0.025 A 
ATOM     16  C   UNL     1      45.550  44.969  46.238  1.00  0.00     0.056 A 
ATOM     17  C   UNL     1      45.844  46.452  48.133  1.00  0.00     0.009 A 
ATOM     18  C   UNL     1      44.714  45.921  45.615  1.00  0.00     0.160 A 
ATOM     19  C   UNL     1      45.024  47.400  47.518  1.00  0.00     0.050 A 
ATOM     20  C   UNL     1      44.461  47.140  46.262  1.00  0.00     0.157 A 
BRANCH  18  21
ATOM     21  O   UNL     1      44.120  45.691  44.366  1.00  0.00    -0.493 OA
ATOM     22  C   UNL     1      44.769  45.055  43.269  1.00  0.00     0.278 C 
ENDBRANCH  18  21
BRANCH  20  23
ATOM     23  O   UNL     1      43.642  48.088  45.650  1.00  0.00    -0.504 OA
ATOM     24  H   UNL     1      42.656  48.163  45.880  1.00  0.00     0.293 HD
ENDBRANCH  20  23
ENDBRANCH  14  15
ENDBRANCH  12  14
ENDBRANCH   9  10
ENDBRANCH   1   9
TORSDOF 10
ENDMDL
MODEL 3
REMARK VINA RESULT:    -6.676      2.533      6.643
REMARK INTER + INTRA:         -11.421
REMARK INTER:                 -10.333
REMARK INTRA:                  -1.088
REMARK UNBOUND:                -1.038
REMARK SMILES COc1cc(CNC(=O)CCCCC=CC(C)C)ccc1O
REMARK SMILES IDX 11 1 12 2 13 3 14 4 15 5 16 6 17 7 18 8 10 9 8 10 9 11 7 12
REMARK SMILES IDX 6 14 5 15 4 16 19 17 3 18 20 19 21 20 2 21 1 22 22 23
REMARK H PARENT 7 13 22 24
REMARK Flexibility Score: inf
ROOT
ATOM      1  C   UNL     1      46.009  44.464  49.294  1.00  0.00     0.010 C 
ENDROOT
BRANCH   1   2
ATOM      2  C   UNL     1      47.159  43.727  48.592  1.00  0.00     0.005 C 
BRANCH   2   3
ATOM      3  C   UNL     1      46.675  42.872  47.413  1.00  0.00     0.027 C 
BRANCH   3   4
ATOM      4  C   UNL     1      47.694  41.825  47.058  1.00  0.00    -0.031 C 
ATOM      5  C   UNL     1      47.377  40.779  46.272  1.00  0.00    -0.028 C 
BRANCH   5   6
ATOM      6  C   UNL     1      48.376  39.712  45.884  1.00  0.00     0.005 C 
ATOM      7  C   UNL     1      48.702  39.767  44.387  1.00  0.00     0.012 C 
ATOM      8  C   UNL     1      49.648  39.805  46.735  1.00  0.00     0.012 C 
ENDBRANCH   5   6
ENDBRANCH   3   4
ENDBRANCH   2   3
ENDBRANCH   1   2
BRANCH   1   9
ATOM      9  C   UNL     1      46.288  45.964  49.459  1.00  0.00     0.100 C 
BRANCH   9  10
ATOM     10  C   UNL     1      45.402  46.756  48.548  1.00  0.00     0.220 C 
ATOM     11  O   UNL     1      45.624  47.986  48.381  1.00  0.00    -0.275 OA
ATOM     12  N   UNL     1      44.343  46.105  47.830  1.00  0.00    -0.352 N 
ATOM     13  H   UNL     1      44.169  45.090  48.002  1.00  0.00     0.163 HD
BRANCH  12  14
ATOM     14  C   UNL     1      43.662  46.737  46.704  1.00  0.00     0.151 C 
BRANCH  14  15
ATOM     15  C   UNL     1      44.046  46.043  45.427  1.00  0.00    -0.025 A 
ATOM     16  C   UNL     1      43.206  46.101  44.302  1.00  0.00     0.056 A 
ATOM     17  C   UNL     1      45.289  45.400  45.326  1.00  0.00     0.009 A 
ATOM     18  C   UNL     1      43.598  45.506  43.084  1.00  0.00     0.160 A 
ATOM     19  C   UNL     1      45.678  44.802  44.126  1.00  0.00     0.050 A 
ATOM     20  C   UNL     1      44.836  44.851  43.006  1.00  0.00     0.157 A 
BRANCH  18  21
ATOM     21  O   UNL     1      42.791  45.547  41.937  1.00  0.00    -0.493 OA
ATOM     22  C   UNL     1      41.468  45.022  41.863  1.00  0.00     0.278 C 
ENDBRANCH  18  21
BRANCH  20  23
ATOM     23  O   UNL     1      45.227  44.255  41.808  1.00  0.00    -0.504 OA
ATOM     24  H   UNL     1      44.570  44.114  41.048  1.00  0.00     0.293 HD
ENDBRANCH  20  23
ENDBRANCH  14  15
ENDBRANCH  12  14
ENDBRANCH   9  10
ENDBRANCH   1   9
TORSDOF 10
ENDMDL
MODEL 4
REMARK VINA RESULT:    -6.535      3.603      8.405
REMARK INTER + INTRA:         -11.202
REMARK INTER:                 -10.528
REMARK INTRA:                  -0.673
REMARK UNBOUND:                -1.038
REMARK SMILES COc1cc(CNC(=O)CCCCC=CC(C)C)ccc1O
REMARK SMILES IDX 11 1 12 2 13 3 14 4 15 5 16 6 17 7 18 8 10 9 8 10 9 11 7 12
REMARK SMILES IDX 6 14 5 15 4 16 19 17 3 18 20 19 21 20 2 21 1 22 22 23
REMARK H PARENT 7 13 22 24
REMARK Flexibility Score: inf
ROOT
ATOM      1  C   UNL     1      47.881  39.773  45.834  1.00  0.00     0.010 C 
ENDROOT
BRANCH   1   2
ATOM      2  C   UNL     1      48.382  38.814  46.925  1.00  0.00     0.005 C 
BRANCH   2   3
ATOM      3  C   UNL     1      49.385  37.785  46.387  1.00  0.00     0.027 C 
BRANCH   3   4
ATOM      4  C   UNL     1      48.798  36.401  46.412  1.00  0.00    -0.031 C 
ATOM      5  C   UNL     1      48.284  35.880  47.542  1.00  0.00    -0.028 C 
BRANCH   5   6
ATOM      6  C   UNL     1      47.676  34.498  47.605  1.00  0.00     0.005 C 
ATOM      7  C   UNL     1      46.318  34.515  48.318  1.00  0.00     0.012 C 
ATOM      8  C   UNL     1      47.564  33.875  46.208  1.00  0.00     0.012 C 
ENDBRANCH   5   6
ENDBRANCH   3   4
ENDBRANCH   2   3
ENDBRANCH   1   2
BRANCH   1   9
ATOM      9  C   UNL     1      48.917  40.849  45.480  1.00  0.00     0.100 C 
BRANCH   9  10
ATOM     10  C   UNL     1      49.109  41.779  46.638  1.00  0.00     0.220 C 
ATOM     11  O   UNL     1      50.272  41.996  47.073  1.00  0.00    -0.275 OA
ATOM     12  N   UNL     1      47.981  42.460  47.207  1.00  0.00    -0.352 N 
ATOM     13  H   UNL     1      47.027  42.248  46.840  1.00  0.00     0.163 HD
BRANCH  12  14
ATOM     14  C   UNL     1      48.132  43.603  48.104  1.00  0.00     0.151 C 
BRANCH  14  15
ATOM     15  C   UNL     1      46.789  44.231  48.352  1.00  0.00    -0.025 A 
ATOM     16  C   UNL     1      46.117  44.909  47.321  1.00  0.00     0.056 A 
ATOM     17  C   UNL     1      46.161  44.072  49.596  1.00  0.00     0.009 A 
ATOM     18  C   UNL     1      44.827  45.441  47.536  1.00  0.00     0.160 A 
ATOM     19  C   UNL     1      44.889  44.603  49.817  1.00  0.00     0.050 A 
ATOM     20  C   UNL     1      44.221  45.288  48.792  1.00  0.00     0.157 A 
BRANCH  18  21
ATOM     21  O   UNL     1      44.121  46.119  46.531  1.00  0.00    -0.493 OA
ATOM     22  C   UNL     1      44.534  46.201  45.171  1.00  0.00     0.278 C 
ENDBRANCH  18  21
BRANCH  20  23
ATOM     23  O   UNL     1      42.951  45.817  49.014  1.00  0.00    -0.504 OA
ATOM     24  H   UNL     1      42.771  46.457  49.780  1.00  0.00     0.293 HD
ENDBRANCH  20  23
ENDBRANCH  14  15
ENDBRANCH  12  14
ENDBRANCH   9  10
ENDBRANCH   1   9
TORSDOF 10
ENDMDL
MODEL 5
REMARK VINA RESULT:    -6.339      1.256      2.153
REMARK INTER + INTRA:         -10.897
REMARK INTER:                 -10.211
REMARK INTRA:                  -0.687
REMARK UNBOUND:                -1.038
REMARK SMILES COc1cc(CNC(=O)CCCCC=CC(C)C)ccc1O
REMARK SMILES IDX 11 1 12 2 13 3 14 4 15 5 16 6 17 7 18 8 10 9 8 10 9 11 7 12
REMARK SMILES IDX 6 14 5 15 4 16 19 17 3 18 20 19 21 20 2 21 1 22 22 23
REMARK H PARENT 7 13 22 24
REMARK Flexibility Score: inf
ROOT
ATOM      1  C   UNL     1      43.503  46.290  45.624  1.00  0.00     0.010 C 
ENDROOT
BRANCH   1   2
ATOM      2  C   UNL     1      43.177  45.926  44.167  1.00  0.00     0.005 C 
BRANCH   2   3
ATOM      3  C   UNL     1      44.427  45.532  43.368  1.00  0.00     0.027 C 
BRANCH   3   4
ATOM      4  C   UNL     1      44.095  45.350  41.912  1.00  0.00    -0.031 C 
ATOM      5  C   UNL     1      42.829  45.145  41.505  1.00  0.00    -0.028 C 
BRANCH   5   6
ATOM      6  C   UNL     1      42.454  44.968  40.051  1.00  0.00     0.005 C 
ATOM      7  C   UNL     1      41.562  46.114  39.558  1.00  0.00     0.012 C 
ATOM      8  C   UNL     1      43.699  44.813  39.170  1.00  0.00     0.012 C 
ENDBRANCH   5   6
ENDBRANCH   3   4
ENDBRANCH   2   3
ENDBRANCH   1   2
BRANCH   1   9
ATOM      9  C   UNL     1      44.916  46.868  45.781  1.00  0.00     0.100 C 
BRANCH   9  10
ATOM     10  C   UNL     1      45.682  46.086  46.802  1.00  0.00     0.220 C 
ATOM     11  O   UNL     1      46.384  46.697  47.653  1.00  0.00    -0.275 OA
ATOM     12  N   UNL     1      45.572  44.655  46.842  1.00  0.00    -0.352 N 
ATOM     13  H   UNL     1      45.000  44.174  46.113  1.00  0.00     0.163 HD
BRANCH  12  14
ATOM     14  C   UNL     1      46.025  43.871  47.988  1.00  0.00     0.151 C 
BRANCH  14  15
ATOM     15  C   UNL     1      47.230  43.059  47.600  1.00  0.00    -0.025 A 
ATOM     16  C   UNL     1      47.087  41.898  46.822  1.00  0.00     0.056 A 
ATOM     17  C   UNL     1      48.514  43.504  47.945  1.00  0.00     0.009 A 
ATOM     18  C   UNL     1      48.223  41.173  46.402  1.00  0.00     0.160 A 
ATOM     19  C   UNL     1      49.641  42.786  47.540  1.00  0.00     0.050 A 
ATOM     20  C   UNL     1      49.500  41.622  46.772  1.00  0.00     0.157 A 
BRANCH  18  21
ATOM     21  O   UNL     1      48.123  40.013  45.620  1.00  0.00    -0.493 OA
ATOM     22  C   UNL     1      48.494  39.932  44.247  1.00  0.00     0.278 C 
ENDBRANCH  18  21
BRANCH  20  23
ATOM     23  O   UNL     1      50.626  40.908  46.367  1.00  0.00    -0.504 OA
ATOM     24  H   UNL     1      50.579  40.229  45.615  1.00  0.00     0.293 HD
ENDBRANCH  20  23
ENDBRANCH  14  15
ENDBRANCH  12  14
ENDBRANCH   9  10
ENDBRANCH   1   9
TORSDOF 10
ENDMDL
MODEL 6
REMARK VINA RESULT:    -6.176      2.684      6.976
REMARK INTER + INTRA:         -10.644
REMARK INTER:                  -9.261
REMARK INTRA:                  -1.383
REMARK UNBOUND:                -1.038
REMARK SMILES COc1cc(CNC(=O)CCCCC=CC(C)C)ccc1O
REMARK SMILES IDX 11 1 12 2 13 3 14 4 15 5 16 6 17 7 18 8 10 9 8 10 9 11 7 12
REMARK SMILES IDX 6 14 5 15 4 16 19 17 3 18 20 19 21 20 2 21 1 22 22 23
REMARK H PARENT 7 13 22 24
REMARK Flexibility Score: inf
ROOT
ATOM      1  C   UNL     1      52.194  43.507  45.091  1.00  0.00     0.010 C 
ENDROOT
BRANCH   1   2
ATOM      2  C   UNL     1      51.658  42.436  44.128  1.00  0.00     0.005 C 
BRANCH   2   3
ATOM      3  C   UNL     1      51.934  41.010  44.624  1.00  0.00     0.027 C 
BRANCH   3   4
ATOM      4  C   UNL     1      50.674  40.368  45.135  1.00  0.00    -0.031 C 
ATOM      5  C   UNL     1      49.465  40.730  44.666  1.00  0.00    -0.028 C 
BRANCH   5   6
ATOM      6  C   UNL     1      48.178  40.101  45.147  1.00  0.00     0.005 C 
ATOM      7  C   UNL     1      48.325  39.536  46.565  1.00  0.00     0.012 C 
ATOM      8  C   UNL     1      47.009  41.090  45.060  1.00  0.00     0.012 C 
ENDBRANCH   5   6
ENDBRANCH   3   4
ENDBRANCH   2   3
ENDBRANCH   1   2
BRANCH   1   9
ATOM      9  C   UNL     1      51.073  44.351  45.711  1.00  0.00     0.100 C 
BRANCH   9  10
ATOM     10  C   UNL     1      50.351  43.561  46.758  1.00  0.00     0.220 C 
ATOM     11  O   UNL     1      51.013  42.939  47.632  1.00  0.00    -0.275 OA
ATOM     12  N   UNL     1      48.916  43.561  46.796  1.00  0.00    -0.352 N 
ATOM     13  H   UNL     1      48.393  44.069  46.048  1.00  0.00     0.163 HD
BRANCH  12  14
ATOM     14  C   UNL     1      48.168  43.088  47.958  1.00  0.00     0.151 C 
BRANCH  14  15
ATOM     15  C   UNL     1      46.933  43.928  48.139  1.00  0.00    -0.025 A 
ATOM     16  C   UNL     1      46.335  44.562  47.038  1.00  0.00     0.056 A 
ATOM     17  C   UNL     1      46.325  44.014  49.399  1.00  0.00     0.009 A 
ATOM     18  C   UNL     1      45.139  45.295  47.197  1.00  0.00     0.160 A 
ATOM     19  C   UNL     1      45.146  44.744  49.564  1.00  0.00     0.050 A 
ATOM     20  C   UNL     1      44.553  45.386  48.469  1.00  0.00     0.157 A 
BRANCH  18  21
ATOM     21  O   UNL     1      44.507  45.939  46.123  1.00  0.00    -0.493 OA
ATOM     22  C   UNL     1      44.782  45.675  44.751  1.00  0.00     0.278 C 
ENDBRANCH  18  21
BRANCH  20  23
ATOM     23  O   UNL     1      43.376  46.114  48.636  1.00  0.00    -0.504 OA
ATOM     24  H   UNL     1      43.222  46.688  49.459  1.00  0.00     0.293 HD
ENDBRANCH  20  23
ENDBRANCH  14  15
ENDBRANCH  12  14
ENDBRANCH   9  10
ENDBRANCH   1   9
TORSDOF 10
ENDMDL
MODEL 7
REMARK VINA RESULT:    -6.094      2.354      7.382
REMARK INTER + INTRA:         -10.517
REMARK INTER:                  -9.611
REMARK INTRA:                  -0.906
REMARK UNBOUND:                -1.038
REMARK SMILES COc1cc(CNC(=O)CCCCC=CC(C)C)ccc1O
REMARK SMILES IDX 11 1 12 2 13 3 14 4 15 5 16 6 17 7 18 8 10 9 8 10 9 11 7 12
REMARK SMILES IDX 6 14 5 15 4 16 19 17 3 18 20 19 21 20 2 21 1 22 22 23
REMARK H PARENT 7 13 22 24
REMARK Flexibility Score: inf
ROOT
ATOM      1  C   UNL     1      48.206  39.864  46.456  1.00  0.00     0.010 C 
ENDROOT
BRANCH   1   2
ATOM      2  C   UNL     1      48.953  39.209  45.284  1.00  0.00     0.005 C 
BRANCH   2   3
ATOM      3  C   UNL     1      49.531  40.242  44.307  1.00  0.00     0.027 C 
BRANCH   3   4
ATOM      4  C   UNL     1      50.759  40.892  44.881  1.00  0.00    -0.031 C 
ATOM      5  C   UNL     1      50.897  42.231  44.900  1.00  0.00    -0.028 C 
BRANCH   5   6
ATOM      6  C   UNL     1      52.111  42.922  45.478  1.00  0.00     0.005 C 
ATOM      7  C   UNL     1      53.248  41.928  45.746  1.00  0.00     0.012 C 
ATOM      8  C   UNL     1      52.577  44.073  44.578  1.00  0.00     0.012 C 
ENDBRANCH   5   6
ENDBRANCH   3   4
ENDBRANCH   2   3
ENDBRANCH   1   2
BRANCH   1   9
ATOM      9  C   UNL     1      47.463  41.139  46.038  1.00  0.00     0.100 C 
BRANCH   9  10
ATOM     10  C   UNL     1      47.575  42.177  47.110  1.00  0.00     0.220 C 
ATOM     11  O   UNL     1      48.714  42.602  47.447  1.00  0.00    -0.275 OA
ATOM     12  N   UNL     1      46.390  42.722  47.709  1.00  0.00    -0.352 N 
ATOM     13  H   UNL     1      45.460  42.339  47.426  1.00  0.00     0.163 HD
BRANCH  12  14
ATOM     14  C   UNL     1      46.413  43.943  48.511  1.00  0.00     0.151 C 
BRANCH  14  15
ATOM     15  C   UNL     1      45.737  45.055  47.759  1.00  0.00    -0.025 A 
ATOM     16  C   UNL     1      45.697  45.044  46.354  1.00  0.00     0.056 A 
ATOM     17  C   UNL     1      45.070  46.070  48.459  1.00  0.00     0.009 A 
ATOM     18  C   UNL     1      45.006  46.053  45.650  1.00  0.00     0.160 A 
ATOM     19  C   UNL     1      44.391  47.075  47.768  1.00  0.00     0.050 A 
ATOM     20  C   UNL     1      44.359  47.071  46.366  1.00  0.00     0.157 A 
BRANCH  18  21
ATOM     21  O   UNL     1      44.938  46.075  44.249  1.00  0.00    -0.493 OA
ATOM     22  C   UNL     1      44.798  44.918  43.430  1.00  0.00     0.278 C 
ENDBRANCH  18  21
BRANCH  20  23
ATOM     23  O   UNL     1      43.680  48.075  45.678  1.00  0.00    -0.504 OA
ATOM     24  H   UNL     1      43.193  48.818  46.170  1.00  0.00     0.293 HD
ENDBRANCH  20  23
ENDBRANCH  14  15
ENDBRANCH  12  14
ENDBRANCH   9  10
ENDBRANCH   1   9
TORSDOF 10
ENDMDL
MODEL 8
REMARK VINA RESULT:    -6.057     11.075     13.830
REMARK INTER + INTRA:         -10.458
REMARK INTER:                  -9.677
REMARK INTRA:                  -0.781
REMARK UNBOUND:                -1.038
REMARK SMILES COc1cc(CNC(=O)CCCCC=CC(C)C)ccc1O
REMARK SMILES IDX 11 1 12 2 13 3 14 4 15 5 16 6 17 7 18 8 10 9 8 10 9 11 7 12
REMARK SMILES IDX 6 14 5 15 4 16 19 17 3 18 20 19 21 20 2 21 1 22 22 23
REMARK H PARENT 7 13 22 24
REMARK Flexibility Score: inf
ROOT
ATOM      1  C   UNL     1      50.887  49.857  35.364  1.00  0.00     0.010 C 
ENDROOT
BRANCH   1   2
ATOM      2  C   UNL     1      50.409  51.307  35.197  1.00  0.00     0.005 C 
BRANCH   2   3
ATOM      3  C   UNL     1      50.717  51.869  33.802  1.00  0.00     0.027 C 
BRANCH   3   4
ATOM      4  C   UNL     1      52.199  51.889  33.549  1.00  0.00    -0.031 C 
ATOM      5  C   UNL     1      52.724  51.361  32.427  1.00  0.00    -0.028 C 
BRANCH   5   6
ATOM      6  C   UNL     1      54.206  51.371  32.132  1.00  0.00     0.005 C 
ATOM      7  C   UNL     1      55.005  51.980  33.291  1.00  0.00     0.012 C 
ATOM      8  C   UNL     1      54.714  49.967  31.783  1.00  0.00     0.012 C 
ENDBRANCH   5   6
ENDBRANCH   3   4
ENDBRANCH   2   3
ENDBRANCH   1   2
BRANCH   1   9
ATOM      9  C   UNL     1      49.885  48.842  34.797  1.00  0.00     0.100 C 
BRANCH   9  10
ATOM     10  C   UNL     1      49.822  47.633  35.678  1.00  0.00     0.220 C 
ATOM     11  O   UNL     1      49.116  47.662  36.722  1.00  0.00    -0.275 OA
ATOM     12  N   UNL     1      50.516  46.434  35.304  1.00  0.00    -0.352 N 
ATOM     13  H   UNL     1      51.109  46.443  34.444  1.00  0.00     0.163 HD
BRANCH  12  14
ATOM     14  C   UNL     1      50.241  45.145  35.934  1.00  0.00     0.151 C 
BRANCH  14  15
ATOM     15  C   UNL     1      49.290  44.356  35.076  1.00  0.00    -0.025 A 
ATOM     16  C   UNL     1      49.126  44.672  33.717  1.00  0.00     0.056 A 
ATOM     17  C   UNL     1      48.622  43.245  35.612  1.00  0.00     0.009 A 
ATOM     18  C   UNL     1      48.284  43.890  32.897  1.00  0.00     0.160 A 
ATOM     19  C   UNL     1      47.782  42.473  34.807  1.00  0.00     0.050 A 
ATOM     20  C   UNL     1      47.609  42.793  33.454  1.00  0.00     0.157 A 
BRANCH  18  21
ATOM     21  O   UNL     1      48.097  44.169  31.535  1.00  0.00    -0.493 OA
ATOM     22  C   UNL     1      49.033  43.845  30.511  1.00  0.00     0.278 C 
ENDBRANCH  18  21
BRANCH  20  23
ATOM     23  O   UNL     1      46.771  42.020  32.652  1.00  0.00    -0.504 OA
ATOM     24  H   UNL     1      46.775  41.007  32.705  1.00  0.00     0.293 HD
ENDBRANCH  20  23
ENDBRANCH  14  15
ENDBRANCH  12  14
ENDBRANCH   9  10
ENDBRANCH   1   9
TORSDOF 10
ENDMDL
MODEL 9
REMARK VINA RESULT:    -5.961     11.260     13.949
REMARK INTER + INTRA:         -10.309
REMARK INTER:                  -9.162
REMARK INTRA:                  -1.146
REMARK UNBOUND:                -1.038
REMARK SMILES COc1cc(CNC(=O)CCCCC=CC(C)C)ccc1O
REMARK SMILES IDX 11 1 12 2 13 3 14 4 15 5 16 6 17 7 18 8 10 9 8 10 9 11 7 12
REMARK SMILES IDX 6 14 5 15 4 16 19 17 3 18 20 19 21 20 2 21 1 22 22 23
REMARK H PARENT 7 13 22 24
REMARK Flexibility Score: inf
ROOT
ATOM      1  C   UNL     1      50.364  45.890  36.892  1.00  0.00     0.010 C 
ENDROOT
BRANCH   1   2
ATOM      2  C   UNL     1      49.036  45.763  36.130  1.00  0.00     0.005 C 
BRANCH   2   3
ATOM      3  C   UNL     1      49.105  46.374  34.724  1.00  0.00     0.027 C 
BRANCH   3   4
ATOM      4  C   UNL     1      48.462  45.466  33.713  1.00  0.00    -0.031 C 
ATOM      5  C   UNL     1      49.122  44.408  33.204  1.00  0.00    -0.028 C 
BRANCH   5   6
ATOM      6  C   UNL     1      48.506  43.466  32.195  1.00  0.00     0.005 C 
ATOM      7  C   UNL     1      47.130  43.962  31.731  1.00  0.00     0.012 C 
ATOM      8  C   UNL     1      49.444  43.235  31.004  1.00  0.00     0.012 C 
ENDBRANCH   5   6
ENDBRANCH   3   4
ENDBRANCH   2   3
ENDBRANCH   1   2
BRANCH   1   9
ATOM      9  C   UNL     1      51.556  45.362  36.082  1.00  0.00     0.100 C 
BRANCH   9  10
ATOM     10  C   UNL     1      52.631  46.402  36.010  1.00  0.00     0.220 C 
ATOM     11  O   UNL     1      53.656  46.187  35.307  1.00  0.00    -0.275 OA
ATOM     12  N   UNL     1      52.466  47.654  36.691  1.00  0.00    -0.352 N 
ATOM     13  H   UNL     1      51.617  47.798  37.282  1.00  0.00     0.163 HD
BRANCH  12  14
ATOM     14  C   UNL     1      53.308  48.813  36.406  1.00  0.00     0.151 C 
BRANCH  14  15
ATOM     15  C   UNL     1      52.579  49.752  35.484  1.00  0.00    -0.025 A 
ATOM     16  C   UNL     1      53.256  50.382  34.428  1.00  0.00     0.056 A 
ATOM     17  C   UNL     1      51.196  49.938  35.626  1.00  0.00     0.009 A 
ATOM     18  C   UNL     1      52.559  51.211  33.523  1.00  0.00     0.160 A 
ATOM     19  C   UNL     1      50.502  50.763  34.739  1.00  0.00     0.050 A 
ATOM     20  C   UNL     1      51.179  51.401  33.690  1.00  0.00     0.157 A 
BRANCH  18  21
ATOM     21  O   UNL     1      53.197  51.854  32.452  1.00  0.00    -0.493 OA
ATOM     22  C   UNL     1      54.533  52.346  32.488  1.00  0.00     0.278 C 
ENDBRANCH  18  21
BRANCH  20  23
ATOM     23  O   UNL     1      50.483  52.224  32.805  1.00  0.00    -0.504 OA
ATOM     24  H   UNL     1      50.137  51.872  31.918  1.00  0.00     0.293 HD
ENDBRANCH  20  23
ENDBRANCH  14  15
ENDBRANCH  12  14
ENDBRANCH   9  10
ENDBRANCH   1   9
TORSDOF 10
ENDMDL
