MODEL 1
REMARK VINA RESULT:    -3.494      0.000      0.000
REMARK INTER + INTRA:          -4.936
REMARK INTER:                  -4.720
REMARK INTRA:                  -0.216
REMARK UNBOUND:                -0.216
REMARK SMILES CCCCCCCC(=O)[O-]
REMARK SMILES IDX 5 1 6 2 7 3 8 4 9 5 10 6 4 7 3 8 2 9 1 10
REMARK H PARENT
REMARK Flexibility Score: inf
ROOT
ATOM      1  C   UNL     1      62.008  33.360  60.638  1.00  0.00     0.000 C 
ENDROOT
BRANCH   1   2
ATOM      2  C   UNL     1      60.862  32.344  60.523  1.00  0.00     0.006 C 
BRANCH   2   3
ATOM      3  C   UNL     1      60.825  31.421  61.745  1.00  0.00     0.053 C 
BRANCH   3   4
ATOM      4  C   UNL     1      61.688  30.219  61.521  1.00  0.00     0.041 C 
ATOM      5  O   UNL     1      61.185  29.152  61.078  1.00  0.00    -0.550 OA
ATOM      6  O   UNL     1      63.037  30.260  61.848  1.00  0.00    -0.550 OA
ENDBRANCH   3   4
ENDBRANCH   2   3
ENDBRANCH   1   2
BRANCH   1   7
ATOM      7  C   UNL     1      61.533  34.818  60.500  1.00  0.00     0.000 C 
BRANCH   7   8
ATOM      8  C   UNL     1      62.511  35.875  61.046  1.00  0.00    -0.000 C 
BRANCH   8   9
ATOM      9  C   UNL     1      63.853  35.274  61.487  1.00  0.00    -0.003 C 
ATOM     10  C   UNL     1      64.765  36.345  62.081  1.00  0.00     0.004 C 
ENDBRANCH   8   9
ENDBRANCH   7   8
ENDBRANCH   1   7
TORSDOF 6
ENDMDL
MODEL 2
REMARK VINA RESULT:    -3.406     12.625     14.211
REMARK INTER + INTRA:          -4.817
REMARK INTER:                  -4.543
REMARK INTRA:                  -0.274
REMARK UNBOUND:                -0.216
REMARK SMILES CCCCCCCC(=O)[O-]
REMARK SMILES IDX 5 1 6 2 7 3 8 4 9 5 10 6 4 7 3 8 2 9 1 10
REMARK H PARENT
REMARK Flexibility Score: inf
ROOT
ATOM      1  C   UNL     1      56.827  28.422  50.458  1.00  0.00     0.000 C 
ENDROOT
BRANCH   1   2
ATOM      2  C   UNL     1      57.902  29.428  50.022  1.00  0.00     0.006 C 
BRANCH   2   3
ATOM      3  C   UNL     1      58.917  28.771  49.082  1.00  0.00     0.053 C 
BRANCH   3   4
ATOM      4  C   UNL     1      59.575  27.606  49.750  1.00  0.00     0.041 C 
ATOM      5  O   UNL     1      60.337  27.788  50.736  1.00  0.00    -0.550 OA
ATOM      6  O   UNL     1      59.387  26.322  49.254  1.00  0.00    -0.550 OA
ENDBRANCH   3   4
ENDBRANCH   2   3
ENDBRANCH   1   2
BRANCH   1   7
ATOM      7  C   UNL     1      55.410  29.025  50.471  1.00  0.00     0.000 C 
BRANCH   7   8
ATOM      8  C   UNL     1      54.292  28.069  50.015  1.00  0.00    -0.000 C 
BRANCH   8   9
ATOM      9  C   UNL     1      54.801  26.650  49.725  1.00  0.00    -0.003 C 
ATOM     10  C   UNL     1      53.719  25.806  49.056  1.00  0.00     0.004 C 
ENDBRANCH   8   9
ENDBRANCH   7   8
ENDBRANCH   1   7
TORSDOF 6
ENDMDL
MODEL 3
REMARK VINA RESULT:    -3.398      0.243      1.052
REMARK INTER + INTRA:          -4.806
REMARK INTER:                  -4.621
REMARK INTRA:                  -0.185
REMARK UNBOUND:                -0.216
REMARK SMILES CCCCCCCC(=O)[O-]
REMARK SMILES IDX 5 1 6 2 7 3 8 4 9 5 10 6 4 7 3 8 2 9 1 10
REMARK H PARENT
REMARK Flexibility Score: inf
ROOT
ATOM      1  C   UNL     1      62.209  33.311  60.703  1.00  0.00     0.000 C 
ENDROOT
BRANCH   1   2
ATOM      2  C   UNL     1      61.007  32.360  60.607  1.00  0.00     0.006 C 
BRANCH   2   3
ATOM      3  C   UNL     1      60.954  31.422  61.816  1.00  0.00     0.053 C 
BRANCH   3   4
ATOM      4  C   UNL     1      61.799  30.210  61.577  1.00  0.00     0.041 C 
ATOM      5  O   UNL     1      63.028  30.231  61.853  1.00  0.00    -0.550 OA
ATOM      6  O   UNL     1      61.242  29.075  61.003  1.00  0.00    -0.550 OA
ENDBRANCH   3   4
ENDBRANCH   2   3
ENDBRANCH   1   2
BRANCH   1   7
ATOM      7  C   UNL     1      61.835  34.781  60.436  1.00  0.00     0.000 C 
BRANCH   7   8
ATOM      8  C   UNL     1      62.691  35.817  61.186  1.00  0.00    -0.000 C 
BRANCH   8   9
ATOM      9  C   UNL     1      64.036  35.249  61.660  1.00  0.00    -0.003 C 
ATOM     10  C   UNL     1      65.103  36.339  61.719  1.00  0.00     0.004 C 
ENDBRANCH   8   9
ENDBRANCH   7   8
ENDBRANCH   1   7
TORSDOF 6
ENDMDL
MODEL 4
REMARK VINA RESULT:    -3.320      1.199      1.299
REMARK INTER + INTRA:          -4.700
REMARK INTER:                  -4.455
REMARK INTRA:                  -0.245
REMARK UNBOUND:                -0.216
REMARK SMILES CCCCCCCC(=O)[O-]
REMARK SMILES IDX 5 1 6 2 7 3 8 4 9 5 10 6 4 7 3 8 2 9 1 10
REMARK H PARENT
REMARK Flexibility Score: inf
ROOT
ATOM      1  C   UNL     1      62.374  34.274  60.269  1.00  0.00     0.000 C 
ENDROOT
BRANCH   1   2
ATOM      2  C   UNL     1      61.305  33.174  60.316  1.00  0.00     0.006 C 
BRANCH   2   3
ATOM      3  C   UNL     1      61.949  31.786  60.379  1.00  0.00     0.053 C 
BRANCH   3   4
ATOM      4  C   UNL     1      61.471  31.040  61.584  1.00  0.00     0.041 C 
ATOM      5  O   UNL     1      60.459  31.440  62.217  1.00  0.00    -0.550 OA
ATOM      6  O   UNL     1      62.172  29.930  62.038  1.00  0.00    -0.550 OA
ENDBRANCH   3   4
ENDBRANCH   2   3
ENDBRANCH   1   2
BRANCH   1   7
ATOM      7  C   UNL     1      61.857  35.638  60.764  1.00  0.00     0.000 C 
BRANCH   7   8
ATOM      8  C   UNL     1      62.900  36.504  61.493  1.00  0.00    -0.000 C 
BRANCH   8   9
ATOM      9  C   UNL     1      64.190  35.738  61.818  1.00  0.00    -0.003 C 
ATOM     10  C   UNL     1      65.423  36.561  61.454  1.00  0.00     0.004 C 
ENDBRANCH   8   9
ENDBRANCH   7   8
ENDBRANCH   1   7
TORSDOF 6
ENDMDL
MODEL 5
REMARK VINA RESULT:    -3.243     12.558     14.157
REMARK INTER + INTRA:          -4.596
REMARK INTER:                  -4.302
REMARK INTRA:                  -0.294
REMARK UNBOUND:                -0.216
REMARK SMILES CCCCCCCC(=O)[O-]
REMARK SMILES IDX 5 1 6 2 7 3 8 4 9 5 10 6 4 7 3 8 2 9 1 10
REMARK H PARENT
REMARK Flexibility Score: inf
ROOT
ATOM      1  C   UNL     1      57.371  27.786  50.567  1.00  0.00     0.000 C 
ENDROOT
BRANCH   1   2
ATOM      2  C   UNL     1      57.598  29.207  50.035  1.00  0.00     0.006 C 
BRANCH   2   3
ATOM      3  C   UNL     1      58.743  29.234  49.018  1.00  0.00     0.053 C 
BRANCH   3   4
ATOM      4  C   UNL     1      60.026  28.810  49.661  1.00  0.00     0.041 C 
ATOM      5  O   UNL     1      60.671  27.830  49.202  1.00  0.00    -0.550 OA
ATOM      6  O   UNL     1      60.484  29.465  50.797  1.00  0.00    -0.550 OA
ENDBRANCH   3   4
ENDBRANCH   2   3
ENDBRANCH   1   2
BRANCH   1   7
ATOM      7  C   UNL     1      56.016  27.193  50.139  1.00  0.00     0.000 C 
BRANCH   7   8
ATOM      8  C   UNL     1      54.842  28.189  50.138  1.00  0.00    -0.000 C 
BRANCH   8   9
ATOM      9  C   UNL     1      53.519  27.552  49.689  1.00  0.00    -0.003 C 
ATOM     10  C   UNL     1      53.739  26.131  49.178  1.00  0.00     0.004 C 
ENDBRANCH   8   9
ENDBRANCH   7   8
ENDBRANCH   1   7
TORSDOF 6
ENDMDL
MODEL 6
REMARK VINA RESULT:    -3.242     13.235     14.156
REMARK INTER + INTRA:          -4.595
REMARK INTER:                  -4.329
REMARK INTRA:                  -0.266
REMARK UNBOUND:                -0.216
REMARK SMILES CCCCCCCC(=O)[O-]
REMARK SMILES IDX 5 1 6 2 7 3 8 4 9 5 10 6 4 7 3 8 2 9 1 10
REMARK H PARENT
REMARK Flexibility Score: inf
ROOT
ATOM      1  C   UNL     1      57.164  28.107  50.790  1.00  0.00     0.000 C 
ENDROOT
BRANCH   1   2
ATOM      2  C   UNL     1      55.740  28.025  50.222  1.00  0.00     0.006 C 
BRANCH   2   3
ATOM      3  C   UNL     1      55.368  26.579  49.883  1.00  0.00     0.053 C 
BRANCH   3   4
ATOM      4  C   UNL     1      53.940  26.493  49.445  1.00  0.00     0.041 C 
ATOM      5  O   UNL     1      53.241  27.538  49.355  1.00  0.00    -0.550 OA
ATOM      6  O   UNL     1      53.365  25.256  49.185  1.00  0.00    -0.550 OA
ENDBRANCH   3   4
ENDBRANCH   2   3
ENDBRANCH   1   2
BRANCH   1   7
ATOM      7  C   UNL     1      57.907  29.388  50.367  1.00  0.00     0.000 C 
BRANCH   7   8
ATOM      8  C   UNL     1      58.818  29.235  49.135  1.00  0.00    -0.000 C 
BRANCH   8   9
ATOM      9  C   UNL     1      59.597  27.913  49.129  1.00  0.00    -0.003 C 
ATOM     10  C   UNL     1      61.059  28.136  49.507  1.00  0.00     0.004 C 
ENDBRANCH   8   9
ENDBRANCH   7   8
ENDBRANCH   1   7
TORSDOF 6
ENDMDL
MODEL 7
REMARK VINA RESULT:    -3.074      3.061      4.961
REMARK INTER + INTRA:          -4.368
REMARK INTER:                  -3.970
REMARK INTRA:                  -0.398
REMARK UNBOUND:                -0.216
REMARK SMILES CCCCCCCC(=O)[O-]
REMARK SMILES IDX 5 1 6 2 7 3 8 4 9 5 10 6 4 7 3 8 2 9 1 10
REMARK H PARENT
REMARK Flexibility Score: inf
ROOT
ATOM      1  C   UNL     1      61.025  32.975  60.000  1.00  0.00     0.000 C 
ENDROOT
BRANCH   1   2
ATOM      2  C   UNL     1      61.534  34.293  60.599  1.00  0.00     0.006 C 
BRANCH   2   3
ATOM      3  C   UNL     1      63.035  34.219  60.891  1.00  0.00     0.053 C 
BRANCH   3   4
ATOM      4  C   UNL     1      63.534  35.529  61.413  1.00  0.00     0.041 C 
ATOM      5  O   UNL     1      64.700  35.623  61.879  1.00  0.00    -0.550 OA
ATOM      6  O   UNL     1      62.695  36.635  61.432  1.00  0.00    -0.550 OA
ENDBRANCH   3   4
ENDBRANCH   2   3
ENDBRANCH   1   2
BRANCH   1   7
ATOM      7  C   UNL     1      60.813  31.876  61.058  1.00  0.00     0.000 C 
BRANCH   7   8
ATOM      8  C   UNL     1      61.636  30.594  60.837  1.00  0.00    -0.000 C 
BRANCH   8   9
ATOM      9  C   UNL     1      62.858  30.501  61.761  1.00  0.00    -0.003 C 
ATOM     10  C   UNL     1      64.146  30.362  60.955  1.00  0.00     0.004 C 
ENDBRANCH   8   9
ENDBRANCH   7   8
ENDBRANCH   1   7
TORSDOF 6
ENDMDL
MODEL 8
REMARK VINA RESULT:    -3.059      1.431      1.745
REMARK INTER + INTRA:          -4.348
REMARK INTER:                  -4.089
REMARK INTRA:                  -0.259
REMARK UNBOUND:                -0.216
REMARK SMILES CCCCCCCC(=O)[O-]
REMARK SMILES IDX 5 1 6 2 7 3 8 4 9 5 10 6 4 7 3 8 2 9 1 10
REMARK H PARENT
REMARK Flexibility Score: inf
ROOT
ATOM      1  C   UNL     1      63.798  33.117  60.882  1.00  0.00     0.000 C 
ENDROOT
BRANCH   1   2
ATOM      2  C   UNL     1      63.634  31.670  60.398  1.00  0.00     0.006 C 
BRANCH   2   3
ATOM      3  C   UNL     1      63.616  30.696  61.580  1.00  0.00     0.053 C 
BRANCH   3   4
ATOM      4  C   UNL     1      62.246  30.123  61.766  1.00  0.00     0.041 C 
ATOM      5  O   UNL     1      61.261  30.885  61.954  1.00  0.00    -0.550 OA
ATOM      6  O   UNL     1      62.065  28.746  61.784  1.00  0.00    -0.550 OA
ENDBRANCH   3   4
ENDBRANCH   2   3
ENDBRANCH   1   2
BRANCH   1   7
ATOM      7  C   UNL     1      62.625  34.026  60.467  1.00  0.00     0.000 C 
BRANCH   7   8
ATOM      8  C   UNL     1      62.671  35.452  61.046  1.00  0.00    -0.000 C 
BRANCH   8   9
ATOM      9  C   UNL     1      64.033  36.132  60.852  1.00  0.00    -0.003 C 
ATOM     10  C   UNL     1      64.673  36.471  62.195  1.00  0.00     0.004 C 
ENDBRANCH   8   9
ENDBRANCH   7   8
ENDBRANCH   1   7
TORSDOF 6
ENDMDL
MODEL 9
REMARK VINA RESULT:    -2.999      3.136      5.239
REMARK INTER + INTRA:          -4.266
REMARK INTER:                  -3.894
REMARK INTRA:                  -0.372
REMARK UNBOUND:                -0.216
REMARK SMILES CCCCCCCC(=O)[O-]
REMARK SMILES IDX 5 1 6 2 7 3 8 4 9 5 10 6 4 7 3 8 2 9 1 10
REMARK H PARENT
REMARK Flexibility Score: inf
ROOT
ATOM      1  C   UNL     1      63.854  31.904  60.440  1.00  0.00     0.000 C 
ENDROOT
BRANCH   1   2
ATOM      2  C   UNL     1      64.120  33.297  61.027  1.00  0.00     0.006 C 
BRANCH   2   3
ATOM      3  C   UNL     1      62.945  34.240  60.754  1.00  0.00     0.053 C 
BRANCH   3   4
ATOM      4  C   UNL     1      63.190  35.578  61.377  1.00  0.00     0.041 C 
ATOM      5  O   UNL     1      62.332  36.494  61.267  1.00  0.00    -0.550 OA
ATOM      6  O   UNL     1      64.386  35.830  62.035  1.00  0.00    -0.550 OA
ENDBRANCH   3   4
ENDBRANCH   2   3
ENDBRANCH   1   2
BRANCH   1   7
ATOM      7  C   UNL     1      63.601  30.835  61.519  1.00  0.00     0.000 C 
BRANCH   7   8
ATOM      8  C   UNL     1      62.212  30.173  61.467  1.00  0.00    -0.000 C 
BRANCH   8   9
ATOM      9  C   UNL     1      61.067  31.168  61.704  1.00  0.00    -0.003 C 
ATOM     10  C   UNL     1      60.343  31.493  60.400  1.00  0.00     0.004 C 
ENDBRANCH   8   9
ENDBRANCH   7   8
ENDBRANCH   1   7
TORSDOF 6
ENDMDL
