MODEL 1
REMARK VINA RESULT:    -3.384      0.000      0.000
REMARK INTER + INTRA:          -8.842
REMARK INTER:                  -6.351
REMARK INTRA:                  -2.491
REMARK UNBOUND:                -2.491
REMARK SMILES CCCCCCCCC=CCCCCCCCC(=O)[O-]
REMARK SMILES IDX 10 1 9 2 11 3 12 4 13 5 14 6 15 7 16 8 17 9 18 10 19 11
REMARK SMILES IDX 20 12 8 13 7 14 6 15 5 16 4 17 3 18 2 19 1 20
REMARK H PARENT
REMARK Flexibility Score: inf
ROOT
ATOM      1  C   UNL     1      11.678   6.037  33.001  1.00  0.00    -0.031 C 
ATOM      2  C   UNL     1      10.961   4.913  33.177  1.00  0.00    -0.031 C 
ENDROOT
BRANCH   1   3
ATOM      3  C   UNL     1      11.259   7.408  33.478  1.00  0.00     0.027 C 
BRANCH   3   4
ATOM      4  C   UNL     1      10.712   8.266  32.328  1.00  0.00     0.004 C 
BRANCH   4   5
ATOM      5  C   UNL     1       9.178   8.372  32.367  1.00  0.00     0.000 C 
BRANCH   5   6
ATOM      6  C   UNL     1       8.535   8.111  30.995  1.00  0.00     0.000 C 
BRANCH   6   7
ATOM      7  C   UNL     1       8.064   6.659  30.832  1.00  0.00     0.000 C 
BRANCH   7   8
ATOM      8  C   UNL     1       8.557   6.067  29.506  1.00  0.00     0.006 C 
BRANCH   8   9
ATOM      9  C   UNL     1       9.593   4.965  29.749  1.00  0.00     0.053 C 
BRANCH   9  10
ATOM     10  C   UNL     1      10.929   5.373  29.211  1.00  0.00     0.041 C 
ATOM     11  O   UNL     1      11.408   6.503  29.495  1.00  0.00    -0.550 OA
ATOM     12  O   UNL     1      11.665   4.489  28.433  1.00  0.00    -0.550 OA
ENDBRANCH   9  10
ENDBRANCH   8   9
ENDBRANCH   7   8
ENDBRANCH   6   7
ENDBRANCH   5   6
ENDBRANCH   4   5
ENDBRANCH   3   4
ENDBRANCH   1   3
BRANCH   2  13
ATOM     13  C   UNL     1       9.578   4.860  33.780  1.00  0.00     0.027 C 
BRANCH  13  14
ATOM     14  C   UNL     1       8.691   3.801  33.105  1.00  0.00     0.004 C 
BRANCH  14  15
ATOM     15  C   UNL     1       9.460   2.572  32.582  1.00  0.00     0.000 C 
BRANCH  15  16
ATOM     16  C   UNL     1       8.532   1.474  32.042  1.00  0.00     0.000 C 
BRANCH  16  17
ATOM     17  C   UNL     1       8.569   1.431  30.507  1.00  0.00    -0.000 C 
BRANCH  17  18
ATOM     18  C   UNL     1       9.996   1.290  29.945  1.00  0.00    -0.000 C 
BRANCH  18  19
ATOM     19  C   UNL     1      10.367  -0.129  29.473  1.00  0.00    -0.003 C 
ATOM     20  C   UNL     1       9.927  -0.415  28.037  1.00  0.00     0.004 C 
ENDBRANCH  18  19
ENDBRANCH  17  18
ENDBRANCH  16  17
ENDBRANCH  15  16
ENDBRANCH  14  15
ENDBRANCH  13  14
ENDBRANCH   2  13
TORSDOF 15
ENDMDL
MODEL 2
REMARK VINA RESULT:    -3.361      1.506      3.690
REMARK INTER + INTRA:          -8.800
REMARK INTER:                  -5.661
REMARK INTRA:                  -3.139
REMARK UNBOUND:                -2.491
REMARK SMILES CCCCCCCCC=CCCCCCCCC(=O)[O-]
REMARK SMILES IDX 10 1 9 2 11 3 12 4 13 5 14 6 15 7 16 8 17 9 18 10 19 11
REMARK SMILES IDX 20 12 8 13 7 14 6 15 5 16 4 17 3 18 2 19 1 20
REMARK H PARENT
REMARK Flexibility Score: inf
ROOT
ATOM      1  C   UNL     1       9.501   7.915  30.988  1.00  0.00    -0.031 C 
ATOM      2  C   UNL     1      10.529   8.111  31.833  1.00  0.00    -0.031 C 
ENDROOT
BRANCH   1   3
ATOM      3  C   UNL     1       8.312   7.027  31.271  1.00  0.00     0.027 C 
BRANCH   3   4
ATOM      4  C   UNL     1       8.040   6.055  30.114  1.00  0.00     0.004 C 
BRANCH   4   5
ATOM      5  C   UNL     1       9.327   5.688  29.355  1.00  0.00     0.000 C 
BRANCH   5   6
ATOM      6  C   UNL     1       9.886   4.318  29.773  1.00  0.00     0.000 C 
BRANCH   6   7
ATOM      7  C   UNL     1      11.419   4.267  29.719  1.00  0.00     0.000 C 
BRANCH   7   8
ATOM      8  C   UNL     1      12.001   5.632  29.332  1.00  0.00     0.006 C 
BRANCH   8   9
ATOM      9  C   UNL     1      13.471   5.505  28.919  1.00  0.00     0.053 C 
BRANCH   9  10
ATOM     10  C   UNL     1      13.616   5.671  27.439  1.00  0.00     0.041 C 
ATOM     11  O   UNL     1      12.917   4.979  26.652  1.00  0.00    -0.550 OA
ATOM     12  O   UNL     1      14.489   6.623  26.928  1.00  0.00    -0.550 OA
ENDBRANCH   9  10
ENDBRANCH   8   9
ENDBRANCH   7   8
ENDBRANCH   6   7
ENDBRANCH   5   6
ENDBRANCH   4   5
ENDBRANCH   3   4
ENDBRANCH   1   3
BRANCH   2  13
ATOM     13  C   UNL     1      10.711   7.393  33.148  1.00  0.00     0.027 C 
BRANCH  13  14
ATOM     14  C   UNL     1      11.728   6.244  33.047  1.00  0.00     0.004 C 
BRANCH  14  15
ATOM     15  C   UNL     1      11.128   4.845  33.287  1.00  0.00     0.000 C 
BRANCH  15  16
ATOM     16  C   UNL     1       9.766   4.894  33.996  1.00  0.00     0.000 C 
BRANCH  16  17
ATOM     17  C   UNL     1       8.764   3.944  33.324  1.00  0.00    -0.000 C 
BRANCH  17  18
ATOM     18  C   UNL     1       9.389   2.591  32.934  1.00  0.00    -0.000 C 
BRANCH  18  19
ATOM     19  C   UNL     1       8.495   1.694  32.058  1.00  0.00    -0.003 C 
ATOM     20  C   UNL     1       9.291   0.816  31.093  1.00  0.00     0.004 C 
ENDBRANCH  18  19
ENDBRANCH  17  18
ENDBRANCH  16  17
ENDBRANCH  15  16
ENDBRANCH  14  15
ENDBRANCH  13  14
ENDBRANCH   2  13
TORSDOF 15
ENDMDL
MODEL 3
REMARK VINA RESULT:    -3.345     10.943     13.329
REMARK INTER + INTRA:          -8.769
REMARK INTER:                  -6.659
REMARK INTRA:                  -2.110
REMARK UNBOUND:                -2.491
REMARK SMILES CCCCCCCCC=CCCCCCCCC(=O)[O-]
REMARK SMILES IDX 10 1 9 2 11 3 12 4 13 5 14 6 15 7 16 8 17 9 18 10 19 11
REMARK SMILES IDX 20 12 8 13 7 14 6 15 5 16 4 17 3 18 2 19 1 20
REMARK H PARENT
REMARK Flexibility Score: inf
ROOT
ATOM      1  C   UNL     1      19.754   3.521  31.596  1.00  0.00    -0.031 C 
ATOM      2  C   UNL     1      19.209   4.487  30.834  1.00  0.00    -0.031 C 
ENDROOT
BRANCH   1   3
ATOM      3  C   UNL     1      21.226   3.402  31.912  1.00  0.00     0.027 C 
BRANCH   3   4
ATOM      4  C   UNL     1      21.494   3.515  33.419  1.00  0.00     0.004 C 
BRANCH   4   5
ATOM      5  C   UNL     1      22.398   4.714  33.756  1.00  0.00     0.000 C 
BRANCH   5   6
ATOM      6  C   UNL     1      22.741   5.558  32.517  1.00  0.00     0.000 C 
BRANCH   6   7
ATOM      7  C   UNL     1      22.247   7.007  32.637  1.00  0.00     0.000 C 
BRANCH   7   8
ATOM      8  C   UNL     1      21.297   7.166  33.831  1.00  0.00     0.006 C 
BRANCH   8   9
ATOM      9  C   UNL     1      21.742   8.320  34.735  1.00  0.00     0.053 C 
BRANCH   9  10
ATOM     10  C   UNL     1      20.678   8.641  35.737  1.00  0.00     0.041 C 
ATOM     11  O   UNL     1      20.978   8.799  36.951  1.00  0.00    -0.550 OA
ATOM     12  O   UNL     1      19.363   8.811  35.326  1.00  0.00    -0.550 OA
ENDBRANCH   9  10
ENDBRANCH   8   9
ENDBRANCH   7   8
ENDBRANCH   6   7
ENDBRANCH   5   6
ENDBRANCH   4   5
ENDBRANCH   3   4
ENDBRANCH   1   3
BRANCH   2  13
ATOM     13  C   UNL     1      19.994   5.539  30.088  1.00  0.00     0.027 C 
BRANCH  13  14
ATOM     14  C   UNL     1      19.922   5.344  28.564  1.00  0.00     0.004 C 
BRANCH  14  15
ATOM     15  C   UNL     1      21.296   5.230  27.876  1.00  0.00     0.000 C 
BRANCH  15  16
ATOM     16  C   UNL     1      22.449   5.045  28.873  1.00  0.00     0.000 C 
BRANCH  16  17
ATOM     17  C   UNL     1      23.671   5.880  28.459  1.00  0.00    -0.000 C 
BRANCH  17  18
ATOM     18  C   UNL     1      24.024   6.974  29.483  1.00  0.00    -0.000 C 
BRANCH  18  19
ATOM     19  C   UNL     1      25.397   7.640  29.270  1.00  0.00    -0.003 C 
ATOM     20  C   UNL     1      25.298   9.021  28.622  1.00  0.00     0.004 C 
ENDBRANCH  18  19
ENDBRANCH  17  18
ENDBRANCH  16  17
ENDBRANCH  15  16
ENDBRANCH  14  15
ENDBRANCH  13  14
ENDBRANCH   2  13
TORSDOF 15
ENDMDL
MODEL 4
REMARK VINA RESULT:    -3.333      1.750      3.881
REMARK INTER + INTRA:          -8.747
REMARK INTER:                  -5.888
REMARK INTRA:                  -2.860
REMARK UNBOUND:                -2.491
REMARK SMILES CCCCCCCCC=CCCCCCCCC(=O)[O-]
REMARK SMILES IDX 10 1 9 2 11 3 12 4 13 5 14 6 15 7 16 8 17 9 18 10 19 11
REMARK SMILES IDX 20 12 8 13 7 14 6 15 5 16 4 17 3 18 2 19 1 20
REMARK H PARENT
REMARK Flexibility Score: inf
ROOT
ATOM      1  C   UNL     1      11.296   7.494  33.688  1.00  0.00    -0.031 C 
ATOM      2  C   UNL     1      10.875   8.328  32.720  1.00  0.00    -0.031 C 
ENDROOT
BRANCH   1   3
ATOM      3  C   UNL     1      10.545   6.270  34.156  1.00  0.00     0.027 C 
BRANCH   3   4
ATOM      4  C   UNL     1      11.384   4.993  33.998  1.00  0.00     0.004 C 
BRANCH   4   5
ATOM      5  C   UNL     1      12.893   5.295  33.967  1.00  0.00     0.000 C 
BRANCH   5   6
ATOM      6  C   UNL     1      13.535   4.947  32.614  1.00  0.00     0.000 C 
BRANCH   6   7
ATOM      7  C   UNL     1      12.519   4.383  31.609  1.00  0.00     0.000 C 
BRANCH   7   8
ATOM      8  C   UNL     1      12.371   5.313  30.398  1.00  0.00     0.006 C 
BRANCH   8   9
ATOM      9  C   UNL     1      12.582   4.547  29.089  1.00  0.00     0.053 C 
BRANCH   9  10
ATOM     10  C   UNL     1      13.743   5.110  28.333  1.00  0.00     0.041 C 
ATOM     11  O   UNL     1      13.713   6.300  27.920  1.00  0.00    -0.550 OA
ATOM     12  O   UNL     1      14.878   4.338  28.123  1.00  0.00    -0.550 OA
ENDBRANCH   9  10
ENDBRANCH   8   9
ENDBRANCH   7   8
ENDBRANCH   6   7
ENDBRANCH   5   6
ENDBRANCH   4   5
ENDBRANCH   3   4
ENDBRANCH   1   3
BRANCH   2  13
ATOM     13  C   UNL     1       9.537   8.234  32.026  1.00  0.00     0.027 C 
BRANCH  13  14
ATOM     14  C   UNL     1       9.668   7.747  30.574  1.00  0.00     0.004 C 
BRANCH  14  15
ATOM     15  C   UNL     1       8.536   6.806  30.118  1.00  0.00     0.000 C 
BRANCH  15  16
ATOM     16  C   UNL     1       7.953   5.973  31.269  1.00  0.00     0.000 C 
BRANCH  16  17
ATOM     17  C   UNL     1       8.734   4.661  31.445  1.00  0.00    -0.000 C 
BRANCH  17  18
ATOM     18  C   UNL     1       9.012   3.945  30.111  1.00  0.00    -0.000 C 
BRANCH  18  19
ATOM     19  C   UNL     1       9.535   2.503  30.248  1.00  0.00    -0.003 C 
ATOM     20  C   UNL     1       9.043   1.806  31.517  1.00  0.00     0.004 C 
ENDBRANCH  18  19
ENDBRANCH  17  18
ENDBRANCH  16  17
ENDBRANCH  15  16
ENDBRANCH  14  15
ENDBRANCH  13  14
ENDBRANCH   2  13
TORSDOF 15
ENDMDL
MODEL 5
REMARK VINA RESULT:    -3.327      2.010      4.921
REMARK INTER + INTRA:          -8.735
REMARK INTER:                  -5.797
REMARK INTRA:                  -2.938
REMARK UNBOUND:                -2.491
REMARK SMILES CCCCCCCCC=CCCCCCCCC(=O)[O-]
REMARK SMILES IDX 10 1 9 2 11 3 12 4 13 5 14 6 15 7 16 8 17 9 18 10 19 11
REMARK SMILES IDX 20 12 8 13 7 14 6 15 5 16 4 17 3 18 2 19 1 20
REMARK H PARENT
REMARK Flexibility Score: inf
ROOT
ATOM      1  C   UNL     1       9.282   4.491  35.295  1.00  0.00    -0.031 C 
ATOM      2  C   UNL     1      10.545   4.879  35.549  1.00  0.00    -0.031 C 
ENDROOT
BRANCH   1   3
ATOM      3  C   UNL     1       8.884   3.513  34.215  1.00  0.00     0.027 C 
BRANCH   3   4
ATOM      4  C   UNL     1       8.594   4.223  32.885  1.00  0.00     0.004 C 
BRANCH   4   5
ATOM      5  C   UNL     1       9.027   3.377  31.674  1.00  0.00     0.000 C 
BRANCH   5   6
ATOM      6  C   UNL     1      10.196   4.011  30.902  1.00  0.00     0.000 C 
BRANCH   6   7
ATOM      7  C   UNL     1      11.507   3.231  31.077  1.00  0.00     0.000 C 
BRANCH   7   8
ATOM      8  C   UNL     1      12.683   3.984  30.442  1.00  0.00     0.006 C 
BRANCH   8   9
ATOM      9  C   UNL     1      12.199   5.242  29.714  1.00  0.00     0.053 C 
BRANCH   9  10
ATOM     10  C   UNL     1      12.788   5.312  28.340  1.00  0.00     0.041 C 
ATOM     11  O   UNL     1      13.564   6.255  28.030  1.00  0.00    -0.550 OA
ATOM     12  O   UNL     1      12.517   4.312  27.415  1.00  0.00    -0.550 OA
ENDBRANCH   9  10
ENDBRANCH   8   9
ENDBRANCH   7   8
ENDBRANCH   6   7
ENDBRANCH   5   6
ENDBRANCH   4   5
ENDBRANCH   3   4
ENDBRANCH   1   3
BRANCH   2  13
ATOM     13  C   UNL     1      11.748   4.483  34.727  1.00  0.00     0.027 C 
BRANCH  13  14
ATOM     14  C   UNL     1      12.453   5.701  34.106  1.00  0.00     0.004 C 
BRANCH  14  15
ATOM     15  C   UNL     1      11.629   6.424  33.024  1.00  0.00     0.000 C 
BRANCH  15  16
ATOM     16  C   UNL     1      11.264   7.864  33.415  1.00  0.00     0.000 C 
BRANCH  16  17
ATOM     17  C   UNL     1       9.919   8.276  32.798  1.00  0.00    -0.000 C 
BRANCH  17  18
ATOM     18  C   UNL     1       9.728   7.742  31.366  1.00  0.00    -0.000 C 
BRANCH  18  19
ATOM     19  C   UNL     1       8.291   7.307  31.025  1.00  0.00    -0.003 C 
ATOM     20  C   UNL     1       8.139   6.819  29.584  1.00  0.00     0.004 C 
ENDBRANCH  18  19
ENDBRANCH  17  18
ENDBRANCH  16  17
ENDBRANCH  15  16
ENDBRANCH  14  15
ENDBRANCH  13  14
ENDBRANCH   2  13
TORSDOF 15
ENDMDL
MODEL 6
REMARK VINA RESULT:    -3.316     11.619     13.824
REMARK INTER + INTRA:          -8.716
REMARK INTER:                  -6.083
REMARK INTRA:                  -2.633
REMARK UNBOUND:                -2.491
REMARK SMILES CCCCCCCCC=CCCCCCCCC(=O)[O-]
REMARK SMILES IDX 10 1 9 2 11 3 12 4 13 5 14 6 15 7 16 8 17 9 18 10 19 11
REMARK SMILES IDX 20 12 8 13 7 14 6 15 5 16 4 17 3 18 2 19 1 20
REMARK H PARENT
REMARK Flexibility Score: inf
ROOT
ATOM      1  C   UNL     1      22.014   5.267  37.811  1.00  0.00    -0.031 C 
ATOM      2  C   UNL     1      22.407   6.275  38.612  1.00  0.00    -0.031 C 
ENDROOT
BRANCH   1   3
ATOM      3  C   UNL     1      20.576   4.892  37.545  1.00  0.00     0.027 C 
BRANCH   3   4
ATOM      4  C   UNL     1      20.213   5.048  36.061  1.00  0.00     0.004 C 
BRANCH   4   5
ATOM      5  C   UNL     1      21.461   5.057  35.161  1.00  0.00     0.000 C 
BRANCH   5   6
ATOM      6  C   UNL     1      21.174   5.628  33.763  1.00  0.00     0.000 C 
BRANCH   6   7
ATOM      7  C   UNL     1      22.446   5.777  32.915  1.00  0.00     0.000 C 
BRANCH   7   8
ATOM      8  C   UNL     1      22.333   6.971  31.959  1.00  0.00     0.006 C 
BRANCH   8   9
ATOM      9  C   UNL     1      23.419   6.914  30.880  1.00  0.00     0.053 C 
BRANCH   9  10
ATOM     10  C   UNL     1      23.926   8.288  30.573  1.00  0.00     0.041 C 
ATOM     11  O   UNL     1      24.523   8.515  29.488  1.00  0.00    -0.550 OA
ATOM     12  O   UNL     1      23.699   9.329  31.465  1.00  0.00    -0.550 OA
ENDBRANCH   9  10
ENDBRANCH   8   9
ENDBRANCH   7   8
ENDBRANCH   6   7
ENDBRANCH   5   6
ENDBRANCH   4   5
ENDBRANCH   3   4
ENDBRANCH   1   3
BRANCH   2  13
ATOM     13  C   UNL     1      21.479   7.116  39.455  1.00  0.00     0.027 C 
BRANCH  13  14
ATOM     14  C   UNL     1      21.810   8.615  39.363  1.00  0.00     0.004 C 
BRANCH  14  15
ATOM     15  C   UNL     1      22.737   8.986  38.189  1.00  0.00     0.000 C 
BRANCH  15  16
ATOM     16  C   UNL     1      21.998   9.703  37.049  1.00  0.00     0.000 C 
BRANCH  16  17
ATOM     17  C   UNL     1      21.593   8.710  35.949  1.00  0.00    -0.000 C 
BRANCH  17  18
ATOM     18  C   UNL     1      20.078   8.703  35.676  1.00  0.00    -0.000 C 
BRANCH  18  19
ATOM     19  C   UNL     1      19.201   9.061  36.890  1.00  0.00    -0.003 C 
ATOM     20  C   UNL     1      18.393   7.874  37.416  1.00  0.00     0.004 C 
ENDBRANCH  18  19
ENDBRANCH  17  18
ENDBRANCH  16  17
ENDBRANCH  15  16
ENDBRANCH  14  15
ENDBRANCH  13  14
ENDBRANCH   2  13
TORSDOF 15
ENDMDL
MODEL 7
REMARK VINA RESULT:    -3.301      2.102      5.169
REMARK INTER + INTRA:          -8.687
REMARK INTER:                  -5.620
REMARK INTRA:                  -3.067
REMARK UNBOUND:                -2.491
REMARK SMILES CCCCCCCCC=CCCCCCCCC(=O)[O-]
REMARK SMILES IDX 10 1 9 2 11 3 12 4 13 5 14 6 15 7 16 8 17 9 18 10 19 11
REMARK SMILES IDX 20 12 8 13 7 14 6 15 5 16 4 17 3 18 2 19 1 20
REMARK H PARENT
REMARK Flexibility Score: inf
ROOT
ATOM      1  C   UNL     1      10.490   4.604  33.260  1.00  0.00    -0.031 C 
ATOM      2  C   UNL     1      11.142   5.780  33.216  1.00  0.00    -0.031 C 
ENDROOT
BRANCH   1   3
ATOM      3  C   UNL     1       9.064   4.429  33.725  1.00  0.00     0.027 C 
BRANCH   3   4
ATOM      4  C   UNL     1       8.260   3.535  32.769  1.00  0.00     0.004 C 
BRANCH   4   5
ATOM      5  C   UNL     1       7.950   2.161  33.388  1.00  0.00     0.000 C 
BRANCH   5   6
ATOM      6  C   UNL     1       8.033   1.021  32.361  1.00  0.00     0.000 C 
BRANCH   6   7
ATOM      7  C   UNL     1       8.588   1.488  31.007  1.00  0.00     0.000 C 
BRANCH   7   8
ATOM      8  C   UNL     1       9.926   0.806  30.697  1.00  0.00     0.006 C 
BRANCH   8   9
ATOM      9  C   UNL     1      11.099   1.752  30.968  1.00  0.00     0.053 C 
BRANCH   9  10
ATOM     10  C   UNL     1      11.922   1.253  32.115  1.00  0.00     0.041 C 
ATOM     11  O   UNL     1      11.413   1.154  33.263  1.00  0.00    -0.550 OA
ATOM     12  O   UNL     1      13.235   0.854  31.907  1.00  0.00    -0.550 OA
ENDBRANCH   9  10
ENDBRANCH   8   9
ENDBRANCH   7   8
ENDBRANCH   6   7
ENDBRANCH   5   6
ENDBRANCH   4   5
ENDBRANCH   3   4
ENDBRANCH   1   3
BRANCH   2  13
ATOM     13  C   UNL     1      10.590   7.090  33.725  1.00  0.00     0.027 C 
BRANCH  13  14
ATOM     14  C   UNL     1      10.847   8.248  32.747  1.00  0.00     0.004 C 
BRANCH  14  15
ATOM     15  C   UNL     1      10.173   8.075  31.372  1.00  0.00     0.000 C 
BRANCH  15  16
ATOM     16  C   UNL     1       8.641   8.163  31.444  1.00  0.00     0.000 C 
BRANCH  16  17
ATOM     17  C   UNL     1       7.997   6.824  31.052  1.00  0.00    -0.000 C 
BRANCH  17  18
ATOM     18  C   UNL     1       8.427   6.338  29.655  1.00  0.00    -0.000 C 
BRANCH  18  19
ATOM     19  C   UNL     1       9.113   4.959  29.634  1.00  0.00    -0.003 C 
ATOM     20  C   UNL     1      10.614   5.042  29.358  1.00  0.00     0.004 C 
ENDBRANCH  18  19
ENDBRANCH  17  18
ENDBRANCH  16  17
ENDBRANCH  15  16
ENDBRANCH  14  15
ENDBRANCH  13  14
ENDBRANCH   2  13
TORSDOF 15
ENDMDL
MODEL 8
REMARK VINA RESULT:    -3.275      1.841      4.625
REMARK INTER + INTRA:          -8.637
REMARK INTER:                  -5.592
REMARK INTRA:                  -3.046
REMARK UNBOUND:                -2.491
REMARK SMILES CCCCCCCCC=CCCCCCCCC(=O)[O-]
REMARK SMILES IDX 10 1 9 2 11 3 12 4 13 5 14 6 15 7 16 8 17 9 18 10 19 11
REMARK SMILES IDX 20 12 8 13 7 14 6 15 5 16 4 17 3 18 2 19 1 20
REMARK H PARENT
REMARK Flexibility Score: inf
ROOT
ATOM      1  C   UNL     1      11.555   6.817  33.312  1.00  0.00    -0.031 C 
ATOM      2  C   UNL     1      11.072   7.891  32.663  1.00  0.00    -0.031 C 
ENDROOT
BRANCH   1   3
ATOM      3  C   UNL     1      10.706   5.775  34.001  1.00  0.00     0.027 C 
BRANCH   3   4
ATOM      4  C   UNL     1      10.251   4.678  33.027  1.00  0.00     0.004 C 
BRANCH   4   5
ATOM      5  C   UNL     1       8.818   4.203  33.323  1.00  0.00     0.000 C 
BRANCH   5   6
ATOM      6  C   UNL     1       8.486   2.870  32.632  1.00  0.00     0.000 C 
BRANCH   6   7
ATOM      7  C   UNL     1       9.301   2.654  31.349  1.00  0.00     0.000 C 
BRANCH   7   8
ATOM      8  C   UNL     1       8.703   1.524  30.502  1.00  0.00     0.006 C 
BRANCH   8   9
ATOM      9  C   UNL     1       9.728   0.991  29.496  1.00  0.00     0.053 C 
BRANCH   9  10
ATOM     10  C   UNL     1      10.840   0.283  30.205  1.00  0.00     0.041 C 
ATOM     11  O   UNL     1      10.630  -0.828  30.760  1.00  0.00    -0.550 OA
ATOM     12  O   UNL     1      12.117   0.827  30.214  1.00  0.00    -0.550 OA
ENDBRANCH   9  10
ENDBRANCH   8   9
ENDBRANCH   7   8
ENDBRANCH   6   7
ENDBRANCH   5   6
ENDBRANCH   4   5
ENDBRANCH   3   4
ENDBRANCH   1   3
BRANCH   2  13
ATOM     13  C   UNL     1       9.614   8.283  32.613  1.00  0.00     0.027 C 
BRANCH  13  14
ATOM     14  C   UNL     1       9.022   8.136  31.201  1.00  0.00     0.004 C 
BRANCH  14  15
ATOM     15  C   UNL     1       7.879   7.108  31.099  1.00  0.00     0.000 C 
BRANCH  15  16
ATOM     16  C   UNL     1       8.200   5.951  30.142  1.00  0.00     0.000 C 
BRANCH  16  17
ATOM     17  C   UNL     1       9.439   6.271  29.292  1.00  0.00    -0.000 C 
BRANCH  17  18
ATOM     18  C   UNL     1      10.493   5.148  29.322  1.00  0.00    -0.000 C 
BRANCH  18  19
ATOM     19  C   UNL     1      11.893   5.589  29.789  1.00  0.00    -0.003 C 
ATOM     20  C   UNL     1      12.742   4.429  30.311  1.00  0.00     0.004 C 
ENDBRANCH  18  19
ENDBRANCH  17  18
ENDBRANCH  16  17
ENDBRANCH  15  16
ENDBRANCH  14  15
ENDBRANCH  13  14
ENDBRANCH   2  13
TORSDOF 15
ENDMDL
MODEL 9
REMARK VINA RESULT:    -3.261      1.973      4.541
REMARK INTER + INTRA:          -8.612
REMARK INTER:                  -5.262
REMARK INTRA:                  -3.351
REMARK UNBOUND:                -2.491
REMARK SMILES CCCCCCCCC=CCCCCCCCC(=O)[O-]
REMARK SMILES IDX 10 1 9 2 11 3 12 4 13 5 14 6 15 7 16 8 17 9 18 10 19 11
REMARK SMILES IDX 20 12 8 13 7 14 6 15 5 16 4 17 3 18 2 19 1 20
REMARK H PARENT
REMARK Flexibility Score: inf
ROOT
ATOM      1  C   UNL     1       9.705   8.298  32.750  1.00  0.00    -0.031 C 
ATOM      2  C   UNL     1       9.058   8.147  31.580  1.00  0.00    -0.031 C 
ENDROOT
BRANCH   1   3
ATOM      3  C   UNL     1      11.206   8.253  32.915  1.00  0.00     0.027 C 
BRANCH   3   4
ATOM      4  C   UNL     1      11.683   6.876  33.398  1.00  0.00     0.004 C 
BRANCH   4   5
ATOM      5  C   UNL     1      10.534   6.044  33.993  1.00  0.00     0.000 C 
BRANCH   5   6
ATOM      6  C   UNL     1      10.313   4.723  33.239  1.00  0.00     0.000 C 
BRANCH   6   7
ATOM      7  C   UNL     1       8.846   4.516  32.833  1.00  0.00     0.000 C 
BRANCH   7   8
ATOM      8  C   UNL     1       8.645   3.142  32.182  1.00  0.00     0.006 C 
BRANCH   8   9
ATOM      9  C   UNL     1       9.991   2.480  31.872  1.00  0.00     0.053 C 
BRANCH   9  10
ATOM     10  C   UNL     1       9.936   1.773  30.554  1.00  0.00     0.041 C 
ATOM     11  O   UNL     1      10.999   1.522  29.925  1.00  0.00    -0.550 OA
ATOM     12  O   UNL     1       8.717   1.351  30.041  1.00  0.00    -0.550 OA
ENDBRANCH   9  10
ENDBRANCH   8   9
ENDBRANCH   7   8
ENDBRANCH   6   7
ENDBRANCH   5   6
ENDBRANCH   4   5
ENDBRANCH   3   4
ENDBRANCH   1   3
BRANCH   2  13
ATOM     13  C   UNL     1       9.721   7.802  30.268  1.00  0.00     0.027 C 
BRANCH  13  14
ATOM     14  C   UNL     1       9.145   6.519  29.647  1.00  0.00     0.004 C 
BRANCH  14  15
ATOM     15  C   UNL     1      10.166   5.374  29.501  1.00  0.00     0.000 C 
BRANCH  15  16
ATOM     16  C   UNL     1      11.599   5.804  29.850  1.00  0.00     0.000 C 
BRANCH  16  17
ATOM     17  C   UNL     1      12.486   4.581  30.126  1.00  0.00    -0.000 C 
BRANCH  17  18
ATOM     18  C   UNL     1      13.657   4.893  31.077  1.00  0.00    -0.000 C 
BRANCH  18  19
ATOM     19  C   UNL     1      13.860   3.869  32.209  1.00  0.00    -0.003 C 
ATOM     20  C   UNL     1      14.452   4.488  33.476  1.00  0.00     0.004 C 
ENDBRANCH  18  19
ENDBRANCH  17  18
ENDBRANCH  16  17
ENDBRANCH  15  16
ENDBRANCH  14  15
ENDBRANCH  13  14
ENDBRANCH   2  13
TORSDOF 15
ENDMDL
