MODEL 1
REMARK VINA RESULT:    -3.448      0.000      0.000
REMARK INTER + INTRA:          -4.808
REMARK INTER:                  -5.262
REMARK INTRA:                   0.454
REMARK UNBOUND:                 0.454
REMARK SMILES CC1=CCC[C@H](C)C(=O)C[C@@H](C(C)C)C(=O)C1
REMARK SMILES IDX 8 1 9 2 6 3 7 4 5 5 4 6 3 7 2 8 1 9 10 11 11 12 15 13 16 14
REMARK SMILES IDX 17 15 12 17 13 18 14 19
REMARK H PARENT
REMARK Flexibility Score: 70.00
ROOT
ATOM      1  C   UNL     1       2.345  13.264  -8.100  1.00  0.00     0.136 C 
ATOM      2  O   UNL     1       1.659  13.382  -9.107  1.00  0.00    -0.299 OA
ENDROOT
BRANCH   1   3
ATOM      3  C   UNL     1       3.409  12.183  -8.024  1.00  0.00     0.053 C 
ATOM      4  C   UNL     1       2.804  10.770  -8.037  1.00  0.00     0.016 C 
BRANCH   3   5
ATOM      5  C   UNL     1       4.475  12.360  -9.124  1.00  0.00     0.015 C 
BRANCH   5   6
ATOM      6  C   UNL     1       5.819  12.916  -8.609  1.00  0.00     0.028 C 
BRANCH   6   7
ATOM      7  C   UNL     1       6.258  12.204  -7.354  1.00  0.00    -0.028 C 
ATOM      8  C   UNL     1       6.212  12.735  -6.110  1.00  0.00    -0.070 CG0
ATOM      9  C   UNL     1       6.651  11.871  -4.955  1.00  0.00     0.039 C 
ATOM     10  G   UNL     1       5.749  14.157  -5.828  1.00  0.00     0.000 G0
ENDBRANCH   6   7
ENDBRANCH   5   6
ENDBRANCH   3   5
ENDBRANCH   1   3
BRANCH   1  11
ATOM     11  C   UNL     1       2.116  14.210  -6.945  1.00  0.00     0.087 C 
BRANCH  11  12
ATOM     12  C   UNL     1       3.384  15.037  -6.607  1.00  0.00     0.066 C 
BRANCH  12  13
ATOM     13  C   UNL     1       4.246  14.260  -5.624  1.00  0.00     0.140 C 
ATOM     14  O   UNL     1       3.737  13.795  -4.613  1.00  0.00    -0.299 OA
BRANCH  13  15
ATOM     15  C   UNL     1       5.738  14.152  -5.828  1.00  0.00     0.106 CG0
ATOM     16  G   UNL     1       6.186  12.727  -6.113  1.00  0.00     0.000 G0
ENDBRANCH  13  15
ENDBRANCH  12  13
BRANCH  12  17
ATOM     17  C   UNL     1       3.047  16.454  -6.039  1.00  0.00    -0.006 C 
ATOM     18  C   UNL     1       1.652  16.475  -5.386  1.00  0.00     0.008 C 
ATOM     19  C   UNL     1       4.083  16.933  -5.003  1.00  0.00     0.008 C 
ENDBRANCH  12  17
ENDBRANCH  11  12
ENDBRANCH   1  11
TORSDOF 1
ENDMDL
MODEL 2
REMARK VINA RESULT:    -2.970      2.105      3.784
REMARK INTER + INTRA:          -4.079
REMARK INTER:                  -4.538
REMARK INTRA:                   0.459
REMARK UNBOUND:                 0.454
REMARK SMILES CC1=CCC[C@H](C)C(=O)C[C@@H](C(C)C)C(=O)C1
REMARK SMILES IDX 8 1 9 2 6 3 7 4 5 5 4 6 3 7 2 8 1 9 10 11 11 12 15 13 16 14
REMARK SMILES IDX 17 15 12 17 13 18 14 19
REMARK H PARENT
REMARK Flexibility Score: 70.00
ROOT
ATOM      1  C   UNL     1       6.023  13.298  -6.403  1.00  0.00     0.136 C 
ATOM      2  O   UNL     1       6.346  12.653  -5.415  1.00  0.00    -0.299 OA
ENDROOT
BRANCH   1   3
ATOM      3  C   UNL     1       5.950  12.626  -7.763  1.00  0.00     0.053 C 
ATOM      4  C   UNL     1       7.319  12.104  -8.228  1.00  0.00     0.016 C 
BRANCH   3   5
ATOM      5  C   UNL     1       4.876  11.521  -7.791  1.00  0.00     0.015 C 
BRANCH   5   6
ATOM      6  C   UNL     1       3.861  11.663  -8.945  1.00  0.00     0.028 C 
BRANCH   6   7
ATOM      7  C   UNL     1       2.627  12.404  -8.497  1.00  0.00    -0.028 C 
ATOM      8  C   UNL     1       2.455  13.744  -8.592  1.00  0.00    -0.070 CG0
ATOM      9  C   UNL     1       1.140  14.323  -8.134  1.00  0.00     0.039 C 
ATOM     10  G   UNL     1       3.526  14.685  -9.124  1.00  0.00     0.000 G0
ENDBRANCH   6   7
ENDBRANCH   5   6
ENDBRANCH   3   5
ENDBRANCH   1   3
BRANCH   1  11
ATOM     11  C   UNL     1       5.697  14.765  -6.244  1.00  0.00     0.087 C 
BRANCH  11  12
ATOM     12  C   UNL     1       4.222  15.079  -6.609  1.00  0.00     0.066 C 
BRANCH  12  13
ATOM     13  C   UNL     1       4.150  15.564  -8.048  1.00  0.00     0.140 C 
ATOM     14  O   UNL     1       4.509  16.702  -8.319  1.00  0.00    -0.299 OA
BRANCH  13  15
ATOM     15  C   UNL     1       3.539  14.697  -9.121  1.00  0.00     0.106 CG0
ATOM     16  G   UNL     1       2.463  13.768  -8.579  1.00  0.00     0.000 G0
ENDBRANCH  13  15
ENDBRANCH  12  13
BRANCH  12  17
ATOM     17  C   UNL     1       3.572  16.124  -5.645  1.00  0.00    -0.006 C 
ATOM     18  C   UNL     1       2.212  15.626  -5.119  1.00  0.00     0.008 C 
ATOM     19  C   UNL     1       4.475  16.452  -4.440  1.00  0.00     0.008 C 
ENDBRANCH  12  17
ENDBRANCH  11  12
ENDBRANCH   1  11
TORSDOF 1
ENDMDL
MODEL 3
REMARK VINA RESULT:    -2.799      1.972      2.606
REMARK INTER + INTRA:          -3.818
REMARK INTER:                  -4.515
REMARK INTRA:                   0.697
REMARK UNBOUND:                 0.454
REMARK SMILES CC1=CCC[C@H](C)C(=O)C[C@@H](C(C)C)C(=O)C1
REMARK SMILES IDX 8 1 9 2 6 3 7 4 5 5 4 6 3 7 2 8 1 9 10 11 11 12 15 13 16 14
REMARK SMILES IDX 17 15 12 17 13 18 14 19
REMARK H PARENT
REMARK Flexibility Score: 70.00
ROOT
ATOM      1  C   UNL     1       2.659  13.201  -6.594  1.00  0.00     0.136 C 
ATOM      2  O   UNL     1       1.504  13.595  -6.684  1.00  0.00    -0.299 OA
ENDROOT
BRANCH   1   3
ATOM      3  C   UNL     1       3.014  11.780  -6.998  1.00  0.00     0.053 C 
ATOM      4  C   UNL     1       2.335  11.361  -8.311  1.00  0.00     0.016 C 
BRANCH   3   5
ATOM      5  C   UNL     1       4.541  11.572  -7.050  1.00  0.00     0.015 C 
BRANCH   5   6
ATOM      6  C   UNL     1       5.110  11.475  -8.481  1.00  0.00     0.028 C 
BRANCH   6   7
ATOM      7  C   UNL     1       6.121  12.563  -8.740  1.00  0.00    -0.028 C 
ATOM      8  C   UNL     1       5.818  13.871  -8.916  1.00  0.00    -0.070 CG0
ATOM      9  C   UNL     1       6.955  14.840  -9.125  1.00  0.00     0.039 C 
ATOM     10  G   UNL     1       4.392  14.402  -8.923  1.00  0.00     0.000 G0
ENDBRANCH   6   7
ENDBRANCH   5   6
ENDBRANCH   3   5
ENDBRANCH   1   3
BRANCH   1  11
ATOM     11  C   UNL     1       3.717  14.149  -6.080  1.00  0.00     0.087 C 
BRANCH  11  12
ATOM     12  C   UNL     1       3.562  15.574  -6.673  1.00  0.00     0.066 C 
BRANCH  12  13
ATOM     13  C   UNL     1       4.276  15.645  -8.013  1.00  0.00     0.140 C 
ATOM     14  O   UNL     1       4.683  16.724  -8.423  1.00  0.00    -0.299 OA
BRANCH  13  15
ATOM     15  C   UNL     1       4.389  14.422  -8.890  1.00  0.00     0.106 CG0
ATOM     16  G   UNL     1       5.801  13.858  -8.926  1.00  0.00     0.000 G0
ENDBRANCH  13  15
ENDBRANCH  12  13
BRANCH  12  17
ATOM     17  C   UNL     1       4.091  16.687  -5.711  1.00  0.00    -0.006 C 
ATOM     18  C   UNL     1       3.024  17.775  -5.477  1.00  0.00     0.008 C 
ATOM     19  C   UNL     1       4.527  16.124  -4.344  1.00  0.00     0.008 C 
ENDBRANCH  12  17
ENDBRANCH  11  12
ENDBRANCH   1  11
TORSDOF 1
ENDMDL
MODEL 4
REMARK VINA RESULT:    -2.702      2.035      4.675
REMARK INTER + INTRA:          -3.669
REMARK INTER:                  -4.317
REMARK INTRA:                   0.647
REMARK UNBOUND:                 0.454
REMARK SMILES CC1=CCC[C@H](C)C(=O)C[C@@H](C(C)C)C(=O)C1
REMARK SMILES IDX 8 1 9 2 6 3 7 4 5 5 4 6 3 7 2 8 1 9 10 11 11 12 15 13 16 14
REMARK SMILES IDX 17 15 12 17 13 18 14 19
REMARK H PARENT
REMARK Flexibility Score: 70.00
ROOT
ATOM      1  C   UNL     1       2.939  13.999  -5.401  1.00  0.00     0.136 C 
ATOM      2  O   UNL     1       3.762  13.658  -4.562  1.00  0.00    -0.299 OA
ENDROOT
BRANCH   1   3
ATOM      3  C   UNL     1       2.517  15.455  -5.507  1.00  0.00     0.053 C 
ATOM      4  C   UNL     1       1.432  15.823  -4.483  1.00  0.00     0.016 C 
BRANCH   3   5
ATOM      5  C   UNL     1       3.731  16.403  -5.422  1.00  0.00     0.015 C 
BRANCH   5   6
ATOM      6  C   UNL     1       4.235  16.899  -6.793  1.00  0.00     0.028 C 
BRANCH   6   7
ATOM      7  C   UNL     1       5.145  15.885  -7.438  1.00  0.00    -0.028 C 
ATOM      8  C   UNL     1       4.805  15.103  -8.490  1.00  0.00    -0.070 CG0
ATOM      9  C   UNL     1       5.850  14.167  -9.044  1.00  0.00     0.039 C 
ATOM     10  G   UNL     1       3.423  15.118  -9.126  1.00  0.00     0.000 G0
ENDBRANCH   6   7
ENDBRANCH   5   6
ENDBRANCH   3   5
ENDBRANCH   1   3
BRANCH   1  11
ATOM     11  C   UNL     1       2.357  12.953  -6.322  1.00  0.00     0.087 C 
BRANCH  11  12
ATOM     12  C   UNL     1       3.071  12.924  -7.699  1.00  0.00     0.066 C 
BRANCH  12  13
ATOM     13  C   UNL     1       2.519  14.035  -8.578  1.00  0.00     0.140 C 
ATOM     14  O   UNL     1       1.346  14.002  -8.926  1.00  0.00    -0.299 OA
BRANCH  13  15
ATOM     15  C   UNL     1       3.428  15.114  -9.115  1.00  0.00     0.106 CG0
ATOM     16  G   UNL     1       4.808  15.086  -8.476  1.00  0.00     0.000 G0
ENDBRANCH  13  15
ENDBRANCH  12  13
BRANCH  12  17
ATOM     17  C   UNL     1       2.941  11.542  -8.416  1.00  0.00    -0.006 C 
ATOM     18  C   UNL     1       4.279  11.116  -9.053  1.00  0.00     0.008 C 
ATOM     19  C   UNL     1       2.475  10.426  -7.461  1.00  0.00     0.008 C 
ENDBRANCH  12  17
ENDBRANCH  11  12
ENDBRANCH   1  11
TORSDOF 1
ENDMDL
MODEL 5
REMARK VINA RESULT:    -2.280      2.133      4.233
REMARK INTER + INTRA:          -3.026
REMARK INTER:                  -5.654
REMARK INTRA:                   2.628
REMARK UNBOUND:                 0.454
REMARK SMILES CC1=CCC[C@H](C)C(=O)C[C@@H](C(C)C)C(=O)C1
REMARK SMILES IDX 8 1 9 2 6 3 7 4 5 5 4 6 3 7 2 8 1 9 10 11 11 12 15 13 16 14
REMARK SMILES IDX 17 15 12 17 13 18 14 19
REMARK H PARENT
REMARK Flexibility Score: 70.00
ROOT
ATOM      1  C   UNL     1       4.502  15.947  -6.510  1.00  0.00     0.136 C 
ATOM      2  O   UNL     1       4.347  16.836  -5.683  1.00  0.00    -0.299 OA
ENDROOT
BRANCH   1   3
ATOM      3  C   UNL     1       3.764  16.001  -7.836  1.00  0.00     0.053 C 
ATOM      4  C   UNL     1       4.672  15.644  -9.023  1.00  0.00     0.016 C 
BRANCH   3   5
ATOM      5  C   UNL     1       2.489  15.135  -7.809  1.00  0.00     0.015 C 
BRANCH   5   6
ATOM      6  C   UNL     1       2.227  14.365  -9.121  1.00  0.00     0.028 C 
BRANCH   6   7
ATOM      7  C   UNL     1       2.515  12.894  -8.957  1.00  0.00    -0.028 C 
ATOM      8  C   UNL     1       2.482  12.230  -7.777  1.00  0.00    -0.070 CG0
ATOM      9  C   UNL     1       2.755  10.747  -7.793  1.00  0.00     0.039 C 
ATOM     10  G   UNL     1       2.193  12.908  -6.447  1.00  0.00     0.000 G0
ENDBRANCH   6   7
ENDBRANCH   5   6
ENDBRANCH   3   5
ENDBRANCH   1   3
BRANCH   1  11
ATOM     11  C   UNL     1       5.437  14.805  -6.188  1.00  0.00     0.087 C 
BRANCH  11  12
ATOM     12  C   UNL     1       4.796  13.424  -6.486  1.00  0.00     0.066 C 
BRANCH  12  13
ATOM     13  C   UNL     1       3.488  13.298  -5.720  1.00  0.00     0.140 C 
ATOM     14  O   UNL     1       3.487  13.435  -4.504  1.00  0.00    -0.299 OA
BRANCH  13  15
ATOM     15  C   UNL     1       2.217  12.899  -6.429  1.00  0.00     0.106 CG0
ATOM     16  G   UNL     1       2.482  12.217  -7.763  1.00  0.00     0.000 G0
ENDBRANCH  13  15
ENDBRANCH  12  13
BRANCH  12  17
ATOM     17  C   UNL     1       5.747  12.231  -6.146  1.00  0.00    -0.006 C 
ATOM     18  C   UNL     1       6.490  11.735  -7.401  1.00  0.00     0.008 C 
ATOM     19  C   UNL     1       6.789  12.600  -5.071  1.00  0.00     0.008 C 
ENDBRANCH  12  17
ENDBRANCH  11  12
ENDBRANCH   1  11
TORSDOF 1
ENDMDL
MODEL 6
REMARK VINA RESULT:    -2.255      1.898      3.886
REMARK INTER + INTRA:          -2.987
REMARK INTER:                  -4.566
REMARK INTRA:                   1.579
REMARK UNBOUND:                 0.454
REMARK SMILES CC1=CCC[C@H](C)C(=O)C[C@@H](C(C)C)C(=O)C1
REMARK SMILES IDX 8 1 9 2 6 3 7 4 5 5 4 6 3 7 2 8 1 9 10 11 11 12 15 13 16 14
REMARK SMILES IDX 17 15 12 17 13 18 14 19
REMARK H PARENT
REMARK Flexibility Score: 70.00
ROOT
ATOM      1  C   UNL     1       3.680  12.442  -6.848  1.00  0.00     0.136 C 
ATOM      2  O   UNL     1       2.746  12.426  -6.058  1.00  0.00    -0.299 OA
ENDROOT
BRANCH   1   3
ATOM      3  C   UNL     1       3.442  12.141  -8.318  1.00  0.00     0.053 C 
ATOM      4  C   UNL     1       3.572  10.642  -8.633  1.00  0.00     0.016 C 
BRANCH   3   5
ATOM      5  C   UNL     1       2.094  12.713  -8.800  1.00  0.00     0.015 C 
BRANCH   5   6
ATOM      6  C   UNL     1       2.066  14.253  -8.898  1.00  0.00     0.028 C 
BRANCH   6   7
ATOM      7  C   UNL     1       1.620  14.874  -7.599  1.00  0.00    -0.028 C 
ATOM      8  C   UNL     1       2.384  15.685  -6.830  1.00  0.00    -0.070 CG0
ATOM      9  C   UNL     1       1.769  16.258  -5.577  1.00  0.00     0.039 C 
ATOM     10  G   UNL     1       3.826  16.034  -7.165  1.00  0.00     0.000 G0
ENDBRANCH   6   7
ENDBRANCH   5   6
ENDBRANCH   3   5
ENDBRANCH   1   3
BRANCH   1  11
ATOM     11  C   UNL     1       5.064  12.767  -6.337  1.00  0.00     0.087 C 
BRANCH  11  12
ATOM     12  C   UNL     1       5.595  14.111  -6.901  1.00  0.00     0.066 C 
BRANCH  12  13
ATOM     13  C   UNL     1       4.795  15.260  -6.307  1.00  0.00     0.140 C 
ATOM     14  O   UNL     1       4.881  15.497  -5.109  1.00  0.00    -0.299 OA
BRANCH  13  15
ATOM     15  C   UNL     1       3.818  16.036  -7.155  1.00  0.00     0.106 CG0
ATOM     16  G   UNL     1       2.370  15.693  -6.837  1.00  0.00     0.000 G0
ENDBRANCH  13  15
ENDBRANCH  12  13
BRANCH  12  17
ATOM     17  C   UNL     1       5.557  14.167  -8.463  1.00  0.00    -0.006 C 
ATOM     18  C   UNL     1       6.009  15.545  -8.983  1.00  0.00     0.008 C 
ATOM     19  C   UNL     1       6.439  13.082  -9.111  1.00  0.00     0.008 C 
ENDBRANCH  12  17
ENDBRANCH  11  12
ENDBRANCH   1  11
TORSDOF 1
ENDMDL
MODEL 7
REMARK VINA RESULT:    -2.122      1.989      3.955
REMARK INTER + INTRA:          -2.785
REMARK INTER:                  -6.074
REMARK INTRA:                   3.289
REMARK UNBOUND:                 0.454
REMARK SMILES CC1=CCC[C@H](C)C(=O)C[C@@H](C(C)C)C(=O)C1
REMARK SMILES IDX 8 1 9 2 6 3 7 4 5 5 4 6 3 7 2 8 1 9 10 11 11 12 15 13 16 14
REMARK SMILES IDX 17 15 12 17 13 18 14 19
REMARK H PARENT
REMARK Flexibility Score: 70.00
ROOT
ATOM      1  C   UNL     1       3.936  15.841  -5.118  1.00  0.00     0.136 C 
ATOM      2  O   UNL     1       4.944  16.131  -4.488  1.00  0.00    -0.299 OA
ENDROOT
BRANCH   1   3
ATOM      3  C   UNL     1       3.447  16.746  -6.236  1.00  0.00     0.053 C 
ATOM      4  C   UNL     1       3.242  18.195  -5.765  1.00  0.00     0.016 C 
BRANCH   3   5
ATOM      5  C   UNL     1       4.370  16.670  -7.469  1.00  0.00     0.015 C 
BRANCH   5   6
ATOM      6  C   UNL     1       3.775  15.870  -8.647  1.00  0.00     0.028 C 
BRANCH   6   7
ATOM      7  C   UNL     1       4.685  14.737  -9.051  1.00  0.00    -0.028 C 
ATOM      8  C   UNL     1       5.547  14.107  -8.219  1.00  0.00    -0.070 CG0
ATOM      9  C   UNL     1       6.357  12.963  -8.774  1.00  0.00     0.039 C 
ATOM     10  G   UNL     1       5.741  14.505  -6.763  1.00  0.00     0.000 G0
ENDBRANCH   6   7
ENDBRANCH   5   6
ENDBRANCH   3   5
ENDBRANCH   1   3
BRANCH   1  11
ATOM     11  C   UNL     1       3.194  14.573  -4.766  1.00  0.00     0.087 C 
BRANCH  11  12
ATOM     12  C   UNL     1       3.714  13.350  -5.566  1.00  0.00     0.066 C 
BRANCH  12  13
ATOM     13  C   UNL     1       5.213  13.486  -5.780  1.00  0.00     0.140 C 
ATOM     14  O   UNL     1       5.982  12.833  -5.086  1.00  0.00    -0.299 OA
BRANCH  13  15
ATOM     15  C   UNL     1       5.762  14.495  -6.758  1.00  0.00     0.106 CG0
ATOM     16  G   UNL     1       5.562  14.073  -8.206  1.00  0.00     0.000 G0
ENDBRANCH  13  15
ENDBRANCH  12  13
BRANCH  12  17
ATOM     17  C   UNL     1       2.979  13.169  -6.934  1.00  0.00    -0.006 C 
ATOM     18  C   UNL     1       2.888  11.681  -7.325  1.00  0.00     0.008 C 
ATOM     19  C   UNL     1       1.557  13.762  -6.920  1.00  0.00     0.008 C 
ENDBRANCH  12  17
ENDBRANCH  11  12
ENDBRANCH   1  11
TORSDOF 1
ENDMDL
MODEL 8
REMARK VINA RESULT:    -1.962      2.068      5.053
REMARK INTER + INTRA:          -2.541
REMARK INTER:                  -4.717
REMARK INTRA:                   2.176
REMARK UNBOUND:                 0.454
REMARK SMILES CC1=CCC[C@H](C)C(=O)C[C@@H](C(C)C)C(=O)C1
REMARK SMILES IDX 8 1 9 2 6 3 7 4 5 5 4 6 3 7 2 8 1 9 10 11 11 12 15 13 16 14
REMARK SMILES IDX 17 15 12 17 13 18 14 19
REMARK H PARENT
REMARK Flexibility Score: 70.00
ROOT
ATOM      1  C   UNL     1       4.801  15.416  -6.403  1.00  0.00     0.136 C 
ATOM      2  O   UNL     1       4.855  16.039  -7.455  1.00  0.00    -0.299 OA
ENDROOT
BRANCH   1   3
ATOM      3  C   UNL     1       4.365  16.112  -5.125  1.00  0.00     0.053 C 
ATOM      4  C   UNL     1       3.697  17.469  -5.401  1.00  0.00     0.016 C 
BRANCH   3   5
ATOM      5  C   UNL     1       3.473  15.199  -4.260  1.00  0.00     0.015 C 
BRANCH   5   6
ATOM      6  C   UNL     1       1.972  15.278  -4.610  1.00  0.00     0.028 C 
BRANCH   6   7
ATOM      7  C   UNL     1       1.760  15.288  -6.103  1.00  0.00    -0.028 C 
ATOM      8  C   UNL     1       1.884  14.205  -6.906  1.00  0.00    -0.070 CG0
ATOM      9  C   UNL     1       1.596  14.377  -8.376  1.00  0.00     0.039 C 
ATOM     10  G   UNL     1       2.308  12.835  -6.397  1.00  0.00     0.000 G0
ENDBRANCH   6   7
ENDBRANCH   5   6
ENDBRANCH   3   5
ENDBRANCH   1   3
BRANCH   1  11
ATOM     11  C   UNL     1       5.172  13.952  -6.401  1.00  0.00     0.087 C 
BRANCH  11  12
ATOM     12  C   UNL     1       4.614  13.205  -7.641  1.00  0.00     0.066 C 
BRANCH  12  13
ATOM     13  C   UNL     1       3.478  12.291  -7.211  1.00  0.00     0.140 C 
ATOM     14  O   UNL     1       3.466  11.126  -7.587  1.00  0.00    -0.299 OA
BRANCH  13  15
ATOM     15  C   UNL     1       2.312  12.833  -6.420  1.00  0.00     0.106 CG0
ATOM     16  G   UNL     1       1.849  14.192  -6.921  1.00  0.00     0.000 G0
ENDBRANCH  13  15
ENDBRANCH  12  13
BRANCH  12  17
ATOM     17  C   UNL     1       5.712  12.394  -8.401  1.00  0.00    -0.006 C 
ATOM     18  C   UNL     1       6.739  13.332  -9.064  1.00  0.00     0.008 C 
ATOM     19  C   UNL     1       6.464  11.415  -7.478  1.00  0.00     0.008 C 
ENDBRANCH  12  17
ENDBRANCH  11  12
ENDBRANCH   1  11
TORSDOF 1
ENDMDL
MODEL 9
REMARK VINA RESULT:    -1.903      2.065      4.763
REMARK INTER + INTRA:          -2.450
REMARK INTER:                  -3.754
REMARK INTRA:                   1.304
REMARK UNBOUND:                 0.454
REMARK SMILES CC1=CCC[C@H](C)C(=O)C[C@@H](C(C)C)C(=O)C1
REMARK SMILES IDX 8 1 9 2 6 3 7 4 5 5 4 6 3 7 2 8 1 9 10 11 11 12 15 13 16 14
REMARK SMILES IDX 17 15 12 17 13 18 14 19
REMARK H PARENT
REMARK Flexibility Score: 70.00
ROOT
ATOM      1  C   UNL     1       3.775  14.813  -5.158  1.00  0.00     0.136 C 
ATOM      2  O   UNL     1       3.684  15.268  -4.026  1.00  0.00    -0.299 OA
ENDROOT
BRANCH   1   3
ATOM      3  C   UNL     1       3.810  15.746  -6.356  1.00  0.00     0.053 C 
ATOM      4  C   UNL     1       3.846  17.225  -5.941  1.00  0.00     0.016 C 
BRANCH   3   5
ATOM      5  C   UNL     1       4.965  15.393  -7.315  1.00  0.00     0.015 C 
BRANCH   5   6
ATOM      6  C   UNL     1       4.555  15.358  -8.803  1.00  0.00     0.028 C 
BRANCH   6   7
ATOM      7  C   UNL     1       3.063  15.206  -8.953  1.00  0.00    -0.028 C 
ATOM      8  C   UNL     1       2.409  14.021  -9.003  1.00  0.00    -0.070 CG0
ATOM      9  C   UNL     1       0.905  14.046  -9.114  1.00  0.00     0.039 C 
ATOM     10  G   UNL     1       3.119  12.676  -8.961  1.00  0.00     0.000 G0
ENDBRANCH   6   7
ENDBRANCH   5   6
ENDBRANCH   3   5
ENDBRANCH   1   3
BRANCH   1  11
ATOM     11  C   UNL     1       3.854  13.315  -5.340  1.00  0.00     0.087 C 
BRANCH  11  12
ATOM     12  C   UNL     1       4.445  12.923  -6.719  1.00  0.00     0.066 C 
BRANCH  12  13
ATOM     13  C   UNL     1       3.379  12.217  -7.543  1.00  0.00     0.140 C 
ATOM     14  O   UNL     1       2.821  11.229  -7.086  1.00  0.00    -0.299 OA
BRANCH  13  15
ATOM     15  C   UNL     1       3.084  12.656  -8.957  1.00  0.00     0.106 CG0
ATOM     16  G   UNL     1       2.417  14.022  -9.016  1.00  0.00     0.000 G0
ENDBRANCH  13  15
ENDBRANCH  12  13
BRANCH  12  17
ATOM     17  C   UNL     1       5.723  12.032  -6.597  1.00  0.00    -0.006 C 
ATOM     18  C   UNL     1       6.516  12.010  -7.918  1.00  0.00     0.008 C 
ATOM     19  C   UNL     1       6.661  12.503  -5.469  1.00  0.00     0.008 C 
ENDBRANCH  12  17
ENDBRANCH  11  12
ENDBRANCH   1  11
TORSDOF 1
ENDMDL
