MODEL 1
REMARK VINA RESULT:    -3.545      0.000      0.000
REMARK INTER + INTRA:          -7.869
REMARK INTER:                  -6.031
REMARK INTRA:                  -1.838
REMARK UNBOUND:                -1.838
REMARK SMILES CC(=O)CCC[C@@H](C)CCC[C@H](C)CCCC(C)C
REMARK SMILES IDX 10 1 11 2 12 3 13 4 14 5 15 6 16 7 17 8 18 9 19 10 9 11 7 12
REMARK SMILES IDX 8 13 6 14 5 15 4 16 2 17 3 18 1 19
REMARK H PARENT
REMARK Flexibility Score: inf
ROOT
ATOM      1  C   UNL     1     145.458 139.474 144.446  1.00  0.00     0.001 C 
ENDROOT
BRANCH   1   2
ATOM      2  C   UNL     1     144.473 140.466 145.107  1.00  0.00     0.003 C 
BRANCH   2   3
ATOM      3  C   UNL     1     142.966 140.182 144.862  1.00  0.00    -0.014 C 
ATOM      4  C   UNL     1     142.682 138.685 144.679  1.00  0.00     0.007 C 
BRANCH   3   5
ATOM      5  C   UNL     1     142.395 141.036 143.701  1.00  0.00     0.003 C 
BRANCH   5   6
ATOM      6  C   UNL     1     143.126 142.384 143.507  1.00  0.00     0.001 C 
BRANCH   6   7
ATOM      7  C   UNL     1     142.197 143.474 142.942  1.00  0.00     0.003 C 
BRANCH   7   8
ATOM      8  C   UNL     1     141.931 144.619 143.946  1.00  0.00    -0.017 C 
ATOM      9  C   UNL     1     142.922 144.596 145.121  1.00  0.00     0.007 C 
ATOM     10  C   UNL     1     142.008 145.973 143.227  1.00  0.00     0.007 C 
ENDBRANCH   7   8
ENDBRANCH   6   7
ENDBRANCH   5   6
ENDBRANCH   3   5
ENDBRANCH   2   3
ENDBRANCH   1   2
BRANCH   1  11
ATOM     11  C   UNL     1     146.141 140.036 143.174  1.00  0.00     0.003 C 
BRANCH  11  12
ATOM     12  C   UNL     1     146.288 138.989 142.044  1.00  0.00    -0.014 C 
ATOM     13  C   UNL     1     147.764 138.572 141.920  1.00  0.00     0.007 C 
BRANCH  12  14
ATOM     14  C   UNL     1     145.748 139.544 140.702  1.00  0.00     0.004 C 
BRANCH  14  15
ATOM     15  C   UNL     1     145.482 141.058 140.747  1.00  0.00     0.008 C 
BRANCH  15  16
ATOM     16  C   UNL     1     146.325 141.798 139.702  1.00  0.00     0.075 C 
BRANCH  16  17
ATOM     17  C   UNL     1     147.791 141.698 140.033  1.00  0.00     0.129 C 
ATOM     18  O   UNL     1     148.204 142.167 141.082  1.00  0.00    -0.300 OA
ATOM     19  C   UNL     1     148.758 141.022 139.105  1.00  0.00     0.087 C 
ENDBRANCH  16  17
ENDBRANCH  15  16
ENDBRANCH  14  15
ENDBRANCH  12  14
ENDBRANCH  11  12
ENDBRANCH   1  11
TORSDOF 12
ENDMDL
MODEL 2
REMARK VINA RESULT:    -3.492      2.207      6.582
REMARK INTER + INTRA:          -7.779
REMARK INTER:                  -5.781
REMARK INTRA:                  -1.998
REMARK UNBOUND:                -1.838
REMARK SMILES CC(=O)CCC[C@@H](C)CCC[C@H](C)CCCC(C)C
REMARK SMILES IDX 10 1 11 2 12 3 13 4 14 5 15 6 16 7 17 8 18 9 19 10 9 11 7 12
REMARK SMILES IDX 8 13 6 14 5 15 4 16 2 17 3 18 1 19
REMARK H PARENT
REMARK Flexibility Score: inf
ROOT
ATOM      1  C   UNL     1     145.817 139.922 144.395  1.00  0.00     0.001 C 
ENDROOT
BRANCH   1   2
ATOM      2  C   UNL     1     146.318 139.673 142.953  1.00  0.00     0.003 C 
BRANCH   2   3
ATOM      3  C   UNL     1     145.678 140.566 141.856  1.00  0.00    -0.014 C 
ATOM      4  C   UNL     1     144.437 139.915 141.230  1.00  0.00     0.007 C 
BRANCH   3   5
ATOM      5  C   UNL     1     146.713 141.008 140.789  1.00  0.00     0.003 C 
BRANCH   5   6
ATOM      6  C   UNL     1     148.032 141.543 141.391  1.00  0.00     0.001 C 
BRANCH   6   7
ATOM      7  C   UNL     1     149.245 140.680 140.993  1.00  0.00     0.003 C 
BRANCH   7   8
ATOM      8  C   UNL     1     148.882 139.551 140.002  1.00  0.00    -0.017 C 
ATOM      9  C   UNL     1     149.596 139.719 138.652  1.00  0.00     0.007 C 
ATOM     10  C   UNL     1     149.234 138.188 140.611  1.00  0.00     0.007 C 
ENDBRANCH   7   8
ENDBRANCH   6   7
ENDBRANCH   5   6
ENDBRANCH   3   5
ENDBRANCH   2   3
ENDBRANCH   1   2
BRANCH   1  11
ATOM     11  C   UNL     1     144.789 138.870 144.883  1.00  0.00     0.003 C 
BRANCH  11  12
ATOM     12  C   UNL     1     143.379 139.459 145.125  1.00  0.00    -0.014 C 
ATOM     13  C   UNL     1     142.379 138.819 144.145  1.00  0.00     0.007 C 
BRANCH  12  14
ATOM     14  C   UNL     1     143.392 141.002 144.982  1.00  0.00     0.004 C 
BRANCH  14  15
ATOM     15  C   UNL     1     142.374 141.513 143.948  1.00  0.00     0.008 C 
BRANCH  15  16
ATOM     16  C   UNL     1     142.763 142.904 143.432  1.00  0.00     0.075 C 
BRANCH  16  17
ATOM     17  C   UNL     1     141.973 143.974 144.141  1.00  0.00     0.129 C 
ATOM     18  O   UNL     1     140.777 144.083 143.920  1.00  0.00    -0.300 OA
ATOM     19  C   UNL     1     142.622 144.903 145.124  1.00  0.00     0.087 C 
ENDBRANCH  16  17
ENDBRANCH  15  16
ENDBRANCH  14  15
ENDBRANCH  12  14
ENDBRANCH  11  12
ENDBRANCH   1  11
TORSDOF 12
ENDMDL
MODEL 3
REMARK VINA RESULT:    -3.364      3.751      6.456
REMARK INTER + INTRA:          -7.561
REMARK INTER:                  -5.635
REMARK INTRA:                  -1.926
REMARK UNBOUND:                -1.838
REMARK SMILES CC(=O)CCC[C@@H](C)CCC[C@H](C)CCCC(C)C
REMARK SMILES IDX 10 1 11 2 12 3 13 4 14 5 15 6 16 7 17 8 18 9 19 10 9 11 7 12
REMARK SMILES IDX 8 13 6 14 5 15 4 16 2 17 3 18 1 19
REMARK H PARENT
REMARK Flexibility Score: inf
ROOT
ATOM      1  C   UNL     1     141.744 138.017 142.225  1.00  0.00     0.001 C 
ENDROOT
BRANCH   1   2
ATOM      2  C   UNL     1     140.246 138.371 142.068  1.00  0.00     0.003 C 
BRANCH   2   3
ATOM      3  C   UNL     1     139.283 137.685 143.074  1.00  0.00    -0.014 C 
ATOM      4  C   UNL     1     138.868 138.628 144.211  1.00  0.00     0.007 C 
BRANCH   3   5
ATOM      5  C   UNL     1     139.851 136.342 143.600  1.00  0.00     0.003 C 
BRANCH   5   6
ATOM      6  C   UNL     1     139.391 135.114 142.781  1.00  0.00     0.001 C 
BRANCH   6   7
ATOM      7  C   UNL     1     140.560 134.441 142.036  1.00  0.00     0.003 C 
BRANCH   7   8
ATOM      8  C   UNL     1     140.414 134.512 140.499  1.00  0.00    -0.017 C 
ATOM      9  C   UNL     1     139.210 135.368 140.074  1.00  0.00     0.007 C 
ATOM     10  C   UNL     1     141.698 135.075 139.878  1.00  0.00     0.007 C 
ENDBRANCH   7   8
ENDBRANCH   6   7
ENDBRANCH   5   6
ENDBRANCH   3   5
ENDBRANCH   2   3
ENDBRANCH   1   2
BRANCH   1  11
ATOM     11  C   UNL     1     142.626 139.225 142.629  1.00  0.00     0.003 C 
BRANCH  11  12
ATOM     12  C   UNL     1     143.311 139.050 144.005  1.00  0.00    -0.014 C 
ATOM     13  C   UNL     1     142.265 139.209 145.123  1.00  0.00     0.007 C 
BRANCH  12  14
ATOM     14  C   UNL     1     144.471 140.062 144.177  1.00  0.00     0.004 C 
BRANCH  14  15
ATOM     15  C   UNL     1     145.857 139.404 144.066  1.00  0.00     0.008 C 
BRANCH  15  16
ATOM     16  C   UNL     1     146.675 140.029 142.930  1.00  0.00     0.075 C 
BRANCH  16  17
ATOM     17  C   UNL     1     146.885 139.035 141.818  1.00  0.00     0.129 C 
ATOM     18  O   UNL     1     147.830 138.263 141.872  1.00  0.00    -0.300 OA
ATOM     19  C   UNL     1     145.951 138.963 140.646  1.00  0.00     0.087 C 
ENDBRANCH  16  17
ENDBRANCH  15  16
ENDBRANCH  14  15
ENDBRANCH  12  14
ENDBRANCH  11  12
ENDBRANCH   1  11
TORSDOF 12
ENDMDL
MODEL 4
REMARK VINA RESULT:    -3.338      2.450      6.350
REMARK INTER + INTRA:          -7.517
REMARK INTER:                  -5.670
REMARK INTRA:                  -1.847
REMARK UNBOUND:                -1.838
REMARK SMILES CC(=O)CCC[C@@H](C)CCC[C@H](C)CCCC(C)C
REMARK SMILES IDX 10 1 11 2 12 3 13 4 14 5 15 6 16 7 17 8 18 9 19 10 9 11 7 12
REMARK SMILES IDX 8 13 6 14 5 15 4 16 2 17 3 18 1 19
REMARK H PARENT
REMARK Flexibility Score: inf
ROOT
ATOM      1  C   UNL     1     142.975 141.773 141.845  1.00  0.00     0.001 C 
ENDROOT
BRANCH   1   2
ATOM      2  C   UNL     1     142.906 140.231 141.742  1.00  0.00     0.003 C 
BRANCH   2   3
ATOM      3  C   UNL     1     143.744 139.448 142.788  1.00  0.00    -0.014 C 
ATOM      4  C   UNL     1     142.892 138.970 143.972  1.00  0.00     0.007 C 
BRANCH   3   5
ATOM      5  C   UNL     1     144.994 140.243 143.245  1.00  0.00     0.003 C 
BRANCH   5   6
ATOM      6  C   UNL     1     146.315 139.450 143.109  1.00  0.00     0.001 C 
BRANCH   6   7
ATOM      7  C   UNL     1     146.974 139.649 141.731  1.00  0.00     0.003 C 
BRANCH   7   8
ATOM      8  C   UNL     1     146.768 141.073 141.166  1.00  0.00    -0.017 C 
ATOM      9  C   UNL     1     148.095 141.840 141.043  1.00  0.00     0.007 C 
ATOM     10  C   UNL     1     146.083 140.997 139.795  1.00  0.00     0.007 C 
ENDBRANCH   7   8
ENDBRANCH   6   7
ENDBRANCH   5   6
ENDBRANCH   3   5
ENDBRANCH   2   3
ENDBRANCH   1   2
BRANCH   1  11
ATOM     11  C   UNL     1     141.927 142.375 142.814  1.00  0.00     0.003 C 
BRANCH  11  12
ATOM     12  C   UNL     1     142.515 143.441 143.768  1.00  0.00    -0.014 C 
ATOM     13  C   UNL     1     142.871 142.786 145.115  1.00  0.00     0.007 C 
BRANCH  12  14
ATOM     14  C   UNL     1     141.524 144.616 143.963  1.00  0.00     0.004 C 
BRANCH  14  15
ATOM     15  C   UNL     1     142.112 145.970 143.533  1.00  0.00     0.008 C 
BRANCH  15  16
ATOM     16  C   UNL     1     142.263 146.048 142.009  1.00  0.00     0.075 C 
BRANCH  16  17
ATOM     17  C   UNL     1     140.944 146.380 141.361  1.00  0.00     0.129 C 
ATOM     18  O   UNL     1     140.327 145.505 140.773  1.00  0.00    -0.300 OA
ATOM     19  C   UNL     1     140.362 147.761 141.432  1.00  0.00     0.087 C 
ENDBRANCH  16  17
ENDBRANCH  15  16
ENDBRANCH  14  15
ENDBRANCH  12  14
ENDBRANCH  11  12
ENDBRANCH   1  11
TORSDOF 12
ENDMDL
MODEL 5
REMARK VINA RESULT:    -3.329      3.714      5.442
REMARK INTER + INTRA:          -7.502
REMARK INTER:                  -5.150
REMARK INTRA:                  -2.352
REMARK UNBOUND:                -1.838
REMARK SMILES CC(=O)CCC[C@@H](C)CCC[C@H](C)CCCC(C)C
REMARK SMILES IDX 10 1 11 2 12 3 13 4 14 5 15 6 16 7 17 8 18 9 19 10 9 11 7 12
REMARK SMILES IDX 8 13 6 14 5 15 4 16 2 17 3 18 1 19
REMARK H PARENT
REMARK Flexibility Score: inf
ROOT
ATOM      1  C   UNL     1     142.403 140.688 145.120  1.00  0.00     0.001 C 
ENDROOT
BRANCH   1   2
ATOM      2  C   UNL     1     142.732 139.315 144.487  1.00  0.00     0.003 C 
BRANCH   2   3
ATOM      3  C   UNL     1     141.521 138.531 143.916  1.00  0.00    -0.014 C 
ATOM      4  C   UNL     1     141.346 138.754 142.407  1.00  0.00     0.007 C 
BRANCH   3   5
ATOM      5  C   UNL     1     140.218 138.814 144.707  1.00  0.00     0.003 C 
BRANCH   5   6
ATOM      6  C   UNL     1     139.003 139.131 143.805  1.00  0.00     0.001 C 
BRANCH   6   7
ATOM      7  C   UNL     1     138.269 140.411 144.248  1.00  0.00     0.003 C 
BRANCH   7   8
ATOM      8  C   UNL     1     139.039 141.702 143.889  1.00  0.00    -0.017 C 
ATOM      9  C   UNL     1     138.681 142.214 142.484  1.00  0.00     0.007 C 
ATOM     10  C   UNL     1     138.747 142.791 144.929  1.00  0.00     0.007 C 
ENDBRANCH   7   8
ENDBRANCH   6   7
ENDBRANCH   5   6
ENDBRANCH   3   5
ENDBRANCH   2   3
ENDBRANCH   1   2
BRANCH   1  11
ATOM     11  C   UNL     1     143.163 141.869 144.464  1.00  0.00     0.003 C 
BRANCH  11  12
ATOM     12  C   UNL     1     142.308 142.656 143.443  1.00  0.00    -0.014 C 
ATOM     13  C   UNL     1     142.844 142.404 142.022  1.00  0.00     0.007 C 
BRANCH  12  14
ATOM     14  C   UNL     1     142.301 144.169 143.777  1.00  0.00     0.004 C 
BRANCH  14  15
ATOM     15  C   UNL     1     141.291 144.962 142.932  1.00  0.00     0.008 C 
BRANCH  15  16
ATOM     16  C   UNL     1     141.589 146.465 142.981  1.00  0.00     0.075 C 
BRANCH  16  17
ATOM     17  C   UNL     1     142.575 146.847 141.909  1.00  0.00     0.129 C 
ATOM     18  O   UNL     1     143.313 147.805 142.085  1.00  0.00    -0.300 OA
ATOM     19  C   UNL     1     142.682 146.069 140.630  1.00  0.00     0.087 C 
ENDBRANCH  16  17
ENDBRANCH  15  16
ENDBRANCH  14  15
ENDBRANCH  12  14
ENDBRANCH  11  12
ENDBRANCH   1  11
TORSDOF 12
ENDMDL
MODEL 6
REMARK VINA RESULT:    -3.299      6.295      7.946
REMARK INTER + INTRA:          -7.451
REMARK INTER:                  -6.174
REMARK INTRA:                  -1.277
REMARK UNBOUND:                -1.838
REMARK SMILES CC(=O)CCC[C@@H](C)CCC[C@H](C)CCCC(C)C
REMARK SMILES IDX 10 1 11 2 12 3 13 4 14 5 15 6 16 7 17 8 18 9 19 10 9 11 7 12
REMARK SMILES IDX 8 13 6 14 5 15 4 16 2 17 3 18 1 19
REMARK H PARENT
REMARK Flexibility Score: inf
ROOT
ATOM      1  C   UNL     1     138.692 139.691 143.483  1.00  0.00     0.001 C 
ENDROOT
BRANCH   1   2
ATOM      2  C   UNL     1     139.363 141.038 143.127  1.00  0.00     0.003 C 
BRANCH   2   3
ATOM      3  C   UNL     1     138.886 142.265 143.951  1.00  0.00    -0.014 C 
ATOM      4  C   UNL     1     140.057 143.030 144.581  1.00  0.00     0.007 C 
BRANCH   3   5
ATOM      5  C   UNL     1     137.804 141.881 144.993  1.00  0.00     0.003 C 
BRANCH   5   6
ATOM      6  C   UNL     1     136.426 142.528 144.721  1.00  0.00     0.001 C 
BRANCH   6   7
ATOM      7  C   UNL     1     135.548 141.659 143.801  1.00  0.00     0.003 C 
BRANCH   7   8
ATOM      8  C   UNL     1     135.548 142.144 142.334  1.00  0.00    -0.017 C 
ATOM      9  C   UNL     1     135.850 141.002 141.350  1.00  0.00     0.007 C 
ATOM     10  C   UNL     1     134.194 142.780 141.993  1.00  0.00     0.007 C 
ENDBRANCH   7   8
ENDBRANCH   6   7
ENDBRANCH   5   6
ENDBRANCH   3   5
ENDBRANCH   2   3
ENDBRANCH   1   2
BRANCH   1  11
ATOM     11  C   UNL     1     139.598 138.750 144.316  1.00  0.00     0.003 C 
BRANCH  11  12
ATOM     12  C   UNL     1     139.236 137.254 144.161  1.00  0.00    -0.014 C 
ATOM     13  C   UNL     1     140.095 136.414 145.123  1.00  0.00     0.007 C 
BRANCH  12  14
ATOM     14  C   UNL     1     139.422 136.789 142.694  1.00  0.00     0.004 C 
BRANCH  14  15
ATOM     15  C   UNL     1     139.810 135.305 142.584  1.00  0.00     0.008 C 
BRANCH  15  16
ATOM     16  C   UNL     1     140.767 135.070 141.409  1.00  0.00     0.075 C 
BRANCH  16  17
ATOM     17  C   UNL     1     141.005 133.597 141.204  1.00  0.00     0.129 C 
ATOM     18  O   UNL     1     142.049 133.097 141.594  1.00  0.00    -0.300 OA
ATOM     19  C   UNL     1     139.980 132.723 140.541  1.00  0.00     0.087 C 
ENDBRANCH  16  17
ENDBRANCH  15  16
ENDBRANCH  14  15
ENDBRANCH  12  14
ENDBRANCH  11  12
ENDBRANCH   1  11
TORSDOF 12
ENDMDL
MODEL 7
REMARK VINA RESULT:    -3.269      4.271      6.867
REMARK INTER + INTRA:          -7.399
REMARK INTER:                  -5.428
REMARK INTRA:                  -1.971
REMARK UNBOUND:                -1.838
REMARK SMILES CC(=O)CCC[C@@H](C)CCC[C@H](C)CCCC(C)C
REMARK SMILES IDX 10 1 11 2 12 3 13 4 14 5 15 6 16 7 17 8 18 9 19 10 9 11 7 12
REMARK SMILES IDX 8 13 6 14 5 15 4 16 2 17 3 18 1 19
REMARK H PARENT
REMARK Flexibility Score: inf
ROOT
ATOM      1  C   UNL     1     138.884 139.664 143.815  1.00  0.00     0.001 C 
ENDROOT
BRANCH   1   2
ATOM      2  C   UNL     1     137.833 140.646 144.383  1.00  0.00     0.003 C 
BRANCH   2   3
ATOM      3  C   UNL     1     138.058 142.144 144.044  1.00  0.00    -0.014 C 
ATOM      4  C   UNL     1     138.464 142.350 142.578  1.00  0.00     0.007 C 
BRANCH   3   5
ATOM      5  C   UNL     1     139.046 142.821 145.029  1.00  0.00     0.003 C 
BRANCH   5   6
ATOM      6  C   UNL     1     140.354 143.301 144.360  1.00  0.00     0.001 C 
BRANCH   6   7
ATOM      7  C   UNL     1     141.600 142.638 144.978  1.00  0.00     0.003 C 
BRANCH   7   8
ATOM      8  C   UNL     1     142.180 141.508 144.097  1.00  0.00    -0.017 C 
ATOM      9  C   UNL     1     142.248 141.911 142.615  1.00  0.00     0.007 C 
ATOM     10  C   UNL     1     143.579 141.122 144.596  1.00  0.00     0.007 C 
ENDBRANCH   7   8
ENDBRANCH   6   7
ENDBRANCH   5   6
ENDBRANCH   3   5
ENDBRANCH   2   3
ENDBRANCH   1   2
BRANCH   1  11
ATOM     11  C   UNL     1     139.763 139.000 144.905  1.00  0.00     0.003 C 
BRANCH  11  12
ATOM     12  C   UNL     1     140.476 137.716 144.419  1.00  0.00    -0.014 C 
ATOM     13  C   UNL     1     141.345 138.044 143.192  1.00  0.00     0.007 C 
BRANCH  12  14
ATOM     14  C   UNL     1     139.448 136.602 144.095  1.00  0.00     0.004 C 
BRANCH  14  15
ATOM     15  C   UNL     1     139.446 136.208 142.608  1.00  0.00     0.008 C 
BRANCH  15  16
ATOM     16  C   UNL     1     139.783 134.722 142.431  1.00  0.00     0.075 C 
BRANCH  16  17
ATOM     17  C   UNL     1     140.932 134.548 141.472  1.00  0.00     0.129 C 
ATOM     18  O   UNL     1     141.237 135.467 140.728  1.00  0.00    -0.300 OA
ATOM     19  C   UNL     1     141.720 133.273 141.418  1.00  0.00     0.087 C 
ENDBRANCH  16  17
ENDBRANCH  15  16
ENDBRANCH  14  15
ENDBRANCH  12  14
ENDBRANCH  11  12
ENDBRANCH   1  11
TORSDOF 12
ENDMDL
MODEL 8
REMARK VINA RESULT:    -3.260      4.206      7.097
REMARK INTER + INTRA:          -7.385
REMARK INTER:                  -5.731
REMARK INTRA:                  -1.655
REMARK UNBOUND:                -1.838
REMARK SMILES CC(=O)CCC[C@@H](C)CCC[C@H](C)CCCC(C)C
REMARK SMILES IDX 10 1 11 2 12 3 13 4 14 5 15 6 16 7 17 8 18 9 19 10 9 11 7 12
REMARK SMILES IDX 8 13 6 14 5 15 4 16 2 17 3 18 1 19
REMARK H PARENT
REMARK Flexibility Score: inf
ROOT
ATOM      1  C   UNL     1     139.444 143.050 144.864  1.00  0.00     0.001 C 
ENDROOT
BRANCH   1   2
ATOM      2  C   UNL     1     138.713 142.723 143.541  1.00  0.00     0.003 C 
BRANCH   2   3
ATOM      3  C   UNL     1     137.456 141.822 143.671  1.00  0.00    -0.014 C 
ATOM      4  C   UNL     1     136.572 142.231 144.857  1.00  0.00     0.007 C 
BRANCH   3   5
ATOM      5  C   UNL     1     137.820 140.315 143.699  1.00  0.00     0.003 C 
BRANCH   5   6
ATOM      6  C   UNL     1     138.081 139.769 145.122  1.00  0.00     0.001 C 
BRANCH   6   7
ATOM      7  C   UNL     1     139.079 138.596 145.120  1.00  0.00     0.003 C 
BRANCH   7   8
ATOM      8  C   UNL     1     139.732 138.362 143.738  1.00  0.00    -0.017 C 
ATOM      9  C   UNL     1     141.248 138.613 143.769  1.00  0.00     0.007 C 
ATOM     10  C   UNL     1     139.450 136.932 143.262  1.00  0.00     0.007 C 
ENDBRANCH   7   8
ENDBRANCH   6   7
ENDBRANCH   5   6
ENDBRANCH   3   5
ENDBRANCH   2   3
ENDBRANCH   1   2
BRANCH   1  11
ATOM     11  C   UNL     1     140.901 142.525 144.912  1.00  0.00     0.003 C 
BRANCH  11  12
ATOM     12  C   UNL     1     141.831 143.205 143.879  1.00  0.00    -0.014 C 
ATOM     13  C   UNL     1     142.893 142.197 143.403  1.00  0.00     0.007 C 
BRANCH  12  14
ATOM     14  C   UNL     1     142.491 144.472 144.478  1.00  0.00     0.004 C 
BRANCH  14  15
ATOM     15  C   UNL     1     141.768 145.768 144.076  1.00  0.00     0.008 C 
BRANCH  15  16
ATOM     16  C   UNL     1     142.197 146.229 142.678  1.00  0.00     0.075 C 
BRANCH  16  17
ATOM     17  C   UNL     1     141.012 146.287 141.750  1.00  0.00     0.129 C 
ATOM     18  O   UNL     1     140.561 145.251 141.285  1.00  0.00    -0.300 OA
ATOM     19  C   UNL     1     140.362 147.591 141.392  1.00  0.00     0.087 C 
ENDBRANCH  16  17
ENDBRANCH  15  16
ENDBRANCH  14  15
ENDBRANCH  12  14
ENDBRANCH  11  12
ENDBRANCH   1  11
TORSDOF 12
ENDMDL
MODEL 9
REMARK VINA RESULT:    -2.905      5.305      7.784
REMARK INTER + INTRA:          -6.781
REMARK INTER:                  -5.370
REMARK INTRA:                  -1.411
REMARK UNBOUND:                -1.838
REMARK SMILES CC(=O)CCC[C@@H](C)CCC[C@H](C)CCCC(C)C
REMARK SMILES IDX 10 1 11 2 12 3 13 4 14 5 15 6 16 7 17 8 18 9 19 10 9 11 7 12
REMARK SMILES IDX 8 13 6 14 5 15 4 16 2 17 3 18 1 19
REMARK H PARENT
REMARK Flexibility Score: inf
ROOT
ATOM      1  C   UNL     1     140.122 143.315 144.047  1.00  0.00     0.001 C 
ENDROOT
BRANCH   1   2
ATOM      2  C   UNL     1     139.232 142.158 144.558  1.00  0.00     0.003 C 
BRANCH   2   3
ATOM      3  C   UNL     1     137.773 142.146 144.028  1.00  0.00    -0.014 C 
ATOM      4  C   UNL     1     136.756 142.487 145.125  1.00  0.00     0.007 C 
BRANCH   3   5
ATOM      5  C   UNL     1     137.431 140.822 143.297  1.00  0.00     0.003 C 
BRANCH   5   6
ATOM      6  C   UNL     1     136.941 141.026 141.845  1.00  0.00     0.001 C 
BRANCH   6   7
ATOM      7  C   UNL     1     136.024 142.257 141.709  1.00  0.00     0.003 C 
BRANCH   7   8
ATOM      8  C   UNL     1     134.564 141.969 142.126  1.00  0.00    -0.017 C 
ATOM      9  C   UNL     1     133.619 143.120 141.744  1.00  0.00     0.007 C 
ATOM     10  C   UNL     1     134.082 140.664 141.479  1.00  0.00     0.007 C 
ENDBRANCH   7   8
ENDBRANCH   6   7
ENDBRANCH   5   6
ENDBRANCH   3   5
ENDBRANCH   2   3
ENDBRANCH   1   2
BRANCH   1  11
ATOM     11  C   UNL     1     140.093 143.484 142.507  1.00  0.00     0.003 C 
BRANCH  11  12
ATOM     12  C   UNL     1     141.307 144.267 141.953  1.00  0.00    -0.014 C 
ATOM     13  C   UNL     1     142.305 143.283 141.315  1.00  0.00     0.007 C 
BRANCH  12  14
ATOM     14  C   UNL     1     141.981 145.103 143.069  1.00  0.00     0.004 C 
BRANCH  14  15
ATOM     15  C   UNL     1     141.500 146.563 143.093  1.00  0.00     0.008 C 
BRANCH  15  16
ATOM     16  C   UNL     1     141.772 147.257 141.753  1.00  0.00     0.075 C 
BRANCH  16  17
ATOM     17  C   UNL     1     140.484 147.714 141.120  1.00  0.00     0.129 C 
ATOM     18  O   UNL     1     139.891 148.673 141.590  1.00  0.00    -0.300 OA
ATOM     19  C   UNL     1     139.917 147.025 139.913  1.00  0.00     0.087 C 
ENDBRANCH  16  17
ENDBRANCH  15  16
ENDBRANCH  14  15
ENDBRANCH  12  14
ENDBRANCH  11  12
ENDBRANCH   1  11
TORSDOF 12
ENDMDL
