MODEL 1
REMARK VINA RESULT:    -5.235      0.000      0.000
REMARK INTER + INTRA:          -6.863
REMARK INTER:                  -7.071
REMARK INTRA:                   0.209
REMARK UNBOUND:                 0.209
REMARK SMILES CC[C@@H](CC[C@@H](C)[C@@H]1CC[C@H]2[C@H]3CC(=O)C4=CC(=O)CC[C@]4(C)[C@@H]3CC[C@@]21C)C(C)C
REMARK SMILES IDX 4 1 3 2 2 3 1 4 29 5 30 6 31 7 5 8 6 9 7 10 8 11 9 12 27 13
REMARK SMILES IDX 10 14 11 15 26 16 28 17 12 18 25 19 24 20 13 21 22 22 14 23
REMARK SMILES IDX 16 24 21 25 23 26 15 27 17 28 20 29 18 30 19 31
REMARK H PARENT
REMARK Flexibility Score: inf
ROOT
ATOM      1  C   UNL     1     -22.514   9.940 -28.678  1.00  0.00     0.004 C 
ENDROOT
BRANCH   1   2
ATOM      2  C   UNL     1     -23.787  10.756 -28.296  1.00  0.00    -0.009 C 
BRANCH   2   3
ATOM      3  C   UNL     1     -24.761   9.882 -27.450  1.00  0.00     0.000 C 
ATOM      4  C   UNL     1     -26.081  10.566 -27.094  1.00  0.00     0.004 C 
ENDBRANCH   2   3
BRANCH   2   5
ATOM      5  C   UNL     1     -24.421  11.386 -29.590  1.00  0.00    -0.014 C 
ATOM      6  C   UNL     1     -25.389  10.446 -30.327  1.00  0.00     0.007 C 
ATOM      7  C   UNL     1     -25.068  12.760 -29.348  1.00  0.00     0.007 C 
ENDBRANCH   2   5
ENDBRANCH   1   2
BRANCH   1   8
ATOM      8  C   UNL     1     -21.462  10.768 -29.447  1.00  0.00     0.004 C 
BRANCH   8   9
ATOM      9  C   UNL     1     -20.158  11.115 -28.669  1.00  0.00    -0.011 C 
ATOM     10  C   UNL     1     -19.259   9.876 -28.471  1.00  0.00     0.008 C 
BRANCH   9  11
ATOM     11  C   UNL     1     -19.428  12.407 -29.185  1.00  0.00    -0.002 C 
ATOM     12  C   UNL     1     -19.515  12.638 -30.725  1.00  0.00     0.005 C 
ATOM     13  C   UNL     1     -17.897  12.599 -28.826  1.00  0.00    -0.026 C 
ATOM     14  C   UNL     1     -18.096  12.883 -31.243  1.00  0.00     0.005 C 
ATOM     15  C   UNL     1     -17.217  12.278 -30.169  1.00  0.00    -0.001 C 
ATOM     16  C   UNL     1     -17.247  11.702 -27.703  1.00  0.00     0.007 C 
ATOM     17  C   UNL     1     -17.735  14.101 -28.418  1.00  0.00     0.012 C 
ATOM     18  C   UNL     1     -15.679  12.493 -30.236  1.00  0.00     0.004 C 
ATOM     19  C   UNL     1     -15.799  11.221 -28.014  1.00  0.00     0.005 C 
ATOM     20  C   UNL     1     -14.997  12.239 -28.862  1.00  0.00     0.003 C 
ATOM     21  C   UNL     1     -15.198  13.848 -30.789  1.00  0.00     0.085 C 
ATOM     22  C   UNL     1     -13.460  11.940 -29.039  1.00  0.00    -0.000 C 
ATOM     23  C   UNL     1     -13.691  13.918 -30.752  1.00  0.00     0.159 C 
ATOM     24  C   UNL     1     -12.892  12.793 -30.186  1.00  0.00     0.005 C 
ATOM     25  C   UNL     1     -13.190  10.441 -29.358  1.00  0.00     0.020 C 
ATOM     26  C   UNL     1     -12.721  12.335 -27.732  1.00  0.00     0.017 C 
ATOM     27  O   UNL     1     -13.111  14.920 -31.253  1.00  0.00    -0.295 OA
ATOM     28  C   UNL     1     -11.724  12.467 -30.763  1.00  0.00     0.055 C 
ATOM     29  C   UNL     1     -11.698  10.146 -29.603  1.00  0.00     0.081 C 
ATOM     30  C   UNL     1     -11.037  11.202 -30.444  1.00  0.00     0.156 C 
ATOM     31  O   UNL     1      -9.875  11.002 -30.886  1.00  0.00    -0.295 OA
ENDBRANCH   9  11
ENDBRANCH   8   9
ENDBRANCH   1   8
TORSDOF 6
ENDMDL
MODEL 2
REMARK VINA RESULT:    -4.262      3.944      6.688
REMARK INTER + INTRA:          -5.549
REMARK INTER:                  -4.040
REMARK INTRA:                  -1.509
REMARK UNBOUND:                 0.209
REMARK SMILES CC[C@@H](CC[C@@H](C)[C@@H]1CC[C@H]2[C@H]3CC(=O)C4=CC(=O)CC[C@]4(C)[C@@H]3CC[C@@]21C)C(C)C
REMARK SMILES IDX 4 1 3 2 2 3 1 4 29 5 30 6 31 7 5 8 6 9 7 10 8 11 9 12 27 13
REMARK SMILES IDX 10 14 11 15 26 16 28 17 12 18 25 19 24 20 13 21 22 22 14 23
REMARK SMILES IDX 16 24 21 25 23 26 15 27 17 28 20 29 18 30 19 31
REMARK H PARENT
REMARK Flexibility Score: inf
ROOT
ATOM      1  C   UNL     1     -14.311  10.916 -26.437  1.00  0.00     0.004 C 
ENDROOT
BRANCH   1   2
ATOM      2  C   UNL     1     -13.034  10.023 -26.459  1.00  0.00    -0.009 C 
BRANCH   2   3
ATOM      3  C   UNL     1     -12.439   9.887 -25.025  1.00  0.00     0.000 C 
ATOM      4  C   UNL     1     -10.954  10.232 -24.918  1.00  0.00     0.004 C 
ENDBRANCH   2   3
BRANCH   2   5
ATOM      5  C   UNL     1     -12.028  10.564 -27.540  1.00  0.00    -0.014 C 
ATOM      6  C   UNL     1     -12.418  10.208 -28.984  1.00  0.00     0.007 C 
ATOM      7  C   UNL     1     -11.737  12.069 -27.407  1.00  0.00     0.007 C 
ENDBRANCH   2   5
ENDBRANCH   1   2
BRANCH   1   8
ATOM      8  C   UNL     1     -15.626  10.108 -26.481  1.00  0.00     0.004 C 
BRANCH   8   9
ATOM      9  C   UNL     1     -16.932  10.931 -26.691  1.00  0.00    -0.011 C 
ATOM     10  C   UNL     1     -16.964  12.196 -25.808  1.00  0.00     0.008 C 
BRANCH   9  11
ATOM     11  C   UNL     1     -17.318  11.147 -28.200  1.00  0.00    -0.002 C 
ATOM     12  C   UNL     1     -17.200   9.875 -29.094  1.00  0.00     0.005 C 
ATOM     13  C   UNL     1     -16.577  12.289 -29.009  1.00  0.00    -0.026 C 
ATOM     14  C   UNL     1     -16.373  10.244 -30.328  1.00  0.00     0.005 C 
ATOM     15  C   UNL     1     -15.609  11.476 -29.886  1.00  0.00    -0.001 C 
ATOM     16  C   UNL     1     -15.751  13.382 -28.225  1.00  0.00     0.007 C 
ATOM     17  C   UNL     1     -17.683  13.010 -29.848  1.00  0.00     0.012 C 
ATOM     18  C   UNL     1     -14.785  12.275 -30.934  1.00  0.00     0.004 C 
ATOM     19  C   UNL     1     -14.411  13.794 -28.904  1.00  0.00     0.005 C 
ATOM     20  C   UNL     1     -14.474  13.719 -30.450  1.00  0.00     0.003 C 
ATOM     21  C   UNL     1     -15.366  12.342 -32.360  1.00  0.00     0.085 C 
ATOM     22  C   UNL     1     -13.244  14.325 -31.227  1.00  0.00    -0.000 C 
ATOM     23  C   UNL     1     -14.478  13.181 -33.244  1.00  0.00     0.159 C 
ATOM     24  C   UNL     1     -13.264  13.846 -32.689  1.00  0.00     0.005 C 
ATOM     25  C   UNL     1     -11.888  13.906 -30.589  1.00  0.00     0.020 C 
ATOM     26  C   UNL     1     -13.364  15.873 -31.223  1.00  0.00     0.017 C 
ATOM     27  O   UNL     1     -14.745  13.273 -34.473  1.00  0.00    -0.295 OA
ATOM     28  C   UNL     1     -12.157  13.922 -33.445  1.00  0.00     0.055 C 
ATOM     29  C   UNL     1     -10.674  14.433 -31.378  1.00  0.00     0.081 C 
ATOM     30  C   UNL     1     -10.855  14.296 -32.864  1.00  0.00     0.156 C 
ATOM     31  O   UNL     1      -9.875  14.505 -33.627  1.00  0.00    -0.295 OA
ENDBRANCH   9  11
ENDBRANCH   8   9
ENDBRANCH   1   8
TORSDOF 6
ENDMDL
MODEL 3
REMARK VINA RESULT:    -4.138      1.765      2.418
REMARK INTER + INTRA:          -5.381
REMARK INTER:                  -4.391
REMARK INTRA:                  -0.990
REMARK UNBOUND:                 0.209
REMARK SMILES CC[C@@H](CC[C@@H](C)[C@@H]1CC[C@H]2[C@H]3CC(=O)C4=CC(=O)CC[C@]4(C)[C@@H]3CC[C@@]21C)C(C)C
REMARK SMILES IDX 4 1 3 2 2 3 1 4 29 5 30 6 31 7 5 8 6 9 7 10 8 11 9 12 27 13
REMARK SMILES IDX 10 14 11 15 26 16 28 17 12 18 25 19 24 20 13 21 22 22 14 23
REMARK SMILES IDX 16 24 21 25 23 26 15 27 17 28 20 29 18 30 19 31
REMARK H PARENT
REMARK Flexibility Score: inf
ROOT
ATOM      1  C   UNL     1     -22.752  10.692 -29.544  1.00  0.00     0.004 C 
ENDROOT
BRANCH   1   2
ATOM      2  C   UNL     1     -24.139  11.190 -29.037  1.00  0.00    -0.009 C 
BRANCH   2   3
ATOM      3  C   UNL     1     -24.996   9.992 -28.527  1.00  0.00     0.000 C 
ATOM      4  C   UNL     1     -25.137   9.915 -27.007  1.00  0.00     0.004 C 
ENDBRANCH   2   3
BRANCH   2   5
ATOM      5  C   UNL     1     -24.826  12.066 -30.148  1.00  0.00    -0.014 C 
ATOM      6  C   UNL     1     -26.181  11.515 -30.623  1.00  0.00     0.007 C 
ATOM      7  C   UNL     1     -24.941  13.553 -29.772  1.00  0.00     0.007 C 
ENDBRANCH   2   5
ENDBRANCH   1   2
BRANCH   1   8
ATOM      8  C   UNL     1     -21.657  11.780 -29.506  1.00  0.00     0.004 C 
BRANCH   8   9
ATOM      9  C   UNL     1     -20.274  11.343 -28.939  1.00  0.00    -0.011 C 
ATOM     10  C   UNL     1     -20.358   9.998 -28.186  1.00  0.00     0.008 C 
BRANCH   9  11
ATOM     11  C   UNL     1     -19.090  11.473 -29.965  1.00  0.00    -0.002 C 
ATOM     12  C   UNL     1     -18.781  10.178 -30.776  1.00  0.00     0.005 C 
ATOM     13  C   UNL     1     -17.683  11.969 -29.430  1.00  0.00    -0.026 C 
ATOM     14  C   UNL     1     -17.281   9.898 -30.660  1.00  0.00     0.005 C 
ATOM     15  C   UNL     1     -16.874  10.661 -29.416  1.00  0.00    -0.001 C 
ATOM     16  C   UNL     1     -17.589  12.637 -28.004  1.00  0.00     0.007 C 
ATOM     17  C   UNL     1     -17.154  12.988 -30.492  1.00  0.00     0.012 C 
ATOM     18  C   UNL     1     -15.366  10.782 -29.060  1.00  0.00     0.004 C 
ATOM     19  C   UNL     1     -16.329  12.236 -27.181  1.00  0.00     0.005 C 
ATOM     20  C   UNL     1     -15.095  11.953 -28.073  1.00  0.00     0.003 C 
ATOM     21  C   UNL     1     -14.386  10.891 -30.244  1.00  0.00     0.085 C 
ATOM     22  C   UNL     1     -13.723  11.756 -27.323  1.00  0.00    -0.000 C 
ATOM     23  C   UNL     1     -12.973  11.043 -29.737  1.00  0.00     0.159 C 
ATOM     24  C   UNL     1     -12.696  11.119 -28.274  1.00  0.00     0.005 C 
ATOM     25  C   UNL     1     -13.870  10.843 -26.071  1.00  0.00     0.020 C 
ATOM     26  C   UNL     1     -13.186  13.147 -26.892  1.00  0.00     0.017 C 
ATOM     27  O   UNL     1     -12.022  11.053 -30.565  1.00  0.00    -0.295 OA
ATOM     28  C   UNL     1     -11.593  10.528 -27.786  1.00  0.00     0.055 C 
ATOM     29  C   UNL     1     -12.525  10.584 -25.365  1.00  0.00     0.081 C 
ATOM     30  C   UNL     1     -11.412  10.315 -26.339  1.00  0.00     0.156 C 
ATOM     31  O   UNL     1     -10.303   9.900 -25.910  1.00  0.00    -0.295 OA
ENDBRANCH   9  11
ENDBRANCH   8   9
ENDBRANCH   1   8
TORSDOF 6
ENDMDL
MODEL 4
REMARK VINA RESULT:    -3.315      3.381      9.223
REMARK INTER + INTRA:          -4.270
REMARK INTER:                  -2.725
REMARK INTRA:                  -1.545
REMARK UNBOUND:                 0.209
REMARK SMILES CC[C@@H](CC[C@@H](C)[C@@H]1CC[C@H]2[C@H]3CC(=O)C4=CC(=O)CC[C@]4(C)[C@@H]3CC[C@@]21C)C(C)C
REMARK SMILES IDX 4 1 3 2 2 3 1 4 29 5 30 6 31 7 5 8 6 9 7 10 8 11 9 12 27 13
REMARK SMILES IDX 10 14 11 15 26 16 28 17 12 18 25 19 24 20 13 21 22 22 14 23
REMARK SMILES IDX 16 24 21 25 23 26 15 27 17 28 20 29 18 30 19 31
REMARK H PARENT
REMARK Flexibility Score: inf
ROOT
ATOM      1  C   UNL     1     -14.273  10.994 -29.851  1.00  0.00     0.004 C 
ENDROOT
BRANCH   1   2
ATOM      2  C   UNL     1     -13.362  12.259 -29.823  1.00  0.00    -0.009 C 
BRANCH   2   3
ATOM      3  C   UNL     1     -13.525  13.018 -28.471  1.00  0.00     0.000 C 
ATOM      4  C   UNL     1     -12.493  12.647 -27.406  1.00  0.00     0.004 C 
ENDBRANCH   2   3
BRANCH   2   5
ATOM      5  C   UNL     1     -13.626  13.131 -31.104  1.00  0.00    -0.014 C 
ATOM      6  C   UNL     1     -15.040  12.968 -31.686  1.00  0.00     0.007 C 
ATOM      7  C   UNL     1     -13.279  14.618 -30.915  1.00  0.00     0.007 C 
ENDBRANCH   2   5
ENDBRANCH   1   2
BRANCH   1   8
ATOM      8  C   UNL     1     -14.763  10.559 -28.453  1.00  0.00     0.004 C 
BRANCH   8   9
ATOM      9  C   UNL     1     -16.271  10.800 -28.149  1.00  0.00    -0.011 C 
ATOM     10  C   UNL     1     -16.514  11.122 -26.659  1.00  0.00     0.008 C 
BRANCH   9  11
ATOM     11  C   UNL     1     -16.990  11.751 -29.174  1.00  0.00    -0.002 C 
ATOM     12  C   UNL     1     -17.060  13.247 -28.741  1.00  0.00     0.005 C 
ATOM     13  C   UNL     1     -18.461  11.385 -29.635  1.00  0.00    -0.026 C 
ATOM     14  C   UNL     1     -18.513  13.706 -28.877  1.00  0.00     0.005 C 
ATOM     15  C   UNL     1     -19.298  12.411 -28.852  1.00  0.00    -0.001 C 
ATOM     16  C   UNL     1     -19.027   9.941 -29.343  1.00  0.00     0.007 C 
ATOM     17  C   UNL     1     -18.503  11.633 -31.179  1.00  0.00     0.012 C 
ATOM     18  C   UNL     1     -20.822  12.440 -29.157  1.00  0.00     0.004 C 
ATOM     19  C   UNL     1     -20.522   9.907 -28.909  1.00  0.00     0.005 C 
ATOM     20  C   UNL     1     -21.361  11.037 -29.555  1.00  0.00     0.003 C 
ATOM     21  C   UNL     1     -21.294  13.470 -30.202  1.00  0.00     0.085 C 
ATOM     22  C   UNL     1     -22.922  10.950 -29.351  1.00  0.00    -0.000 C 
ATOM     23  C   UNL     1     -22.782  13.347 -30.417  1.00  0.00     0.159 C 
ATOM     24  C   UNL     1     -23.569  12.301 -29.703  1.00  0.00     0.005 C 
ATOM     25  C   UNL     1     -23.298  10.590 -27.885  1.00  0.00     0.020 C 
ATOM     26  C   UNL     1     -23.492   9.875 -30.314  1.00  0.00     0.017 C 
ATOM     27  O   UNL     1     -23.364  14.174 -31.171  1.00  0.00    -0.295 OA
ATOM     28  C   UNL     1     -24.808  12.594 -29.275  1.00  0.00     0.055 C 
ATOM     29  C   UNL     1     -24.821  10.569 -27.652  1.00  0.00     0.081 C 
ATOM     30  C   UNL     1     -25.517  11.721 -28.322  1.00  0.00     0.156 C 
ATOM     31  O   UNL     1     -26.729  11.944 -28.063  1.00  0.00    -0.295 OA
ENDBRANCH   9  11
ENDBRANCH   8   9
ENDBRANCH   1   8
TORSDOF 6
ENDMDL
MODEL 5
REMARK VINA RESULT:    -3.046      3.350      9.391
REMARK INTER + INTRA:          -3.905
REMARK INTER:                  -4.668
REMARK INTRA:                   0.763
REMARK UNBOUND:                 0.209
REMARK SMILES CC[C@@H](CC[C@@H](C)[C@@H]1CC[C@H]2[C@H]3CC(=O)C4=CC(=O)CC[C@]4(C)[C@@H]3CC[C@@]21C)C(C)C
REMARK SMILES IDX 4 1 3 2 2 3 1 4 29 5 30 6 31 7 5 8 6 9 7 10 8 11 9 12 27 13
REMARK SMILES IDX 10 14 11 15 26 16 28 17 12 18 25 19 24 20 13 21 22 22 14 23
REMARK SMILES IDX 16 24 21 25 23 26 15 27 17 28 20 29 18 30 19 31
REMARK H PARENT
REMARK Flexibility Score: inf
ROOT
ATOM      1  C   UNL     1     -10.363  13.255 -33.416  1.00  0.00     0.004 C 
ENDROOT
BRANCH   1   2
ATOM      2  C   UNL     1     -10.581  12.347 -34.664  1.00  0.00    -0.009 C 
BRANCH   2   3
ATOM      3  C   UNL     1     -12.096  12.259 -35.017  1.00  0.00     0.000 C 
ATOM      4  C   UNL     1     -12.967  13.320 -34.344  1.00  0.00     0.004 C 
ENDBRANCH   2   3
BRANCH   2   5
ATOM      5  C   UNL     1      -9.875  10.960 -34.440  1.00  0.00    -0.014 C 
ATOM      6  C   UNL     1      -9.960  10.447 -32.993  1.00  0.00     0.007 C 
ATOM      7  C   UNL     1     -10.328   9.875 -35.432  1.00  0.00     0.007 C 
ENDBRANCH   2   5
ENDBRANCH   1   2
BRANCH   1   8
ATOM      8  C   UNL     1     -11.178  12.810 -32.183  1.00  0.00     0.004 C 
BRANCH   8   9
ATOM      9  C   UNL     1     -10.800  13.482 -30.830  1.00  0.00    -0.011 C 
ATOM     10  C   UNL     1     -11.083  14.999 -30.840  1.00  0.00     0.008 C 
BRANCH   9  11
ATOM     11  C   UNL     1     -11.312  12.705 -29.563  1.00  0.00    -0.002 C 
ATOM     12  C   UNL     1     -11.189  11.153 -29.652  1.00  0.00     0.005 C 
ATOM     13  C   UNL     1     -12.792  12.972 -29.065  1.00  0.00    -0.026 C 
ATOM     14  C   UNL     1     -12.549  10.553 -29.291  1.00  0.00     0.005 C 
ATOM     15  C   UNL     1     -13.514  11.695 -29.529  1.00  0.00    -0.001 C 
ATOM     16  C   UNL     1     -13.579  14.226 -29.613  1.00  0.00     0.007 C 
ATOM     17  C   UNL     1     -12.710  13.080 -27.507  1.00  0.00     0.012 C 
ATOM     18  C   UNL     1     -14.998  11.540 -29.091  1.00  0.00     0.004 C 
ATOM     19  C   UNL     1     -15.085  13.967 -29.911  1.00  0.00     0.005 C 
ATOM     20  C   UNL     1     -15.713  12.914 -28.963  1.00  0.00     0.003 C 
ATOM     21  C   UNL     1     -15.255  10.723 -27.810  1.00  0.00     0.085 C 
ATOM     22  C   UNL     1     -17.278  12.750 -29.043  1.00  0.00    -0.000 C 
ATOM     23  C   UNL     1     -16.730  10.698 -27.497  1.00  0.00     0.159 C 
ATOM     24  C   UNL     1     -17.700  11.443 -28.350  1.00  0.00     0.005 C 
ATOM     25  C   UNL     1     -17.785  12.715 -30.514  1.00  0.00     0.020 C 
ATOM     26  C   UNL     1     -17.943  13.933 -28.291  1.00  0.00     0.017 C 
ATOM     27  O   UNL     1     -17.142   9.997 -26.533  1.00  0.00    -0.295 OA
ATOM     28  C   UNL     1     -18.906  10.903 -28.593  1.00  0.00     0.055 C 
ATOM     29  C   UNL     1     -19.306  12.485 -30.611  1.00  0.00     0.081 C 
ATOM     30  C   UNL     1     -19.787  11.436 -29.648  1.00  0.00     0.156 C 
ATOM     31  O   UNL     1     -20.966  11.005 -29.743  1.00  0.00    -0.295 OA
ENDBRANCH   9  11
ENDBRANCH   8   9
ENDBRANCH   1   8
TORSDOF 6
ENDMDL
MODEL 6
REMARK VINA RESULT:    -2.954      1.533      3.224
REMARK INTER + INTRA:          -3.782
REMARK INTER:                  -2.887
REMARK INTRA:                  -0.895
REMARK UNBOUND:                 0.209
REMARK SMILES CC[C@@H](CC[C@@H](C)[C@@H]1CC[C@H]2[C@H]3CC(=O)C4=CC(=O)CC[C@]4(C)[C@@H]3CC[C@@]21C)C(C)C
REMARK SMILES IDX 4 1 3 2 2 3 1 4 29 5 30 6 31 7 5 8 6 9 7 10 8 11 9 12 27 13
REMARK SMILES IDX 10 14 11 15 26 16 28 17 12 18 25 19 24 20 13 21 22 22 14 23
REMARK SMILES IDX 16 24 21 25 23 26 15 27 17 28 20 29 18 30 19 31
REMARK H PARENT
REMARK Flexibility Score: inf
ROOT
ATOM      1  C   UNL     1     -22.729  12.427 -30.101  1.00  0.00     0.004 C 
ENDROOT
BRANCH   1   2
ATOM      2  C   UNL     1     -24.072  12.216 -29.338  1.00  0.00    -0.009 C 
BRANCH   2   3
ATOM      3  C   UNL     1     -24.466  10.708 -29.334  1.00  0.00     0.000 C 
ATOM      4  C   UNL     1     -24.966  10.186 -27.988  1.00  0.00     0.004 C 
ENDBRANCH   2   3
BRANCH   2   5
ATOM      5  C   UNL     1     -25.169  13.182 -29.920  1.00  0.00    -0.014 C 
ATOM      6  C   UNL     1     -24.596  14.454 -30.564  1.00  0.00     0.007 C 
ATOM      7  C   UNL     1     -26.158  12.483 -30.869  1.00  0.00     0.007 C 
ENDBRANCH   2   5
ENDBRANCH   1   2
BRANCH   1   8
ATOM      8  C   UNL     1     -21.526  11.727 -29.432  1.00  0.00     0.004 C 
BRANCH   8   9
ATOM      9  C   UNL     1     -20.122  12.322 -29.748  1.00  0.00    -0.011 C 
ATOM     10  C   UNL     1     -19.986  13.776 -29.247  1.00  0.00     0.008 C 
BRANCH   9  11
ATOM     11  C   UNL     1     -18.926  11.367 -29.391  1.00  0.00    -0.002 C 
ATOM     12  C   UNL     1     -18.481  11.405 -27.897  1.00  0.00     0.005 C 
ATOM     13  C   UNL     1     -17.585  11.499 -30.224  1.00  0.00    -0.026 C 
ATOM     14  C   UNL     1     -16.966  11.618 -27.864  1.00  0.00     0.005 C 
ATOM     15  C   UNL     1     -16.663  12.217 -29.222  1.00  0.00    -0.001 C 
ATOM     16  C   UNL     1     -17.591  12.311 -31.577  1.00  0.00     0.007 C 
ATOM     17  C   UNL     1     -17.117  10.037 -30.523  1.00  0.00     0.012 C 
ATOM     18  C   UNL     1     -15.182  12.407 -29.655  1.00  0.00     0.004 C 
ATOM     19  C   UNL     1     -16.324  13.185 -31.815  1.00  0.00     0.005 C 
ATOM     20  C   UNL     1     -15.044  12.569 -31.195  1.00  0.00     0.003 C 
ATOM     21  C   UNL     1     -14.183  11.337 -29.175  1.00  0.00     0.085 C 
ATOM     22  C   UNL     1     -13.682  13.267 -31.572  1.00  0.00    -0.000 C 
ATOM     23  C   UNL     1     -12.804  11.638 -29.708  1.00  0.00     0.159 C 
ATOM     24  C   UNL     1     -12.576  12.804 -30.609  1.00  0.00     0.005 C 
ATOM     25  C   UNL     1     -13.783  14.818 -31.500  1.00  0.00     0.020 C 
ATOM     26  C   UNL     1     -13.283  12.838 -33.010  1.00  0.00     0.017 C 
ATOM     27  O   UNL     1     -11.834  10.920 -29.342  1.00  0.00    -0.295 OA
ATOM     28  C   UNL     1     -11.439  13.510 -30.489  1.00  0.00     0.055 C 
ATOM     29  C   UNL     1     -12.441  15.514 -31.798  1.00  0.00     0.081 C 
ATOM     30  C   UNL     1     -11.281  14.826 -31.134  1.00  0.00     0.156 C 
ATOM     31  O   UNL     1     -10.153  15.385 -31.128  1.00  0.00    -0.295 OA
ENDBRANCH   9  11
ENDBRANCH   8   9
ENDBRANCH   1   8
TORSDOF 6
ENDMDL
MODEL 7
REMARK VINA RESULT:    -2.718      1.745      2.701
REMARK INTER + INTRA:          -3.463
REMARK INTER:                  -2.644
REMARK INTRA:                  -0.819
REMARK UNBOUND:                 0.209
REMARK SMILES CC[C@@H](CC[C@@H](C)[C@@H]1CC[C@H]2[C@H]3CC(=O)C4=CC(=O)CC[C@]4(C)[C@@H]3CC[C@@]21C)C(C)C
REMARK SMILES IDX 4 1 3 2 2 3 1 4 29 5 30 6 31 7 5 8 6 9 7 10 8 11 9 12 27 13
REMARK SMILES IDX 10 14 11 15 26 16 28 17 12 18 25 19 24 20 13 21 22 22 14 23
REMARK SMILES IDX 16 24 21 25 23 26 15 27 17 28 20 29 18 30 19 31
REMARK H PARENT
REMARK Flexibility Score: inf
ROOT
ATOM      1  C   UNL     1     -21.394  10.611 -29.671  1.00  0.00     0.004 C 
ENDROOT
BRANCH   1   2
ATOM      2  C   UNL     1     -22.679  11.311 -29.134  1.00  0.00    -0.009 C 
BRANCH   2   3
ATOM      3  C   UNL     1     -23.790  10.258 -28.837  1.00  0.00     0.000 C 
ATOM      4  C   UNL     1     -24.664  10.582 -27.627  1.00  0.00     0.004 C 
ENDBRANCH   2   3
BRANCH   2   5
ATOM      5  C   UNL     1     -23.107  12.460 -30.119  1.00  0.00    -0.014 C 
ATOM      6  C   UNL     1     -24.486  13.063 -29.807  1.00  0.00     0.007 C 
ATOM      7  C   UNL     1     -22.047  13.565 -30.268  1.00  0.00     0.007 C 
ENDBRANCH   2   5
ENDBRANCH   1   2
BRANCH   1   8
ATOM      8  C   UNL     1     -20.202  10.681 -28.693  1.00  0.00     0.004 C 
BRANCH   8   9
ATOM      9  C   UNL     1     -18.800  10.903 -29.334  1.00  0.00    -0.011 C 
ATOM     10  C   UNL     1     -18.902  11.296 -30.823  1.00  0.00     0.008 C 
BRANCH   9  11
ATOM     11  C   UNL     1     -17.830  11.784 -28.465  1.00  0.00    -0.002 C 
ATOM     12  C   UNL     1     -18.208  13.295 -28.389  1.00  0.00     0.005 C 
ATOM     13  C   UNL     1     -16.284  11.764 -28.811  1.00  0.00    -0.026 C 
ATOM     14  C   UNL     1     -16.962  14.109 -28.741  1.00  0.00     0.005 C 
ATOM     15  C   UNL     1     -16.100  13.125 -29.505  1.00  0.00    -0.001 C 
ATOM     16  C   UNL     1     -15.717  10.634 -29.755  1.00  0.00     0.007 C 
ATOM     17  C   UNL     1     -15.536  11.687 -27.439  1.00  0.00     0.012 C 
ATOM     18  C   UNL     1     -14.644  13.522 -29.880  1.00  0.00     0.004 C 
ATOM     19  C   UNL     1     -14.635  11.116 -30.766  1.00  0.00     0.005 C 
ATOM     20  C   UNL     1     -13.772  12.279 -30.214  1.00  0.00     0.003 C 
ATOM     21  C   UNL     1     -13.889  14.402 -28.865  1.00  0.00     0.085 C 
ATOM     22  C   UNL     1     -12.515  12.683 -31.074  1.00  0.00    -0.000 C 
ATOM     23  C   UNL     1     -12.485  14.665 -29.351  1.00  0.00     0.159 C 
ATOM     24  C   UNL     1     -11.994  14.057 -30.621  1.00  0.00     0.005 C 
ATOM     25  C   UNL     1     -12.847  12.757 -32.593  1.00  0.00     0.020 C 
ATOM     26  C   UNL     1     -11.392  11.638 -30.838  1.00  0.00     0.017 C 
ATOM     27  O   UNL     1     -11.745  15.447 -28.694  1.00  0.00    -0.295 OA
ATOM     28  C   UNL     1     -11.180  14.772 -31.415  1.00  0.00     0.055 C 
ATOM     29  C   UNL     1     -11.646  13.219 -33.440  1.00  0.00     0.081 C 
ATOM     30  C   UNL     1     -10.899  14.355 -32.800  1.00  0.00     0.156 C 
ATOM     31  O   UNL     1     -10.015  14.962 -33.461  1.00  0.00    -0.295 OA
ENDBRANCH   9  11
ENDBRANCH   8   9
ENDBRANCH   1   8
TORSDOF 6
ENDMDL
