MODEL 1
REMARK VINA RESULT:    65.027      0.000      0.000
REMARK INTER + INTRA:          85.479
REMARK INTER:                  85.935
REMARK INTRA:                  -0.455
REMARK UNBOUND:                -0.455
REMARK SMILES CC[C@@H](C=C[C@H](C)[C@H]1CC[C@H]2[C@H]3CC=C4C[C@H](O)CC[C@]4(C)[C@H]3CC[C@]12C)C(C)C
REMARK SMILES IDX 6 1 7 2 5 3 4 4 3 5 2 6 1 7 28 8 29 9 30 10 8 11 9 12 26 13
REMARK SMILES IDX 10 14 11 15 25 16 27 17 12 18 24 19 23 20 13 21 21 22 14 23
REMARK SMILES IDX 15 24 20 25 22 26 16 27 19 28 17 29 18 30
REMARK H PARENT 18 31
REMARK Flexibility Score: inf
ROOT
ATOM      1  C   UNL     1     -38.065  25.490   2.507  1.00  0.00     0.012 C 
ATOM      2  C   UNL     1     -39.524  25.960   2.377  1.00  0.00     0.012 C 
ENDROOT
BRANCH   1   3
ATOM      3  C   UNL     1     -38.075  24.043   2.961  1.00  0.00    -0.028 C 
ATOM      4  C   UNL     1     -38.016  23.626   4.241  1.00  0.00    -0.027 C 
BRANCH   4   5
ATOM      5  C   UNL     1     -37.903  24.520   5.466  1.00  0.00     0.014 C 
BRANCH   5   6
ATOM      6  C   UNL     1     -36.704  24.024   6.315  1.00  0.00     0.004 C 
ATOM      7  C   UNL     1     -37.082  23.568   7.723  1.00  0.00     0.004 C 
ENDBRANCH   5   6
BRANCH   5   8
ATOM      8  C   UNL     1     -39.289  24.567   6.194  1.00  0.00    -0.011 C 
ATOM      9  C   UNL     1     -40.121  23.293   5.978  1.00  0.00     0.008 C 
ATOM     10  C   UNL     1     -40.124  25.819   5.880  1.00  0.00     0.008 C 
ENDBRANCH   5   8
ENDBRANCH   4   5
ENDBRANCH   1   3
BRANCH   1  11
ATOM     11  C   UNL     1     -37.303  25.646   1.151  1.00  0.00     0.002 C 
ATOM     12  C   UNL     1     -38.056  24.984  -0.036  1.00  0.00     0.005 C 
ATOM     13  C   UNL     1     -37.014  27.098   0.645  1.00  0.00    -0.026 C 
ATOM     14  C   UNL     1     -37.761  25.823  -1.289  1.00  0.00     0.005 C 
ATOM     15  C   UNL     1     -36.696  26.803  -0.826  1.00  0.00    -0.001 C 
ATOM     16  C   UNL     1     -35.756  27.768   1.247  1.00  0.00     0.007 C 
ATOM     17  C   UNL     1     -38.267  28.000   0.843  1.00  0.00     0.012 C 
ATOM     18  C   UNL     1     -36.304  28.000  -1.726  1.00  0.00     0.000 C 
ATOM     19  C   UNL     1     -35.399  29.071   0.503  1.00  0.00     0.005 C 
ATOM     20  C   UNL     1     -35.232  28.923  -1.048  1.00  0.00     0.003 C 
ATOM     21  C   UNL     1     -37.426  28.807  -2.399  1.00  0.00     0.031 C 
ATOM     22  C   UNL     1     -35.026  30.321  -1.800  1.00  0.00    -0.008 C 
ATOM     23  C   UNL     1     -36.785  29.658  -3.461  1.00  0.00    -0.027 C 
ATOM     24  C   UNL     1     -35.590  30.252  -3.241  1.00  0.00    -0.065 C 
ATOM     25  C   UNL     1     -33.501  30.699  -1.763  1.00  0.00     0.014 C 
ATOM     26  C   UNL     1     -35.792  31.490  -1.118  1.00  0.00     0.016 C 
ATOM     27  C   UNL     1     -34.835  30.746  -4.465  1.00  0.00     0.063 C 
ATOM     28  C   UNL     1     -32.771  30.408  -3.069  1.00  0.00     0.033 C 
ATOM     29  C   UNL     1     -33.410  31.236  -4.185  1.00  0.00     0.118 C 
BRANCH  29  30
ATOM     30  O   UNL     1     -32.646  31.131  -5.358  1.00  0.00    -0.393 OA
ATOM     31  H   UNL     1     -32.237  32.022  -5.516  1.00  0.00     0.210 HD
ENDBRANCH  29  30
ENDBRANCH   1  11
TORSDOF 6
ENDMDL
MODEL 2
REMARK VINA RESULT:    67.265      0.766      1.373
REMARK INTER + INTRA:          88.437
REMARK INTER:                  89.041
REMARK INTRA:                  -0.604
REMARK UNBOUND:                -0.455
REMARK SMILES CC[C@@H](C=C[C@H](C)[C@H]1CC[C@H]2[C@H]3CC=C4C[C@H](O)CC[C@]4(C)[C@H]3CC[C@]12C)C(C)C
REMARK SMILES IDX 6 1 7 2 5 3 4 4 3 5 2 6 1 7 28 8 29 9 30 10 8 11 9 12 26 13
REMARK SMILES IDX 10 14 11 15 25 16 27 17 12 18 24 19 23 20 13 21 21 22 14 23
REMARK SMILES IDX 15 24 20 25 22 26 16 27 19 28 17 29 18 30
REMARK H PARENT 18 31
REMARK Flexibility Score: inf
ROOT
ATOM      1  C   UNL     1     -38.256  25.449   2.418  1.00  0.00     0.012 C 
ATOM      2  C   UNL     1     -39.739  25.162   2.128  1.00  0.00     0.012 C 
ENDROOT
BRANCH   1   3
ATOM      3  C   UNL     1     -37.709  24.307   3.252  1.00  0.00    -0.028 C 
ATOM      4  C   UNL     1     -38.243  23.857   4.405  1.00  0.00    -0.027 C 
BRANCH   4   5
ATOM      5  C   UNL     1     -39.472  24.422   5.099  1.00  0.00     0.014 C 
BRANCH   5   6
ATOM      6  C   UNL     1     -39.056  25.722   5.834  1.00  0.00     0.004 C 
ATOM      7  C   UNL     1     -40.108  26.829   5.791  1.00  0.00     0.004 C 
ENDBRANCH   5   6
BRANCH   5   8
ATOM      8  C   UNL     1     -40.116  23.305   5.989  1.00  0.00    -0.011 C 
ATOM      9  C   UNL     1     -39.510  23.242   7.400  1.00  0.00     0.008 C 
ATOM     10  C   UNL     1     -40.125  21.911   5.341  1.00  0.00     0.008 C 
ENDBRANCH   5   8
ENDBRANCH   4   5
ENDBRANCH   1   3
BRANCH   1  11
ATOM     11  C   UNL     1     -37.446  25.610   1.090  1.00  0.00     0.002 C 
ATOM     12  C   UNL     1     -38.163  24.965  -0.127  1.00  0.00     0.005 C 
ATOM     13  C   UNL     1     -37.126  27.063   0.607  1.00  0.00    -0.026 C 
ATOM     14  C   UNL     1     -37.819  25.812  -1.362  1.00  0.00     0.005 C 
ATOM     15  C   UNL     1     -36.761  26.778  -0.854  1.00  0.00    -0.001 C 
ATOM     16  C   UNL     1     -35.883  27.716   1.259  1.00  0.00     0.007 C 
ATOM     17  C   UNL     1     -38.378  27.975   0.771  1.00  0.00     0.012 C 
ATOM     18  C   UNL     1     -36.327  27.978  -1.730  1.00  0.00     0.000 C 
ATOM     19  C   UNL     1     -35.490  29.022   0.539  1.00  0.00     0.005 C 
ATOM     20  C   UNL     1     -35.271  28.886  -1.007  1.00  0.00     0.003 C 
ATOM     21  C   UNL     1     -37.419  28.802  -2.433  1.00  0.00     0.031 C 
ATOM     22  C   UNL     1     -35.026  30.288  -1.739  1.00  0.00    -0.008 C 
ATOM     23  C   UNL     1     -36.733  29.656  -3.465  1.00  0.00    -0.027 C 
ATOM     24  C   UNL     1     -35.541  30.237  -3.199  1.00  0.00    -0.065 C 
ATOM     25  C   UNL     1     -33.501  30.652  -1.646  1.00  0.00     0.014 C 
ATOM     26  C   UNL     1     -35.805  31.458  -1.073  1.00  0.00     0.016 C 
ATOM     27  C   UNL     1     -34.740  30.734  -4.392  1.00  0.00     0.063 C 
ATOM     28  C   UNL     1     -32.728  30.365  -2.929  1.00  0.00     0.033 C 
ATOM     29  C   UNL     1     -33.322  31.208  -4.059  1.00  0.00     0.118 C 
BRANCH  29  30
ATOM     30  O   UNL     1     -32.518  31.107  -5.206  1.00  0.00    -0.393 OA
ATOM     31  H   UNL     1     -32.051  30.233  -5.153  1.00  0.00     0.210 HD
ENDBRANCH  29  30
ENDBRANCH   1  11
TORSDOF 6
ENDMDL
