MODEL 1
REMARK VINA RESULT:    -3.341      0.000      0.000
REMARK INTER + INTRA:          -3.550
REMARK INTER:                  -3.536
REMARK INTRA:                  -0.014
REMARK UNBOUND:                -0.014
REMARK SMILES O=Cc1ccco1
REMARK SMILES IDX 5 1 6 2 7 3 3 4 4 5 2 6 1 7
REMARK H PARENT
REMARK Flexibility Score: inf
ROOT
ATOM      1  C   UNL     1     178.658 173.317 169.687  1.00  0.00     0.043 A 
ATOM      2  C   UNL     1     177.673 173.721 170.566  1.00  0.00     0.196 A 
ATOM      3  O   UNL     1     176.574 174.000 169.903  1.00  0.00    -0.462 OA
ATOM      4  C   UNL     1     176.795 173.797 168.626  1.00  0.00     0.166 A 
ATOM      5  C   UNL     1     178.092 173.365 168.430  1.00  0.00     0.054 A 
ENDROOT
BRANCH   4   6
ATOM      6  C   UNL     1     175.787 174.008 167.582  1.00  0.00     0.298 C 
ATOM      7  O   UNL     1     174.589 173.669 167.768  1.00  0.00    -0.294 OA
ENDBRANCH   4   6
TORSDOF 1
ENDMDL
MODEL 2
REMARK VINA RESULT:    -3.121     12.324     12.758
REMARK INTER + INTRA:          -3.318
REMARK INTER:                  -3.307
REMARK INTRA:                  -0.011
REMARK UNBOUND:                -0.014
REMARK SMILES O=Cc1ccco1
REMARK SMILES IDX 5 1 6 2 7 3 3 4 4 5 2 6 1 7
REMARK H PARENT
REMARK Flexibility Score: inf
ROOT
ATOM      1  C   UNL     1     172.155 162.073 166.453  1.00  0.00     0.043 A 
ATOM      2  C   UNL     1     171.608 161.299 167.457  1.00  0.00     0.196 A 
ATOM      3  O   UNL     1     172.382 161.337 168.518  1.00  0.00    -0.462 OA
ATOM      4  C   UNL     1     173.414 162.103 168.254  1.00  0.00     0.166 A 
ATOM      5  C   UNL     1     173.324 162.596 166.966  1.00  0.00     0.054 A 
ENDROOT
BRANCH   4   6
ATOM      6  C   UNL     1     174.490 162.377 169.211  1.00  0.00     0.298 C 
ATOM      7  O   UNL     1     175.391 161.526 169.425  1.00  0.00    -0.294 OA
ENDBRANCH   4   6
TORSDOF 1
ENDMDL
MODEL 3
REMARK VINA RESULT:    -3.093     11.543     11.729
REMARK INTER + INTRA:          -3.288
REMARK INTER:                  -3.277
REMARK INTRA:                  -0.011
REMARK UNBOUND:                -0.014
REMARK SMILES O=Cc1ccco1
REMARK SMILES IDX 5 1 6 2 7 3 3 4 4 5 2 6 1 7
REMARK H PARENT
REMARK Flexibility Score: inf
ROOT
ATOM      1  C   UNL     1     175.385 161.841 169.307  1.00  0.00     0.043 A 
ATOM      2  C   UNL     1     175.938 161.979 168.050  1.00  0.00     0.196 A 
ATOM      3  O   UNL     1     174.999 162.284 167.184  1.00  0.00    -0.462 OA
ATOM      4  C   UNL     1     173.853 162.352 167.817  1.00  0.00     0.166 A 
ATOM      5  C   UNL     1     174.035 162.082 169.160  1.00  0.00     0.054 A 
ENDROOT
BRANCH   4   6
ATOM      6  C   UNL     1     172.579 162.671 167.165  1.00  0.00     0.298 C 
ATOM      7  O   UNL     1     172.311 163.852 166.823  1.00  0.00    -0.294 OA
ENDBRANCH   4   6
TORSDOF 1
ENDMDL
MODEL 4
REMARK VINA RESULT:    -3.001      1.278      3.093
REMARK INTER + INTRA:          -3.191
REMARK INTER:                  -3.176
REMARK INTRA:                  -0.015
REMARK UNBOUND:                -0.014
REMARK SMILES O=Cc1ccco1
REMARK SMILES IDX 5 1 6 2 7 3 3 4 4 5 2 6 1 7
REMARK H PARENT
REMARK Flexibility Score: inf
ROOT
ATOM      1  C   UNL     1     176.509 174.216 167.462  1.00  0.00     0.043 A 
ATOM      2  C   UNL     1     175.707 174.050 168.573  1.00  0.00     0.196 A 
ATOM      3  O   UNL     1     176.449 173.749 169.614  1.00  0.00    -0.462 OA
ATOM      4  C   UNL     1     177.704 173.710 169.235  1.00  0.00     0.166 A 
ATOM      5  C   UNL     1     177.803 173.997 167.888  1.00  0.00     0.054 A 
ENDROOT
BRANCH   4   6
ATOM      6  C   UNL     1     178.818 173.404 170.138  1.00  0.00     0.298 C 
ATOM      7  O   UNL     1     178.784 173.761 171.344  1.00  0.00    -0.294 OA
ENDBRANCH   4   6
TORSDOF 1
ENDMDL
MODEL 5
REMARK VINA RESULT:    -2.906      2.269      3.233
REMARK INTER + INTRA:          -3.090
REMARK INTER:                  -3.080
REMARK INTRA:                  -0.010
REMARK UNBOUND:                -0.014
REMARK SMILES O=Cc1ccco1
REMARK SMILES IDX 5 1 6 2 7 3 3 4 4 5 2 6 1 7
REMARK H PARENT
REMARK Flexibility Score: inf
ROOT
ATOM      1  C   UNL     1     176.387 173.592 168.681  1.00  0.00     0.043 A 
ATOM      2  C   UNL     1     176.193 174.513 167.672  1.00  0.00     0.196 A 
ATOM      3  O   UNL     1     176.243 175.729 168.166  1.00  0.00    -0.462 OA
ATOM      4  C   UNL     1     176.462 175.646 169.457  1.00  0.00     0.166 A 
ATOM      5  C   UNL     1     176.562 174.322 169.838  1.00  0.00     0.054 A 
ENDROOT
BRANCH   4   6
ATOM      6  C   UNL     1     176.578 176.811 170.339  1.00  0.00     0.298 C 
ATOM      7  O   UNL     1     175.596 177.199 171.023  1.00  0.00    -0.294 OA
ENDBRANCH   4   6
TORSDOF 1
ENDMDL
MODEL 6
REMARK VINA RESULT:    -2.896     12.231     13.152
REMARK INTER + INTRA:          -3.079
REMARK INTER:                  -3.068
REMARK INTRA:                  -0.011
REMARK UNBOUND:                -0.014
REMARK SMILES O=Cc1ccco1
REMARK SMILES IDX 5 1 6 2 7 3 3 4 4 5 2 6 1 7
REMARK H PARENT
REMARK Flexibility Score: inf
ROOT
ATOM      1  C   UNL     1     166.056 177.760 166.484  1.00  0.00     0.043 A 
ATOM      2  C   UNL     1     165.359 176.569 166.506  1.00  0.00     0.196 A 
ATOM      3  O   UNL     1     164.354 176.658 167.347  1.00  0.00    -0.462 OA
ATOM      4  C   UNL     1     164.361 177.857 167.880  1.00  0.00     0.166 A 
ATOM      5  C   UNL     1     165.412 178.596 167.373  1.00  0.00     0.054 A 
ENDROOT
BRANCH   4   6
ATOM      6  C   UNL     1     163.379 178.315 168.868  1.00  0.00     0.298 C 
ATOM      7  O   UNL     1     163.435 177.916 170.061  1.00  0.00    -0.294 OA
ENDBRANCH   4   6
TORSDOF 1
ENDMDL
MODEL 7
REMARK VINA RESULT:    -2.889     17.039     18.380
REMARK INTER + INTRA:          -3.072
REMARK INTER:                  -3.062
REMARK INTRA:                  -0.010
REMARK UNBOUND:                -0.014
REMARK SMILES O=Cc1ccco1
REMARK SMILES IDX 5 1 6 2 7 3 3 4 4 5 2 6 1 7
REMARK H PARENT
REMARK Flexibility Score: inf
ROOT
ATOM      1  C   UNL     1     158.875 166.489 168.189  1.00  0.00     0.043 A 
ATOM      2  C   UNL     1     159.292 165.255 168.645  1.00  0.00     0.196 A 
ATOM      3  O   UNL     1     160.369 164.882 167.993  1.00  0.00    -0.462 OA
ATOM      4  C   UNL     1     160.678 165.818 167.127  1.00  0.00     0.166 A 
ATOM      5  C   UNL     1     159.771 166.857 167.206  1.00  0.00     0.054 A 
ENDROOT
BRANCH   4   6
ATOM      6  C   UNL     1     161.829 165.742 166.222  1.00  0.00     0.298 C 
ATOM      7  O   UNL     1     162.821 166.500 166.379  1.00  0.00    -0.294 OA
ENDBRANCH   4   6
TORSDOF 1
ENDMDL
MODEL 8
REMARK VINA RESULT:    -2.852      2.109      3.069
REMARK INTER + INTRA:          -3.033
REMARK INTER:                  -3.021
REMARK INTRA:                  -0.011
REMARK UNBOUND:                -0.014
REMARK SMILES O=Cc1ccco1
REMARK SMILES IDX 5 1 6 2 7 3 3 4 4 5 2 6 1 7
REMARK H PARENT
REMARK Flexibility Score: inf
ROOT
ATOM      1  C   UNL     1     176.295 174.210 167.762  1.00  0.00     0.043 A 
ATOM      2  C   UNL     1     176.585 173.559 168.944  1.00  0.00     0.196 A 
ATOM      3  O   UNL     1     176.704 174.435 169.915  1.00  0.00    -0.462 OA
ATOM      4  C   UNL     1     176.505 175.635 169.422  1.00  0.00     0.166 A 
ATOM      5  C   UNL     1     176.242 175.554 168.068  1.00  0.00     0.054 A 
ENDROOT
BRANCH   4   6
ATOM      6  C   UNL     1     176.561 176.863 170.220  1.00  0.00     0.298 C 
ATOM      7  O   UNL     1     175.603 177.185 170.970  1.00  0.00    -0.294 OA
ENDBRANCH   4   6
TORSDOF 1
ENDMDL
MODEL 9
REMARK VINA RESULT:    -2.786      3.853      4.469
REMARK INTER + INTRA:          -2.963
REMARK INTER:                  -2.953
REMARK INTRA:                  -0.010
REMARK UNBOUND:                -0.014
REMARK SMILES O=Cc1ccco1
REMARK SMILES IDX 5 1 6 2 7 3 3 4 4 5 2 6 1 7
REMARK H PARENT
REMARK Flexibility Score: inf
ROOT
ATOM      1  C   UNL     1     176.365 178.613 172.076  1.00  0.00     0.043 A 
ATOM      2  C   UNL     1     177.700 178.264 172.048  1.00  0.00     0.196 A 
ATOM      3  O   UNL     1     177.888 177.298 171.179  1.00  0.00    -0.462 OA
ATOM      4  C   UNL     1     176.733 176.996 170.634  1.00  0.00     0.166 A 
ATOM      5  C   UNL     1     175.736 177.793 171.162  1.00  0.00     0.054 A 
ENDROOT
BRANCH   4   6
ATOM      6  C   UNL     1     176.561 175.957 169.615  1.00  0.00     0.298 C 
ATOM      7  O   UNL     1     176.106 174.824 169.923  1.00  0.00    -0.294 OA
ENDBRANCH   4   6
TORSDOF 1
ENDMDL
