MODEL 1
REMARK VINA RESULT:    -4.812      0.000      0.000
REMARK INTER + INTRA:          -7.594
REMARK INTER:                  -7.344
REMARK INTRA:                  -0.250
REMARK UNBOUND:                -0.250
REMARK SMILES CC1=CCC[C@@H](C)C(=O)C[C@H](C(C)C)C(=O)C1
REMARK SMILES IDX 8 1 9 2 6 3 7 4 5 5 4 6 3 7 2 8 1 9 10 11 11 12 15 13 16 14
REMARK SMILES IDX 17 15 12 17 13 18 14 19
REMARK H PARENT
REMARK Flexibility Score: 70.00
ROOT
ATOM      1  C   UNL     1     -19.595  36.143  13.698  1.00  0.00     0.136 C 
ATOM      2  O   UNL     1     -20.503  36.423  12.927  1.00  0.00    -0.299 OA
ENDROOT
BRANCH   1   3
ATOM      3  C   UNL     1     -19.774  36.339  15.194  1.00  0.00     0.053 C 
ATOM      4  C   UNL     1     -21.198  35.999  15.663  1.00  0.00     0.016 C 
BRANCH   3   5
ATOM      5  C   UNL     1     -19.356  37.759  15.630  1.00  0.00     0.015 C 
BRANCH   5   6
ATOM      6  C   UNL     1     -17.864  37.881  15.998  1.00  0.00     0.028 C 
BRANCH   6   7
ATOM      7  C   UNL     1     -17.189  38.935  15.158  1.00  0.00    -0.028 C 
ATOM      8  C   UNL     1     -16.277  38.680  14.190  1.00  0.00    -0.070 CG0
ATOM      9  C   UNL     1     -15.651  39.855  13.482  1.00  0.00     0.039 C 
ATOM     10  G   UNL     1     -15.875  37.271  13.778  1.00  0.00     0.000 G0
ENDBRANCH   6   7
ENDBRANCH   5   6
ENDBRANCH   3   5
ENDBRANCH   1   3
BRANCH   1  11
ATOM     11  C   UNL     1     -18.300  35.606  13.138  1.00  0.00     0.087 C 
BRANCH  11  12
ATOM     12  C   UNL     1     -17.716  36.525  12.031  1.00  0.00     0.066 C 
BRANCH  12  13
ATOM     13  C   UNL     1     -16.285  36.931  12.350  1.00  0.00     0.140 C 
ATOM     14  O   UNL     1     -15.475  37.068  11.445  1.00  0.00    -0.299 OA
BRANCH  13  15
ATOM     15  C   UNL     1     -15.870  37.252  13.766  1.00  0.00     0.106 CG0
ATOM     16  G   UNL     1     -16.272  38.658  14.186  1.00  0.00     0.000 G0
ENDBRANCH  13  15
ENDBRANCH  12  13
BRANCH  12  17
ATOM     17  C   UNL     1     -17.811  35.908  10.598  1.00  0.00    -0.006 C 
ATOM     18  C   UNL     1     -18.104  34.397  10.583  1.00  0.00     0.008 C 
ATOM     19  C   UNL     1     -18.843  36.649   9.732  1.00  0.00     0.008 C 
ENDBRANCH  12  17
ENDBRANCH  11  12
ENDBRANCH   1  11
TORSDOF 1
ENDMDL
MODEL 2
REMARK VINA RESULT:    -4.564     16.441     18.757
REMARK INTER + INTRA:          -7.216
REMARK INTER:                  -7.154
REMARK INTRA:                  -0.062
REMARK UNBOUND:                -0.250
REMARK SMILES CC1=CCC[C@@H](C)C(=O)C[C@H](C(C)C)C(=O)C1
REMARK SMILES IDX 8 1 9 2 6 3 7 4 5 5 4 6 3 7 2 8 1 9 10 11 11 12 15 13 16 14
REMARK SMILES IDX 17 15 12 17 13 18 14 19
REMARK H PARENT
REMARK Flexibility Score: 70.00
ROOT
ATOM      1  C   UNL     1     -28.773  21.446  15.735  1.00  0.00     0.136 C 
ATOM      2  O   UNL     1     -27.918  20.694  16.185  1.00  0.00    -0.299 OA
ENDROOT
BRANCH   1   3
ATOM      3  C   UNL     1     -30.173  20.927  15.450  1.00  0.00     0.053 C 
ATOM      4  C   UNL     1     -30.758  20.139  16.633  1.00  0.00     0.016 C 
BRANCH   3   5
ATOM      5  C   UNL     1     -30.214  20.107  14.144  1.00  0.00     0.015 C 
BRANCH   5   6
ATOM      6  C   UNL     1     -30.867  20.853  12.963  1.00  0.00     0.028 C 
BRANCH   6   7
ATOM      7  C   UNL     1     -29.858  21.121  11.875  1.00  0.00    -0.028 C 
ATOM      8  C   UNL     1     -29.348  22.340  11.581  1.00  0.00    -0.070 CG0
ATOM      9  C   UNL     1     -28.392  22.445  10.421  1.00  0.00     0.039 C 
ATOM     10  G   UNL     1     -29.684  23.594  12.377  1.00  0.00     0.000 G0
ENDBRANCH   6   7
ENDBRANCH   5   6
ENDBRANCH   3   5
ENDBRANCH   1   3
BRANCH   1  11
ATOM     11  C   UNL     1     -28.412  22.886  15.467  1.00  0.00     0.087 C 
BRANCH  11  12
ATOM     12  C   UNL     1     -27.732  23.072  14.084  1.00  0.00     0.066 C 
BRANCH  12  13
ATOM     13  C   UNL     1     -28.501  24.059  13.220  1.00  0.00     0.140 C 
ATOM     14  O   UNL     1     -28.135  25.224  13.154  1.00  0.00    -0.299 OA
BRANCH  13  15
ATOM     15  C   UNL     1     -29.664  23.604  12.372  1.00  0.00     0.106 CG0
ATOM     16  G   UNL     1     -29.349  22.340  11.583  1.00  0.00     0.000 G0
ENDBRANCH  13  15
ENDBRANCH  12  13
BRANCH  12  17
ATOM     17  C   UNL     1     -26.225  23.476  14.182  1.00  0.00    -0.006 C 
ATOM     18  C   UNL     1     -25.706  23.621  15.624  1.00  0.00     0.008 C 
ATOM     19  C   UNL     1     -25.328  22.501  13.401  1.00  0.00     0.008 C 
ENDBRANCH  12  17
ENDBRANCH  11  12
ENDBRANCH   1  11
TORSDOF 1
ENDMDL
MODEL 3
REMARK VINA RESULT:    -4.262     16.302     18.576
REMARK INTER + INTRA:          -6.755
REMARK INTER:                  -6.849
REMARK INTRA:                   0.094
REMARK UNBOUND:                -0.250
REMARK SMILES CC1=CCC[C@@H](C)C(=O)C[C@H](C(C)C)C(=O)C1
REMARK SMILES IDX 8 1 9 2 6 3 7 4 5 5 4 6 3 7 2 8 1 9 10 11 11 12 15 13 16 14
REMARK SMILES IDX 17 15 12 17 13 18 14 19
REMARK H PARENT
REMARK Flexibility Score: 70.00
ROOT
ATOM      1  C   UNL     1     -26.801  23.350  13.770  1.00  0.00     0.136 C 
ATOM      2  O   UNL     1     -25.922  22.904  13.045  1.00  0.00    -0.299 OA
ENDROOT
BRANCH   1   3
ATOM      3  C   UNL     1     -26.685  23.223  15.280  1.00  0.00     0.053 C 
ATOM      4  C   UNL     1     -25.282  23.585  15.792  1.00  0.00     0.016 C 
BRANCH   3   5
ATOM      5  C   UNL     1     -27.123  21.825  15.762  1.00  0.00     0.015 C 
BRANCH   5   6
ATOM      6  C   UNL     1     -28.587  21.763  16.242  1.00  0.00     0.028 C 
BRANCH   6   7
ATOM      7  C   UNL     1     -29.367  20.743  15.454  1.00  0.00    -0.028 C 
ATOM      8  C   UNL     1     -30.150  21.028  14.386  1.00  0.00    -0.070 CG0
ATOM      9  C   UNL     1     -30.912  19.896  13.746  1.00  0.00     0.039 C 
ATOM     10  G   UNL     1     -30.277  22.427  13.800  1.00  0.00     0.000 G0
ENDBRANCH   6   7
ENDBRANCH   5   6
ENDBRANCH   3   5
ENDBRANCH   1   3
BRANCH   1  11
ATOM     11  C   UNL     1     -27.997  24.021  13.139  1.00  0.00     0.087 C 
BRANCH  11  12
ATOM     12  C   UNL     1     -28.577  23.195  11.960  1.00  0.00     0.066 C 
BRANCH  12  13
ATOM     13  C   UNL     1     -29.888  22.526  12.348  1.00  0.00     0.140 C 
ATOM     14  O   UNL     1     -30.578  21.997  11.489  1.00  0.00    -0.299 OA
BRANCH  13  15
ATOM     15  C   UNL     1     -30.311  22.433  13.794  1.00  0.00     0.106 CG0
ATOM     16  G   UNL     1     -30.121  21.035  14.366  1.00  0.00     0.000 G0
ENDBRANCH  13  15
ENDBRANCH  12  13
BRANCH  12  17
ATOM     17  C   UNL     1     -28.744  24.022  10.645  1.00  0.00    -0.006 C 
ATOM     18  C   UNL     1     -28.379  25.511  10.789  1.00  0.00     0.008 C 
ATOM     19  C   UNL     1     -27.951  23.400   9.483  1.00  0.00     0.008 C 
ENDBRANCH  12  17
ENDBRANCH  11  12
ENDBRANCH   1  11
TORSDOF 1
ENDMDL
MODEL 4
REMARK VINA RESULT:    -4.239     16.600     18.702
REMARK INTER + INTRA:          -6.720
REMARK INTER:                  -6.817
REMARK INTRA:                   0.097
REMARK UNBOUND:                -0.250
REMARK SMILES CC1=CCC[C@@H](C)C(=O)C[C@H](C(C)C)C(=O)C1
REMARK SMILES IDX 8 1 9 2 6 3 7 4 5 5 4 6 3 7 2 8 1 9 10 11 11 12 15 13 16 14
REMARK SMILES IDX 17 15 12 17 13 18 14 19
REMARK H PARENT
REMARK Flexibility Score: 70.00
ROOT
ATOM      1  C   UNL     1     -29.485  20.862  15.033  1.00  0.00     0.136 C 
ATOM      2  O   UNL     1     -30.618  20.896  15.495  1.00  0.00    -0.299 OA
ENDROOT
BRANCH   1   3
ATOM      3  C   UNL     1     -28.281  21.005  15.948  1.00  0.00     0.053 C 
ATOM      4  C   UNL     1     -28.543  20.441  17.354  1.00  0.00     0.016 C 
BRANCH   3   5
ATOM      5  C   UNL     1     -27.787  22.465  16.005  1.00  0.00     0.015 C 
BRANCH   5   6
ATOM      6  C   UNL     1     -26.772  22.821  14.900  1.00  0.00     0.028 C 
BRANCH   6   7
ATOM      7  C   UNL     1     -27.225  24.033  14.126  1.00  0.00    -0.028 C 
ATOM      8  C   UNL     1     -27.549  24.030  12.811  1.00  0.00    -0.070 CG0
ATOM      9  C   UNL     1     -27.926  25.343  12.173  1.00  0.00     0.039 C 
ATOM     10  G   UNL     1     -27.565  22.766  11.963  1.00  0.00     0.000 G0
ENDBRANCH   6   7
ENDBRANCH   5   6
ENDBRANCH   3   5
ENDBRANCH   1   3
BRANCH   1  11
ATOM     11  C   UNL     1     -29.309  20.681  13.544  1.00  0.00     0.087 C 
BRANCH  11  12
ATOM     12  C   UNL     1     -29.929  21.851  12.735  1.00  0.00     0.066 C 
BRANCH  12  13
ATOM     13  C   UNL     1     -28.986  22.322  11.637  1.00  0.00     0.140 C 
ATOM     14  O   UNL     1     -29.388  22.409  10.486  1.00  0.00    -0.299 OA
BRANCH  13  15
ATOM     15  C   UNL     1     -27.580  22.766  11.963  1.00  0.00     0.106 CG0
ATOM     16  G   UNL     1     -27.551  24.022  12.821  1.00  0.00     0.000 G0
ENDBRANCH  13  15
ENDBRANCH  12  13
BRANCH  12  17
ATOM     17  C   UNL     1     -31.341  21.524  12.150  1.00  0.00    -0.006 C 
ATOM     18  C   UNL     1     -31.923  20.182  12.631  1.00  0.00     0.008 C 
ATOM     19  C   UNL     1     -32.343  22.657  12.428  1.00  0.00     0.008 C 
ENDBRANCH  12  17
ENDBRANCH  11  12
ENDBRANCH   1  11
TORSDOF 1
ENDMDL
MODEL 5
REMARK VINA RESULT:    -4.191     17.082     18.995
REMARK INTER + INTRA:          -6.647
REMARK INTER:                  -7.008
REMARK INTRA:                   0.361
REMARK UNBOUND:                -0.250
REMARK SMILES CC1=CCC[C@@H](C)C(=O)C[C@H](C(C)C)C(=O)C1
REMARK SMILES IDX 8 1 9 2 6 3 7 4 5 5 4 6 3 7 2 8 1 9 10 11 11 12 15 13 16 14
REMARK SMILES IDX 17 15 12 17 13 18 14 19
REMARK H PARENT
REMARK Flexibility Score: 70.00
ROOT
ATOM      1  C   UNL     1     -28.838  23.594  14.524  1.00  0.00     0.136 C 
ATOM      2  O   UNL     1     -30.035  23.581  14.780  1.00  0.00    -0.299 OA
ENDROOT
BRANCH   1   3
ATOM      3  C   UNL     1     -27.842  22.990  15.498  1.00  0.00     0.053 C 
ATOM      4  C   UNL     1     -26.417  22.938  14.923  1.00  0.00     0.016 C 
BRANCH   3   5
ATOM      5  C   UNL     1     -28.306  21.605  15.993  1.00  0.00     0.015 C 
BRANCH   5   6
ATOM      6  C   UNL     1     -28.367  20.537  14.883  1.00  0.00     0.028 C 
BRANCH   6   7
ATOM      7  C   UNL     1     -29.795  20.250  14.493  1.00  0.00    -0.028 C 
ATOM      8  C   UNL     1     -30.302  20.417  13.248  1.00  0.00    -0.070 CG0
ATOM      9  C   UNL     1     -31.769  20.140  13.040  1.00  0.00     0.039 C 
ATOM     10  G   UNL     1     -29.457  20.851  12.059  1.00  0.00     0.000 G0
ENDBRANCH   6   7
ENDBRANCH   5   6
ENDBRANCH   3   5
ENDBRANCH   1   3
BRANCH   1  11
ATOM     11  C   UNL     1     -28.375  24.219  13.230  1.00  0.00     0.087 C 
BRANCH  11  12
ATOM     12  C   UNL     1     -28.180  23.166  12.107  1.00  0.00     0.066 C 
BRANCH  12  13
ATOM     13  C   UNL     1     -29.451  22.361  11.880  1.00  0.00     0.140 C 
ATOM     14  O   UNL     1     -30.461  22.921  11.480  1.00  0.00    -0.299 OA
BRANCH  13  15
ATOM     15  C   UNL     1     -29.461  20.863  12.059  1.00  0.00     0.106 CG0
ATOM     16  G   UNL     1     -30.317  20.424  13.240  1.00  0.00     0.000 G0
ENDBRANCH  13  15
ENDBRANCH  12  13
BRANCH  12  17
ATOM     17  C   UNL     1     -27.662  23.776  10.765  1.00  0.00    -0.006 C 
ATOM     18  C   UNL     1     -27.882  22.873   9.538  1.00  0.00     0.008 C 
ATOM     19  C   UNL     1     -28.269  25.165  10.506  1.00  0.00     0.008 C 
ENDBRANCH  12  17
ENDBRANCH  11  12
ENDBRANCH   1  11
TORSDOF 1
ENDMDL
MODEL 6
REMARK VINA RESULT:    -4.148      1.892      4.116
REMARK INTER + INTRA:          -6.581
REMARK INTER:                  -6.546
REMARK INTRA:                  -0.036
REMARK UNBOUND:                -0.250
REMARK SMILES CC1=CCC[C@@H](C)C(=O)C[C@H](C(C)C)C(=O)C1
REMARK SMILES IDX 8 1 9 2 6 3 7 4 5 5 4 6 3 7 2 8 1 9 10 11 11 12 15 13 16 14
REMARK SMILES IDX 17 15 12 17 13 18 14 19
REMARK H PARENT
REMARK Flexibility Score: 70.00
ROOT
ATOM      1  C   UNL     1     -17.120  39.105  15.162  1.00  0.00     0.136 C 
ATOM      2  O   UNL     1     -16.159  39.448  15.839  1.00  0.00    -0.299 OA
ENDROOT
BRANCH   1   3
ATOM      3  C   UNL     1     -18.398  38.633  15.832  1.00  0.00     0.053 C 
ATOM      4  C   UNL     1     -18.143  38.033  17.224  1.00  0.00     0.016 C 
BRANCH   3   5
ATOM      5  C   UNL     1     -19.182  37.659  14.928  1.00  0.00     0.015 C 
BRANCH   5   6
ATOM      6  C   UNL     1     -18.675  36.204  14.996  1.00  0.00     0.028 C 
BRANCH   6   7
ATOM      7  C   UNL     1     -19.074  35.439  13.760  1.00  0.00    -0.028 C 
ATOM      8  C   UNL     1     -18.268  35.226  12.693  1.00  0.00    -0.070 CG0
ATOM      9  C   UNL     1     -18.843  34.491  11.509  1.00  0.00     0.039 C 
ATOM     10  G   UNL     1     -16.815  35.678  12.647  1.00  0.00     0.000 G0
ENDBRANCH   6   7
ENDBRANCH   5   6
ENDBRANCH   3   5
ENDBRANCH   1   3
BRANCH   1  11
ATOM     11  C   UNL     1     -17.008  39.157  13.657  1.00  0.00     0.087 C 
BRANCH  11  12
ATOM     12  C   UNL     1     -15.985  38.127  13.110  1.00  0.00     0.066 C 
BRANCH  12  13
ATOM     13  C   UNL     1     -16.660  37.107  12.205  1.00  0.00     0.140 C 
ATOM     14  O   UNL     1     -17.025  37.435  11.085  1.00  0.00    -0.299 OA
BRANCH  13  15
ATOM     15  C   UNL     1     -16.811  35.669  12.637  1.00  0.00     0.106 CG0
ATOM     16  G   UNL     1     -18.267  35.227  12.692  1.00  0.00     0.000 G0
ENDBRANCH  13  15
ENDBRANCH  12  13
BRANCH  12  17
ATOM     17  C   UNL     1     -14.764  38.785  12.390  1.00  0.00    -0.006 C 
ATOM     18  C   UNL     1     -14.320  40.125  13.005  1.00  0.00     0.008 C 
ATOM     19  C   UNL     1     -13.567  37.823  12.317  1.00  0.00     0.008 C 
ENDBRANCH  12  17
ENDBRANCH  11  12
ENDBRANCH   1  11
TORSDOF 1
ENDMDL
MODEL 7
REMARK VINA RESULT:    -4.028      1.470      2.324
REMARK INTER + INTRA:          -6.398
REMARK INTER:                  -7.412
REMARK INTRA:                   1.014
REMARK UNBOUND:                -0.250
REMARK SMILES CC1=CCC[C@@H](C)C(=O)C[C@H](C(C)C)C(=O)C1
REMARK SMILES IDX 8 1 9 2 6 3 7 4 5 5 4 6 3 7 2 8 1 9 10 11 11 12 15 13 16 14
REMARK SMILES IDX 17 15 12 17 13 18 14 19
REMARK H PARENT
REMARK Flexibility Score: 70.00
ROOT
ATOM      1  C   UNL     1     -19.313  37.016  14.836  1.00  0.00     0.136 C 
ATOM      2  O   UNL     1     -20.416  37.484  15.087  1.00  0.00    -0.299 OA
ENDROOT
BRANCH   1   3
ATOM      3  C   UNL     1     -18.067  37.616  15.464  1.00  0.00     0.053 C 
ATOM      4  C   UNL     1     -18.168  37.706  16.996  1.00  0.00     0.016 C 
BRANCH   3   5
ATOM      5  C   UNL     1     -17.722  38.982  14.836  1.00  0.00     0.015 C 
BRANCH   5   6
ATOM      6  C   UNL     1     -17.288  38.894  13.359  1.00  0.00     0.028 C 
BRANCH   6   7
ATOM      7  C   UNL     1     -15.802  38.670  13.249  1.00  0.00    -0.028 C 
ATOM      8  C   UNL     1     -15.224  37.647  12.576  1.00  0.00    -0.070 CG0
ATOM      9  C   UNL     1     -13.722  37.534  12.616  1.00  0.00     0.039 C 
ATOM     10  G   UNL     1     -16.021  36.627  11.775  1.00  0.00     0.000 G0
ENDBRANCH   6   7
ENDBRANCH   5   6
ENDBRANCH   3   5
ENDBRANCH   1   3
BRANCH   1  11
ATOM     11  C   UNL     1     -19.216  35.840  13.894  1.00  0.00     0.087 C 
BRANCH  11  12
ATOM     12  C   UNL     1     -18.487  36.207  12.574  1.00  0.00     0.066 C 
BRANCH  12  13
ATOM     13  C   UNL     1     -17.005  35.869  12.651  1.00  0.00     0.140 C 
ATOM     14  O   UNL     1     -16.627  34.952  13.365  1.00  0.00    -0.299 OA
BRANCH  13  15
ATOM     15  C   UNL     1     -16.000  36.597  11.792  1.00  0.00     0.106 CG0
ATOM     16  G   UNL     1     -15.205  37.632  12.577  1.00  0.00     0.000 G0
ENDBRANCH  13  15
ENDBRANCH  12  13
BRANCH  12  17
ATOM     17  C   UNL     1     -19.137  35.566  11.306  1.00  0.00    -0.006 C 
ATOM     18  C   UNL     1     -18.904  36.364  10.009  1.00  0.00     0.008 C 
ATOM     19  C   UNL     1     -18.678  34.111  11.112  1.00  0.00     0.008 C 
ENDBRANCH  12  17
ENDBRANCH  11  12
ENDBRANCH   1  11
TORSDOF 1
ENDMDL
MODEL 8
REMARK VINA RESULT:    -4.015     16.787     19.001
REMARK INTER + INTRA:          -6.379
REMARK INTER:                  -6.127
REMARK INTRA:                  -0.252
REMARK UNBOUND:                -0.250
REMARK SMILES CC1=CCC[C@@H](C)C(=O)C[C@H](C(C)C)C(=O)C1
REMARK SMILES IDX 8 1 9 2 6 3 7 4 5 5 4 6 3 7 2 8 1 9 10 11 11 12 15 13 16 14
REMARK SMILES IDX 17 15 12 17 13 18 14 19
REMARK H PARENT
REMARK Flexibility Score: 70.00
ROOT
ATOM      1  C   UNL     1     -30.620  21.988  12.140  1.00  0.00     0.136 C 
ATOM      2  O   UNL     1     -31.320  22.886  11.690  1.00  0.00    -0.299 OA
ENDROOT
BRANCH   1   3
ATOM      3  C   UNL     1     -31.258  20.721  12.682  1.00  0.00     0.053 C 
ATOM      4  C   UNL     1     -32.630  20.438  12.048  1.00  0.00     0.016 C 
BRANCH   3   5
ATOM      5  C   UNL     1     -31.338  20.745  14.222  1.00  0.00     0.015 C 
BRANCH   5   6
ATOM      6  C   UNL     1     -30.214  19.950  14.916  1.00  0.00     0.028 C 
BRANCH   6   7
ATOM      7  C   UNL     1     -29.595  20.756  16.029  1.00  0.00    -0.028 C 
ATOM      8  C   UNL     1     -28.397  21.383  15.951  1.00  0.00    -0.070 CG0
ATOM      9  C   UNL     1     -27.894  22.099  17.179  1.00  0.00     0.039 C 
ATOM     10  G   UNL     1     -27.555  21.410  14.683  1.00  0.00     0.000 G0
ENDBRANCH   6   7
ENDBRANCH   5   6
ENDBRANCH   3   5
ENDBRANCH   1   3
BRANCH   1  11
ATOM     11  C   UNL     1     -29.121  22.165  12.149  1.00  0.00     0.087 C 
BRANCH  11  12
ATOM     12  C   UNL     1     -28.667  23.259  13.152  1.00  0.00     0.066 C 
BRANCH  12  13
ATOM     13  C   UNL     1     -27.508  22.772  14.010  1.00  0.00     0.140 C 
ATOM     14  O   UNL     1     -26.561  23.513  14.230  1.00  0.00    -0.299 OA
BRANCH  13  15
ATOM     15  C   UNL     1     -27.549  21.413  14.667  1.00  0.00     0.106 CG0
ATOM     16  G   UNL     1     -28.393  21.404  15.933  1.00  0.00     0.000 G0
ENDBRANCH  13  15
ENDBRANCH  12  13
BRANCH  12  17
ATOM     17  C   UNL     1     -28.318  24.621  12.470  1.00  0.00    -0.006 C 
ATOM     18  C   UNL     1     -27.907  24.496  10.991  1.00  0.00     0.008 C 
ATOM     19  C   UNL     1     -29.469  25.631  12.607  1.00  0.00     0.008 C 
ENDBRANCH  12  17
ENDBRANCH  11  12
ENDBRANCH   1  11
TORSDOF 1
ENDMDL
MODEL 9
REMARK VINA RESULT:    -3.888      1.840      5.366
REMARK INTER + INTRA:          -6.184
REMARK INTER:                  -6.806
REMARK INTRA:                   0.622
REMARK UNBOUND:                -0.250
REMARK SMILES CC1=CCC[C@@H](C)C(=O)C[C@H](C(C)C)C(=O)C1
REMARK SMILES IDX 8 1 9 2 6 3 7 4 5 5 4 6 3 7 2 8 1 9 10 11 11 12 15 13 16 14
REMARK SMILES IDX 17 15 12 17 13 18 14 19
REMARK H PARENT
REMARK Flexibility Score: 70.00
ROOT
ATOM      1  C   UNL     1     -15.681  38.660  13.501  1.00  0.00     0.136 C 
ATOM      2  O   UNL     1     -16.057  39.791  13.225  1.00  0.00    -0.299 OA
ENDROOT
BRANCH   1   3
ATOM      3  C   UNL     1     -14.665  37.956  12.619  1.00  0.00     0.053 C 
ATOM      4  C   UNL     1     -13.635  38.927  12.021  1.00  0.00     0.016 C 
BRANCH   3   5
ATOM      5  C   UNL     1     -15.355  37.115  11.525  1.00  0.00     0.015 C 
BRANCH   5   6
ATOM      6  C   UNL     1     -16.886  37.291  11.480  1.00  0.00     0.028 C 
BRANCH   6   7
ATOM      7  C   UNL     1     -17.577  35.954  11.401  1.00  0.00    -0.028 C 
ATOM      8  C   UNL     1     -17.882  35.179  12.469  1.00  0.00    -0.070 CG0
ATOM      9  C   UNL     1     -18.521  33.839  12.211  1.00  0.00     0.039 C 
ATOM     10  G   UNL     1     -17.624  35.610  13.906  1.00  0.00     0.000 G0
ENDBRANCH   6   7
ENDBRANCH   5   6
ENDBRANCH   3   5
ENDBRANCH   1   3
BRANCH   1  11
ATOM     11  C   UNL     1     -16.247  37.981  14.725  1.00  0.00     0.087 C 
BRANCH  11  12
ATOM     12  C   UNL     1     -17.794  38.092  14.794  1.00  0.00     0.066 C 
BRANCH  12  13
ATOM     13  C   UNL     1     -18.459  36.803  14.336  1.00  0.00     0.140 C 
ATOM     14  O   UNL     1     -19.677  36.747  14.242  1.00  0.00    -0.299 OA
BRANCH  13  15
ATOM     15  C   UNL     1     -17.633  35.613  13.912  1.00  0.00     0.106 CG0
ATOM     16  G   UNL     1     -17.895  35.206  12.468  1.00  0.00     0.000 G0
ENDBRANCH  13  15
ENDBRANCH  12  13
BRANCH  12  17
ATOM     17  C   UNL     1     -18.324  38.521  16.200  1.00  0.00    -0.006 C 
ATOM     18  C   UNL     1     -18.572  37.345  17.163  1.00  0.00     0.008 C 
ATOM     19  C   UNL     1     -17.395  39.551  16.863  1.00  0.00     0.008 C 
ENDBRANCH  12  17
ENDBRANCH  11  12
ENDBRANCH   1  11
TORSDOF 1
ENDMDL
