MODEL 1
REMARK VINA RESULT:    -3.986      0.000      0.000
REMARK INTER + INTRA:          -4.804
REMARK INTER:                  -4.802
REMARK INTRA:                  -0.002
REMARK UNBOUND:                -0.002
REMARK SMILES OCC(O)CO
REMARK SMILES IDX 3 1 5 2 6 3 2 5 1 6 4 8
REMARK H PARENT 6 4 1 7 4 9
REMARK Flexibility Score: inf
ROOT
ATOM      1  C   UNL     1      13.714   4.279  46.450  1.00  0.00     0.165 C 
ENDROOT
BRANCH   1   2
ATOM      2  C   UNL     1      14.510   3.000  46.744  1.00  0.00     0.190 C 
BRANCH   2   3
ATOM      3  O   UNL     1      15.570   3.277  47.620  1.00  0.00    -0.394 OA
ATOM      4  H   UNL     1      15.232   3.937  48.280  1.00  0.00     0.210 HD
ENDBRANCH   2   3
ENDBRANCH   1   2
BRANCH   1   5
ATOM      5  C   UNL     1      13.968   4.774  45.019  1.00  0.00     0.190 C 
BRANCH   5   6
ATOM      6  O   UNL     1      12.788   4.713  44.264  1.00  0.00    -0.394 OA
ATOM      7  H   UNL     1      13.023   4.233  43.427  1.00  0.00     0.210 HD
ENDBRANCH   5   6
ENDBRANCH   1   5
BRANCH   1   8
ATOM      8  O   UNL     1      12.344   4.033  46.637  1.00  0.00    -0.388 OA
ATOM      9  H   UNL     1      11.860   4.575  45.960  1.00  0.00     0.211 HD
ENDBRANCH   1   8
TORSDOF 5
ENDMDL
MODEL 2
REMARK VINA RESULT:    -3.783      8.629      9.364
REMARK INTER + INTRA:          -4.559
REMARK INTER:                  -4.366
REMARK INTRA:                  -0.193
REMARK UNBOUND:                -0.002
REMARK SMILES OCC(O)CO
REMARK SMILES IDX 3 1 5 2 6 3 2 5 1 6 4 8
REMARK H PARENT 6 4 1 7 4 9
REMARK Flexibility Score: inf
ROOT
ATOM      1  C   UNL     1      11.768  11.828  48.305  1.00  0.00     0.165 C 
ENDROOT
BRANCH   1   2
ATOM      2  C   UNL     1      11.388  12.808  47.185  1.00  0.00     0.190 C 
BRANCH   2   3
ATOM      3  O   UNL     1      11.042  14.055  47.726  1.00  0.00    -0.394 OA
ATOM      4  H   UNL     1      10.107  13.976  48.052  1.00  0.00     0.210 HD
ENDBRANCH   2   3
ENDBRANCH   1   2
BRANCH   1   5
ATOM      5  C   UNL     1      10.913  12.061  49.559  1.00  0.00     0.190 C 
BRANCH   5   6
ATOM      6  O   UNL     1       9.575  12.282  49.203  1.00  0.00    -0.394 OA
ATOM      7  H   UNL     1       9.459  11.874  48.305  1.00  0.00     0.210 HD
ENDBRANCH   5   6
ENDBRANCH   1   5
BRANCH   1   8
ATOM      8  O   UNL     1      11.606  10.510  47.850  1.00  0.00    -0.388 OA
ATOM      9  H   UNL     1      10.635  10.382  47.684  1.00  0.00     0.211 HD
ENDBRANCH   1   8
TORSDOF 5
ENDMDL
MODEL 3
REMARK VINA RESULT:    -3.726      1.801      3.106
REMARK INTER + INTRA:          -4.490
REMARK INTER:                  -4.275
REMARK INTRA:                  -0.215
REMARK UNBOUND:                -0.002
REMARK SMILES OCC(O)CO
REMARK SMILES IDX 3 1 5 2 6 3 2 5 1 6 4 8
REMARK H PARENT 6 4 1 7 4 9
REMARK Flexibility Score: inf
ROOT
ATOM      1  C   UNL     1      14.028   5.468  46.154  1.00  0.00     0.165 C 
ENDROOT
BRANCH   1   2
ATOM      2  C   UNL     1      13.709   5.303  44.662  1.00  0.00     0.190 C 
BRANCH   2   3
ATOM      3  O   UNL     1      12.508   4.598  44.495  1.00  0.00    -0.394 OA
ATOM      4  H   UNL     1      12.722   3.789  43.961  1.00  0.00     0.210 HD
ENDBRANCH   2   3
ENDBRANCH   1   2
BRANCH   1   5
ATOM      5  C   UNL     1      14.732   4.223  46.712  1.00  0.00     0.190 C 
BRANCH   5   6
ATOM      6  O   UNL     1      14.086   3.059  46.272  1.00  0.00    -0.394 OA
ATOM      7  H   UNL     1      14.368   2.928  45.329  1.00  0.00     0.210 HD
ENDBRANCH   5   6
ENDBRANCH   1   5
BRANCH   1   8
ATOM      8  O   UNL     1      14.837   6.601  46.339  1.00  0.00    -0.388 OA
ATOM      9  H   UNL     1      14.243   7.393  46.256  1.00  0.00     0.211 HD
ENDBRANCH   1   8
TORSDOF 5
ENDMDL
MODEL 4
REMARK VINA RESULT:    -3.668      1.385      2.983
REMARK INTER + INTRA:          -4.421
REMARK INTER:                  -4.198
REMARK INTRA:                  -0.223
REMARK UNBOUND:                -0.002
REMARK SMILES OCC(O)CO
REMARK SMILES IDX 3 1 5 2 6 3 2 5 1 6 4 8
REMARK H PARENT 6 4 1 7 4 9
REMARK Flexibility Score: inf
ROOT
ATOM      1  C   UNL     1      13.674   5.092  45.304  1.00  0.00     0.165 C 
ENDROOT
BRANCH   1   2
ATOM      2  C   UNL     1      13.367   6.462  45.923  1.00  0.00     0.190 C 
BRANCH   2   3
ATOM      3  O   UNL     1      12.220   6.388  46.726  1.00  0.00    -0.394 OA
ATOM      4  H   UNL     1      11.702   7.220  46.565  1.00  0.00     0.210 HD
ENDBRANCH   2   3
ENDBRANCH   1   2
BRANCH   1   5
ATOM      5  C   UNL     1      13.895   4.029  46.390  1.00  0.00     0.190 C 
BRANCH   5   6
ATOM      6  O   UNL     1      12.665   3.530  46.842  1.00  0.00    -0.394 OA
ATOM      7  H   UNL     1      12.108   4.324  47.054  1.00  0.00     0.210 HD
ENDBRANCH   5   6
ENDBRANCH   1   5
BRANCH   1   8
ATOM      8  O   UNL     1      12.616   4.708  44.464  1.00  0.00    -0.388 OA
ATOM      9  H   UNL     1      13.007   4.132  43.756  1.00  0.00     0.211 HD
ENDBRANCH   1   8
TORSDOF 5
ENDMDL
MODEL 5
REMARK VINA RESULT:    -3.619     16.177     16.664
REMARK INTER + INTRA:          -4.362
REMARK INTER:                  -4.138
REMARK INTRA:                  -0.224
REMARK UNBOUND:                -0.002
REMARK SMILES OCC(O)CO
REMARK SMILES IDX 3 1 5 2 6 3 2 5 1 6 4 8
REMARK H PARENT 6 4 1 7 4 9
REMARK Flexibility Score: inf
ROOT
ATOM      1  C   UNL     1       6.278  15.339  55.478  1.00  0.00     0.165 C 
ENDROOT
BRANCH   1   2
ATOM      2  C   UNL     1       7.654  15.790  55.989  1.00  0.00     0.190 C 
BRANCH   2   3
ATOM      3  O   UNL     1       8.479  14.678  56.214  1.00  0.00    -0.394 OA
ATOM      4  H   UNL     1       8.818  14.757  57.144  1.00  0.00     0.210 HD
ENDBRANCH   2   3
ENDBRANCH   1   2
BRANCH   1   5
ATOM      5  C   UNL     1       5.446  14.711  56.606  1.00  0.00     0.190 C 
BRANCH   5   6
ATOM      6  O   UNL     1       5.927  13.430  56.911  1.00  0.00    -0.394 OA
ATOM      7  H   UNL     1       6.783  13.566  57.395  1.00  0.00     0.210 HD
ENDBRANCH   5   6
ENDBRANCH   1   5
BRANCH   1   8
ATOM      8  O   UNL     1       5.597  16.439  54.933  1.00  0.00    -0.388 OA
ATOM      9  H   UNL     1       5.018  16.085  54.207  1.00  0.00     0.211 HD
ENDBRANCH   1   8
TORSDOF 5
ENDMDL
MODEL 6
REMARK VINA RESULT:    -3.605     15.896     16.635
REMARK INTER + INTRA:          -4.345
REMARK INTER:                  -4.133
REMARK INTRA:                  -0.213
REMARK UNBOUND:                -0.002
REMARK SMILES OCC(O)CO
REMARK SMILES IDX 3 1 5 2 6 3 2 5 1 6 4 8
REMARK H PARENT 6 4 1 7 4 9
REMARK Flexibility Score: inf
ROOT
ATOM      1  C   UNL     1       6.254  15.773  55.929  1.00  0.00     0.165 C 
ENDROOT
BRANCH   1   2
ATOM      2  C   UNL     1       5.381  14.710  56.612  1.00  0.00     0.190 C 
BRANCH   2   3
ATOM      3  O   UNL     1       6.025  13.464  56.592  1.00  0.00    -0.394 OA
ATOM      4  H   UNL     1       6.914  13.608  56.173  1.00  0.00     0.210 HD
ENDBRANCH   2   3
ENDBRANCH   1   2
BRANCH   1   5
ATOM      5  C   UNL     1       7.484  15.136  55.264  1.00  0.00     0.190 C 
BRANCH   5   6
ATOM      6  O   UNL     1       8.458  14.836  56.227  1.00  0.00    -0.394 OA
ATOM      7  H   UNL     1       8.893  15.699  56.456  1.00  0.00     0.210 HD
ENDBRANCH   5   6
ENDBRANCH   1   5
BRANCH   1   8
ATOM      8  O   UNL     1       5.492  16.461  54.971  1.00  0.00    -0.388 OA
ATOM      9  H   UNL     1       5.071  17.229  55.439  1.00  0.00     0.211 HD
ENDBRANCH   1   8
TORSDOF 5
ENDMDL
MODEL 7
REMARK VINA RESULT:    -3.603      1.512      2.703
REMARK INTER + INTRA:          -4.343
REMARK INTER:                  -4.127
REMARK INTRA:                  -0.216
REMARK UNBOUND:                -0.002
REMARK SMILES OCC(O)CO
REMARK SMILES IDX 3 1 5 2 6 3 2 5 1 6 4 8
REMARK H PARENT 6 4 1 7 4 9
REMARK Flexibility Score: inf
ROOT
ATOM      1  C   UNL     1      13.680   4.364  46.173  1.00  0.00     0.165 C 
ENDROOT
BRANCH   1   2
ATOM      2  C   UNL     1      14.257   5.677  46.722  1.00  0.00     0.190 C 
BRANCH   2   3
ATOM      3  O   UNL     1      15.301   6.131  45.901  1.00  0.00    -0.394 OA
ATOM      4  H   UNL     1      15.982   5.409  45.879  1.00  0.00     0.210 HD
ENDBRANCH   2   3
ENDBRANCH   1   2
BRANCH   1   5
ATOM      5  C   UNL     1      14.346   3.147  46.832  1.00  0.00     0.190 C 
BRANCH   5   6
ATOM      6  O   UNL     1      15.559   3.519  47.429  1.00  0.00    -0.394 OA
ATOM      7  H   UNL     1      16.010   4.123  46.782  1.00  0.00     0.210 HD
ENDBRANCH   5   6
ENDBRANCH   1   5
BRANCH   1   8
ATOM      8  O   UNL     1      12.294   4.332  46.396  1.00  0.00    -0.388 OA
ATOM      9  H   UNL     1      11.976   5.273  46.358  1.00  0.00     0.211 HD
ENDBRANCH   1   8
TORSDOF 5
ENDMDL
MODEL 8
REMARK VINA RESULT:    -3.563      2.431      3.178
REMARK INTER + INTRA:          -4.295
REMARK INTER:                  -4.078
REMARK INTRA:                  -0.217
REMARK UNBOUND:                -0.002
REMARK SMILES OCC(O)CO
REMARK SMILES IDX 3 1 5 2 6 3 2 5 1 6 4 8
REMARK H PARENT 6 4 1 7 4 9
REMARK Flexibility Score: inf
ROOT
ATOM      1  C   UNL     1      14.288   5.919  45.659  1.00  0.00     0.165 C 
ENDROOT
BRANCH   1   2
ATOM      2  C   UNL     1      13.520   6.844  46.613  1.00  0.00     0.190 C 
BRANCH   2   3
ATOM      3  O   UNL     1      12.197   6.402  46.761  1.00  0.00    -0.394 OA
ATOM      4  H   UNL     1      12.116   6.043  47.683  1.00  0.00     0.210 HD
ENDBRANCH   2   3
ENDBRANCH   1   2
BRANCH   1   5
ATOM      5  C   UNL     1      13.548   5.763  44.323  1.00  0.00     0.190 C 
BRANCH   5   6
ATOM      6  O   UNL     1      12.716   4.634  44.355  1.00  0.00    -0.394 OA
ATOM      7  H   UNL     1      13.093   3.997  43.694  1.00  0.00     0.210 HD
ENDBRANCH   5   6
ENDBRANCH   1   5
BRANCH   1   8
ATOM      8  O   UNL     1      15.575   6.437  45.438  1.00  0.00    -0.388 OA
ATOM      9  H   UNL     1      15.950   5.948  44.659  1.00  0.00     0.211 HD
ENDBRANCH   1   8
TORSDOF 5
ENDMDL
MODEL 9
REMARK VINA RESULT:    -3.535      2.129      3.307
REMARK INTER + INTRA:          -4.261
REMARK INTER:                  -4.038
REMARK INTRA:                  -0.223
REMARK UNBOUND:                -0.002
REMARK SMILES OCC(O)CO
REMARK SMILES IDX 3 1 5 2 6 3 2 5 1 6 4 8
REMARK H PARENT 6 4 1 7 4 9
REMARK Flexibility Score: inf
ROOT
ATOM      1  C   UNL     1      14.150   6.252  45.436  1.00  0.00     0.165 C 
ENDROOT
BRANCH   1   2
ATOM      2  C   UNL     1      13.752   4.779  45.272  1.00  0.00     0.190 C 
BRANCH   2   3
ATOM      3  O   UNL     1      12.623   4.668  44.448  1.00  0.00    -0.394 OA
ATOM      4  H   UNL     1      12.875   4.071  43.695  1.00  0.00     0.210 HD
ENDBRANCH   2   3
ENDBRANCH   1   2
BRANCH   1   5
ATOM      5  C   UNL     1      13.481   6.874  46.671  1.00  0.00     0.190 C 
BRANCH   5   6
ATOM      6  O   UNL     1      12.150   6.445  46.773  1.00  0.00    -0.394 OA
ATOM      7  H   UNL     1      12.177   5.581  47.262  1.00  0.00     0.210 HD
ENDBRANCH   5   6
ENDBRANCH   1   5
BRANCH   1   8
ATOM      8  O   UNL     1      15.546   6.352  45.544  1.00  0.00    -0.388 OA
ATOM      9  H   UNL     1      15.781   6.094  46.474  1.00  0.00     0.211 HD
ENDBRANCH   1   8
TORSDOF 5
ENDMDL
