MODEL 1
REMARK VINA RESULT:    -6.623      0.000      0.000
REMARK INTER + INTRA:         -11.548
REMARK INTER:                 -10.301
REMARK INTRA:                  -1.248
REMARK UNBOUND:                -1.248
REMARK SMILES COc1cc(CNC(=O)CCCCC=CC(C)C)ccc1O
REMARK SMILES IDX 11 1 12 2 13 3 14 4 15 5 16 6 17 7 18 8 10 9 8 10 9 11 7 12
REMARK SMILES IDX 6 14 5 15 4 16 19 17 3 18 20 19 21 20 2 21 1 22 22 23
REMARK H PARENT 7 13 22 24
REMARK Flexibility Score: inf
ROOT
ATOM      1  C   UNL     1      24.532  -3.541  25.366  1.00  0.00     0.010 C 
ENDROOT
BRANCH   1   2
ATOM      2  C   UNL     1      23.192  -2.847  25.047  1.00  0.00     0.005 C 
BRANCH   2   3
ATOM      3  C   UNL     1      23.334  -1.397  24.549  1.00  0.00     0.027 C 
BRANCH   3   4
ATOM      4  C   UNL     1      24.764  -0.924  24.544  1.00  0.00    -0.031 C 
ATOM      5  C   UNL     1      25.400  -0.620  23.403  1.00  0.00    -0.028 C 
BRANCH   5   6
ATOM      6  C   UNL     1      26.839  -0.158  23.406  1.00  0.00     0.005 C 
ATOM      7  C   UNL     1      26.982   1.150  22.621  1.00  0.00     0.012 C 
ATOM      8  C   UNL     1      27.345   0.023  24.841  1.00  0.00     0.012 C 
ENDBRANCH   5   6
ENDBRANCH   3   4
ENDBRANCH   2   3
ENDBRANCH   1   2
BRANCH   1   9
ATOM      9  C   UNL     1      24.781  -3.778  26.863  1.00  0.00     0.100 C 
BRANCH   9  10
ATOM     10  C   UNL     1      25.930  -2.961  27.376  1.00  0.00     0.220 C 
ATOM     11  O   UNL     1      27.108  -3.385  27.223  1.00  0.00    -0.275 OA
ATOM     12  N   UNL     1      25.690  -1.726  28.067  1.00  0.00    -0.352 N 
ATOM     13  H   UNL     1      24.705  -1.409  28.217  1.00  0.00     0.163 HD
BRANCH  12  14
ATOM     14  C   UNL     1      26.772  -0.895  28.587  1.00  0.00     0.151 C 
BRANCH  14  15
ATOM     15  C   UNL     1      26.345   0.547  28.633  1.00  0.00    -0.025 A 
ATOM     16  C   UNL     1      27.261   1.561  28.308  1.00  0.00     0.056 A 
ATOM     17  C   UNL     1      25.044   0.892  29.024  1.00  0.00     0.009 A 
ATOM     18  C   UNL     1      26.881   2.916  28.368  1.00  0.00     0.160 A 
ATOM     19  C   UNL     1      24.660   2.233  29.083  1.00  0.00     0.050 A 
ATOM     20  C   UNL     1      25.569   3.245  28.757  1.00  0.00     0.157 A 
BRANCH  18  21
ATOM     21  O   UNL     1      27.774   3.953  28.050  1.00  0.00    -0.493 OA
ATOM     22  C   UNL     1      28.764   4.465  28.935  1.00  0.00     0.278 C 
ENDBRANCH  18  21
BRANCH  20  23
ATOM     23  O   UNL     1      25.151   4.574  28.828  1.00  0.00    -0.504 OA
ATOM     24  H   UNL     1      24.175   4.830  28.908  1.00  0.00     0.293 HD
ENDBRANCH  20  23
ENDBRANCH  14  15
ENDBRANCH  12  14
ENDBRANCH   9  10
ENDBRANCH   1   9
TORSDOF 10
ENDMDL
MODEL 2
REMARK VINA RESULT:    -6.567      2.926      4.979
REMARK INTER + INTRA:         -11.461
REMARK INTER:                 -10.788
REMARK INTRA:                  -0.674
REMARK UNBOUND:                -1.248
REMARK SMILES COc1cc(CNC(=O)CCCCC=CC(C)C)ccc1O
REMARK SMILES IDX 11 1 12 2 13 3 14 4 15 5 16 6 17 7 18 8 10 9 8 10 9 11 7 12
REMARK SMILES IDX 6 14 5 15 4 16 19 17 3 18 20 19 21 20 2 21 1 22 22 23
REMARK H PARENT 7 13 22 24
REMARK Flexibility Score: inf
ROOT
ATOM      1  C   UNL     1      23.914  -3.418  25.351  1.00  0.00     0.010 C 
ENDROOT
BRANCH   1   2
ATOM      2  C   UNL     1      22.548  -4.049  25.694  1.00  0.00     0.005 C 
BRANCH   2   3
ATOM      3  C   UNL     1      22.480  -4.685  27.094  1.00  0.00     0.027 C 
BRANCH   3   4
ATOM      4  C   UNL     1      21.091  -5.138  27.458  1.00  0.00    -0.031 C 
ATOM      5  C   UNL     1      20.016  -4.369  27.228  1.00  0.00    -0.028 C 
BRANCH   5   6
ATOM      6  C   UNL     1      18.627  -4.826  27.607  1.00  0.00     0.005 C 
ATOM      7  C   UNL     1      17.987  -5.607  26.454  1.00  0.00     0.012 C 
ATOM      8  C   UNL     1      18.670  -5.687  28.875  1.00  0.00     0.012 C 
ENDBRANCH   5   6
ENDBRANCH   3   4
ENDBRANCH   2   3
ENDBRANCH   1   2
BRANCH   1   9
ATOM      9  C   UNL     1      23.823  -2.082  24.599  1.00  0.00     0.100 C 
BRANCH   9  10
ATOM     10  C   UNL     1      24.994  -1.192  24.895  1.00  0.00     0.220 C 
ATOM     11  O   UNL     1      25.462  -0.460  23.981  1.00  0.00    -0.275 OA
ATOM     12  N   UNL     1      25.599  -1.200  26.197  1.00  0.00    -0.352 N 
ATOM     13  H   UNL     1      25.221  -1.840  26.931  1.00  0.00     0.163 HD
BRANCH  12  14
ATOM     14  C   UNL     1      26.740  -0.353  26.536  1.00  0.00     0.151 C 
BRANCH  14  15
ATOM     15  C   UNL     1      26.290   0.819  27.365  1.00  0.00    -0.025 A 
ATOM     16  C   UNL     1      27.022   2.017  27.341  1.00  0.00     0.056 A 
ATOM     17  C   UNL     1      25.158   0.718  28.186  1.00  0.00     0.009 A 
ATOM     18  C   UNL     1      26.625   3.116  28.128  1.00  0.00     0.160 A 
ATOM     19  C   UNL     1      24.759   1.804  28.968  1.00  0.00     0.050 A 
ATOM     20  C   UNL     1      25.483   3.000  28.943  1.00  0.00     0.157 A 
BRANCH  18  21
ATOM     21  O   UNL     1      27.336   4.327  28.126  1.00  0.00    -0.493 OA
ATOM     22  C   UNL     1      28.733   4.443  28.372  1.00  0.00     0.278 C 
ENDBRANCH  18  21
BRANCH  20  23
ATOM     23  O   UNL     1      25.054   4.063  29.737  1.00  0.00    -0.504 OA
ATOM     24  H   UNL     1      24.427   3.933  30.521  1.00  0.00     0.293 HD
ENDBRANCH  20  23
ENDBRANCH  14  15
ENDBRANCH  12  14
ENDBRANCH   9  10
ENDBRANCH   1   9
TORSDOF 10
ENDMDL
MODEL 3
REMARK VINA RESULT:    -6.515      9.365     11.421
REMARK INTER + INTRA:         -11.382
REMARK INTER:                 -10.121
REMARK INTRA:                  -1.260
REMARK UNBOUND:                -1.248
REMARK SMILES COc1cc(CNC(=O)CCCCC=CC(C)C)ccc1O
REMARK SMILES IDX 11 1 12 2 13 3 14 4 15 5 16 6 17 7 18 8 10 9 8 10 9 11 7 12
REMARK SMILES IDX 6 14 5 15 4 16 19 17 3 18 20 19 21 20 2 21 1 22 22 23
REMARK H PARENT 7 13 22 24
REMARK Flexibility Score: inf
ROOT
ATOM      1  C   UNL     1      15.833  -7.624  27.383  1.00  0.00     0.010 C 
ENDROOT
BRANCH   1   2
ATOM      2  C   UNL     1      15.256  -6.389  26.660  1.00  0.00     0.005 C 
BRANCH   2   3
ATOM      3  C   UNL     1      16.312  -5.525  25.947  1.00  0.00     0.027 C 
BRANCH   3   4
ATOM      4  C   UNL     1      17.706  -5.772  26.460  1.00  0.00    -0.031 C 
ATOM      5  C   UNL     1      18.322  -4.902  27.273  1.00  0.00    -0.028 C 
BRANCH   5   6
ATOM      6  C   UNL     1      19.725  -5.153  27.773  1.00  0.00     0.005 C 
ATOM      7  C   UNL     1      20.004  -6.657  27.854  1.00  0.00     0.012 C 
ATOM      8  C   UNL     1      20.753  -4.468  26.865  1.00  0.00     0.012 C 
ENDBRANCH   5   6
ENDBRANCH   3   4
ENDBRANCH   2   3
ENDBRANCH   1   2
BRANCH   1   9
ATOM      9  C   UNL     1      15.600  -7.636  28.900  1.00  0.00     0.100 C 
BRANCH   9  10
ATOM     10  C   UNL     1      16.887  -7.543  29.666  1.00  0.00     0.220 C 
ATOM     11  O   UNL     1      17.642  -8.551  29.730  1.00  0.00    -0.275 OA
ATOM     12  N   UNL     1      17.238  -6.331  30.349  1.00  0.00    -0.352 N 
ATOM     13  H   UNL     1      16.582  -5.518  30.315  1.00  0.00     0.163 HD
BRANCH  12  14
ATOM     14  C   UNL     1      18.478  -6.189  31.108  1.00  0.00     0.151 C 
BRANCH  14  15
ATOM     15  C   UNL     1      18.173  -5.938  32.560  1.00  0.00    -0.025 A 
ATOM     16  C   UNL     1      17.165  -5.029  32.918  1.00  0.00     0.056 A 
ATOM     17  C   UNL     1      18.907  -6.585  33.564  1.00  0.00     0.009 A 
ATOM     18  C   UNL     1      16.883  -4.768  34.273  1.00  0.00     0.160 A 
ATOM     19  C   UNL     1      18.632  -6.331  34.909  1.00  0.00     0.050 A 
ATOM     20  C   UNL     1      17.625  -5.430  35.269  1.00  0.00     0.157 A 
BRANCH  18  21
ATOM     21  O   UNL     1      15.881  -3.864  34.663  1.00  0.00    -0.493 OA
ATOM     22  C   UNL     1      15.755  -2.535  34.166  1.00  0.00     0.278 C 
ENDBRANCH  18  21
BRANCH  20  23
ATOM     23  O   UNL     1      17.379  -5.201  36.623  1.00  0.00    -0.504 OA
ATOM     24  H   UNL     1      16.522  -4.774  36.951  1.00  0.00     0.293 HD
ENDBRANCH  20  23
ENDBRANCH  14  15
ENDBRANCH  12  14
ENDBRANCH   9  10
ENDBRANCH   1   9
TORSDOF 10
ENDMDL
MODEL 4
REMARK VINA RESULT:    -6.486      1.542      2.752
REMARK INTER + INTRA:         -11.336
REMARK INTER:                  -9.710
REMARK INTRA:                  -1.626
REMARK UNBOUND:                -1.248
REMARK SMILES COc1cc(CNC(=O)CCCCC=CC(C)C)ccc1O
REMARK SMILES IDX 11 1 12 2 13 3 14 4 15 5 16 6 17 7 18 8 10 9 8 10 9 11 7 12
REMARK SMILES IDX 6 14 5 15 4 16 19 17 3 18 20 19 21 20 2 21 1 22 22 23
REMARK H PARENT 7 13 22 24
REMARK Flexibility Score: inf
ROOT
ATOM      1  C   UNL     1      27.137  -4.172  28.162  1.00  0.00     0.010 C 
ENDROOT
BRANCH   1   2
ATOM      2  C   UNL     1      25.739  -3.581  27.887  1.00  0.00     0.005 C 
BRANCH   2   3
ATOM      3  C   UNL     1      24.898  -4.390  26.883  1.00  0.00     0.027 C 
BRANCH   3   4
ATOM      4  C   UNL     1      24.235  -3.519  25.849  1.00  0.00    -0.031 C 
ATOM      5  C   UNL     1      24.887  -2.508  25.255  1.00  0.00    -0.028 C 
BRANCH   5   6
ATOM      6  C   UNL     1      24.210  -1.632  24.228  1.00  0.00     0.005 C 
ATOM      7  C   UNL     1      23.126  -0.774  24.887  1.00  0.00     0.012 C 
ATOM      8  C   UNL     1      25.236  -0.742  23.517  1.00  0.00     0.012 C 
ENDBRANCH   5   6
ENDBRANCH   3   4
ENDBRANCH   2   3
ENDBRANCH   1   2
BRANCH   1   9
ATOM      9  C   UNL     1      28.198  -3.798  27.117  1.00  0.00     0.100 C 
BRANCH   9  10
ATOM     10  C   UNL     1      28.495  -2.327  27.121  1.00  0.00     0.220 C 
ATOM     11  O   UNL     1      29.239  -1.848  28.020  1.00  0.00    -0.275 OA
ATOM     12  N   UNL     1      27.910  -1.466  26.132  1.00  0.00    -0.352 N 
ATOM     13  H   UNL     1      27.267  -1.875  25.417  1.00  0.00     0.163 HD
BRANCH  12  14
ATOM     14  C   UNL     1      28.166  -0.029  26.093  1.00  0.00     0.151 C 
BRANCH  14  15
ATOM     15  C   UNL     1      27.210   0.695  27.003  1.00  0.00    -0.025 A 
ATOM     16  C   UNL     1      27.576   1.927  27.567  1.00  0.00     0.056 A 
ATOM     17  C   UNL     1      25.963   0.135  27.316  1.00  0.00     0.009 A 
ATOM     18  C   UNL     1      26.700   2.605  28.437  1.00  0.00     0.160 A 
ATOM     19  C   UNL     1      25.090   0.802  28.176  1.00  0.00     0.050 A 
ATOM     20  C   UNL     1      25.449   2.032  28.736  1.00  0.00     0.157 A 
BRANCH  18  21
ATOM     21  O   UNL     1      27.036   3.839  29.018  1.00  0.00    -0.493 OA
ATOM     22  C   UNL     1      28.356   4.371  29.075  1.00  0.00     0.278 C 
ENDBRANCH  18  21
BRANCH  20  23
ATOM     23  O   UNL     1      24.552   2.670  29.593  1.00  0.00    -0.504 OA
ATOM     24  H   UNL     1      24.255   2.259  30.468  1.00  0.00     0.293 HD
ENDBRANCH  20  23
ENDBRANCH  14  15
ENDBRANCH  12  14
ENDBRANCH   9  10
ENDBRANCH   1   9
TORSDOF 10
ENDMDL
MODEL 5
REMARK VINA RESULT:    -6.460      7.543      9.364
REMARK INTER + INTRA:         -11.296
REMARK INTER:                 -10.738
REMARK INTRA:                  -0.558
REMARK UNBOUND:                -1.248
REMARK SMILES COc1cc(CNC(=O)CCCCC=CC(C)C)ccc1O
REMARK SMILES IDX 11 1 12 2 13 3 14 4 15 5 16 6 17 7 18 8 10 9 8 10 9 11 7 12
REMARK SMILES IDX 6 14 5 15 4 16 19 17 3 18 20 19 21 20 2 21 1 22 22 23
REMARK H PARENT 7 13 22 24
REMARK Flexibility Score: inf
ROOT
ATOM      1  C   UNL     1      21.090  -4.656  26.602  1.00  0.00     0.010 C 
ENDROOT
BRANCH   1   2
ATOM      2  C   UNL     1      22.373  -4.862  27.434  1.00  0.00     0.005 C 
BRANCH   2   3
ATOM      3  C   UNL     1      23.676  -4.750  26.622  1.00  0.00     0.027 C 
BRANCH   3   4
ATOM      4  C   UNL     1      23.577  -3.747  25.503  1.00  0.00    -0.031 C 
ATOM      5  C   UNL     1      24.361  -2.659  25.460  1.00  0.00    -0.028 C 
BRANCH   5   6
ATOM      6  C   UNL     1      24.246  -1.652  24.340  1.00  0.00     0.005 C 
ATOM      7  C   UNL     1      23.025  -0.751  24.553  1.00  0.00     0.012 C 
ATOM      8  C   UNL     1      25.521  -0.808  24.240  1.00  0.00     0.012 C 
ENDBRANCH   5   6
ENDBRANCH   3   4
ENDBRANCH   2   3
ENDBRANCH   1   2
BRANCH   1   9
ATOM      9  C   UNL     1      19.820  -4.447  27.440  1.00  0.00     0.100 C 
BRANCH   9  10
ATOM     10  C   UNL     1      19.485  -5.657  28.261  1.00  0.00     0.220 C 
ATOM     11  O   UNL     1      19.674  -6.806  27.776  1.00  0.00    -0.275 OA
ATOM     12  N   UNL     1      18.922  -5.510  29.574  1.00  0.00    -0.352 N 
ATOM     13  H   UNL     1      18.738  -4.550  29.944  1.00  0.00     0.163 HD
BRANCH  12  14
ATOM     14  C   UNL     1      18.578  -6.655  30.412  1.00  0.00     0.151 C 
BRANCH  14  15
ATOM     15  C   UNL     1      18.253  -6.198  31.809  1.00  0.00    -0.025 A 
ATOM     16  C   UNL     1      17.282  -5.205  32.013  1.00  0.00     0.056 A 
ATOM     17  C   UNL     1      18.932  -6.737  32.911  1.00  0.00     0.009 A 
ATOM     18  C   UNL     1      16.983  -4.752  33.314  1.00  0.00     0.160 A 
ATOM     19  C   UNL     1      18.639  -6.294  34.202  1.00  0.00     0.050 A 
ATOM     20  C   UNL     1      17.670  -5.308  34.409  1.00  0.00     0.157 A 
BRANCH  18  21
ATOM     21  O   UNL     1      16.018  -3.760  33.551  1.00  0.00    -0.493 OA
ATOM     22  C   UNL     1      16.260  -2.360  33.458  1.00  0.00     0.278 C 
ENDBRANCH  18  21
BRANCH  20  23
ATOM     23  O   UNL     1      17.404  -4.889  35.713  1.00  0.00    -0.504 OA
ATOM     24  H   UNL     1      17.473  -3.919  35.993  1.00  0.00     0.293 HD
ENDBRANCH  20  23
ENDBRANCH  14  15
ENDBRANCH  12  14
ENDBRANCH   9  10
ENDBRANCH   1   9
TORSDOF 10
ENDMDL
MODEL 6
REMARK VINA RESULT:    -6.424      1.683      3.780
REMARK INTER + INTRA:         -11.239
REMARK INTER:                 -10.322
REMARK INTRA:                  -0.917
REMARK UNBOUND:                -1.248
REMARK SMILES COc1cc(CNC(=O)CCCCC=CC(C)C)ccc1O
REMARK SMILES IDX 11 1 12 2 13 3 14 4 15 5 16 6 17 7 18 8 10 9 8 10 9 11 7 12
REMARK SMILES IDX 6 14 5 15 4 16 19 17 3 18 20 19 21 20 2 21 1 22 22 23
REMARK H PARENT 7 13 22 24
REMARK Flexibility Score: inf
ROOT
ATOM      1  C   UNL     1      25.975  -0.312  23.620  1.00  0.00     0.010 C 
ENDROOT
BRANCH   1   2
ATOM      2  C   UNL     1      25.096  -0.847  24.769  1.00  0.00     0.005 C 
BRANCH   2   3
ATOM      3  C   UNL     1      24.192  -2.029  24.375  1.00  0.00     0.027 C 
BRANCH   3   4
ATOM      4  C   UNL     1      24.264  -3.167  25.358  1.00  0.00    -0.031 C 
ATOM      5  C   UNL     1      25.212  -3.220  26.306  1.00  0.00    -0.028 C 
BRANCH   5   6
ATOM      6  C   UNL     1      25.285  -4.372  27.280  1.00  0.00     0.005 C 
ATOM      7  C   UNL     1      23.890  -4.958  27.522  1.00  0.00     0.012 C 
ATOM      8  C   UNL     1      26.237  -5.457  26.764  1.00  0.00     0.012 C 
ENDBRANCH   5   6
ENDBRANCH   3   4
ENDBRANCH   2   3
ENDBRANCH   1   2
BRANCH   1   9
ATOM      9  C   UNL     1      27.483  -0.339  23.911  1.00  0.00     0.100 C 
BRANCH   9  10
ATOM     10  C   UNL     1      27.778  -0.089  25.361  1.00  0.00     0.220 C 
ATOM     11  O   UNL     1      28.142  -1.048  26.093  1.00  0.00    -0.275 OA
ATOM     12  N   UNL     1      27.612   1.224  25.918  1.00  0.00    -0.352 N 
ATOM     13  H   UNL     1      27.274   1.999  25.304  1.00  0.00     0.163 HD
BRANCH  12  14
ATOM     14  C   UNL     1      27.884   1.520  27.322  1.00  0.00     0.151 C 
BRANCH  14  15
ATOM     15  C   UNL     1      26.653   2.077  27.985  1.00  0.00    -0.025 A 
ATOM     16  C   UNL     1      26.529   3.462  28.181  1.00  0.00     0.056 A 
ATOM     17  C   UNL     1      25.637   1.222  28.434  1.00  0.00     0.009 A 
ATOM     18  C   UNL     1      25.392   3.996  28.820  1.00  0.00     0.160 A 
ATOM     19  C   UNL     1      24.508   1.745  29.066  1.00  0.00     0.050 A 
ATOM     20  C   UNL     1      24.379   3.124  29.260  1.00  0.00     0.157 A 
BRANCH  18  21
ATOM     21  O   UNL     1      25.238   5.376  29.032  1.00  0.00    -0.493 OA
ATOM     22  C   UNL     1      24.457   6.237  28.210  1.00  0.00     0.278 C 
ENDBRANCH  18  21
BRANCH  20  23
ATOM     23  O   UNL     1      23.236   3.611  29.896  1.00  0.00    -0.504 OA
ATOM     24  H   UNL     1      22.440   3.021  30.101  1.00  0.00     0.293 HD
ENDBRANCH  20  23
ENDBRANCH  14  15
ENDBRANCH  12  14
ENDBRANCH   9  10
ENDBRANCH   1   9
TORSDOF 10
ENDMDL
MODEL 7
REMARK VINA RESULT:    -6.391      4.256      8.417
REMARK INTER + INTRA:         -11.188
REMARK INTER:                 -10.110
REMARK INTRA:                  -1.078
REMARK UNBOUND:                -1.248
REMARK SMILES COc1cc(CNC(=O)CCCCC=CC(C)C)ccc1O
REMARK SMILES IDX 11 1 12 2 13 3 14 4 15 5 16 6 17 7 18 8 10 9 8 10 9 11 7 12
REMARK SMILES IDX 6 14 5 15 4 16 19 17 3 18 20 19 21 20 2 21 1 22 22 23
REMARK H PARENT 7 13 22 24
REMARK Flexibility Score: inf
ROOT
ATOM      1  C   UNL     1      24.120  -3.451  24.872  1.00  0.00     0.010 C 
ENDROOT
BRANCH   1   2
ATOM      2  C   UNL     1      22.758  -3.767  25.525  1.00  0.00     0.005 C 
BRANCH   2   3
ATOM      3  C   UNL     1      22.851  -4.662  26.775  1.00  0.00     0.027 C 
BRANCH   3   4
ATOM      4  C   UNL     1      21.510  -4.902  27.416  1.00  0.00    -0.031 C 
ATOM      5  C   UNL     1      20.363  -4.668  26.760  1.00  0.00    -0.028 C 
BRANCH   5   6
ATOM      6  C   UNL     1      19.022  -4.901  27.415  1.00  0.00     0.005 C 
ATOM      7  C   UNL     1      18.023  -5.470  26.403  1.00  0.00     0.012 C 
ATOM      8  C   UNL     1      19.163  -5.845  28.614  1.00  0.00     0.012 C 
ENDBRANCH   5   6
ENDBRANCH   3   4
ENDBRANCH   2   3
ENDBRANCH   1   2
BRANCH   1   9
ATOM      9  C   UNL     1      24.842  -2.236  25.472  1.00  0.00     0.100 C 
BRANCH   9  10
ATOM     10  C   UNL     1      25.754  -2.627  26.599  1.00  0.00     0.220 C 
ATOM     11  O   UNL     1      25.653  -2.037  27.709  1.00  0.00    -0.275 OA
ATOM     12  N   UNL     1      26.755  -3.637  26.403  1.00  0.00    -0.352 N 
ATOM     13  H   UNL     1      26.847  -4.088  25.466  1.00  0.00     0.163 HD
BRANCH  12  14
ATOM     14  C   UNL     1      27.667  -4.053  27.466  1.00  0.00     0.151 C 
BRANCH  14  15
ATOM     15  C   UNL     1      27.523  -5.528  27.727  1.00  0.00    -0.025 A 
ATOM     16  C   UNL     1      26.350  -6.197  27.345  1.00  0.00     0.056 A 
ATOM     17  C   UNL     1      28.543  -6.238  28.376  1.00  0.00     0.009 A 
ATOM     18  C   UNL     1      26.193  -7.573  27.602  1.00  0.00     0.160 A 
ATOM     19  C   UNL     1      28.395  -7.603  28.632  1.00  0.00     0.050 A 
ATOM     20  C   UNL     1      27.229  -8.273  28.249  1.00  0.00     0.157 A 
BRANCH  18  21
ATOM     21  O   UNL     1      25.032  -8.270  27.232  1.00  0.00    -0.493 OA
ATOM     22  C   UNL     1      23.776  -8.157  27.895  1.00  0.00     0.278 C 
ENDBRANCH  18  21
BRANCH  20  23
ATOM     23  O   UNL     1      27.115  -9.636  28.522  1.00  0.00    -0.504 OA
ATOM     24  H   UNL     1      26.765  -9.982  29.407  1.00  0.00     0.293 HD
ENDBRANCH  20  23
ENDBRANCH  14  15
ENDBRANCH  12  14
ENDBRANCH   9  10
ENDBRANCH   1   9
TORSDOF 10
ENDMDL
MODEL 8
REMARK VINA RESULT:    -6.328      4.255      7.092
REMARK INTER + INTRA:         -11.090
REMARK INTER:                  -9.997
REMARK INTRA:                  -1.094
REMARK UNBOUND:                -1.248
REMARK SMILES COc1cc(CNC(=O)CCCCC=CC(C)C)ccc1O
REMARK SMILES IDX 11 1 12 2 13 3 14 4 15 5 16 6 17 7 18 8 10 9 8 10 9 11 7 12
REMARK SMILES IDX 6 14 5 15 4 16 19 17 3 18 20 19 21 20 2 21 1 22 22 23
REMARK H PARENT 7 13 22 24
REMARK Flexibility Score: inf
ROOT
ATOM      1  C   UNL     1      22.651  -8.382  27.679  1.00  0.00     0.010 C 
ENDROOT
BRANCH   1   2
ATOM      2  C   UNL     1      21.789  -9.093  28.743  1.00  0.00     0.005 C 
BRANCH   2   3
ATOM      3  C   UNL     1      20.324  -8.623  28.785  1.00  0.00     0.027 C 
BRANCH   3   4
ATOM      4  C   UNL     1      20.108  -7.331  28.042  1.00  0.00    -0.031 C 
ATOM      5  C   UNL     1      19.252  -6.398  28.484  1.00  0.00    -0.028 C 
BRANCH   5   6
ATOM      6  C   UNL     1      19.033  -5.110  27.726  1.00  0.00     0.005 C 
ATOM      7  C   UNL     1      20.375  -4.508  27.295  1.00  0.00     0.012 C 
ATOM      8  C   UNL     1      18.138  -5.348  26.504  1.00  0.00     0.012 C 
ENDBRANCH   5   6
ENDBRANCH   3   4
ENDBRANCH   2   3
ENDBRANCH   1   2
BRANCH   1   9
ATOM      9  C   UNL     1      24.134  -8.779  27.698  1.00  0.00     0.100 C 
BRANCH   9  10
ATOM     10  C   UNL     1      25.034  -7.579  27.733  1.00  0.00     0.220 C 
ATOM     11  O   UNL     1      26.200  -7.666  27.261  1.00  0.00    -0.275 OA
ATOM     12  N   UNL     1      24.585  -6.353  28.331  1.00  0.00    -0.352 N 
ATOM     13  H   UNL     1      23.629  -6.311  28.750  1.00  0.00     0.163 HD
BRANCH  12  14
ATOM     14  C   UNL     1      25.422  -5.158  28.391  1.00  0.00     0.151 C 
BRANCH  14  15
ATOM     15  C   UNL     1      25.078  -4.224  27.262  1.00  0.00    -0.025 A 
ATOM     16  C   UNL     1      25.821  -3.048  27.074  1.00  0.00     0.056 A 
ATOM     17  C   UNL     1      24.001  -4.504  26.410  1.00  0.00     0.009 A 
ATOM     18  C   UNL     1      25.497  -2.154  26.034  1.00  0.00     0.160 A 
ATOM     19  C   UNL     1      23.675  -3.623  25.377  1.00  0.00     0.050 A 
ATOM     20  C   UNL     1      24.416  -2.453  25.184  1.00  0.00     0.157 A 
BRANCH  18  21
ATOM     21  O   UNL     1      26.220  -0.969  25.820  1.00  0.00    -0.493 OA
ATOM     22  C   UNL     1      26.149   0.182  26.654  1.00  0.00     0.278 C 
ENDBRANCH  18  21
BRANCH  20  23
ATOM     23  O   UNL     1      24.061  -1.596  24.142  1.00  0.00    -0.504 OA
ATOM     24  H   UNL     1      24.697  -1.369  23.389  1.00  0.00     0.293 HD
ENDBRANCH  20  23
ENDBRANCH  14  15
ENDBRANCH  12  14
ENDBRANCH   9  10
ENDBRANCH   1   9
TORSDOF 10
ENDMDL
MODEL 9
REMARK VINA RESULT:    -6.289      1.979      3.470
REMARK INTER + INTRA:         -11.030
REMARK INTER:                  -9.954
REMARK INTRA:                  -1.076
REMARK UNBOUND:                -1.248
REMARK SMILES COc1cc(CNC(=O)CCCCC=CC(C)C)ccc1O
REMARK SMILES IDX 11 1 12 2 13 3 14 4 15 5 16 6 17 7 18 8 10 9 8 10 9 11 7 12
REMARK SMILES IDX 6 14 5 15 4 16 19 17 3 18 20 19 21 20 2 21 1 22 22 23
REMARK H PARENT 7 13 22 24
REMARK Flexibility Score: inf
ROOT
ATOM      1  C   UNL     1      28.878  -2.734  26.947  1.00  0.00     0.010 C 
ENDROOT
BRANCH   1   2
ATOM      2  C   UNL     1      27.675  -3.576  27.421  1.00  0.00     0.005 C 
BRANCH   2   3
ATOM      3  C   UNL     1      26.374  -2.772  27.598  1.00  0.00     0.027 C 
BRANCH   3   4
ATOM      4  C   UNL     1      25.571  -2.681  26.328  1.00  0.00    -0.031 C 
ATOM      5  C   UNL     1      25.336  -1.506  25.725  1.00  0.00    -0.028 C 
BRANCH   5   6
ATOM      6  C   UNL     1      24.520  -1.423  24.457  1.00  0.00     0.005 C 
ATOM      7  C   UNL     1      23.185  -0.720  24.725  1.00  0.00     0.012 C 
ATOM      8  C   UNL     1      25.299  -0.689  23.360  1.00  0.00     0.012 C 
ENDBRANCH   5   6
ENDBRANCH   3   4
ENDBRANCH   2   3
ENDBRANCH   1   2
BRANCH   1   9
ATOM      9  C   UNL     1      29.290  -1.617  27.916  1.00  0.00     0.100 C 
BRANCH   9  10
ATOM     10  C   UNL     1      28.899  -0.261  27.406  1.00  0.00     0.220 C 
ATOM     11  O   UNL     1      28.769  -0.080  26.165  1.00  0.00    -0.275 OA
ATOM     12  N   UNL     1      28.709   0.830  28.320  1.00  0.00    -0.352 N 
ATOM     13  H   UNL     1      28.857   0.670  29.342  1.00  0.00     0.163 HD
BRANCH  12  14
ATOM     14  C   UNL     1      28.329   2.168  27.875  1.00  0.00     0.151 C 
BRANCH  14  15
ATOM     15  C   UNL     1      26.930   2.489  28.327  1.00  0.00    -0.025 A 
ATOM     16  C   UNL     1      26.594   3.804  28.688  1.00  0.00     0.056 A 
ATOM     17  C   UNL     1      25.962   1.479  28.418  1.00  0.00     0.009 A 
ATOM     18  C   UNL     1      25.295   4.115  29.134  1.00  0.00     0.160 A 
ATOM     19  C   UNL     1      24.672   1.781  28.858  1.00  0.00     0.050 A 
ATOM     20  C   UNL     1      24.333   3.090  29.214  1.00  0.00     0.157 A 
BRANCH  18  21
ATOM     21  O   UNL     1      24.928   5.419  29.502  1.00  0.00    -0.493 OA
ATOM     22  C   UNL     1      24.282   6.350  28.640  1.00  0.00     0.278 C 
ENDBRANCH  18  21
BRANCH  20  23
ATOM     23  O   UNL     1      23.034   3.355  29.649  1.00  0.00    -0.504 OA
ATOM     24  H   UNL     1      22.832   4.053  30.354  1.00  0.00     0.293 HD
ENDBRANCH  20  23
ENDBRANCH  14  15
ENDBRANCH  12  14
ENDBRANCH   9  10
ENDBRANCH   1   9
TORSDOF 10
ENDMDL
