MODEL 1
REMARK VINA RESULT:    -4.177      0.000      0.000
REMARK INTER + INTRA:          -6.080
REMARK INTER:                  -5.520
REMARK INTRA:                  -0.560
REMARK UNBOUND:                -0.560
REMARK SMILES CCCCC=CC=CCO
REMARK SMILES IDX 5 1 6 2 4 3 3 4 2 5 1 6 7 7 8 8 9 9 10 10
REMARK H PARENT 10 11
REMARK Flexibility Score: inf
ROOT
ATOM      1  C   UNL     1     -12.973  19.837 -13.686  1.00  0.00    -0.027 C 
ATOM      2  C   UNL     1     -13.668  20.975 -13.556  1.00  0.00    -0.005 C 
ENDROOT
BRANCH   1   3
ATOM      3  C   UNL     1     -12.135  19.473 -14.885  1.00  0.00     0.027 C 
BRANCH   3   4
ATOM      4  C   UNL     1     -12.893  18.588 -15.890  1.00  0.00     0.004 C 
BRANCH   4   5
ATOM      5  C   UNL     1     -13.280  19.309 -17.194  1.00  0.00    -0.003 C 
ATOM      6  C   UNL     1     -14.760  19.682 -17.252  1.00  0.00     0.004 C 
ENDBRANCH   4   5
ENDBRANCH   3   4
ENDBRANCH   1   3
BRANCH   2   7
ATOM      7  C   UNL     1     -13.737  22.029 -14.588  1.00  0.00    -0.002 C 
ATOM      8  C   UNL     1     -13.199  23.232 -14.372  1.00  0.00     0.001 C 
BRANCH   8   9
ATOM      9  C   UNL     1     -13.254  24.310 -15.412  1.00  0.00     0.183 C 
BRANCH   9  10
ATOM     10  O   UNL     1     -12.366  25.346 -15.089  1.00  0.00    -0.392 OA
ATOM     11  H   UNL     1     -11.596  25.269 -15.712  1.00  0.00     0.210 HD
ENDBRANCH   9  10
ENDBRANCH   8   9
ENDBRANCH   2   7
TORSDOF 6
ENDMDL
MODEL 2
REMARK VINA RESULT:    -4.173      2.931      5.306
REMARK INTER + INTRA:          -6.075
REMARK INTER:                  -5.453
REMARK INTRA:                  -0.622
REMARK UNBOUND:                -0.560
REMARK SMILES CCCCC=CC=CCO
REMARK SMILES IDX 5 1 6 2 4 3 3 4 2 5 1 6 7 7 8 8 9 9 10 10
REMARK H PARENT 10 11
REMARK Flexibility Score: inf
ROOT
ATOM      1  C   UNL     1     -13.551  23.583 -14.020  1.00  0.00    -0.027 C 
ATOM      2  C   UNL     1     -13.387  22.605 -14.921  1.00  0.00    -0.005 C 
ENDROOT
BRANCH   1   3
ATOM      3  C   UNL     1     -14.242  23.421 -12.690  1.00  0.00     0.027 C 
BRANCH   3   4
ATOM      4  C   UNL     1     -13.376  23.899 -11.512  1.00  0.00     0.004 C 
BRANCH   4   5
ATOM      5  C   UNL     1     -12.049  23.133 -11.356  1.00  0.00    -0.003 C 
ATOM      6  C   UNL     1     -12.250  21.645 -11.073  1.00  0.00     0.004 C 
ENDBRANCH   4   5
ENDBRANCH   3   4
ENDBRANCH   1   3
BRANCH   2   7
ATOM      7  C   UNL     1     -13.889  21.227 -14.751  1.00  0.00    -0.002 C 
ATOM      8  C   UNL     1     -13.059  20.232 -14.426  1.00  0.00     0.001 C 
BRANCH   8   9
ATOM      9  C   UNL     1     -13.554  18.830 -14.242  1.00  0.00     0.183 C 
BRANCH   9  10
ATOM     10  O   UNL     1     -14.947  18.780 -14.395  1.00  0.00    -0.392 OA
ATOM     11  H   UNL     1     -15.336  18.793 -13.481  1.00  0.00     0.210 HD
ENDBRANCH   9  10
ENDBRANCH   8   9
ENDBRANCH   2   7
TORSDOF 6
ENDMDL
MODEL 3
REMARK VINA RESULT:    -4.134      2.371      3.261
REMARK INTER + INTRA:          -6.023
REMARK INTER:                  -5.658
REMARK INTRA:                  -0.366
REMARK UNBOUND:                -0.560
REMARK SMILES CCCCC=CC=CCO
REMARK SMILES IDX 5 1 6 2 4 3 3 4 2 5 1 6 7 7 8 8 9 9 10 10
REMARK H PARENT 10 11
REMARK Flexibility Score: inf
ROOT
ATOM      1  C   UNL     1     -13.596  22.135 -14.841  1.00  0.00    -0.027 C 
ATOM      2  C   UNL     1     -13.553  23.306 -14.192  1.00  0.00    -0.005 C 
ENDROOT
BRANCH   1   3
ATOM      3  C   UNL     1     -13.922  20.808 -14.203  1.00  0.00     0.027 C 
BRANCH   3   4
ATOM      4  C   UNL     1     -12.674  19.937 -13.980  1.00  0.00     0.004 C 
BRANCH   4   5
ATOM      5  C   UNL     1     -12.419  18.907 -15.095  1.00  0.00    -0.003 C 
ATOM      6  C   UNL     1     -11.399  19.387 -16.127  1.00  0.00     0.004 C 
ENDBRANCH   4   5
ENDBRANCH   3   4
ENDBRANCH   1   3
BRANCH   2   7
ATOM      7  C   UNL     1     -13.791  23.460 -12.742  1.00  0.00    -0.002 C 
ATOM      8  C   UNL     1     -12.768  23.566 -11.890  1.00  0.00     0.001 C 
BRANCH   8   9
ATOM      9  C   UNL     1     -12.993  23.731 -10.417  1.00  0.00     0.183 C 
BRANCH   9  10
ATOM     10  O   UNL     1     -14.018  24.658 -10.181  1.00  0.00    -0.392 OA
ATOM     11  H   UNL     1     -13.626  25.384  -9.628  1.00  0.00     0.210 HD
ENDBRANCH   9  10
ENDBRANCH   8   9
ENDBRANCH   2   7
TORSDOF 6
ENDMDL
MODEL 4
REMARK VINA RESULT:    -4.130     11.968     13.507
REMARK INTER + INTRA:          -6.018
REMARK INTER:                  -5.739
REMARK INTRA:                  -0.278
REMARK UNBOUND:                -0.560
REMARK SMILES CCCCC=CC=CCO
REMARK SMILES IDX 5 1 6 2 4 3 3 4 2 5 1 6 7 7 8 8 9 9 10 10
REMARK H PARENT 10 11
REMARK Flexibility Score: inf
ROOT
ATOM      1  C   UNL     1      -8.472  14.654 -22.946  1.00  0.00    -0.027 C 
ATOM      2  C   UNL     1      -9.057  13.652 -22.277  1.00  0.00    -0.005 C 
ENDROOT
BRANCH   1   3
ATOM      3  C   UNL     1      -8.821  15.070 -24.352  1.00  0.00     0.027 C 
BRANCH   3   4
ATOM      4  C   UNL     1      -7.739  14.677 -25.371  1.00  0.00     0.004 C 
BRANCH   4   5
ATOM      5  C   UNL     1      -7.042  15.875 -26.042  1.00  0.00    -0.003 C 
ATOM      6  C   UNL     1      -5.693  15.510 -26.659  1.00  0.00     0.004 C 
ENDBRANCH   4   5
ENDBRANCH   3   4
ENDBRANCH   1   3
BRANCH   2   7
ATOM      7  C   UNL     1     -10.114  12.786 -22.837  1.00  0.00    -0.002 C 
ATOM      8  C   UNL     1      -9.802  11.663 -23.491  1.00  0.00     0.001 C 
BRANCH   8   9
ATOM      9  C   UNL     1     -10.863  10.770 -24.059  1.00  0.00     0.183 C 
BRANCH   9  10
ATOM     10  O   UNL     1     -11.098   9.686 -23.202  1.00  0.00    -0.392 OA
ATOM     11  H   UNL     1     -11.736   9.084 -23.669  1.00  0.00     0.210 HD
ENDBRANCH   9  10
ENDBRANCH   8   9
ENDBRANCH   2   7
TORSDOF 6
ENDMDL
MODEL 5
REMARK VINA RESULT:    -4.112     11.300     12.611
REMARK INTER + INTRA:          -5.994
REMARK INTER:                  -5.307
REMARK INTRA:                  -0.687
REMARK UNBOUND:                -0.560
REMARK SMILES CCCCC=CC=CCO
REMARK SMILES IDX 5 1 6 2 4 3 3 4 2 5 1 6 7 7 8 8 9 9 10 10
REMARK H PARENT 10 11
REMARK Flexibility Score: inf
ROOT
ATOM      1  C   UNL     1      -9.997  12.887 -21.857  1.00  0.00    -0.027 C 
ATOM      2  C   UNL     1      -9.509  14.096 -22.164  1.00  0.00    -0.005 C 
ENDROOT
BRANCH   1   3
ATOM      3  C   UNL     1      -9.493  11.585 -22.427  1.00  0.00     0.027 C 
BRANCH   3   4
ATOM      4  C   UNL     1     -10.462  10.973 -23.452  1.00  0.00     0.004 C 
BRANCH   4   5
ATOM      5  C   UNL     1     -10.266  11.491 -24.889  1.00  0.00    -0.003 C 
ATOM      6  C   UNL     1     -11.386  12.426 -25.343  1.00  0.00     0.004 C 
ENDBRANCH   4   5
ENDBRANCH   3   4
ENDBRANCH   1   3
BRANCH   2   7
ATOM      7  C   UNL     1      -8.420  14.330 -23.133  1.00  0.00    -0.002 C 
ATOM      8  C   UNL     1      -8.685  14.786 -24.361  1.00  0.00     0.001 C 
BRANCH   8   9
ATOM      9  C   UNL     1      -7.591  15.036 -25.354  1.00  0.00     0.183 C 
BRANCH   9  10
ATOM     10  O   UNL     1      -8.130  15.270 -26.626  1.00  0.00    -0.392 OA
ATOM     11  H   UNL     1      -8.881  14.629 -26.742  1.00  0.00     0.210 HD
ENDBRANCH   9  10
ENDBRANCH   8   9
ENDBRANCH   2   7
TORSDOF 6
ENDMDL
MODEL 6
REMARK VINA RESULT:    -4.104     10.128     12.199
REMARK INTER + INTRA:          -5.984
REMARK INTER:                  -5.460
REMARK INTRA:                  -0.525
REMARK UNBOUND:                -0.560
REMARK SMILES CCCCC=CC=CCO
REMARK SMILES IDX 5 1 6 2 4 3 3 4 2 5 1 6 7 7 8 8 9 9 10 10
REMARK H PARENT 10 11
REMARK Flexibility Score: inf
ROOT
ATOM      1  C   UNL     1     -10.158  11.269 -23.456  1.00  0.00    -0.027 C 
ATOM      2  C   UNL     1      -9.469  11.735 -22.406  1.00  0.00    -0.005 C 
ENDROOT
BRANCH   1   3
ATOM      3  C   UNL     1     -10.705  12.120 -24.573  1.00  0.00     0.027 C 
BRANCH   3   4
ATOM      4  C   UNL     1      -9.643  12.456 -25.635  1.00  0.00     0.004 C 
BRANCH   4   5
ATOM      5  C   UNL     1      -9.528  13.957 -25.954  1.00  0.00    -0.003 C 
ATOM      6  C   UNL     1      -8.237  14.581 -25.427  1.00  0.00     0.004 C 
ENDBRANCH   4   5
ENDBRANCH   3   4
ENDBRANCH   1   3
BRANCH   2   7
ATOM      7  C   UNL     1      -9.171  13.163 -22.176  1.00  0.00    -0.002 C 
ATOM      8  C   UNL     1      -9.944  13.901 -21.374  1.00  0.00     0.001 C 
BRANCH   8   9
ATOM      9  C   UNL     1      -9.651  15.349 -21.125  1.00  0.00     0.183 C 
BRANCH   9  10
ATOM     10  O   UNL     1      -8.452  15.720 -21.749  1.00  0.00    -0.392 OA
ATOM     11  H   UNL     1      -7.746  15.700 -21.050  1.00  0.00     0.210 HD
ENDBRANCH   9  10
ENDBRANCH   8   9
ENDBRANCH   2   7
TORSDOF 6
ENDMDL
MODEL 7
REMARK VINA RESULT:    -4.089      3.837      5.973
REMARK INTER + INTRA:          -5.965
REMARK INTER:                  -5.287
REMARK INTRA:                  -0.677
REMARK UNBOUND:                -0.560
REMARK SMILES CCCCC=CC=CCO
REMARK SMILES IDX 5 1 6 2 4 3 3 4 2 5 1 6 7 7 8 8 9 9 10 10
REMARK H PARENT 10 11
REMARK Flexibility Score: inf
ROOT
ATOM      1  C   UNL     1     -14.142  18.467 -18.146  1.00  0.00    -0.027 C 
ATOM      2  C   UNL     1     -14.522  17.192 -17.985  1.00  0.00    -0.005 C 
ENDROOT
BRANCH   1   3
ATOM      3  C   UNL     1     -13.835  19.421 -17.021  1.00  0.00     0.027 C 
BRANCH   3   4
ATOM      4  C   UNL     1     -12.345  19.427 -16.639  1.00  0.00     0.004 C 
BRANCH   4   5
ATOM      5  C   UNL     1     -12.084  19.336 -15.125  1.00  0.00    -0.003 C 
ATOM      6  C   UNL     1     -13.368  19.351 -14.298  1.00  0.00     0.004 C 
ENDBRANCH   4   5
ENDBRANCH   3   4
ENDBRANCH   1   3
BRANCH   2   7
ATOM      7  C   UNL     1     -14.725  16.545 -16.673  1.00  0.00    -0.002 C 
ATOM      8  C   UNL     1     -13.800  15.727 -16.165  1.00  0.00     0.001 C 
BRANCH   8   9
ATOM      9  C   UNL     1     -13.987  15.069 -14.832  1.00  0.00     0.183 C 
BRANCH   9  10
ATOM     10  O   UNL     1     -13.573  15.925 -13.802  1.00  0.00    -0.392 OA
ATOM     11  H   UNL     1     -14.010  15.605 -12.969  1.00  0.00     0.210 HD
ENDBRANCH   9  10
ENDBRANCH   8   9
ENDBRANCH   2   7
TORSDOF 6
ENDMDL
MODEL 8
REMARK VINA RESULT:    -4.075     10.108     11.732
REMARK INTER + INTRA:          -5.945
REMARK INTER:                  -5.252
REMARK INTRA:                  -0.694
REMARK UNBOUND:                -0.560
REMARK SMILES CCCCC=CC=CCO
REMARK SMILES IDX 5 1 6 2 4 3 3 4 2 5 1 6 7 7 8 8 9 9 10 10
REMARK H PARENT 10 11
REMARK Flexibility Score: inf
ROOT
ATOM      1  C   UNL     1      -9.956  14.814 -20.911  1.00  0.00    -0.027 C 
ATOM      2  C   UNL     1      -9.263  15.444 -21.869  1.00  0.00    -0.005 C 
ENDROOT
BRANCH   1   3
ATOM      3  C   UNL     1     -10.193  13.327 -20.857  1.00  0.00     0.027 C 
BRANCH   3   4
ATOM      4  C   UNL     1     -11.467  12.904 -21.609  1.00  0.00     0.004 C 
BRANCH   4   5
ATOM      5  C   UNL     1     -11.261  11.731 -22.585  1.00  0.00    -0.003 C 
ATOM      6  C   UNL     1      -9.807  11.269 -22.661  1.00  0.00     0.004 C 
ENDBRANCH   4   5
ENDBRANCH   3   4
ENDBRANCH   1   3
BRANCH   2   7
ATOM      7  C   UNL     1      -8.656  14.770 -23.034  1.00  0.00    -0.002 C 
ATOM      8  C   UNL     1      -9.292  14.729 -24.208  1.00  0.00     0.001 C 
BRANCH   8   9
ATOM      9  C   UNL     1      -8.686  14.055 -25.402  1.00  0.00     0.183 C 
BRANCH   9  10
ATOM     10  O   UNL     1      -8.521  14.973 -26.449  1.00  0.00    -0.392 OA
ATOM     11  H   UNL     1      -9.413  15.092 -26.870  1.00  0.00     0.210 HD
ENDBRANCH   9  10
ENDBRANCH   8   9
ENDBRANCH   2   7
TORSDOF 6
ENDMDL
MODEL 9
REMARK VINA RESULT:    -4.045     10.644     12.821
REMARK INTER + INTRA:          -5.906
REMARK INTER:                  -5.222
REMARK INTRA:                  -0.684
REMARK UNBOUND:                -0.560
REMARK SMILES CCCCC=CC=CCO
REMARK SMILES IDX 5 1 6 2 4 3 3 4 2 5 1 6 7 7 8 8 9 9 10 10
REMARK H PARENT 10 11
REMARK Flexibility Score: inf
ROOT
ATOM      1  C   UNL     1     -10.665  11.358 -23.879  1.00  0.00    -0.027 C 
ATOM      2  C   UNL     1     -10.393  12.030 -25.006  1.00  0.00    -0.005 C 
ENDROOT
BRANCH   1   3
ATOM      3  C   UNL     1      -9.793  11.350 -22.650  1.00  0.00     0.027 C 
BRANCH   3   4
ATOM      4  C   UNL     1     -10.296  12.313 -21.561  1.00  0.00     0.004 C 
BRANCH   4   5
ATOM      5  C   UNL     1      -9.575  13.674 -21.544  1.00  0.00    -0.003 C 
ATOM      6  C   UNL     1     -10.502  14.843 -21.874  1.00  0.00     0.004 C 
ENDBRANCH   4   5
ENDBRANCH   3   4
ENDBRANCH   1   3
BRANCH   2   7
ATOM      7  C   UNL     1      -9.176  12.839 -25.217  1.00  0.00    -0.002 C 
ATOM      8  C   UNL     1      -9.239  14.173 -25.237  1.00  0.00     0.001 C 
BRANCH   8   9
ATOM      9  C   UNL     1      -8.013  15.010 -25.442  1.00  0.00     0.183 C 
BRANCH   9  10
ATOM     10  O   UNL     1      -7.921  15.421 -26.779  1.00  0.00    -0.392 OA
ATOM     11  H   UNL     1      -7.270  14.815 -27.222  1.00  0.00     0.210 HD
ENDBRANCH   9  10
ENDBRANCH   8   9
ENDBRANCH   2   7
TORSDOF 6
ENDMDL
