MODEL 1
REMARK VINA RESULT:    -4.099      0.000      0.000
REMARK INTER + INTRA:          -8.316
REMARK INTER:                  -7.574
REMARK INTRA:                  -0.742
REMARK UNBOUND:                -0.742
REMARK SMILES CCCCCCCCCCCCCCCCO
REMARK SMILES IDX 9 1 8 2 7 3 6 4 5 5 4 6 3 7 2 8 1 9 10 10 11 11 12 12 13 13
REMARK SMILES IDX 14 14 15 15 16 16 17 17
REMARK H PARENT 17 18
REMARK Flexibility Score: inf
ROOT
ATOM      1  C   UNL     1     156.508 159.462 164.324  1.00  0.00     0.000 C 
ENDROOT
BRANCH   1   2
ATOM      2  C   UNL     1     155.433 158.928 163.355  1.00  0.00    -0.000 C 
BRANCH   2   3
ATOM      3  C   UNL     1     155.202 157.405 163.409  1.00  0.00    -0.000 C 
BRANCH   3   4
ATOM      4  C   UNL     1     153.757 156.979 163.734  1.00  0.00    -0.000 C 
BRANCH   4   5
ATOM      5  C   UNL     1     152.915 158.044 164.465  1.00  0.00    -0.000 C 
BRANCH   5   6
ATOM      6  C   UNL     1     151.730 158.608 163.657  1.00  0.00    -0.000 C 
BRANCH   6   7
ATOM      7  C   UNL     1     152.062 159.013 162.210  1.00  0.00    -0.000 C 
BRANCH   7   8
ATOM      8  C   UNL     1     151.198 158.281 161.172  1.00  0.00    -0.003 C 
ATOM      9  C   UNL     1     150.124 159.203 160.604  1.00  0.00     0.004 C 
ENDBRANCH   7   8
ENDBRANCH   6   7
ENDBRANCH   5   6
ENDBRANCH   4   5
ENDBRANCH   3   4
ENDBRANCH   2   3
ENDBRANCH   1   2
BRANCH   1  10
ATOM     10  C   UNL     1     157.961 159.151 163.924  1.00  0.00     0.000 C 
BRANCH  10  11
ATOM     11  C   UNL     1     158.949 159.305 165.093  1.00  0.00     0.000 C 
BRANCH  11  12
ATOM     12  C   UNL     1     160.343 158.747 164.765  1.00  0.00     0.000 C 
BRANCH  12  13
ATOM     13  C   UNL     1     161.471 159.504 165.489  1.00  0.00     0.000 C 
BRANCH  13  14
ATOM     14  C   UNL     1     162.539 158.560 166.065  1.00  0.00     0.002 C 
BRANCH  14  15
ATOM     15  C   UNL     1     162.348 157.104 165.608  1.00  0.00     0.028 C 
BRANCH  15  16
ATOM     16  C   UNL     1     162.406 156.128 166.789  1.00  0.00     0.156 C 
BRANCH  16  17
ATOM     17  O   UNL     1     162.478 156.819 168.008  1.00  0.00    -0.396 OA
ATOM     18  H   UNL     1     163.168 156.359 168.555  1.00  0.00     0.210 HD
ENDBRANCH  16  17
ENDBRANCH  15  16
ENDBRANCH  14  15
ENDBRANCH  13  14
ENDBRANCH  12  13
ENDBRANCH  11  12
ENDBRANCH  10  11
ENDBRANCH   1  10
TORSDOF 15
ENDMDL
MODEL 2
REMARK VINA RESULT:    -4.039      5.419      9.097
REMARK INTER + INTRA:          -8.206
REMARK INTER:                  -6.835
REMARK INTRA:                  -1.371
REMARK UNBOUND:                -0.742
REMARK SMILES CCCCCCCCCCCCCCCCO
REMARK SMILES IDX 9 1 8 2 7 3 6 4 5 5 4 6 3 7 2 8 1 9 10 10 11 11 12 12 13 13
REMARK SMILES IDX 14 14 15 15 16 16 17 17
REMARK H PARENT 17 18
REMARK Flexibility Score: inf
ROOT
ATOM      1  C   UNL     1     162.086 154.822 162.908  1.00  0.00     0.000 C 
ENDROOT
BRANCH   1   2
ATOM      2  C   UNL     1     163.594 154.690 163.205  1.00  0.00    -0.000 C 
BRANCH   2   3
ATOM      3  C   UNL     1     163.956 154.521 164.693  1.00  0.00    -0.000 C 
BRANCH   3   4
ATOM      4  C   UNL     1     164.163 155.840 165.464  1.00  0.00    -0.000 C 
BRANCH   4   5
ATOM      5  C   UNL     1     163.139 156.104 166.585  1.00  0.00    -0.000 C 
BRANCH   5   6
ATOM      6  C   UNL     1     162.782 157.587 166.807  1.00  0.00    -0.000 C 
BRANCH   6   7
ATOM      7  C   UNL     1     162.825 158.464 165.543  1.00  0.00    -0.000 C 
BRANCH   7   8
ATOM      8  C   UNL     1     161.452 159.042 165.171  1.00  0.00    -0.003 C 
ATOM      9  C   UNL     1     160.564 157.980 164.530  1.00  0.00     0.004 C 
ENDBRANCH   7   8
ENDBRANCH   6   7
ENDBRANCH   5   6
ENDBRANCH   4   5
ENDBRANCH   3   4
ENDBRANCH   2   3
ENDBRANCH   1   2
BRANCH   1  10
ATOM     10  C   UNL     1     161.165 153.987 163.815  1.00  0.00     0.000 C 
BRANCH  10  11
ATOM     11  C   UNL     1     161.060 152.518 163.372  1.00  0.00     0.000 C 
BRANCH  11  12
ATOM     12  C   UNL     1     160.128 152.332 162.164  1.00  0.00     0.000 C 
BRANCH  12  13
ATOM     13  C   UNL     1     158.784 151.686 162.545  1.00  0.00     0.000 C 
BRANCH  13  14
ATOM     14  C   UNL     1     157.609 152.673 162.458  1.00  0.00     0.002 C 
BRANCH  14  15
ATOM     15  C   UNL     1     157.221 153.249 163.830  1.00  0.00     0.028 C 
BRANCH  15  16
ATOM     16  C   UNL     1     156.303 152.297 164.605  1.00  0.00     0.156 C 
BRANCH  16  17
ATOM     17  O   UNL     1     156.430 152.493 165.988  1.00  0.00    -0.396 OA
ATOM     18  H   UNL     1     156.290 153.462 166.152  1.00  0.00     0.210 HD
ENDBRANCH  16  17
ENDBRANCH  15  16
ENDBRANCH  14  15
ENDBRANCH  13  14
ENDBRANCH  12  13
ENDBRANCH  11  12
ENDBRANCH  10  11
ENDBRANCH   1  10
TORSDOF 15
ENDMDL
MODEL 3
REMARK VINA RESULT:    -4.036     12.249     13.416
REMARK INTER + INTRA:          -8.200
REMARK INTER:                  -5.883
REMARK INTRA:                  -2.317
REMARK UNBOUND:                -0.742
REMARK SMILES CCCCCCCCCCCCCCCCO
REMARK SMILES IDX 9 1 8 2 7 3 6 4 5 5 4 6 3 7 2 8 1 9 10 10 11 11 12 12 13 13
REMARK SMILES IDX 14 14 15 15 16 16 17 17
REMARK H PARENT 17 18
REMARK Flexibility Score: inf
ROOT
ATOM      1  C   UNL     1     158.321 158.461 151.117  1.00  0.00     0.000 C 
ENDROOT
BRANCH   1   2
ATOM      2  C   UNL     1     156.906 157.936 151.434  1.00  0.00    -0.000 C 
BRANCH   2   3
ATOM      3  C   UNL     1     156.189 157.241 150.261  1.00  0.00    -0.000 C 
BRANCH   3   4
ATOM      4  C   UNL     1     155.567 155.872 150.601  1.00  0.00    -0.000 C 
BRANCH   4   5
ATOM      5  C   UNL     1     156.077 155.235 151.909  1.00  0.00    -0.000 C 
BRANCH   5   6
ATOM      6  C   UNL     1     155.847 153.715 152.028  1.00  0.00    -0.000 C 
BRANCH   6   7
ATOM      7  C   UNL     1     156.567 152.863 150.968  1.00  0.00    -0.000 C 
BRANCH   7   8
ATOM      8  C   UNL     1     157.362 151.699 151.578  1.00  0.00    -0.003 C 
ATOM      9  C   UNL     1     157.674 151.957 153.049  1.00  0.00     0.004 C 
ENDBRANCH   7   8
ENDBRANCH   6   7
ENDBRANCH   5   6
ENDBRANCH   4   5
ENDBRANCH   3   4
ENDBRANCH   2   3
ENDBRANCH   1   2
BRANCH   1  10
ATOM     10  C   UNL     1     158.986 157.844 149.875  1.00  0.00     0.000 C 
BRANCH  10  11
ATOM     11  C   UNL     1     160.016 156.756 150.226  1.00  0.00     0.000 C 
BRANCH  11  12
ATOM     12  C   UNL     1     159.400 155.348 150.254  1.00  0.00     0.000 C 
BRANCH  12  13
ATOM     13  C   UNL     1     159.845 154.530 151.480  1.00  0.00     0.000 C 
BRANCH  13  14
ATOM     14  C   UNL     1     159.653 155.293 152.800  1.00  0.00     0.002 C 
BRANCH  14  15
ATOM     15  C   UNL     1     160.687 154.896 153.867  1.00  0.00     0.028 C 
BRANCH  15  16
ATOM     16  C   UNL     1     160.026 154.204 155.065  1.00  0.00     0.156 C 
BRANCH  16  17
ATOM     17  O   UNL     1     160.636 154.593 156.267  1.00  0.00    -0.396 OA
ATOM     18  H   UNL     1     160.023 154.318 156.999  1.00  0.00     0.210 HD
ENDBRANCH  16  17
ENDBRANCH  15  16
ENDBRANCH  14  15
ENDBRANCH  13  14
ENDBRANCH  12  13
ENDBRANCH  11  12
ENDBRANCH  10  11
ENDBRANCH   1  10
TORSDOF 15
ENDMDL
MODEL 4
REMARK VINA RESULT:    -4.028     13.034     14.312
REMARK INTER + INTRA:          -8.184
REMARK INTER:                  -6.443
REMARK INTRA:                  -1.741
REMARK UNBOUND:                -0.742
REMARK SMILES CCCCCCCCCCCCCCCCO
REMARK SMILES IDX 9 1 8 2 7 3 6 4 5 5 4 6 3 7 2 8 1 9 10 10 11 11 12 12 13 13
REMARK SMILES IDX 14 14 15 15 16 16 17 17
REMARK H PARENT 17 18
REMARK Flexibility Score: inf
ROOT
ATOM      1  C   UNL     1     158.346 155.471 153.149  1.00  0.00     0.000 C 
ENDROOT
BRANCH   1   2
ATOM      2  C   UNL     1     159.750 155.329 152.527  1.00  0.00    -0.000 C 
BRANCH   2   3
ATOM      3  C   UNL     1     159.948 154.087 151.637  1.00  0.00    -0.000 C 
BRANCH   3   4
ATOM      4  C   UNL     1     159.199 154.128 150.291  1.00  0.00    -0.000 C 
BRANCH   4   5
ATOM      5  C   UNL     1     158.537 152.798 149.875  1.00  0.00    -0.000 C 
BRANCH   5   6
ATOM      6  C   UNL     1     156.996 152.805 149.882  1.00  0.00    -0.000 C 
BRANCH   6   7
ATOM      7  C   UNL     1     156.350 152.572 151.259  1.00  0.00    -0.000 C 
BRANCH   7   8
ATOM      8  C   UNL     1     154.978 153.248 151.396  1.00  0.00    -0.003 C 
ATOM      9  C   UNL     1     154.732 154.229 150.254  1.00  0.00     0.004 C 
ENDBRANCH   7   8
ENDBRANCH   6   7
ENDBRANCH   5   6
ENDBRANCH   4   5
ENDBRANCH   3   4
ENDBRANCH   2   3
ENDBRANCH   1   2
BRANCH   1  10
ATOM     10  C   UNL     1     157.267 156.036 152.208  1.00  0.00     0.000 C 
BRANCH  10  11
ATOM     11  C   UNL     1     157.311 157.570 152.101  1.00  0.00     0.000 C 
BRANCH  11  12
ATOM     12  C   UNL     1     157.306 158.060 150.643  1.00  0.00     0.000 C 
BRANCH  12  13
ATOM     13  C   UNL     1     158.636 157.783 149.919  1.00  0.00     0.000 C 
BRANCH  13  14
ATOM     14  C   UNL     1     159.718 158.821 150.255  1.00  0.00     0.002 C 
BRANCH  14  15
ATOM     15  C   UNL     1     161.140 158.246 150.148  1.00  0.00     0.028 C 
BRANCH  15  16
ATOM     16  C   UNL     1     162.181 159.192 150.760  1.00  0.00     0.156 C 
BRANCH  16  17
ATOM     17  O   UNL     1     162.369 158.916 152.123  1.00  0.00    -0.396 OA
ATOM     18  H   UNL     1     162.241 157.938 152.235  1.00  0.00     0.210 HD
ENDBRANCH  16  17
ENDBRANCH  15  16
ENDBRANCH  14  15
ENDBRANCH  13  14
ENDBRANCH  12  13
ENDBRANCH  11  12
ENDBRANCH  10  11
ENDBRANCH   1  10
TORSDOF 15
ENDMDL
MODEL 5
REMARK VINA RESULT:    -4.001     13.126     13.757
REMARK INTER + INTRA:          -8.135
REMARK INTER:                  -7.101
REMARK INTRA:                  -1.033
REMARK UNBOUND:                -0.742
REMARK SMILES CCCCCCCCCCCCCCCCO
REMARK SMILES IDX 9 1 8 2 7 3 6 4 5 5 4 6 3 7 2 8 1 9 10 10 11 11 12 12 13 13
REMARK SMILES IDX 14 14 15 15 16 16 17 17
REMARK H PARENT 17 18
REMARK Flexibility Score: inf
ROOT
ATOM      1  C   UNL     1     160.267 157.878 150.206  1.00  0.00     0.000 C 
ENDROOT
BRANCH   1   2
ATOM      2  C   UNL     1     159.403 158.968 150.872  1.00  0.00    -0.000 C 
BRANCH   2   3
ATOM      3  C   UNL     1     157.895 158.655 150.943  1.00  0.00    -0.000 C 
BRANCH   3   4
ATOM      4  C   UNL     1     157.551 157.163 151.117  1.00  0.00    -0.000 C 
BRANCH   4   5
ATOM      5  C   UNL     1     157.693 156.628 152.556  1.00  0.00    -0.000 C 
BRANCH   5   6
ATOM      6  C   UNL     1     158.783 155.556 152.749  1.00  0.00    -0.000 C 
BRANCH   6   7
ATOM      7  C   UNL     1     158.978 154.603 151.556  1.00  0.00    -0.000 C 
BRANCH   7   8
ATOM      8  C   UNL     1     157.813 153.617 151.385  1.00  0.00    -0.003 C 
ATOM      9  C   UNL     1     157.308 153.607 149.946  1.00  0.00     0.004 C 
ENDBRANCH   7   8
ENDBRANCH   6   7
ENDBRANCH   5   6
ENDBRANCH   4   5
ENDBRANCH   3   4
ENDBRANCH   2   3
ENDBRANCH   1   2
BRANCH   1  10
ATOM     10  C   UNL     1     161.726 158.278 149.927  1.00  0.00     0.000 C 
BRANCH  10  11
ATOM     11  C   UNL     1     162.470 158.747 151.189  1.00  0.00     0.000 C 
BRANCH  11  12
ATOM     12  C   UNL     1     163.151 160.112 151.001  1.00  0.00     0.000 C 
BRANCH  12  13
ATOM     13  C   UNL     1     164.614 160.116 151.477  1.00  0.00     0.000 C 
BRANCH  13  14
ATOM     14  C   UNL     1     164.991 158.834 152.238  1.00  0.00     0.002 C 
BRANCH  14  15
ATOM     15  C   UNL     1     166.467 158.817 152.669  1.00  0.00     0.028 C 
BRANCH  15  16
ATOM     16  C   UNL     1     166.686 159.600 153.969  1.00  0.00     0.156 C 
BRANCH  16  17
ATOM     17  O   UNL     1     167.655 158.979 154.771  1.00  0.00    -0.396 OA
ATOM     18  H   UNL     1     168.457 158.852 154.200  1.00  0.00     0.210 HD
ENDBRANCH  16  17
ENDBRANCH  15  16
ENDBRANCH  14  15
ENDBRANCH  13  14
ENDBRANCH  12  13
ENDBRANCH  11  12
ENDBRANCH  10  11
ENDBRANCH   1  10
TORSDOF 15
ENDMDL
MODEL 6
REMARK VINA RESULT:    -3.935     11.639     12.608
REMARK INTER + INTRA:          -8.013
REMARK INTER:                  -6.323
REMARK INTRA:                  -1.690
REMARK UNBOUND:                -0.742
REMARK SMILES CCCCCCCCCCCCCCCCO
REMARK SMILES IDX 9 1 8 2 7 3 6 4 5 5 4 6 3 7 2 8 1 9 10 10 11 11 12 12 13 13
REMARK SMILES IDX 14 14 15 15 16 16 17 17
REMARK H PARENT 17 18
REMARK Flexibility Score: inf
ROOT
ATOM      1  C   UNL     1     159.798 157.349 150.704  1.00  0.00     0.000 C 
ENDROOT
BRANCH   1   2
ATOM      2  C   UNL     1     158.639 158.362 150.598  1.00  0.00    -0.000 C 
BRANCH   2   3
ATOM      3  C   UNL     1     157.353 157.966 151.348  1.00  0.00    -0.000 C 
BRANCH   3   4
ATOM      4  C   UNL     1     156.204 157.471 150.448  1.00  0.00    -0.000 C 
BRANCH   4   5
ATOM      5  C   UNL     1     155.986 155.945 150.453  1.00  0.00    -0.000 C 
BRANCH   5   6
ATOM      6  C   UNL     1     155.856 155.308 151.851  1.00  0.00    -0.000 C 
BRANCH   6   7
ATOM      7  C   UNL     1     155.928 153.771 151.875  1.00  0.00    -0.000 C 
BRANCH   7   8
ATOM      8  C   UNL     1     155.680 153.184 153.272  1.00  0.00    -0.003 C 
ATOM      9  C   UNL     1     156.966 153.150 154.091  1.00  0.00     0.004 C 
ENDBRANCH   7   8
ENDBRANCH   6   7
ENDBRANCH   5   6
ENDBRANCH   4   5
ENDBRANCH   3   4
ENDBRANCH   2   3
ENDBRANCH   1   2
BRANCH   1  10
ATOM     10  C   UNL     1     159.547 155.994 150.020  1.00  0.00     0.000 C 
BRANCH  10  11
ATOM     11  C   UNL     1     159.466 154.827 151.019  1.00  0.00     0.000 C 
BRANCH  11  12
ATOM     12  C   UNL     1     159.679 155.278 152.473  1.00  0.00     0.000 C 
BRANCH  12  13
ATOM     13  C   UNL     1     160.401 154.218 153.324  1.00  0.00     0.000 C 
BRANCH  13  14
ATOM     14  C   UNL     1     161.407 154.837 154.308  1.00  0.00     0.002 C 
BRANCH  14  15
ATOM     15  C   UNL     1     161.085 154.497 155.772  1.00  0.00     0.028 C 
BRANCH  15  16
ATOM     16  C   UNL     1     162.270 154.800 156.697  1.00  0.00     0.156 C 
BRANCH  16  17
ATOM     17  O   UNL     1     161.880 155.636 157.754  1.00  0.00    -0.396 OA
ATOM     18  H   UNL     1     160.921 155.849 157.608  1.00  0.00     0.210 HD
ENDBRANCH  16  17
ENDBRANCH  15  16
ENDBRANCH  14  15
ENDBRANCH  13  14
ENDBRANCH  12  13
ENDBRANCH  11  12
ENDBRANCH  10  11
ENDBRANCH   1  10
TORSDOF 15
ENDMDL
MODEL 7
REMARK VINA RESULT:    -3.924      6.448      8.310
REMARK INTER + INTRA:          -7.992
REMARK INTER:                  -6.037
REMARK INTRA:                  -1.955
REMARK UNBOUND:                -0.742
REMARK SMILES CCCCCCCCCCCCCCCCO
REMARK SMILES IDX 9 1 8 2 7 3 6 4 5 5 4 6 3 7 2 8 1 9 10 10 11 11 12 12 13 13
REMARK SMILES IDX 14 14 15 15 16 16 17 17
REMARK H PARENT 17 18
REMARK Flexibility Score: inf
ROOT
ATOM      1  C   UNL     1     165.108 153.215 163.531  1.00  0.00     0.000 C 
ENDROOT
BRANCH   1   2
ATOM      2  C   UNL     1     163.674 153.013 163.000  1.00  0.00    -0.000 C 
BRANCH   2   3
ATOM      3  C   UNL     1     163.174 154.106 162.035  1.00  0.00    -0.000 C 
BRANCH   3   4
ATOM      4  C   UNL     1     161.963 154.913 162.541  1.00  0.00    -0.000 C 
BRANCH   4   5
ATOM      5  C   UNL     1     161.465 154.523 163.948  1.00  0.00    -0.000 C 
BRANCH   5   6
ATOM      6  C   UNL     1     160.143 153.732 163.976  1.00  0.00    -0.000 C 
BRANCH   6   7
ATOM      7  C   UNL     1     159.900 152.826 162.756  1.00  0.00    -0.000 C 
BRANCH   7   8
ATOM      8  C   UNL     1     159.677 151.356 163.139  1.00  0.00    -0.003 C 
ATOM      9  C   UNL     1     160.877 150.799 163.900  1.00  0.00     0.004 C 
ENDBRANCH   7   8
ENDBRANCH   6   7
ENDBRANCH   5   6
ENDBRANCH   4   5
ENDBRANCH   3   4
ENDBRANCH   2   3
ENDBRANCH   1   2
BRANCH   1  10
ATOM     10  C   UNL     1     165.210 153.956 164.876  1.00  0.00     0.000 C 
BRANCH  10  11
ATOM     11  C   UNL     1     165.557 155.445 164.714  1.00  0.00     0.000 C 
BRANCH  11  12
ATOM     12  C   UNL     1     164.376 156.367 165.061  1.00  0.00     0.000 C 
BRANCH  12  13
ATOM     13  C   UNL     1     163.703 155.994 166.394  1.00  0.00     0.000 C 
BRANCH  13  14
ATOM     14  C   UNL     1     162.508 156.902 166.726  1.00  0.00     0.002 C 
BRANCH  14  15
ATOM     15  C   UNL     1     162.694 158.336 166.203  1.00  0.00     0.028 C 
BRANCH  15  16
ATOM     16  C   UNL     1     161.533 158.763 165.297  1.00  0.00     0.156 C 
BRANCH  16  17
ATOM     17  O   UNL     1     160.572 157.746 165.201  1.00  0.00    -0.396 OA
ATOM     18  H   UNL     1     160.985 157.014 164.672  1.00  0.00     0.210 HD
ENDBRANCH  16  17
ENDBRANCH  15  16
ENDBRANCH  14  15
ENDBRANCH  13  14
ENDBRANCH  12  13
ENDBRANCH  11  12
ENDBRANCH  10  11
ENDBRANCH   1  10
TORSDOF 15
ENDMDL
MODEL 8
REMARK VINA RESULT:    -3.917      5.749     10.636
REMARK INTER + INTRA:          -7.980
REMARK INTER:                  -5.920
REMARK INTRA:                  -2.060
REMARK UNBOUND:                -0.742
REMARK SMILES CCCCCCCCCCCCCCCCO
REMARK SMILES IDX 9 1 8 2 7 3 6 4 5 5 4 6 3 7 2 8 1 9 10 10 11 11 12 12 13 13
REMARK SMILES IDX 14 14 15 15 16 16 17 17
REMARK H PARENT 17 18
REMARK Flexibility Score: inf
ROOT
ATOM      1  C   UNL     1     163.798 153.393 163.806  1.00  0.00     0.000 C 
ENDROOT
BRANCH   1   2
ATOM      2  C   UNL     1     165.071 153.778 164.588  1.00  0.00    -0.000 C 
BRANCH   2   3
ATOM      3  C   UNL     1     165.074 155.206 165.168  1.00  0.00    -0.000 C 
BRANCH   3   4
ATOM      4  C   UNL     1     166.018 156.193 164.454  1.00  0.00    -0.000 C 
BRANCH   4   5
ATOM      5  C   UNL     1     167.311 155.567 163.896  1.00  0.00    -0.000 C 
BRANCH   5   6
ATOM      6  C   UNL     1     167.628 155.921 162.429  1.00  0.00    -0.000 C 
BRANCH   6   7
ATOM      7  C   UNL     1     166.871 155.086 161.381  1.00  0.00    -0.000 C 
BRANCH   7   8
ATOM      8  C   UNL     1     167.139 153.579 161.512  1.00  0.00    -0.003 C 
ATOM      9  C   UNL     1     166.065 152.766 160.797  1.00  0.00     0.004 C 
ENDBRANCH   7   8
ENDBRANCH   6   7
ENDBRANCH   5   6
ENDBRANCH   4   5
ENDBRANCH   3   4
ENDBRANCH   2   3
ENDBRANCH   1   2
BRANCH   1  10
ATOM     10  C   UNL     1     163.373 154.391 162.715  1.00  0.00     0.000 C 
BRANCH  10  11
ATOM     11  C   UNL     1     161.924 154.880 162.884  1.00  0.00     0.000 C 
BRANCH  11  12
ATOM     12  C   UNL     1     161.413 154.724 164.325  1.00  0.00     0.000 C 
BRANCH  12  13
ATOM     13  C   UNL     1     161.497 156.033 165.130  1.00  0.00     0.000 C 
BRANCH  13  14
ATOM     14  C   UNL     1     161.945 157.226 164.271  1.00  0.00     0.002 C 
BRANCH  14  15
ATOM     15  C   UNL     1     161.574 158.579 164.902  1.00  0.00     0.028 C 
BRANCH  15  16
ATOM     16  C   UNL     1     160.055 158.789 164.937  1.00  0.00     0.156 C 
BRANCH  16  17
ATOM     17  O   UNL     1     159.510 158.731 163.646  1.00  0.00    -0.396 OA
ATOM     18  H   UNL     1     159.201 157.798 163.510  1.00  0.00     0.210 HD
ENDBRANCH  16  17
ENDBRANCH  15  16
ENDBRANCH  14  15
ENDBRANCH  13  14
ENDBRANCH  12  13
ENDBRANCH  11  12
ENDBRANCH  10  11
ENDBRANCH   1  10
TORSDOF 15
ENDMDL
MODEL 9
REMARK VINA RESULT:    -2.764      2.692      8.088
REMARK INTER + INTRA:          -5.848
REMARK INTER:                  -4.872
REMARK INTRA:                  -0.977
REMARK UNBOUND:                -0.742
REMARK SMILES CCCCCCCCCCCCCCCCO
REMARK SMILES IDX 9 1 8 2 7 3 6 4 5 5 4 6 3 7 2 8 1 9 10 10 11 11 12 12 13 13
REMARK SMILES IDX 14 14 15 15 16 16 17 17
REMARK H PARENT 17 18
REMARK Flexibility Score: inf
ROOT
ATOM      1  C   UNL     1     155.144 159.854 162.713  1.00  0.00     0.000 C 
ENDROOT
BRANCH   1   2
ATOM      2  C   UNL     1     155.670 160.061 164.148  1.00  0.00    -0.000 C 
BRANCH   2   3
ATOM      3  C   UNL     1     157.003 159.355 164.466  1.00  0.00    -0.000 C 
BRANCH   3   4
ATOM      4  C   UNL     1     158.260 160.077 163.943  1.00  0.00    -0.000 C 
BRANCH   4   5
ATOM      5  C   UNL     1     159.562 159.742 164.696  1.00  0.00    -0.000 C 
BRANCH   5   6
ATOM      6  C   UNL     1     160.044 158.285 164.552  1.00  0.00    -0.000 C 
BRANCH   6   7
ATOM      7  C   UNL     1     161.527 158.053 164.890  1.00  0.00    -0.000 C 
BRANCH   7   8
ATOM      8  C   UNL     1     162.169 159.250 165.606  1.00  0.00    -0.003 C 
ATOM      9  C   UNL     1     163.373 159.774 164.829  1.00  0.00     0.004 C 
ENDBRANCH   7   8
ENDBRANCH   6   7
ENDBRANCH   5   6
ENDBRANCH   4   5
ENDBRANCH   3   4
ENDBRANCH   2   3
ENDBRANCH   1   2
BRANCH   1  10
ATOM     10  C   UNL     1     153.642 160.125 162.520  1.00  0.00     0.000 C 
BRANCH  10  11
ATOM     11  C   UNL     1     152.845 160.034 163.832  1.00  0.00     0.000 C 
BRANCH  11  12
ATOM     12  C   UNL     1     152.185 158.660 164.028  1.00  0.00     0.000 C 
BRANCH  12  13
ATOM     13  C   UNL     1     153.150 157.617 164.620  1.00  0.00     0.000 C 
BRANCH  13  14
ATOM     14  C   UNL     1     153.118 156.283 163.857  1.00  0.00     0.002 C 
BRANCH  14  15
ATOM     15  C   UNL     1     154.521 155.805 163.448  1.00  0.00     0.028 C 
BRANCH  15  16
ATOM     16  C   UNL     1     154.614 154.275 163.425  1.00  0.00     0.156 C 
BRANCH  16  17
ATOM     17  O   UNL     1     155.141 153.786 164.630  1.00  0.00    -0.396 OA
ATOM     18  H   UNL     1     154.613 152.979 164.865  1.00  0.00     0.210 HD
ENDBRANCH  16  17
ENDBRANCH  15  16
ENDBRANCH  14  15
ENDBRANCH  13  14
ENDBRANCH  12  13
ENDBRANCH  11  12
ENDBRANCH  10  11
ENDBRANCH   1  10
TORSDOF 15
ENDMDL
