MODEL 1
REMARK VINA RESULT:    -3.345      0.000      0.000
REMARK INTER + INTRA:          -8.102
REMARK INTER:                  -6.082
REMARK INTRA:                  -2.019
REMARK UNBOUND:                -2.019
REMARK SMILES CCCCCCCCCCCCCCCC(=O)[O-]
REMARK SMILES IDX 9 1 10 2 11 3 12 4 13 5 14 6 15 7 16 8 17 9 18 10 8 11 7 12
REMARK SMILES IDX 6 13 5 14 4 15 3 16 2 17 1 18
REMARK H PARENT
REMARK Flexibility Score: inf
ROOT
ATOM      1  C   UNL     1       2.119 108.476 181.294  1.00  0.00     0.000 C 
ENDROOT
BRANCH   1   2
ATOM      2  C   UNL     1       3.088 107.671 180.411  1.00  0.00     0.000 C 
BRANCH   2   3
ATOM      3  C   UNL     1       3.641 106.426 181.127  1.00  0.00     0.000 C 
BRANCH   3   4
ATOM      4  C   UNL     1       5.157 106.254 180.932  1.00  0.00     0.000 C 
BRANCH   4   5
ATOM      5  C   UNL     1       5.980 107.230 181.792  1.00  0.00     0.000 C 
BRANCH   5   6
ATOM      6  C   UNL     1       5.773 107.002 183.299  1.00  0.00     0.006 C 
BRANCH   6   7
ATOM      7  C   UNL     1       6.070 108.255 184.133  1.00  0.00     0.053 C 
BRANCH   7   8
ATOM      8  C   UNL     1       7.542 108.522 184.165  1.00  0.00     0.041 C 
ATOM      9  O   UNL     1       8.354 107.579 184.361  1.00  0.00    -0.550 OA
ATOM     10  O   UNL     1       8.022 109.804 183.930  1.00  0.00    -0.550 OA
ENDBRANCH   7   8
ENDBRANCH   6   7
ENDBRANCH   5   6
ENDBRANCH   4   5
ENDBRANCH   3   4
ENDBRANCH   2   3
ENDBRANCH   1   2
BRANCH   1  11
ATOM     11  C   UNL     1       2.690 108.755 182.696  1.00  0.00     0.000 C 
BRANCH  11  12
ATOM     12  C   UNL     1       3.010 110.243 182.913  1.00  0.00    -0.000 C 
BRANCH  12  13
ATOM     13  C   UNL     1       4.189 110.726 182.050  1.00  0.00    -0.000 C 
BRANCH  13  14
ATOM     14  C   UNL     1       5.058 111.769 182.785  1.00  0.00    -0.000 C 
BRANCH  14  15
ATOM     15  C   UNL     1       4.982 111.663 184.318  1.00  0.00    -0.000 C 
BRANCH  15  16
ATOM     16  C   UNL     1       4.712 113.012 184.999  1.00  0.00    -0.000 C 
BRANCH  16  17
ATOM     17  C   UNL     1       3.248 113.432 184.827  1.00  0.00    -0.003 C 
ATOM     18  C   UNL     1       3.136 114.719 184.015  1.00  0.00     0.004 C 
ENDBRANCH  16  17
ENDBRANCH  15  16
ENDBRANCH  14  15
ENDBRANCH  13  14
ENDBRANCH  12  13
ENDBRANCH  11  12
ENDBRANCH   1  11
TORSDOF 14
ENDMDL
MODEL 2
REMARK VINA RESULT:    -3.320      3.374      6.805
REMARK INTER + INTRA:          -8.056
REMARK INTER:                  -5.769
REMARK INTRA:                  -2.287
REMARK UNBOUND:                -2.019
REMARK SMILES CCCCCCCCCCCCCCCC(=O)[O-]
REMARK SMILES IDX 9 1 10 2 11 3 12 4 13 5 14 6 15 7 16 8 17 9 18 10 8 11 7 12
REMARK SMILES IDX 6 13 5 14 4 15 3 16 2 17 1 18
REMARK H PARENT
REMARK Flexibility Score: inf
ROOT
ATOM      1  C   UNL     1       4.352 108.223 178.959  1.00  0.00     0.000 C 
ENDROOT
BRANCH   1   2
ATOM      2  C   UNL     1       4.903 106.788 178.986  1.00  0.00     0.000 C 
BRANCH   2   3
ATOM      3  C   UNL     1       4.787 106.138 180.377  1.00  0.00     0.000 C 
BRANCH   3   4
ATOM      4  C   UNL     1       5.561 106.911 181.458  1.00  0.00     0.000 C 
BRANCH   4   5
ATOM      5  C   UNL     1       4.764 107.060 182.766  1.00  0.00     0.000 C 
BRANCH   5   6
ATOM      6  C   UNL     1       3.417 107.772 182.555  1.00  0.00     0.006 C 
BRANCH   6   7
ATOM      7  C   UNL     1       3.574 109.284 182.350  1.00  0.00     0.053 C 
BRANCH   7   8
ATOM      8  C   UNL     1       2.587 110.030 183.192  1.00  0.00     0.041 C 
ATOM      9  O   UNL     1       2.828 111.211 183.557  1.00  0.00    -0.550 OA
ATOM     10  O   UNL     1       1.378 109.438 183.534  1.00  0.00    -0.550 OA
ENDBRANCH   7   8
ENDBRANCH   6   7
ENDBRANCH   5   6
ENDBRANCH   4   5
ENDBRANCH   3   4
ENDBRANCH   2   3
ENDBRANCH   1   2
BRANCH   1  11
ATOM     11  C   UNL     1       2.966 108.313 178.294  1.00  0.00     0.000 C 
BRANCH  11  12
ATOM     12  C   UNL     1       1.820 108.158 179.305  1.00  0.00    -0.000 C 
BRANCH  12  13
ATOM     13  C   UNL     1       1.135 106.782 179.217  1.00  0.00    -0.000 C 
BRANCH  13  14
ATOM     14  C   UNL     1       0.373 106.596 177.887  1.00  0.00    -0.000 C 
BRANCH  14  15
ATOM     15  C   UNL     1       0.832 105.367 177.083  1.00  0.00    -0.000 C 
BRANCH  15  16
ATOM     16  C   UNL     1       2.100 104.716 177.654  1.00  0.00    -0.000 C 
BRANCH  16  17
ATOM     17  C   UNL     1       3.240 104.741 176.630  1.00  0.00    -0.003 C 
ATOM     18  C   UNL     1       2.969 105.762 175.528  1.00  0.00     0.004 C 
ENDBRANCH  16  17
ENDBRANCH  15  16
ENDBRANCH  14  15
ENDBRANCH  13  14
ENDBRANCH  12  13
ENDBRANCH  11  12
ENDBRANCH   1  11
TORSDOF 14
ENDMDL
MODEL 3
REMARK VINA RESULT:    -3.311      2.400      5.943
REMARK INTER + INTRA:          -8.039
REMARK INTER:                  -5.864
REMARK INTRA:                  -2.175
REMARK UNBOUND:                -2.019
REMARK SMILES CCCCCCCCCCCCCCCC(=O)[O-]
REMARK SMILES IDX 9 1 10 2 11 3 12 4 13 5 14 6 15 7 16 8 17 9 18 10 8 11 7 12
REMARK SMILES IDX 6 13 5 14 4 15 3 16 2 17 1 18
REMARK H PARENT
REMARK Flexibility Score: inf
ROOT
ATOM      1  C   UNL     1       2.558 108.720 181.738  1.00  0.00     0.000 C 
ENDROOT
BRANCH   1   2
ATOM      2  C   UNL     1       3.207 107.835 182.815  1.00  0.00     0.000 C 
BRANCH   2   3
ATOM      3  C   UNL     1       4.336 106.953 182.252  1.00  0.00     0.000 C 
BRANCH   3   4
ATOM      4  C   UNL     1       5.637 107.063 183.066  1.00  0.00     0.000 C 
BRANCH   4   5
ATOM      5  C   UNL     1       5.654 108.290 183.994  1.00  0.00     0.000 C 
BRANCH   5   6
ATOM      6  C   UNL     1       6.201 109.547 183.297  1.00  0.00     0.006 C 
BRANCH   6   7
ATOM      7  C   UNL     1       5.703 110.846 183.944  1.00  0.00     0.053 C 
BRANCH   7   8
ATOM      8  C   UNL     1       4.580 111.430 183.146  1.00  0.00     0.041 C 
ATOM      9  O   UNL     1       4.755 111.740 181.938  1.00  0.00    -0.550 OA
ATOM     10  O   UNL     1       3.326 111.586 183.721  1.00  0.00    -0.550 OA
ENDBRANCH   7   8
ENDBRANCH   6   7
ENDBRANCH   5   6
ENDBRANCH   4   5
ENDBRANCH   3   4
ENDBRANCH   2   3
ENDBRANCH   1   2
BRANCH   1  11
ATOM     11  C   UNL     1       3.416 108.826 180.464  1.00  0.00     0.000 C 
BRANCH  11  12
ATOM     12  C   UNL     1       2.681 108.307 179.219  1.00  0.00    -0.000 C 
BRANCH  12  13
ATOM     13  C   UNL     1       1.416 107.503 179.570  1.00  0.00    -0.000 C 
BRANCH  13  14
ATOM     14  C   UNL     1       1.443 106.084 178.963  1.00  0.00    -0.000 C 
BRANCH  14  15
ATOM     15  C   UNL     1       2.514 105.170 179.583  1.00  0.00    -0.000 C 
BRANCH  15  16
ATOM     16  C   UNL     1       3.326 104.400 178.531  1.00  0.00    -0.000 C 
BRANCH  16  17
ATOM     17  C   UNL     1       4.474 105.257 177.987  1.00  0.00    -0.003 C 
ATOM     18  C   UNL     1       5.444 105.649 179.097  1.00  0.00     0.004 C 
ENDBRANCH  16  17
ENDBRANCH  15  16
ENDBRANCH  14  15
ENDBRANCH  13  14
ENDBRANCH  12  13
ENDBRANCH  11  12
ENDBRANCH   1  11
TORSDOF 14
ENDMDL
MODEL 4
REMARK VINA RESULT:    -3.256      2.229      4.583
REMARK INTER + INTRA:          -7.940
REMARK INTER:                  -6.145
REMARK INTRA:                  -1.795
REMARK UNBOUND:                -2.019
REMARK SMILES CCCCCCCCCCCCCCCC(=O)[O-]
REMARK SMILES IDX 9 1 10 2 11 3 12 4 13 5 14 6 15 7 16 8 17 9 18 10 8 11 7 12
REMARK SMILES IDX 6 13 5 14 4 15 3 16 2 17 1 18
REMARK H PARENT
REMARK Flexibility Score: inf
ROOT
ATOM      1  C   UNL     1       3.244 105.967 180.288  1.00  0.00     0.000 C 
ENDROOT
BRANCH   1   2
ATOM      2  C   UNL     1       2.215 106.651 179.373  1.00  0.00     0.000 C 
BRANCH   2   3
ATOM      3  C   UNL     1       1.616 107.920 180.005  1.00  0.00     0.000 C 
BRANCH   3   4
ATOM      4  C   UNL     1       2.555 108.569 181.036  1.00  0.00     0.000 C 
BRANCH   4   5
ATOM      5  C   UNL     1       1.940 108.629 182.445  1.00  0.00     0.000 C 
BRANCH   5   6
ATOM      6  C   UNL     1       2.455 109.827 183.260  1.00  0.00     0.006 C 
BRANCH   6   7
ATOM      7  C   UNL     1       3.650 110.524 182.596  1.00  0.00     0.053 C 
BRANCH   7   8
ATOM      8  C   UNL     1       3.901 111.852 183.237  1.00  0.00     0.041 C 
ATOM      9  O   UNL     1       4.836 112.589 182.825  1.00  0.00    -0.550 OA
ATOM     10  O   UNL     1       3.072 112.299 184.258  1.00  0.00    -0.550 OA
ENDBRANCH   7   8
ENDBRANCH   6   7
ENDBRANCH   5   6
ENDBRANCH   4   5
ENDBRANCH   3   4
ENDBRANCH   2   3
ENDBRANCH   1   2
BRANCH   1  11
ATOM     11  C   UNL     1       4.586 105.707 179.579  1.00  0.00     0.000 C 
BRANCH  11  12
ATOM     12  C   UNL     1       5.790 105.925 180.507  1.00  0.00    -0.000 C 
BRANCH  12  13
ATOM     13  C   UNL     1       5.598 107.123 181.455  1.00  0.00    -0.000 C 
BRANCH  13  14
ATOM     14  C   UNL     1       5.475 106.684 182.930  1.00  0.00    -0.000 C 
BRANCH  14  15
ATOM     15  C   UNL     1       5.642 107.839 183.932  1.00  0.00    -0.000 C 
BRANCH  15  16
ATOM     16  C   UNL     1       7.088 108.347 184.026  1.00  0.00    -0.000 C 
BRANCH  16  17
ATOM     17  C   UNL     1       7.151 109.866 183.834  1.00  0.00    -0.003 C 
ATOM     18  C   UNL     1       6.770 110.600 185.117  1.00  0.00     0.004 C 
ENDBRANCH  16  17
ENDBRANCH  15  16
ENDBRANCH  14  15
ENDBRANCH  13  14
ENDBRANCH  12  13
ENDBRANCH  11  12
ENDBRANCH   1  11
TORSDOF 14
ENDMDL
MODEL 5
REMARK VINA RESULT:    -3.204      3.406      6.768
REMARK INTER + INTRA:          -7.846
REMARK INTER:                  -5.435
REMARK INTRA:                  -2.410
REMARK UNBOUND:                -2.019
REMARK SMILES CCCCCCCCCCCCCCCC(=O)[O-]
REMARK SMILES IDX 9 1 10 2 11 3 12 4 13 5 14 6 15 7 16 8 17 9 18 10 8 11 7 12
REMARK SMILES IDX 6 13 5 14 4 15 3 16 2 17 1 18
REMARK H PARENT
REMARK Flexibility Score: inf
ROOT
ATOM      1  C   UNL     1       2.376 108.434 177.561  1.00  0.00     0.000 C 
ENDROOT
BRANCH   1   2
ATOM      2  C   UNL     1       1.080 108.366 178.386  1.00  0.00     0.000 C 
BRANCH   2   3
ATOM      3  C   UNL     1       1.326 107.897 179.832  1.00  0.00     0.000 C 
BRANCH   3   4
ATOM      4  C   UNL     1       2.741 108.234 180.331  1.00  0.00     0.000 C 
BRANCH   4   5
ATOM      5  C   UNL     1       3.227 107.273 181.431  1.00  0.00     0.000 C 
BRANCH   5   6
ATOM      6  C   UNL     1       3.639 108.011 182.716  1.00  0.00     0.006 C 
BRANCH   6   7
ATOM      7  C   UNL     1       3.670 109.535 182.538  1.00  0.00     0.053 C 
BRANCH   7   8
ATOM      8  C   UNL     1       2.553 110.172 183.303  1.00  0.00     0.041 C 
ATOM      9  O   UNL     1       1.486 109.538 183.514  1.00  0.00    -0.550 OA
ATOM     10  O   UNL     1       2.709 111.448 183.828  1.00  0.00    -0.550 OA
ENDBRANCH   7   8
ENDBRANCH   6   7
ENDBRANCH   5   6
ENDBRANCH   4   5
ENDBRANCH   3   4
ENDBRANCH   2   3
ENDBRANCH   1   2
BRANCH   1  11
ATOM     11  C   UNL     1       2.238 107.756 176.186  1.00  0.00     0.000 C 
BRANCH  11  12
ATOM     12  C   UNL     1       1.326 106.520 176.231  1.00  0.00    -0.000 C 
BRANCH  12  13
ATOM     13  C   UNL     1       2.098 105.227 176.549  1.00  0.00    -0.000 C 
BRANCH  13  14
ATOM     14  C   UNL     1       1.802 104.709 177.973  1.00  0.00    -0.000 C 
BRANCH  14  15
ATOM     15  C   UNL     1       3.049 104.627 178.870  1.00  0.00    -0.000 C 
BRANCH  15  16
ATOM     16  C   UNL     1       4.356 104.877 178.103  1.00  0.00    -0.000 C 
BRANCH  16  17
ATOM     17  C   UNL     1       5.365 105.638 178.970  1.00  0.00    -0.003 C 
ATOM     18  C   UNL     1       5.707 106.993 178.357  1.00  0.00     0.004 C 
ENDBRANCH  16  17
ENDBRANCH  15  16
ENDBRANCH  14  15
ENDBRANCH  13  14
ENDBRANCH  12  13
ENDBRANCH  11  12
ENDBRANCH   1  11
TORSDOF 14
ENDMDL
MODEL 6
REMARK VINA RESULT:    -3.182      2.336      5.766
REMARK INTER + INTRA:          -7.805
REMARK INTER:                  -5.844
REMARK INTRA:                  -1.961
REMARK UNBOUND:                -2.019
REMARK SMILES CCCCCCCCCCCCCCCC(=O)[O-]
REMARK SMILES IDX 9 1 10 2 11 3 12 4 13 5 14 6 15 7 16 8 17 9 18 10 8 11 7 12
REMARK SMILES IDX 6 13 5 14 4 15 3 16 2 17 1 18
REMARK H PARENT
REMARK Flexibility Score: inf
ROOT
ATOM      1  C   UNL     1       4.507 106.791 179.749  1.00  0.00     0.000 C 
ENDROOT
BRANCH   1   2
ATOM      2  C   UNL     1       4.848 106.602 181.237  1.00  0.00     0.000 C 
BRANCH   2   3
ATOM      3  C   UNL     1       3.669 106.954 182.161  1.00  0.00     0.000 C 
BRANCH   3   4
ATOM      4  C   UNL     1       2.949 108.246 181.737  1.00  0.00     0.000 C 
BRANCH   4   5
ATOM      5  C   UNL     1       2.520 109.109 182.937  1.00  0.00     0.000 C 
BRANCH   5   6
ATOM      6  C   UNL     1       3.230 110.473 182.963  1.00  0.00     0.006 C 
BRANCH   6   7
ATOM      7  C   UNL     1       4.703 110.381 182.543  1.00  0.00     0.053 C 
BRANCH   7   8
ATOM      8  C   UNL     1       5.573 110.158 183.739  1.00  0.00     0.041 C 
ATOM      9  O   UNL     1       5.906 111.126 184.471  1.00  0.00    -0.550 OA
ATOM     10  O   UNL     1       5.978 108.872 184.074  1.00  0.00    -0.550 OA
ENDBRANCH   7   8
ENDBRANCH   6   7
ENDBRANCH   5   6
ENDBRANCH   4   5
ENDBRANCH   3   4
ENDBRANCH   2   3
ENDBRANCH   1   2
BRANCH   1  11
ATOM     11  C   UNL     1       4.246 105.456 179.028  1.00  0.00     0.000 C 
BRANCH  11  12
ATOM     12  C   UNL     1       2.836 104.909 179.300  1.00  0.00    -0.000 C 
BRANCH  12  13
ATOM     13  C   UNL     1       2.005 104.749 178.014  1.00  0.00    -0.000 C 
BRANCH  13  14
ATOM     14  C   UNL     1       1.011 105.914 177.816  1.00  0.00    -0.000 C 
BRANCH  14  15
ATOM     15  C   UNL     1       0.663 106.654 179.119  1.00  0.00    -0.000 C 
BRANCH  15  16
ATOM     16  C   UNL     1       0.895 108.169 179.027  1.00  0.00    -0.000 C 
BRANCH  16  17
ATOM     17  C   UNL     1       1.311 108.577 177.609  1.00  0.00    -0.003 C 
ATOM     18  C   UNL     1       2.736 109.124 177.589  1.00  0.00     0.004 C 
ENDBRANCH  16  17
ENDBRANCH  15  16
ENDBRANCH  14  15
ENDBRANCH  13  14
ENDBRANCH  12  13
ENDBRANCH  11  12
ENDBRANCH   1  11
TORSDOF 14
ENDMDL
MODEL 7
REMARK VINA RESULT:    -3.182      3.414      6.198
REMARK INTER + INTRA:          -7.805
REMARK INTER:                  -5.118
REMARK INTRA:                  -2.687
REMARK UNBOUND:                -2.019
REMARK SMILES CCCCCCCCCCCCCCCC(=O)[O-]
REMARK SMILES IDX 9 1 10 2 11 3 12 4 13 5 14 6 15 7 16 8 17 9 18 10 8 11 7 12
REMARK SMILES IDX 6 13 5 14 4 15 3 16 2 17 1 18
REMARK H PARENT
REMARK Flexibility Score: inf
ROOT
ATOM      1  C   UNL     1       3.085 104.870 177.152  1.00  0.00     0.000 C 
ENDROOT
BRANCH   1   2
ATOM      2  C   UNL     1       3.890 104.685 178.448  1.00  0.00     0.000 C 
BRANCH   2   3
ATOM      3  C   UNL     1       5.053 105.687 178.568  1.00  0.00     0.000 C 
BRANCH   3   4
ATOM      4  C   UNL     1       5.169 106.295 179.976  1.00  0.00     0.000 C 
BRANCH   4   5
ATOM      5  C   UNL     1       3.967 105.949 180.873  1.00  0.00     0.000 C 
BRANCH   5   6
ATOM      6  C   UNL     1       3.859 106.878 182.094  1.00  0.00     0.006 C 
BRANCH   6   7
ATOM      7  C   UNL     1       4.384 108.292 181.809  1.00  0.00     0.053 C 
BRANCH   7   8
ATOM      8  C   UNL     1       3.379 109.316 182.234  1.00  0.00     0.041 C 
ATOM      9  O   UNL     1       3.634 110.543 182.114  1.00  0.00    -0.550 OA
ATOM     10  O   UNL     1       2.140 108.915 182.718  1.00  0.00    -0.550 OA
ENDBRANCH   7   8
ENDBRANCH   6   7
ENDBRANCH   5   6
ENDBRANCH   4   5
ENDBRANCH   3   4
ENDBRANCH   2   3
ENDBRANCH   1   2
BRANCH   1  11
ATOM     11  C   UNL     1       1.575 105.030 177.411  1.00  0.00     0.000 C 
BRANCH  11  12
ATOM     12  C   UNL     1       1.278 105.597 178.808  1.00  0.00    -0.000 C 
BRANCH  12  13
ATOM     13  C   UNL     1       0.445 106.890 178.757  1.00  0.00    -0.000 C 
BRANCH  13  14
ATOM     14  C   UNL     1       1.190 108.087 179.387  1.00  0.00    -0.000 C 
BRANCH  14  15
ATOM     15  C   UNL     1       2.477 108.474 178.638  1.00  0.00    -0.000 C 
BRANCH  15  16
ATOM     16  C   UNL     1       2.205 109.085 177.256  1.00  0.00    -0.000 C 
BRANCH  16  17
ATOM     17  C   UNL     1       3.092 108.440 176.185  1.00  0.00    -0.003 C 
ATOM     18  C   UNL     1       2.251 107.834 175.065  1.00  0.00     0.004 C 
ENDBRANCH  16  17
ENDBRANCH  15  16
ENDBRANCH  14  15
ENDBRANCH  13  14
ENDBRANCH  12  13
ENDBRANCH  11  12
ENDBRANCH   1  11
TORSDOF 14
ENDMDL
MODEL 8
REMARK VINA RESULT:    -3.177      3.634      6.928
REMARK INTER + INTRA:          -7.797
REMARK INTER:                  -6.142
REMARK INTRA:                  -1.655
REMARK UNBOUND:                -2.019
REMARK SMILES CCCCCCCCCCCCCCCC(=O)[O-]
REMARK SMILES IDX 9 1 10 2 11 3 12 4 13 5 14 6 15 7 16 8 17 9 18 10 8 11 7 12
REMARK SMILES IDX 6 13 5 14 4 15 3 16 2 17 1 18
REMARK H PARENT
REMARK Flexibility Score: inf
ROOT
ATOM      1  C   UNL     1       6.185 111.068 184.233  1.00  0.00     0.000 C 
ENDROOT
BRANCH   1   2
ATOM      2  C   UNL     1       5.167 111.100 183.080  1.00  0.00     0.000 C 
BRANCH   2   3
ATOM      3  C   UNL     1       3.876 111.849 183.455  1.00  0.00     0.000 C 
BRANCH   3   4
ATOM      4  C   UNL     1       4.011 112.644 184.765  1.00  0.00     0.000 C 
BRANCH   4   5
ATOM      5  C   UNL     1       3.329 114.022 184.697  1.00  0.00     0.000 C 
BRANCH   5   6
ATOM      6  C   UNL     1       4.192 115.070 183.974  1.00  0.00     0.006 C 
BRANCH   6   7
ATOM      7  C   UNL     1       3.583 115.515 182.637  1.00  0.00     0.053 C 
BRANCH   7   8
ATOM      8  C   UNL     1       2.642 116.659 182.848  1.00  0.00     0.041 C 
ATOM      9  O   UNL     1       1.398 116.464 182.856  1.00  0.00    -0.550 OA
ATOM     10  O   UNL     1       3.140 117.934 183.086  1.00  0.00    -0.550 OA
ENDBRANCH   7   8
ENDBRANCH   6   7
ENDBRANCH   5   6
ENDBRANCH   4   5
ENDBRANCH   3   4
ENDBRANCH   2   3
ENDBRANCH   1   2
BRANCH   1  11
ATOM     11  C   UNL     1       6.620 109.637 184.598  1.00  0.00     0.000 C 
BRANCH  11  12
ATOM     12  C   UNL     1       5.687 108.571 184.002  1.00  0.00    -0.000 C 
BRANCH  12  13
ATOM     13  C   UNL     1       6.451 107.484 183.224  1.00  0.00    -0.000 C 
BRANCH  13  14
ATOM     14  C   UNL     1       5.562 106.792 182.169  1.00  0.00    -0.000 C 
BRANCH  14  15
ATOM     15  C   UNL     1       4.055 106.990 182.408  1.00  0.00    -0.000 C 
BRANCH  15  16
ATOM     16  C   UNL     1       3.340 107.644 181.217  1.00  0.00    -0.000 C 
BRANCH  16  17
ATOM     17  C   UNL     1       2.513 108.854 181.669  1.00  0.00    -0.003 C 
ATOM     18  C   UNL     1       2.082 108.713 183.126  1.00  0.00     0.004 C 
ENDBRANCH  16  17
ENDBRANCH  15  16
ENDBRANCH  14  15
ENDBRANCH  13  14
ENDBRANCH  12  13
ENDBRANCH  11  12
ENDBRANCH   1  11
TORSDOF 14
ENDMDL
MODEL 9
REMARK VINA RESULT:    -3.139      5.713      9.699
REMARK INTER + INTRA:          -7.727
REMARK INTER:                  -5.440
REMARK INTRA:                  -2.288
REMARK UNBOUND:                -2.019
REMARK SMILES CCCCCCCCCCCCCCCC(=O)[O-]
REMARK SMILES IDX 9 1 10 2 11 3 12 4 13 5 14 6 15 7 16 8 17 9 18 10 8 11 7 12
REMARK SMILES IDX 6 13 5 14 4 15 3 16 2 17 1 18
REMARK H PARENT
REMARK Flexibility Score: inf
ROOT
ATOM      1  C   UNL     1       6.434 104.762 177.351  1.00  0.00     0.000 C 
ENDROOT
BRANCH   1   2
ATOM      2  C   UNL     1       5.515 105.392 176.292  1.00  0.00     0.000 C 
BRANCH   2   3
ATOM      3  C   UNL     1       4.060 104.903 176.407  1.00  0.00     0.000 C 
BRANCH   3   4
ATOM      4  C   UNL     1       3.771 104.217 177.753  1.00  0.00     0.000 C 
BRANCH   4   5
ATOM      5  C   UNL     1       2.462 104.704 178.399  1.00  0.00     0.000 C 
BRANCH   5   6
ATOM      6  C   UNL     1       2.625 105.012 179.897  1.00  0.00     0.006 C 
BRANCH   6   7
ATOM      7  C   UNL     1       3.934 105.749 180.209  1.00  0.00     0.053 C 
BRANCH   7   8
ATOM      8  C   UNL     1       3.682 106.882 181.153  1.00  0.00     0.041 C 
ATOM      9  O   UNL     1       3.971 106.768 182.373  1.00  0.00    -0.550 OA
ATOM     10  O   UNL     1       3.172 108.083 180.677  1.00  0.00    -0.550 OA
ENDBRANCH   7   8
ENDBRANCH   6   7
ENDBRANCH   5   6
ENDBRANCH   4   5
ENDBRANCH   3   4
ENDBRANCH   2   3
ENDBRANCH   1   2
BRANCH   1  11
ATOM     11  C   UNL     1       7.636 104.026 176.730  1.00  0.00     0.000 C 
BRANCH  11  12
ATOM     12  C   UNL     1       7.707 102.553 177.162  1.00  0.00    -0.000 C 
BRANCH  12  13
ATOM     13  C   UNL     1       6.429 101.771 176.812  1.00  0.00    -0.000 C 
BRANCH  13  14
ATOM     14  C   UNL     1       6.383 101.371 175.321  1.00  0.00    -0.000 C 
BRANCH  14  15
ATOM     15  C   UNL     1       5.028 101.655 174.650  1.00  0.00    -0.000 C 
BRANCH  15  16
ATOM     16  C   UNL     1       5.111 102.743 173.570  1.00  0.00    -0.000 C 
BRANCH  16  17
ATOM     17  C   UNL     1       6.549 102.908 173.065  1.00  0.00    -0.003 C 
ATOM     18  C   UNL     1       6.959 104.378 173.042  1.00  0.00     0.004 C 
ENDBRANCH  16  17
ENDBRANCH  15  16
ENDBRANCH  14  15
ENDBRANCH  13  14
ENDBRANCH  12  13
ENDBRANCH  11  12
ENDBRANCH   1  11
TORSDOF 14
ENDMDL
