MODEL 1
REMARK VINA RESULT:    -3.108      0.000      0.000
REMARK INTER + INTRA:          -4.213
REMARK INTER:                  -4.016
REMARK INTRA:                  -0.197
REMARK UNBOUND:                -0.197
REMARK SMILES CCCCCCC(=O)[O-]
REMARK SMILES IDX 5 1 6 2 7 3 8 4 9 5 4 6 3 7 2 8 1 9
REMARK H PARENT
REMARK Flexibility Score: inf
ROOT
ATOM      1  C   UNL     1      -8.037  22.124  17.148  1.00  0.00     0.006 C 
ENDROOT
BRANCH   1   2
ATOM      2  C   UNL     1      -8.957  22.894  18.108  1.00  0.00     0.053 C 
BRANCH   2   3
ATOM      3  C   UNL     1      -8.509  22.769  19.532  1.00  0.00     0.041 C 
ATOM      4  O   UNL     1      -8.641  21.678  20.145  1.00  0.00    -0.550 OA
ATOM      5  O   UNL     1      -7.974  23.869  20.192  1.00  0.00    -0.550 OA
ENDBRANCH   2   3
ENDBRANCH   1   2
BRANCH   1   6
ATOM      6  C   UNL     1      -8.663  20.849  16.555  1.00  0.00     0.000 C 
BRANCH   6   7
ATOM      7  C   UNL     1      -7.855  20.280  15.379  1.00  0.00    -0.000 C 
BRANCH   7   8
ATOM      8  C   UNL     1      -6.998  21.370  14.725  1.00  0.00    -0.003 C 
ATOM      9  C   UNL     1      -5.528  20.962  14.678  1.00  0.00     0.004 C 
ENDBRANCH   7   8
ENDBRANCH   6   7
ENDBRANCH   1   6
TORSDOF 5
ENDMDL
MODEL 2
REMARK VINA RESULT:    -2.923      1.768      2.096
REMARK INTER + INTRA:          -3.974
REMARK INTER:                  -3.657
REMARK INTRA:                  -0.317
REMARK UNBOUND:                -0.197
REMARK SMILES CCCCCCC(=O)[O-]
REMARK SMILES IDX 5 1 6 2 7 3 8 4 9 5 4 6 3 7 2 8 1 9
REMARK H PARENT
REMARK Flexibility Score: inf
ROOT
ATOM      1  C   UNL     1      -8.493  21.261  17.371  1.00  0.00     0.006 C 
ENDROOT
BRANCH   1   2
ATOM      2  C   UNL     1      -7.858  20.327  18.415  1.00  0.00     0.053 C 
BRANCH   2   3
ATOM      3  C   UNL     1      -6.843  21.037  19.256  1.00  0.00     0.041 C 
ATOM      4  O   UNL     1      -7.196  21.969  20.025  1.00  0.00    -0.550 OA
ATOM      5  O   UNL     1      -5.500  20.690  19.168  1.00  0.00    -0.550 OA
ENDBRANCH   2   3
ENDBRANCH   1   2
BRANCH   1   6
ATOM      6  C   UNL     1      -7.508  21.793  16.314  1.00  0.00     0.000 C 
BRANCH   6   7
ATOM      7  C   UNL     1      -7.402  20.878  15.085  1.00  0.00    -0.000 C 
BRANCH   7   8
ATOM      8  C   UNL     1      -6.003  20.954  14.464  1.00  0.00    -0.003 C 
ATOM      9  C   UNL     1      -4.927  20.589  15.483  1.00  0.00     0.004 C 
ENDBRANCH   7   8
ENDBRANCH   6   7
ENDBRANCH   1   6
TORSDOF 5
ENDMDL
MODEL 3
REMARK VINA RESULT:    -2.856      2.906      5.029
REMARK INTER + INTRA:          -3.888
REMARK INTER:                  -3.773
REMARK INTRA:                  -0.114
REMARK UNBOUND:                -0.197
REMARK SMILES CCCCCCC(=O)[O-]
REMARK SMILES IDX 5 1 6 2 7 3 8 4 9 5 4 6 3 7 2 8 1 9
REMARK H PARENT
REMARK Flexibility Score: inf
ROOT
ATOM      1  C   UNL     1      -7.935  21.584  17.363  1.00  0.00     0.006 C 
ENDROOT
BRANCH   1   2
ATOM      2  C   UNL     1      -7.587  21.493  15.869  1.00  0.00     0.053 C 
BRANCH   2   3
ATOM      3  C   UNL     1      -6.257  20.845  15.643  1.00  0.00     0.041 C 
ATOM      4  O   UNL     1      -5.677  20.242  16.584  1.00  0.00    -0.550 OA
ATOM      5  O   UNL     1      -5.641  20.933  14.400  1.00  0.00    -0.550 OA
ENDBRANCH   2   3
ENDBRANCH   1   2
BRANCH   1   6
ATOM      6  C   UNL     1      -8.525  22.938  17.796  1.00  0.00     0.000 C 
BRANCH   6   7
ATOM      7  C   UNL     1      -9.038  22.929  19.244  1.00  0.00    -0.000 C 
BRANCH   7   8
ATOM      8  C   UNL     1      -8.034  23.604  20.185  1.00  0.00    -0.003 C 
ATOM      9  C   UNL     1      -8.078  22.981  21.577  1.00  0.00     0.004 C 
ENDBRANCH   7   8
ENDBRANCH   6   7
ENDBRANCH   1   6
TORSDOF 5
ENDMDL
MODEL 4
REMARK VINA RESULT:    -2.703      3.481      4.819
REMARK INTER + INTRA:          -3.690
REMARK INTER:                  -3.426
REMARK INTRA:                  -0.263
REMARK UNBOUND:                -0.197
REMARK SMILES CCCCCCC(=O)[O-]
REMARK SMILES IDX 5 1 6 2 7 3 8 4 9 5 4 6 3 7 2 8 1 9
REMARK H PARENT
REMARK Flexibility Score: inf
ROOT
ATOM      1  C   UNL     1      -4.859  21.014  15.117  1.00  0.00     0.006 C 
ENDROOT
BRANCH   1   2
ATOM      2  C   UNL     1      -4.722  20.082  16.332  1.00  0.00     0.053 C 
BRANCH   2   3
ATOM      3  C   UNL     1      -3.362  20.168  16.952  1.00  0.00     0.041 C 
ATOM      4  O   UNL     1      -2.363  20.477  16.250  1.00  0.00    -0.550 OA
ATOM      5  O   UNL     1      -3.191  19.876  18.299  1.00  0.00    -0.550 OA
ENDBRANCH   2   3
ENDBRANCH   1   2
BRANCH   1   6
ATOM      6  C   UNL     1      -6.312  21.290  14.690  1.00  0.00     0.000 C 
BRANCH   6   7
ATOM      7  C   UNL     1      -7.302  20.253  15.242  1.00  0.00    -0.000 C 
BRANCH   7   8
ATOM      8  C   UNL     1      -8.477  20.939  15.949  1.00  0.00    -0.003 C 
ATOM      9  C   UNL     1      -7.999  21.752  17.149  1.00  0.00     0.004 C 
ENDBRANCH   7   8
ENDBRANCH   6   7
ENDBRANCH   1   6
TORSDOF 5
ENDMDL
MODEL 5
REMARK VINA RESULT:    -2.641      1.486      2.038
REMARK INTER + INTRA:          -3.610
REMARK INTER:                  -3.480
REMARK INTRA:                  -0.130
REMARK UNBOUND:                -0.197
REMARK SMILES CCCCCCC(=O)[O-]
REMARK SMILES IDX 5 1 6 2 7 3 8 4 9 5 4 6 3 7 2 8 1 9
REMARK H PARENT
REMARK Flexibility Score: inf
ROOT
ATOM      1  C   UNL     1      -8.281  22.097  18.887  1.00  0.00     0.006 C 
ENDROOT
BRANCH   1   2
ATOM      2  C   UNL     1      -8.696  21.943  20.359  1.00  0.00     0.053 C 
BRANCH   2   3
ATOM      3  C   UNL     1      -8.106  23.015  21.222  1.00  0.00     0.041 C 
ATOM      4  O   UNL     1      -7.584  24.034  20.699  1.00  0.00    -0.550 OA
ATOM      5  O   UNL     1      -8.105  22.875  22.604  1.00  0.00    -0.550 OA
ENDBRANCH   2   3
ENDBRANCH   1   2
BRANCH   1   6
ATOM      6  C   UNL     1      -7.181  21.120  18.433  1.00  0.00     0.000 C 
BRANCH   6   7
ATOM      7  C   UNL     1      -7.444  20.534  17.038  1.00  0.00    -0.000 C 
BRANCH   7   8
ATOM      8  C   UNL     1      -7.297  21.609  15.955  1.00  0.00    -0.003 C 
ATOM      9  C   UNL     1      -6.475  21.094  14.776  1.00  0.00     0.004 C 
ENDBRANCH   7   8
ENDBRANCH   6   7
ENDBRANCH   1   6
TORSDOF 5
ENDMDL
MODEL 6
REMARK VINA RESULT:    -2.601      2.608      5.463
REMARK INTER + INTRA:          -3.558
REMARK INTER:                  -3.417
REMARK INTRA:                  -0.141
REMARK UNBOUND:                -0.197
REMARK SMILES CCCCCCC(=O)[O-]
REMARK SMILES IDX 5 1 6 2 7 3 8 4 9 5 4 6 3 7 2 8 1 9
REMARK H PARENT
REMARK Flexibility Score: inf
ROOT
ATOM      1  C   UNL     1      -8.574  22.349  19.202  1.00  0.00     0.006 C 
ENDROOT
BRANCH   1   2
ATOM      2  C   UNL     1      -8.624  22.524  17.676  1.00  0.00     0.053 C 
BRANCH   2   3
ATOM      3  C   UNL     1      -7.648  21.628  16.978  1.00  0.00     0.041 C 
ATOM      4  O   UNL     1      -7.577  21.624  15.721  1.00  0.00    -0.550 OA
ATOM      5  O   UNL     1      -6.837  20.773  17.715  1.00  0.00    -0.550 OA
ENDBRANCH   2   3
ENDBRANCH   1   2
BRANCH   1   6
ATOM      6  C   UNL     1      -8.168  23.618  19.973  1.00  0.00     0.000 C 
BRANCH   6   7
ATOM      7  C   UNL     1      -7.769  23.329  21.428  1.00  0.00    -0.000 C 
BRANCH   7   8
ATOM      8  C   UNL     1      -8.826  22.463  22.124  1.00  0.00    -0.003 C 
ATOM      9  C   UNL     1      -8.664  22.507  23.641  1.00  0.00     0.004 C 
ENDBRANCH   7   8
ENDBRANCH   6   7
ENDBRANCH   1   6
TORSDOF 5
ENDMDL
MODEL 7
REMARK VINA RESULT:    -2.480     18.666     19.661
REMARK INTER + INTRA:          -3.402
REMARK INTER:                  -3.301
REMARK INTRA:                  -0.101
REMARK UNBOUND:                -0.197
REMARK SMILES CCCCCCC(=O)[O-]
REMARK SMILES IDX 5 1 6 2 7 3 8 4 9 5 4 6 3 7 2 8 1 9
REMARK H PARENT
REMARK Flexibility Score: inf
ROOT
ATOM      1  C   UNL     1      10.232  22.888  12.895  1.00  0.00     0.006 C 
ENDROOT
BRANCH   1   2
ATOM      2  C   UNL     1      11.004  23.019  11.572  1.00  0.00     0.053 C 
BRANCH   2   3
ATOM      3  C   UNL     1      10.832  24.373  10.957  1.00  0.00     0.041 C 
ATOM      4  O   UNL     1      10.897  24.516   9.708  1.00  0.00    -0.550 OA
ATOM      5  O   UNL     1      10.632  25.485  11.766  1.00  0.00    -0.550 OA
ENDBRANCH   2   3
ENDBRANCH   1   2
BRANCH   1   6
ATOM      6  C   UNL     1      11.125  22.681  14.132  1.00  0.00     0.000 C 
BRANCH   6   7
ATOM      7  C   UNL     1      10.328  22.272  15.380  1.00  0.00    -0.000 C 
BRANCH   7   8
ATOM      8  C   UNL     1      10.950  22.869  16.647  1.00  0.00    -0.003 C 
ATOM      9  C   UNL     1       9.952  22.876  17.801  1.00  0.00     0.004 C 
ENDBRANCH   7   8
ENDBRANCH   6   7
ENDBRANCH   1   6
TORSDOF 5
ENDMDL
MODEL 8
REMARK VINA RESULT:    -2.276      2.936      5.579
REMARK INTER + INTRA:          -3.139
REMARK INTER:                  -2.965
REMARK INTRA:                  -0.174
REMARK UNBOUND:                -0.197
REMARK SMILES CCCCCCC(=O)[O-]
REMARK SMILES IDX 5 1 6 2 7 3 8 4 9 5 4 6 3 7 2 8 1 9
REMARK H PARENT
REMARK Flexibility Score: inf
ROOT
ATOM      1  C   UNL     1      -7.900  23.262  20.422  1.00  0.00     0.006 C 
ENDROOT
BRANCH   1   2
ATOM      2  C   UNL     1      -8.823  23.298  19.193  1.00  0.00     0.053 C 
BRANCH   2   3
ATOM      3  C   UNL     1      -8.561  22.154  18.263  1.00  0.00     0.041 C 
ATOM      4  O   UNL     1      -8.082  22.363  17.118  1.00  0.00    -0.550 OA
ATOM      5  O   UNL     1      -8.876  20.857  18.650  1.00  0.00    -0.550 OA
ENDBRANCH   2   3
ENDBRANCH   1   2
BRANCH   1   6
ATOM      6  C   UNL     1      -8.567  22.724  21.700  1.00  0.00     0.000 C 
BRANCH   6   7
ATOM      7  C   UNL     1      -8.044  21.338  22.107  1.00  0.00    -0.000 C 
BRANCH   7   8
ATOM      8  C   UNL     1      -7.672  21.308  23.594  1.00  0.00    -0.003 C 
ATOM      9  C   UNL     1      -6.702  20.169  23.896  1.00  0.00     0.004 C 
ENDBRANCH   7   8
ENDBRANCH   6   7
ENDBRANCH   1   6
TORSDOF 5
ENDMDL
MODEL 9
REMARK VINA RESULT:    -2.232     15.404     17.378
REMARK INTER + INTRA:          -3.081
REMARK INTER:                  -2.985
REMARK INTRA:                  -0.095
REMARK UNBOUND:                -0.197
REMARK SMILES CCCCCCC(=O)[O-]
REMARK SMILES IDX 5 1 6 2 7 3 8 4 9 5 4 6 3 7 2 8 1 9
REMARK H PARENT
REMARK Flexibility Score: inf
ROOT
ATOM      1  C   UNL     1       8.843  21.147  13.618  1.00  0.00     0.006 C 
ENDROOT
BRANCH   1   2
ATOM      2  C   UNL     1       8.607  20.283  14.868  1.00  0.00     0.053 C 
BRANCH   2   3
ATOM      3  C   UNL     1       7.255  20.522  15.465  1.00  0.00     0.041 C 
ATOM      4  O   UNL     1       6.334  21.024  14.769  1.00  0.00    -0.550 OA
ATOM      5  O   UNL     1       7.021  20.220  16.801  1.00  0.00    -0.550 OA
ENDBRANCH   2   3
ENDBRANCH   1   2
BRANCH   1   6
ATOM      6  C   UNL     1      10.034  22.115  13.732  1.00  0.00     0.000 C 
BRANCH   6   7
ATOM      7  C   UNL     1      10.379  22.794  12.398  1.00  0.00    -0.000 C 
BRANCH   7   8
ATOM      8  C   UNL     1      10.876  24.227  12.625  1.00  0.00    -0.003 C 
ATOM      9  C   UNL     1      10.401  25.157  11.513  1.00  0.00     0.004 C 
ENDBRANCH   7   8
ENDBRANCH   6   7
ENDBRANCH   1   6
TORSDOF 5
ENDMDL
