MODEL 1
REMARK VINA RESULT:    -3.927      0.000      0.000
REMARK INTER + INTRA:          -4.042
REMARK INTER:                  -4.042
REMARK INTRA:                   0.000
REMARK UNBOUND:                 0.000
REMARK SMILES Nc1ncnc2nc[nH]c12
REMARK SMILES IDX 8 1 7 2 6 3 5 4 4 5 3 6 2 7 10 8 9 9 1 11
REMARK H PARENT 9 10 1 12 1 13
REMARK Flexibility Score: inf
ROOT
ATOM      1  C   UNL     1       8.243  -8.686  -9.654  1.00  0.00     0.199 A 
ATOM      2  N   UNL     1       8.867  -7.522  -9.325  1.00  0.00    -0.217 NA
ATOM      3  C   UNL     1       8.816  -7.542  -7.983  1.00  0.00     0.182 A 
ATOM      4  N   UNL     1       9.304  -6.598  -7.141  1.00  0.00    -0.215 NA
ATOM      5  C   UNL     1       9.156  -6.795  -5.796  1.00  0.00     0.226 A 
ATOM      6  N   UNL     1       8.528  -7.919  -5.321  1.00  0.00    -0.217 NA
ATOM      7  C   UNL     1       8.035  -8.871  -6.168  1.00  0.00     0.152 A 
ATOM      8  C   UNL     1       8.193  -8.657  -7.535  1.00  0.00     0.127 A 
ATOM      9  N   UNL     1       7.820  -9.402  -8.582  1.00  0.00    -0.340 N 
ATOM     10  H   UNL     1       7.320 -10.319  -8.586  1.00  0.00     0.168 HD
ENDROOT
BRANCH   7  11
ATOM     11  N   UNL     1       7.385 -10.032  -5.651  1.00  0.00    -0.382 N 
ATOM     12  H   UNL     1       6.637 -10.523  -6.188  1.00  0.00     0.158 HD
ATOM     13  H   UNL     1       7.655 -10.409  -4.715  1.00  0.00     0.158 HD
ENDBRANCH   7  11
TORSDOF 1
ENDMDL
MODEL 2
REMARK VINA RESULT:    -3.769     14.957     16.494
REMARK INTER + INTRA:          -3.879
REMARK INTER:                  -3.879
REMARK INTRA:                   0.000
REMARK UNBOUND:                 0.000
REMARK SMILES Nc1ncnc2nc[nH]c12
REMARK SMILES IDX 8 1 7 2 6 3 5 4 4 5 3 6 2 7 10 8 9 9 1 11
REMARK H PARENT 9 10 1 12 1 13
REMARK Flexibility Score: inf
ROOT
ATOM      1  C   UNL     1      20.494  -9.165 -19.615  1.00  0.00     0.199 A 
ATOM      2  N   UNL     1      21.058 -10.298 -20.115  1.00  0.00    -0.217 NA
ATOM      3  C   UNL     1      20.472 -11.257 -19.380  1.00  0.00     0.182 A 
ATOM      4  N   UNL     1      20.685 -12.592 -19.475  1.00  0.00    -0.215 NA
ATOM      5  C   UNL     1      19.990 -13.418 -18.635  1.00  0.00     0.226 A 
ATOM      6  N   UNL     1      19.106 -12.899 -17.723  1.00  0.00    -0.217 NA
ATOM      7  C   UNL     1      18.891 -11.553 -17.625  1.00  0.00     0.152 A 
ATOM      8  C   UNL     1      19.605 -10.726 -18.487  1.00  0.00     0.127 A 
ATOM      9  N   UNL     1      19.601  -9.394 -18.619  1.00  0.00    -0.340 N 
ATOM     10  H   UNL     1      19.047  -8.687 -18.086  1.00  0.00     0.168 HD
ENDROOT
BRANCH   7  11
ATOM     11  N   UNL     1      17.965 -11.037 -16.669  1.00  0.00    -0.382 N 
ATOM     12  H   UNL     1      18.166 -10.164 -16.133  1.00  0.00     0.158 HD
ATOM     13  H   UNL     1      17.064 -11.534 -16.492  1.00  0.00     0.158 HD
ENDBRANCH   7  11
TORSDOF 1
ENDMDL
MODEL 3
REMARK VINA RESULT:    -3.735     14.786     16.287
REMARK INTER + INTRA:          -3.844
REMARK INTER:                  -3.844
REMARK INTRA:                   0.000
REMARK UNBOUND:                 0.000
REMARK SMILES Nc1ncnc2nc[nH]c12
REMARK SMILES IDX 8 1 7 2 6 3 5 4 4 5 3 6 2 7 10 8 9 9 1 11
REMARK H PARENT 9 10 1 12 1 13
REMARK Flexibility Score: inf
ROOT
ATOM      1  C   UNL     1      20.798  -9.592 -19.506  1.00  0.00     0.199 A 
ATOM      2  N   UNL     1      19.836  -9.256 -18.603  1.00  0.00    -0.217 NA
ATOM      3  C   UNL     1      19.431 -10.457 -18.158  1.00  0.00     0.182 A 
ATOM      4  N   UNL     1      18.471 -10.693 -17.231  1.00  0.00    -0.215 NA
ATOM      5  C   UNL     1      18.195 -11.993 -16.906  1.00  0.00     0.226 A 
ATOM      6  N   UNL     1      18.876 -13.021 -17.508  1.00  0.00    -0.217 NA
ATOM      7  C   UNL     1      19.843 -12.784 -18.443  1.00  0.00     0.152 A 
ATOM      8  C   UNL     1      20.113 -11.457 -18.764  1.00  0.00     0.127 A 
ATOM      9  N   UNL     1      20.990 -10.930 -19.626  1.00  0.00    -0.340 N 
ATOM     10  H   UNL     1      21.668 -11.421 -20.250  1.00  0.00     0.168 HD
ENDROOT
BRANCH   7  11
ATOM     11  N   UNL     1      20.538 -13.871 -19.056  1.00  0.00    -0.382 N 
ATOM     12  H   UNL     1      20.997 -13.767 -19.987  1.00  0.00     0.158 HD
ATOM     13  H   UNL     1      20.595 -14.794 -18.572  1.00  0.00     0.158 HD
ENDBRANCH   7  11
TORSDOF 1
ENDMDL
MODEL 4
REMARK VINA RESULT:    -3.713      1.816      3.119
REMARK INTER + INTRA:          -3.821
REMARK INTER:                  -3.821
REMARK INTRA:                   0.000
REMARK UNBOUND:                 0.000
REMARK SMILES Nc1ncnc2nc[nH]c12
REMARK SMILES IDX 8 1 7 2 6 3 5 4 4 5 3 6 2 7 10 8 9 9 1 11
REMARK H PARENT 9 10 1 12 1 13
REMARK Flexibility Score: inf
ROOT
ATOM      1  C   UNL     1       9.332  -8.795  -8.514  1.00  0.00     0.199 A 
ATOM      2  N   UNL     1       8.096  -8.617  -7.973  1.00  0.00    -0.217 NA
ATOM      3  C   UNL     1       8.181  -7.375  -7.469  1.00  0.00     0.182 A 
ATOM      4  N   UNL     1       7.206  -6.701  -6.812  1.00  0.00    -0.215 NA
ATOM      5  C   UNL     1       7.482  -5.437  -6.370  1.00  0.00     0.226 A 
ATOM      6  N   UNL     1       8.715  -4.876  -6.590  1.00  0.00    -0.217 NA
ATOM      7  C   UNL     1       9.699  -5.554  -7.253  1.00  0.00     0.152 A 
ATOM      8  C   UNL     1       9.403  -6.840  -7.696  1.00  0.00     0.127 A 
ATOM      9  N   UNL     1      10.154  -7.726  -8.361  1.00  0.00    -0.340 N 
ATOM     10  H   UNL     1      11.140  -7.629  -8.690  1.00  0.00     0.168 HD
ENDROOT
BRANCH   7  11
ATOM     11  N   UNL     1      10.973  -4.949  -7.470  1.00  0.00    -0.382 N 
ATOM     12  H   UNL     1      11.660  -4.833  -6.693  1.00  0.00     0.158 HD
ATOM     13  H   UNL     1      11.236  -4.612  -8.423  1.00  0.00     0.158 HD
ENDBRANCH   7  11
TORSDOF 1
ENDMDL
MODEL 5
REMARK VINA RESULT:    -3.710      0.815      2.807
REMARK INTER + INTRA:          -3.818
REMARK INTER:                  -3.818
REMARK INTRA:                   0.000
REMARK UNBOUND:                 0.000
REMARK SMILES Nc1ncnc2nc[nH]c12
REMARK SMILES IDX 8 1 7 2 6 3 5 4 4 5 3 6 2 7 10 8 9 9 1 11
REMARK H PARENT 9 10 1 12 1 13
REMARK Flexibility Score: inf
ROOT
ATOM      1  C   UNL     1       9.258  -6.789  -6.137  1.00  0.00     0.199 A 
ATOM      2  N   UNL     1       9.346  -6.830  -7.495  1.00  0.00    -0.217 NA
ATOM      3  C   UNL     1       8.661  -7.946  -7.792  1.00  0.00     0.182 A 
ATOM      4  N   UNL     1       8.442  -8.455  -9.029  1.00  0.00    -0.215 NA
ATOM      5  C   UNL     1       7.716  -9.609  -9.132  1.00  0.00     0.226 A 
ATOM      6  N   UNL     1       7.229 -10.228  -8.008  1.00  0.00    -0.217 NA
ATOM      7  C   UNL     1       7.449  -9.717  -6.761  1.00  0.00     0.152 A 
ATOM      8  C   UNL     1       8.189  -8.541  -6.672  1.00  0.00     0.127 A 
ATOM      9  N   UNL     1       8.557  -7.822  -5.605  1.00  0.00    -0.340 N 
ATOM     10  H   UNL     1       8.357  -8.002  -4.596  1.00  0.00     0.168 HD
ENDROOT
BRANCH   7  11
ATOM     11  N   UNL     1       6.932 -10.379  -5.606  1.00  0.00    -0.382 N 
ATOM     12  H   UNL     1       6.216 -11.134  -5.687  1.00  0.00     0.158 HD
ATOM     13  H   UNL     1       7.269 -10.111  -4.655  1.00  0.00     0.158 HD
ENDBRANCH   7  11
TORSDOF 1
ENDMDL
MODEL 6
REMARK VINA RESULT:    -3.692      1.288      3.087
REMARK INTER + INTRA:          -3.799
REMARK INTER:                  -3.799
REMARK INTRA:                   0.000
REMARK UNBOUND:                 0.000
REMARK SMILES Nc1ncnc2nc[nH]c12
REMARK SMILES IDX 8 1 7 2 6 3 5 4 4 5 3 6 2 7 10 8 9 9 1 11
REMARK H PARENT 9 10 1 12 1 13
REMARK Flexibility Score: inf
ROOT
ATOM      1  C   UNL     1       6.752 -11.000  -6.321  1.00  0.00     0.199 A 
ATOM      2  N   UNL     1       6.883 -10.935  -7.675  1.00  0.00    -0.217 NA
ATOM      3  C   UNL     1       7.593  -9.806  -7.838  1.00  0.00     0.182 A 
ATOM      4  N   UNL     1       8.002  -9.271  -9.014  1.00  0.00    -0.215 NA
ATOM      5  C   UNL     1       8.719  -8.108  -8.979  1.00  0.00     0.226 A 
ATOM      6  N   UNL     1       9.010  -7.505  -7.780  1.00  0.00    -0.217 NA
ATOM      7  C   UNL     1       8.598  -8.043  -6.594  1.00  0.00     0.152 A 
ATOM      8  C   UNL     1       7.869  -9.227  -6.646  1.00  0.00     0.127 A 
ATOM      9  N   UNL     1       7.344  -9.971  -5.665  1.00  0.00    -0.340 N 
ATOM     10  H   UNL     1       7.375  -9.808  -4.634  1.00  0.00     0.168 HD
ENDROOT
BRANCH   7  11
ATOM     11  N   UNL     1       8.914  -7.398  -5.360  1.00  0.00    -0.382 N 
ATOM     12  H   UNL     1       9.902  -7.217  -5.078  1.00  0.00     0.158 HD
ATOM     13  H   UNL     1       8.148  -7.095  -4.717  1.00  0.00     0.158 HD
ENDBRANCH   7  11
TORSDOF 1
ENDMDL
MODEL 7
REMARK VINA RESULT:    -3.583      0.923      3.536
REMARK INTER + INTRA:          -3.688
REMARK INTER:                  -3.688
REMARK INTRA:                   0.000
REMARK UNBOUND:                 0.000
REMARK SMILES Nc1ncnc2nc[nH]c12
REMARK SMILES IDX 8 1 7 2 6 3 5 4 4 5 3 6 2 7 10 8 9 9 1 11
REMARK H PARENT 9 10 1 12 1 13
REMARK Flexibility Score: inf
ROOT
ATOM      1  C   UNL     1       9.160  -6.763  -5.996  1.00  0.00     0.199 A 
ATOM      2  N   UNL     1       8.615  -7.763  -5.250  1.00  0.00    -0.217 NA
ATOM      3  C   UNL     1       8.136  -8.592  -6.192  1.00  0.00     0.182 A 
ATOM      4  N   UNL     1       7.486  -9.763  -5.984  1.00  0.00    -0.215 NA
ATOM      5  C   UNL     1       7.070 -10.473  -7.076  1.00  0.00     0.226 A 
ATOM      6  N   UNL     1       7.309 -10.004  -8.343  1.00  0.00    -0.217 NA
ATOM      7  C   UNL     1       7.964  -8.824  -8.555  1.00  0.00     0.152 A 
ATOM      8  C   UNL     1       8.381  -8.113  -7.434  1.00  0.00     0.127 A 
ATOM      9  N   UNL     1       9.033  -6.948  -7.334  1.00  0.00    -0.340 N 
ATOM     10  H   UNL     1       9.369  -6.321  -8.098  1.00  0.00     0.168 HD
ENDROOT
BRANCH   7  11
ATOM     11  N   UNL     1       8.201  -8.357  -9.884  1.00  0.00    -0.382 N 
ATOM     12  H   UNL     1       8.554  -8.996 -10.630  1.00  0.00     0.158 HD
ATOM     13  H   UNL     1       8.021  -7.358 -10.127  1.00  0.00     0.158 HD
ENDBRANCH   7  11
TORSDOF 1
ENDMDL
MODEL 8
REMARK VINA RESULT:    -3.580      1.263      2.674
REMARK INTER + INTRA:          -3.685
REMARK INTER:                  -3.685
REMARK INTRA:                   0.000
REMARK UNBOUND:                 0.000
REMARK SMILES Nc1ncnc2nc[nH]c12
REMARK SMILES IDX 8 1 7 2 6 3 5 4 4 5 3 6 2 7 10 8 9 9 1 11
REMARK H PARENT 9 10 1 12 1 13
REMARK Flexibility Score: inf
ROOT
ATOM      1  C   UNL     1       8.591  -7.496 -10.244  1.00  0.00     0.199 A 
ATOM      2  N   UNL     1       7.920  -8.413  -9.495  1.00  0.00    -0.217 NA
ATOM      3  C   UNL     1       8.265  -8.066  -8.244  1.00  0.00     0.182 A 
ATOM      4  N   UNL     1       7.863  -8.670  -7.098  1.00  0.00    -0.215 NA
ATOM      5  C   UNL     1       8.323  -8.171  -5.911  1.00  0.00     0.226 A 
ATOM      6  N   UNL     1       9.168  -7.090  -5.891  1.00  0.00    -0.217 NA
ATOM      7  C   UNL     1       9.574  -6.481  -7.044  1.00  0.00     0.152 A 
ATOM      8  C   UNL     1       9.098  -7.000  -8.245  1.00  0.00     0.127 A 
ATOM      9  N   UNL     1       9.320  -6.618  -9.508  1.00  0.00    -0.340 N 
ATOM     10  H   UNL     1       9.912  -5.833  -9.858  1.00  0.00     0.168 HD
ENDROOT
BRANCH   7  11
ATOM     11  N   UNL     1      10.454  -5.357  -6.998  1.00  0.00    -0.382 N 
ATOM     12  H   UNL     1      11.451  -5.433  -7.298  1.00  0.00     0.158 HD
ATOM     13  H   UNL     1      10.105  -4.434  -6.658  1.00  0.00     0.158 HD
ENDBRANCH   7  11
TORSDOF 1
ENDMDL
MODEL 9
REMARK VINA RESULT:    -3.565     15.997     17.509
REMARK INTER + INTRA:          -3.669
REMARK INTER:                  -3.669
REMARK INTRA:                   0.000
REMARK UNBOUND:                 0.000
REMARK SMILES Nc1ncnc2nc[nH]c12
REMARK SMILES IDX 8 1 7 2 6 3 5 4 4 5 3 6 2 7 10 8 9 9 1 11
REMARK H PARENT 9 10 1 12 1 13
REMARK Flexibility Score: inf
ROOT
ATOM      1  C   UNL     1      19.695 -11.414 -18.364  1.00  0.00     0.199 A 
ATOM      2  N   UNL     1      20.262 -11.568 -19.592  1.00  0.00    -0.217 NA
ATOM      3  C   UNL     1      20.800 -10.356 -19.811  1.00  0.00     0.182 A 
ATOM      4  N   UNL     1      21.492  -9.966 -20.909  1.00  0.00    -0.215 NA
ATOM      5  C   UNL     1      21.965  -8.683 -20.950  1.00  0.00     0.226 A 
ATOM      6  N   UNL     1      21.738  -7.823 -19.905  1.00  0.00    -0.217 NA
ATOM      7  C   UNL     1      21.041  -8.216 -18.798  1.00  0.00     0.152 A 
ATOM      8  C   UNL     1      20.566  -9.524 -18.770  1.00  0.00     0.127 A 
ATOM      9  N   UNL     1      19.864 -10.176 -17.835  1.00  0.00    -0.340 N 
ATOM     10  H   UNL     1      19.522  -9.826 -16.913  1.00  0.00     0.168 HD
ENDROOT
BRANCH   7  11
ATOM     11  N   UNL     1      20.819  -7.303 -17.723  1.00  0.00    -0.382 N 
ATOM     12  H   UNL     1      21.190  -6.328 -17.751  1.00  0.00     0.158 HD
ATOM     13  H   UNL     1      20.274  -7.605 -16.885  1.00  0.00     0.158 HD
ENDBRANCH   7  11
TORSDOF 1
ENDMDL
