MODEL 1
REMARK VINA RESULT:    -4.647      0.000      0.000
REMARK INTER + INTRA:          -7.025
REMARK INTER:                  -7.092
REMARK INTRA:                   0.067
REMARK UNBOUND:                 0.067
REMARK SMILES CC1=CCC[C@H](C)C(=O)C[C@@H](C(C)C)C(=O)C1
REMARK SMILES IDX 8 1 9 2 6 3 7 4 5 5 4 6 3 7 2 8 1 9 10 11 11 12 15 13 16 14
REMARK SMILES IDX 17 15 12 17 13 18 14 19
REMARK H PARENT
REMARK Flexibility Score: 70.00
ROOT
ATOM      1  C   UNL     1     -13.103 -19.520  29.258  1.00  0.00     0.136 C 
ATOM      2  O   UNL     1     -13.342 -20.596  28.729  1.00  0.00    -0.299 OA
ENDROOT
BRANCH   1   3
ATOM      3  C   UNL     1     -12.348 -19.484  30.573  1.00  0.00     0.053 C 
ATOM      4  C   UNL     1     -12.578 -20.795  31.332  1.00  0.00     0.016 C 
BRANCH   3   5
ATOM      5  C   UNL     1     -10.837 -19.245  30.362  1.00  0.00     0.015 C 
BRANCH   5   6
ATOM      6  C   UNL     1     -10.140 -18.500  31.515  1.00  0.00     0.028 C 
BRANCH   6   7
ATOM      7  C   UNL     1     -11.039 -17.528  32.242  1.00  0.00    -0.028 C 
ATOM      8  C   UNL     1     -11.495 -16.325  31.805  1.00  0.00    -0.070 CG0
ATOM      9  C   UNL     1     -12.303 -15.509  32.787  1.00  0.00     0.039 C 
ATOM     10  G   UNL     1     -11.333 -15.776  30.391  1.00  0.00     0.000 G0
ENDBRANCH   6   7
ENDBRANCH   5   6
ENDBRANCH   3   5
ENDBRANCH   1   3
BRANCH   1  11
ATOM     11  C   UNL     1     -13.597 -18.256  28.602  1.00  0.00     0.087 C 
BRANCH  11  12
ATOM     12  C   UNL     1     -12.467 -17.204  28.416  1.00  0.00     0.066 C 
BRANCH  12  13
ATOM     13  C   UNL     1     -12.480 -16.066  29.436  1.00  0.00     0.140 C 
ATOM     14  O   UNL     1     -13.510 -15.418  29.565  1.00  0.00    -0.299 OA
BRANCH  13  15
ATOM     15  C   UNL     1     -11.338 -15.779  30.381  1.00  0.00     0.106 CG0
ATOM     16  G   UNL     1     -11.514 -16.327  31.794  1.00  0.00     0.000 G0
ENDBRANCH  13  15
ENDBRANCH  12  13
BRANCH  12  17
ATOM     17  C   UNL     1     -12.393 -16.627  26.968  1.00  0.00    -0.006 C 
ATOM     18  C   UNL     1     -13.755 -16.573  26.259  1.00  0.00     0.008 C 
ATOM     19  C   UNL     1     -11.373 -17.378  26.097  1.00  0.00     0.008 C 
ENDBRANCH  12  17
ENDBRANCH  11  12
ENDBRANCH   1  11
TORSDOF 1
ENDMDL
MODEL 2
REMARK VINA RESULT:    -4.643      2.110      3.552
REMARK INTER + INTRA:          -7.019
REMARK INTER:                  -7.004
REMARK INTRA:                  -0.015
REMARK UNBOUND:                 0.067
REMARK SMILES CC1=CCC[C@H](C)C(=O)C[C@@H](C(C)C)C(=O)C1
REMARK SMILES IDX 8 1 9 2 6 3 7 4 5 5 4 6 3 7 2 8 1 9 10 11 11 12 15 13 16 14
REMARK SMILES IDX 17 15 12 17 13 18 14 19
REMARK H PARENT
REMARK Flexibility Score: 70.00
ROOT
ATOM      1  C   UNL     1     -12.994 -16.438  31.499  1.00  0.00     0.136 C 
ATOM      2  O   UNL     1     -13.960 -16.953  32.045  1.00  0.00    -0.299 OA
ENDROOT
BRANCH   1   3
ATOM      3  C   UNL     1     -11.595 -16.798  31.958  1.00  0.00     0.053 C 
ATOM      4  C   UNL     1     -11.225 -15.954  33.182  1.00  0.00     0.016 C 
BRANCH   3   5
ATOM      5  C   UNL     1     -11.466 -18.301  32.283  1.00  0.00     0.015 C 
BRANCH   5   6
ATOM      6  C   UNL     1     -11.052 -19.181  31.090  1.00  0.00     0.028 C 
BRANCH   6   7
ATOM      7  C   UNL     1     -12.216 -19.655  30.252  1.00  0.00    -0.028 C 
ATOM      8  C   UNL     1     -12.606 -19.203  29.031  1.00  0.00    -0.070 CG0
ATOM      9  C   UNL     1     -13.876 -19.793  28.464  1.00  0.00     0.039 C 
ATOM     10  G   UNL     1     -11.826 -18.225  28.158  1.00  0.00     0.000 G0
ENDBRANCH   6   7
ENDBRANCH   5   6
ENDBRANCH   3   5
ENDBRANCH   1   3
BRANCH   1  11
ATOM     11  C   UNL     1     -13.226 -15.429  30.402  1.00  0.00     0.087 C 
BRANCH  11  12
ATOM     12  C   UNL     1     -13.213 -16.077  28.989  1.00  0.00     0.066 C 
BRANCH  12  13
ATOM     13  C   UNL     1     -11.905 -16.778  28.620  1.00  0.00     0.140 C 
ATOM     14  O   UNL     1     -10.856 -16.177  28.808  1.00  0.00    -0.299 OA
BRANCH  13  15
ATOM     15  C   UNL     1     -11.829 -18.213  28.157  1.00  0.00     0.106 CG0
ATOM     16  G   UNL     1     -12.601 -19.211  29.015  1.00  0.00     0.000 G0
ENDBRANCH  13  15
ENDBRANCH  12  13
BRANCH  12  17
ATOM     17  C   UNL     1     -13.633 -15.093  27.854  1.00  0.00    -0.006 C 
ATOM     18  C   UNL     1     -14.663 -14.043  28.302  1.00  0.00     0.008 C 
ATOM     19  C   UNL     1     -14.143 -15.832  26.606  1.00  0.00     0.008 C 
ENDBRANCH  12  17
ENDBRANCH  11  12
ENDBRANCH   1  11
TORSDOF 1
ENDMDL
MODEL 3
REMARK VINA RESULT:    -4.457      2.079      3.692
REMARK INTER + INTRA:          -6.735
REMARK INTER:                  -7.538
REMARK INTRA:                   0.803
REMARK UNBOUND:                 0.067
REMARK SMILES CC1=CCC[C@H](C)C(=O)C[C@@H](C(C)C)C(=O)C1
REMARK SMILES IDX 8 1 9 2 6 3 7 4 5 5 4 6 3 7 2 8 1 9 10 11 11 12 15 13 16 14
REMARK SMILES IDX 17 15 12 17 13 18 14 19
REMARK H PARENT
REMARK Flexibility Score: 70.00
ROOT
ATOM      1  C   UNL     1     -10.682 -16.779  30.745  1.00  0.00     0.136 C 
ATOM      2  O   UNL     1      -9.875 -17.662  30.487  1.00  0.00    -0.299 OA
ENDROOT
BRANCH   1   3
ATOM      3  C   UNL     1     -11.188 -16.620  32.165  1.00  0.00     0.053 C 
ATOM      4  C   UNL     1     -10.252 -15.688  32.941  1.00  0.00     0.016 C 
BRANCH   3   5
ATOM      5  C   UNL     1     -12.634 -16.081  32.203  1.00  0.00     0.015 C 
BRANCH   5   6
ATOM      6  C   UNL     1     -13.723 -17.160  32.055  1.00  0.00     0.028 C 
BRANCH   6   7
ATOM      7  C   UNL     1     -13.175 -18.556  31.877  1.00  0.00    -0.028 C 
ATOM      8  C   UNL     1     -13.166 -19.313  30.749  1.00  0.00    -0.070 CG0
ATOM      9  C   UNL     1     -12.641 -20.724  30.883  1.00  0.00     0.039 C 
ATOM     10  G   UNL     1     -13.557 -18.831  29.356  1.00  0.00     0.000 G0
ENDBRANCH   6   7
ENDBRANCH   5   6
ENDBRANCH   3   5
ENDBRANCH   1   3
BRANCH   1  11
ATOM     11  C   UNL     1     -11.176 -15.892  29.630  1.00  0.00     0.087 C 
BRANCH  11  12
ATOM     12  C   UNL     1     -12.539 -16.368  29.055  1.00  0.00     0.066 C 
BRANCH  12  13
ATOM     13  C   UNL     1     -12.599 -17.854  28.698  1.00  0.00     0.140 C 
ATOM     14  O   UNL     1     -11.762 -18.294  27.921  1.00  0.00    -0.299 OA
BRANCH  13  15
ATOM     15  C   UNL     1     -13.549 -18.830  29.348  1.00  0.00     0.106 CG0
ATOM     16  G   UNL     1     -13.145 -19.294  30.745  1.00  0.00     0.000 G0
ENDBRANCH  13  15
ENDBRANCH  12  13
BRANCH  12  17
ATOM     17  C   UNL     1     -13.037 -15.507  27.852  1.00  0.00    -0.006 C 
ATOM     18  C   UNL     1     -14.017 -14.395  28.258  1.00  0.00     0.008 C 
ATOM     19  C   UNL     1     -13.650 -16.371  26.737  1.00  0.00     0.008 C 
ENDBRANCH  12  17
ENDBRANCH  11  12
ENDBRANCH   1  11
TORSDOF 1
ENDMDL
MODEL 4
REMARK VINA RESULT:    -4.429      1.972      4.944
REMARK INTER + INTRA:          -6.693
REMARK INTER:                  -7.654
REMARK INTRA:                   0.961
REMARK UNBOUND:                 0.067
REMARK SMILES CC1=CCC[C@H](C)C(=O)C[C@@H](C(C)C)C(=O)C1
REMARK SMILES IDX 8 1 9 2 6 3 7 4 5 5 4 6 3 7 2 8 1 9 10 11 11 12 15 13 16 14
REMARK SMILES IDX 17 15 12 17 13 18 14 19
REMARK H PARENT
REMARK Flexibility Score: 70.00
ROOT
ATOM      1  C   UNL     1     -13.727 -15.340  30.577  1.00  0.00     0.136 C 
ATOM      2  O   UNL     1     -14.476 -14.381  30.699  1.00  0.00    -0.299 OA
ENDROOT
BRANCH   1   3
ATOM      3  C   UNL     1     -13.277 -15.767  29.192  1.00  0.00     0.053 C 
ATOM      4  C   UNL     1     -13.741 -14.732  28.162  1.00  0.00     0.016 C 
BRANCH   3   5
ATOM      5  C   UNL     1     -11.747 -15.950  29.116  1.00  0.00     0.015 C 
BRANCH   5   6
ATOM      6  C   UNL     1     -11.287 -17.140  28.253  1.00  0.00     0.028 C 
BRANCH   6   7
ATOM      7  C   UNL     1     -12.349 -18.198  28.062  1.00  0.00    -0.028 C 
ATOM      8  C   UNL     1     -12.641 -19.245  28.876  1.00  0.00    -0.070 CG0
ATOM      9  C   UNL     1     -13.693 -20.212  28.386  1.00  0.00     0.039 C 
ATOM     10  G   UNL     1     -12.064 -19.472  30.270  1.00  0.00     0.000 G0
ENDBRANCH   6   7
ENDBRANCH   5   6
ENDBRANCH   3   5
ENDBRANCH   1   3
BRANCH   1  11
ATOM     11  C   UNL     1     -13.296 -16.093  31.809  1.00  0.00     0.087 C 
BRANCH  11  12
ATOM     12  C   UNL     1     -12.155 -17.107  31.515  1.00  0.00     0.066 C 
BRANCH  12  13
ATOM     13  C   UNL     1     -12.614 -18.555  31.346  1.00  0.00     0.140 C 
ATOM     14  O   UNL     1     -13.541 -18.951  32.040  1.00  0.00    -0.299 OA
BRANCH  13  15
ATOM     15  C   UNL     1     -12.075 -19.482  30.283  1.00  0.00     0.106 CG0
ATOM     16  G   UNL     1     -12.621 -19.243  28.879  1.00  0.00     0.000 G0
ENDBRANCH  13  15
ENDBRANCH  12  13
BRANCH  12  17
ATOM     17  C   UNL     1     -10.983 -17.033  32.543  1.00  0.00    -0.006 C 
ATOM     18  C   UNL     1     -10.206 -15.708  32.493  1.00  0.00     0.008 C 
ATOM     19  C   UNL     1     -10.014 -18.219  32.403  1.00  0.00     0.008 C 
ENDBRANCH  12  17
ENDBRANCH  11  12
ENDBRANCH   1  11
TORSDOF 1
ENDMDL
MODEL 5
REMARK VINA RESULT:    -4.326      1.910      4.193
REMARK INTER + INTRA:          -6.534
REMARK INTER:                  -7.228
REMARK INTRA:                   0.693
REMARK UNBOUND:                 0.067
REMARK SMILES CC1=CCC[C@H](C)C(=O)C[C@@H](C(C)C)C(=O)C1
REMARK SMILES IDX 8 1 9 2 6 3 7 4 5 5 4 6 3 7 2 8 1 9 10 11 11 12 15 13 16 14
REMARK SMILES IDX 17 15 12 17 13 18 14 19
REMARK H PARENT
REMARK Flexibility Score: 70.00
ROOT
ATOM      1  C   UNL     1     -12.794 -16.208  28.626  1.00  0.00     0.136 C 
ATOM      2  O   UNL     1     -12.921 -15.078  28.176  1.00  0.00    -0.299 OA
ENDROOT
BRANCH   1   3
ATOM      3  C   UNL     1     -11.970 -17.229  27.864  1.00  0.00     0.053 C 
ATOM      4  C   UNL     1     -12.197 -17.049  26.360  1.00  0.00     0.016 C 
BRANCH   3   5
ATOM      5  C   UNL     1     -10.467 -17.118  28.197  1.00  0.00     0.015 C 
BRANCH   5   6
ATOM      6  C   UNL     1     -10.045 -17.830  29.494  1.00  0.00     0.028 C 
BRANCH   6   7
ATOM      7  C   UNL     1     -11.012 -18.899  29.943  1.00  0.00    -0.028 C 
ATOM      8  C   UNL     1     -11.642 -19.007  31.143  1.00  0.00    -0.070 CG0
ATOM      9  C   UNL     1     -12.485 -20.242  31.358  1.00  0.00     0.039 C 
ATOM     10  G   UNL     1     -11.636 -17.951  32.244  1.00  0.00     0.000 G0
ENDBRANCH   6   7
ENDBRANCH   5   6
ENDBRANCH   3   5
ENDBRANCH   1   3
BRANCH   1  11
ATOM     11  C   UNL     1     -13.492 -16.565  29.914  1.00  0.00     0.087 C 
BRANCH  11  12
ATOM     12  C   UNL     1     -12.882 -15.831  31.140  1.00  0.00     0.066 C 
BRANCH  12  13
ATOM     13  C   UNL     1     -11.660 -16.515  31.753  1.00  0.00     0.140 C 
ATOM     14  O   UNL     1     -10.661 -15.838  31.956  1.00  0.00    -0.299 OA
BRANCH  13  15
ATOM     15  C   UNL     1     -11.661 -17.945  32.238  1.00  0.00     0.106 CG0
ATOM     16  G   UNL     1     -11.644 -19.002  31.138  1.00  0.00     0.000 G0
ENDBRANCH  13  15
ENDBRANCH  12  13
BRANCH  12  17
ATOM     17  C   UNL     1     -13.930 -15.509  32.251  1.00  0.00    -0.006 C 
ATOM     18  C   UNL     1     -14.684 -16.748  32.760  1.00  0.00     0.008 C 
ATOM     19  C   UNL     1     -14.930 -14.428  31.808  1.00  0.00     0.008 C 
ENDBRANCH  12  17
ENDBRANCH  11  12
ENDBRANCH   1  11
TORSDOF 1
ENDMDL
MODEL 6
REMARK VINA RESULT:    -4.245      2.119      4.119
REMARK INTER + INTRA:          -6.411
REMARK INTER:                  -5.980
REMARK INTRA:                  -0.431
REMARK UNBOUND:                 0.067
REMARK SMILES CC1=CCC[C@H](C)C(=O)C[C@@H](C(C)C)C(=O)C1
REMARK SMILES IDX 8 1 9 2 6 3 7 4 5 5 4 6 3 7 2 8 1 9 10 11 11 12 15 13 16 14
REMARK SMILES IDX 17 15 12 17 13 18 14 19
REMARK H PARENT
REMARK Flexibility Score: 70.00
ROOT
ATOM      1  C   UNL     1     -13.162 -18.129  31.481  1.00  0.00     0.136 C 
ATOM      2  O   UNL     1     -14.051 -18.296  32.304  1.00  0.00    -0.299 OA
ENDROOT
BRANCH   1   3
ATOM      3  C   UNL     1     -12.590 -19.325  30.745  1.00  0.00     0.053 C 
ATOM      4  C   UNL     1     -12.070 -20.350  31.759  1.00  0.00     0.016 C 
BRANCH   3   5
ATOM      5  C   UNL     1     -13.631 -19.977  29.810  1.00  0.00     0.015 C 
BRANCH   5   6
ATOM      6  C   UNL     1     -13.990 -19.138  28.570  1.00  0.00     0.028 C 
BRANCH   6   7
ATOM      7  C   UNL     1     -12.791 -18.713  27.755  1.00  0.00    -0.028 C 
ATOM      8  C   UNL     1     -12.503 -17.475  27.277  1.00  0.00    -0.070 CG0
ATOM      9  C   UNL     1     -11.278 -17.355  26.400  1.00  0.00     0.039 C 
ATOM     10  G   UNL     1     -13.257 -16.194  27.621  1.00  0.00     0.000 G0
ENDBRANCH   6   7
ENDBRANCH   5   6
ENDBRANCH   3   5
ENDBRANCH   1   3
BRANCH   1  11
ATOM     11  C   UNL     1     -12.634 -16.736  31.246  1.00  0.00     0.087 C 
BRANCH  11  12
ATOM     12  C   UNL     1     -13.532 -15.920  30.275  1.00  0.00     0.066 C 
BRANCH  12  13
ATOM     13  C   UNL     1     -12.873 -15.561  28.943  1.00  0.00     0.140 C 
ATOM     14  O   UNL     1     -11.917 -14.798  28.960  1.00  0.00    -0.299 OA
BRANCH  13  15
ATOM     15  C   UNL     1     -13.254 -16.195  27.627  1.00  0.00     0.106 CG0
ATOM     16  G   UNL     1     -12.486 -17.465  27.274  1.00  0.00     0.000 G0
ENDBRANCH  13  15
ENDBRANCH  12  13
BRANCH  12  17
ATOM     17  C   UNL     1     -14.149 -14.644  30.929  1.00  0.00    -0.006 C 
ATOM     18  C   UNL     1     -14.748 -14.897  32.322  1.00  0.00     0.008 C 
ATOM     19  C   UNL     1     -15.192 -13.973  30.020  1.00  0.00     0.008 C 
ENDBRANCH  12  17
ENDBRANCH  11  12
ENDBRANCH   1  11
TORSDOF 1
ENDMDL
MODEL 7
REMARK VINA RESULT:    -4.210      2.206      4.166
REMARK INTER + INTRA:          -6.358
REMARK INTER:                  -6.918
REMARK INTRA:                   0.560
REMARK UNBOUND:                 0.067
REMARK SMILES CC1=CCC[C@H](C)C(=O)C[C@@H](C(C)C)C(=O)C1
REMARK SMILES IDX 8 1 9 2 6 3 7 4 5 5 4 6 3 7 2 8 1 9 10 11 11 12 15 13 16 14
REMARK SMILES IDX 17 15 12 17 13 18 14 19
REMARK H PARENT
REMARK Flexibility Score: 70.00
ROOT
ATOM      1  C   UNL     1     -10.967 -16.795  29.134  1.00  0.00     0.136 C 
ATOM      2  O   UNL     1     -10.001 -16.179  29.561  1.00  0.00    -0.299 OA
ENDROOT
BRANCH   1   3
ATOM      3  C   UNL     1     -11.841 -16.169  28.064  1.00  0.00     0.053 C 
ATOM      4  C   UNL     1     -12.710 -17.251  27.416  1.00  0.00     0.016 C 
BRANCH   3   5
ATOM      5  C   UNL     1     -12.725 -15.039  28.632  1.00  0.00     0.015 C 
BRANCH   5   6
ATOM      6  C   UNL     1     -13.957 -15.525  29.418  1.00  0.00     0.028 C 
BRANCH   6   7
ATOM      7  C   UNL     1     -14.140 -14.833  30.749  1.00  0.00    -0.028 C 
ATOM      8  C   UNL     1     -14.248 -15.402  31.978  1.00  0.00    -0.070 CG0
ATOM      9  C   UNL     1     -14.528 -14.470  33.134  1.00  0.00     0.039 C 
ATOM     10  G   UNL     1     -14.024 -16.877  32.295  1.00  0.00     0.000 G0
ENDBRANCH   6   7
ENDBRANCH   5   6
ENDBRANCH   3   5
ENDBRANCH   1   3
BRANCH   1  11
ATOM     11  C   UNL     1     -11.283 -18.152  29.711  1.00  0.00     0.087 C 
BRANCH  11  12
ATOM     12  C   UNL     1     -12.681 -18.196  30.389  1.00  0.00     0.066 C 
BRANCH  12  13
ATOM     13  C   UNL     1     -12.761 -17.476  31.736  1.00  0.00     0.140 C 
ATOM     14  O   UNL     1     -11.719 -17.274  32.345  1.00  0.00    -0.299 OA
BRANCH  13  15
ATOM     15  C   UNL     1     -14.036 -16.890  32.293  1.00  0.00     0.106 CG0
ATOM     16  G   UNL     1     -14.255 -15.411  31.989  1.00  0.00     0.000 G0
ENDBRANCH  13  15
ENDBRANCH  12  13
BRANCH  12  17
ATOM     17  C   UNL     1     -13.260 -19.639  30.517  1.00  0.00    -0.006 C 
ATOM     18  C   UNL     1     -12.491 -20.523  31.513  1.00  0.00     0.008 C 
ATOM     19  C   UNL     1     -13.361 -20.345  29.155  1.00  0.00     0.008 C 
ENDBRANCH  12  17
ENDBRANCH  11  12
ENDBRANCH   1  11
TORSDOF 1
ENDMDL
MODEL 8
REMARK VINA RESULT:    -4.045      2.096      3.776
REMARK INTER + INTRA:          -6.107
REMARK INTER:                  -7.497
REMARK INTRA:                   1.391
REMARK UNBOUND:                 0.067
REMARK SMILES CC1=CCC[C@H](C)C(=O)C[C@@H](C(C)C)C(=O)C1
REMARK SMILES IDX 8 1 9 2 6 3 7 4 5 5 4 6 3 7 2 8 1 9 10 11 11 12 15 13 16 14
REMARK SMILES IDX 17 15 12 17 13 18 14 19
REMARK H PARENT
REMARK Flexibility Score: 70.00
ROOT
ATOM      1  C   UNL     1     -12.302 -15.893  30.881  1.00  0.00     0.136 C 
ATOM      2  O   UNL     1     -11.189 -16.285  31.204  1.00  0.00    -0.299 OA
ENDROOT
BRANCH   1   3
ATOM      3  C   UNL     1     -13.399 -15.810  31.924  1.00  0.00     0.053 C 
ATOM      4  C   UNL     1     -14.459 -14.801  31.474  1.00  0.00     0.016 C 
BRANCH   3   5
ATOM      5  C   UNL     1     -14.047 -17.186  32.188  1.00  0.00     0.015 C 
BRANCH   5   6
ATOM      6  C   UNL     1     -13.116 -18.388  31.943  1.00  0.00     0.028 C 
BRANCH   6   7
ATOM      7  C   UNL     1     -13.557 -19.276  30.803  1.00  0.00    -0.028 C 
ATOM      8  C   UNL     1     -12.902 -19.529  29.640  1.00  0.00    -0.070 CG0
ATOM      9  C   UNL     1     -13.627 -20.383  28.625  1.00  0.00     0.039 C 
ATOM     10  G   UNL     1     -11.474 -19.101  29.315  1.00  0.00     0.000 G0
ENDBRANCH   6   7
ENDBRANCH   5   6
ENDBRANCH   3   5
ENDBRANCH   1   3
BRANCH   1  11
ATOM     11  C   UNL     1     -12.560 -15.533  29.439  1.00  0.00     0.087 C 
BRANCH  11  12
ATOM     12  C   UNL     1     -12.498 -16.770  28.500  1.00  0.00     0.066 C 
BRANCH  12  13
ATOM     13  C   UNL     1     -11.322 -17.711  28.760  1.00  0.00     0.140 C 
ATOM     14  O   UNL     1     -10.189 -17.274  28.611  1.00  0.00    -0.299 OA
BRANCH  13  15
ATOM     15  C   UNL     1     -11.478 -19.108  29.310  1.00  0.00     0.106 CG0
ATOM     16  G   UNL     1     -12.912 -19.525  29.622  1.00  0.00     0.000 G0
ENDBRANCH  13  15
ENDBRANCH  12  13
BRANCH  12  17
ATOM     17  C   UNL     1     -12.565 -16.399  26.986  1.00  0.00    -0.006 C 
ATOM     18  C   UNL     1     -13.999 -16.277  26.447  1.00  0.00     0.008 C 
ATOM     19  C   UNL     1     -11.756 -17.375  26.115  1.00  0.00     0.008 C 
ENDBRANCH  12  17
ENDBRANCH  11  12
ENDBRANCH   1  11
TORSDOF 1
ENDMDL
MODEL 9
REMARK VINA RESULT:    -3.996      1.940      4.531
REMARK INTER + INTRA:          -6.032
REMARK INTER:                  -6.286
REMARK INTRA:                   0.255
REMARK UNBOUND:                 0.067
REMARK SMILES CC1=CCC[C@H](C)C(=O)C[C@@H](C(C)C)C(=O)C1
REMARK SMILES IDX 8 1 9 2 6 3 7 4 5 5 4 6 3 7 2 8 1 9 10 11 11 12 15 13 16 14
REMARK SMILES IDX 17 15 12 17 13 18 14 19
REMARK H PARENT
REMARK Flexibility Score: 70.00
ROOT
ATOM      1  C   UNL     1     -11.578 -16.604  28.232  1.00  0.00     0.136 C 
ATOM      2  O   UNL     1     -10.732 -16.791  27.368  1.00  0.00    -0.299 OA
ENDROOT
BRANCH   1   3
ATOM      3  C   UNL     1     -13.034 -16.898  27.929  1.00  0.00     0.053 C 
ATOM      4  C   UNL     1     -13.455 -16.149  26.661  1.00  0.00     0.016 C 
BRANCH   3   5
ATOM      5  C   UNL     1     -13.294 -18.411  27.769  1.00  0.00     0.015 C 
BRANCH   5   6
ATOM      6  C   UNL     1     -14.276 -19.004  28.796  1.00  0.00     0.028 C 
BRANCH   6   7
ATOM      7  C   UNL     1     -13.615 -19.883  29.832  1.00  0.00    -0.028 C 
ATOM      8  C   UNL     1     -13.232 -19.547  31.091  1.00  0.00    -0.070 CG0
ATOM      9  C   UNL     1     -12.497 -20.605  31.881  1.00  0.00     0.039 C 
ATOM     10  G   UNL     1     -13.556 -18.233  31.796  1.00  0.00     0.000 G0
ENDBRANCH   6   7
ENDBRANCH   5   6
ENDBRANCH   3   5
ENDBRANCH   1   3
BRANCH   1  11
ATOM     11  C   UNL     1     -11.149 -16.052  29.568  1.00  0.00     0.087 C 
BRANCH  11  12
ATOM     12  C   UNL     1     -11.410 -17.049  30.731  1.00  0.00     0.066 C 
BRANCH  12  13
ATOM     13  C   UNL     1     -12.832 -17.020  31.291  1.00  0.00     0.140 C 
ATOM     14  O   UNL     1     -13.460 -15.972  31.216  1.00  0.00    -0.299 OA
BRANCH  13  15
ATOM     15  C   UNL     1     -13.548 -18.242  31.813  1.00  0.00     0.106 CG0
ATOM     16  G   UNL     1     -13.222 -19.543  31.085  1.00  0.00     0.000 G0
ENDBRANCH  13  15
ENDBRANCH  12  13
BRANCH  12  17
ATOM     17  C   UNL     1     -10.374 -16.928  31.892  1.00  0.00    -0.006 C 
ATOM     18  C   UNL     1     -10.023 -18.275  32.544  1.00  0.00     0.008 C 
ATOM     19  C   UNL     1     -10.822 -15.923  32.966  1.00  0.00     0.008 C 
ENDBRANCH  12  17
ENDBRANCH  11  12
ENDBRANCH   1  11
TORSDOF 1
ENDMDL
