MODEL 1
REMARK VINA RESULT:    -3.696      0.000      0.000
REMARK INTER + INTRA:          -4.891
REMARK INTER:                  -5.209
REMARK INTRA:                   0.318
REMARK UNBOUND:                 0.318
REMARK SMILES CC1=CCC(=C(C)C)C(=O)CC(C)=CCC1
REMARK SMILES IDX 12 1 14 2 13 3 15 4 16 5 2 6 1 7 3 8 11 10 9 11 10 12 5 13
REMARK SMILES IDX 6 14 7 15 8 16 4 17
REMARK H PARENT
REMARK Flexibility Score: 60.00
ROOT
ATOM      1  C   UNL     1     -10.336  -8.016  15.833  1.00  0.00    -0.070 C 
ATOM      2  C   UNL     1      -9.321  -8.877  16.077  1.00  0.00    -0.027 C 
ATOM      3  C   UNL     1     -11.640  -8.599  15.344  1.00  0.00     0.039 C 
ENDROOT
BRANCH   2   4
ATOM      4  C   UNL     1      -7.909  -8.507  16.467  1.00  0.00     0.032 C 
BRANCH   4   5
ATOM      5  C   UNL     1      -7.793  -8.097  17.947  1.00  0.00     0.034 C 
BRANCH   5   6
ATOM      6  C   UNL     1      -7.175  -6.722  18.112  1.00  0.00    -0.077 C 
ATOM      7  C   UNL     1      -5.760  -6.510  17.635  1.00  0.00     0.039 C 
ATOM      8  C   UNL     1      -7.830  -5.664  18.641  1.00  0.00    -0.023 CG0
ATOM      9  G   UNL     1      -9.255  -5.668  19.141  1.00  0.00     0.000 G0
ENDBRANCH   5   6
ENDBRANCH   4   5
ENDBRANCH   2   4
BRANCH   1  10
ATOM     10  C   UNL     1     -10.213  -6.506  15.960  1.00  0.00     0.111 C 
BRANCH  10  11
ATOM     11  C   UNL     1     -10.894  -5.997  17.206  1.00  0.00     0.163 C 
ATOM     12  O   UNL     1     -12.052  -6.422  17.466  1.00  0.00    -0.294 OA
BRANCH  11  13
ATOM     13  C   UNL     1     -10.216  -5.055  18.150  1.00  0.00    -0.002 C 
ATOM     14  C   UNL     1     -10.394  -3.701  18.067  1.00  0.00    -0.069 C 
ATOM     15  C   UNL     1     -11.229  -3.078  16.971  1.00  0.00     0.039 C 
ATOM     16  C   UNL     1      -9.735  -2.758  19.050  1.00  0.00     0.039 C 
BRANCH  13  17
ATOM     17  C   UNL     1      -9.258  -5.661  19.160  1.00  0.00     0.066 CG0
ATOM     18  G   UNL     1      -7.853  -5.641  18.609  1.00  0.00     0.000 G0
ENDBRANCH  13  17
ENDBRANCH  11  13
ENDBRANCH  10  11
ENDBRANCH   1  10
TORSDOF 0
ENDMDL
MODEL 2
REMARK VINA RESULT:    -3.630      1.996      5.137
REMARK INTER + INTRA:          -4.797
REMARK INTER:                  -5.145
REMARK INTRA:                   0.348
REMARK UNBOUND:                 0.318
REMARK SMILES CC1=CCC(=C(C)C)C(=O)CC(C)=CCC1
REMARK SMILES IDX 12 1 14 2 13 3 15 4 16 5 2 6 1 7 3 8 11 10 9 11 10 12 5 13
REMARK SMILES IDX 6 14 7 15 8 16 4 17
REMARK H PARENT
REMARK Flexibility Score: 60.00
ROOT
ATOM      1  C   UNL     1      -9.956  -4.511  18.356  1.00  0.00    -0.070 C 
ATOM      2  C   UNL     1     -11.071  -4.454  17.588  1.00  0.00    -0.027 C 
ATOM      3  C   UNL     1      -9.355  -3.201  18.805  1.00  0.00     0.039 C 
ENDROOT
BRANCH   2   4
ATOM      4  C   UNL     1     -11.772  -5.626  16.944  1.00  0.00     0.032 C 
BRANCH   4   5
ATOM      5  C   UNL     1     -11.141  -6.026  15.597  1.00  0.00     0.034 C 
BRANCH   5   6
ATOM      6  C   UNL     1     -10.910  -7.521  15.494  1.00  0.00    -0.077 C 
ATOM      7  C   UNL     1     -12.109  -8.420  15.326  1.00  0.00     0.039 C 
ATOM      8  C   UNL     1      -9.687  -8.095  15.518  1.00  0.00    -0.023 CG0
ATOM      9  G   UNL     1      -8.372  -7.364  15.643  1.00  0.00     0.000 G0
ENDBRANCH   5   6
ENDBRANCH   4   5
ENDBRANCH   2   4
BRANCH   1  10
ATOM     10  C   UNL     1      -9.251  -5.804  18.727  1.00  0.00     0.111 C 
BRANCH  10  11
ATOM     11  C   UNL     1      -8.065  -6.065  17.833  1.00  0.00     0.163 C 
ATOM     12  O   UNL     1      -7.174  -5.177  17.753  1.00  0.00    -0.294 OA
BRANCH  11  13
ATOM     13  C   UNL     1      -7.902  -7.355  17.091  1.00  0.00    -0.002 C 
ATOM     14  C   UNL     1      -7.309  -8.445  17.666  1.00  0.00    -0.069 C 
ATOM     15  C   UNL     1      -6.719  -8.384  19.057  1.00  0.00     0.039 C 
ATOM     16  C   UNL     1      -7.183  -9.758  16.923  1.00  0.00     0.039 C 
BRANCH  13  17
ATOM     17  C   UNL     1      -8.357  -7.381  15.643  1.00  0.00     0.066 CG0
ATOM     18  G   UNL     1      -9.683  -8.094  15.537  1.00  0.00     0.000 G0
ENDBRANCH  13  17
ENDBRANCH  11  13
ENDBRANCH  10  11
ENDBRANCH   1  10
TORSDOF 0
ENDMDL
MODEL 3
REMARK VINA RESULT:    -3.562      1.756      4.113
REMARK INTER + INTRA:          -4.701
REMARK INTER:                  -5.122
REMARK INTRA:                   0.421
REMARK UNBOUND:                 0.318
REMARK SMILES CC1=CCC(=C(C)C)C(=O)CC(C)=CCC1
REMARK SMILES IDX 12 1 14 2 13 3 15 4 16 5 2 6 1 7 3 8 11 10 9 11 10 12 5 13
REMARK SMILES IDX 6 14 7 15 8 16 4 17
REMARK H PARENT
REMARK Flexibility Score: 60.00
ROOT
ATOM      1  C   UNL     1      -9.217  -4.961  19.026  1.00  0.00    -0.070 C 
ATOM      2  C   UNL     1      -7.957  -5.231  19.442  1.00  0.00    -0.027 C 
ATOM      3  C   UNL     1      -9.749  -3.571  19.278  1.00  0.00     0.039 C 
ENDROOT
BRANCH   2   4
ATOM      4  C   UNL     1      -7.268  -6.573  19.390  1.00  0.00     0.032 C 
BRANCH   4   5
ATOM      5  C   UNL     1      -6.915  -7.002  17.953  1.00  0.00     0.034 C 
BRANCH   5   6
ATOM      6  C   UNL     1      -7.495  -8.358  17.601  1.00  0.00    -0.077 C 
ATOM      7  C   UNL     1      -7.165  -9.530  18.490  1.00  0.00     0.039 C 
ATOM      8  C   UNL     1      -8.315  -8.573  16.548  1.00  0.00    -0.023 CG0
ATOM      9  G   UNL     1      -8.786  -7.525  15.568  1.00  0.00     0.000 G0
ENDBRANCH   5   6
ENDBRANCH   4   5
ENDBRANCH   2   4
BRANCH   1  10
ATOM     10  C   UNL     1     -10.135  -5.990  18.388  1.00  0.00     0.111 C 
BRANCH  10  11
ATOM     11  C   UNL     1     -10.188  -5.832  16.889  1.00  0.00     0.163 C 
ATOM     12  O   UNL     1     -10.210  -4.665  16.415  1.00  0.00    -0.294 OA
BRANCH  11  13
ATOM     13  C   UNL     1     -10.162  -7.012  15.968  1.00  0.00    -0.002 C 
ATOM     14  C   UNL     1     -11.310  -7.633  15.562  1.00  0.00    -0.069 C 
ATOM     15  C   UNL     1     -12.666  -7.208  16.081  1.00  0.00     0.039 C 
ATOM     16  C   UNL     1     -11.277  -8.801  14.600  1.00  0.00     0.039 C 
BRANCH  13  17
ATOM     17  C   UNL     1      -8.797  -7.538  15.560  1.00  0.00     0.066 CG0
ATOM     18  G   UNL     1      -8.328  -8.570  16.557  1.00  0.00     0.000 G0
ENDBRANCH  13  17
ENDBRANCH  11  13
ENDBRANCH  10  11
ENDBRANCH   1  10
TORSDOF 0
ENDMDL
MODEL 4
REMARK VINA RESULT:    -3.329      2.058      3.731
REMARK INTER + INTRA:          -4.374
REMARK INTER:                  -4.965
REMARK INTRA:                   0.592
REMARK UNBOUND:                 0.318
REMARK SMILES CC1=CCC(=C(C)C)C(=O)CC(C)=CCC1
REMARK SMILES IDX 12 1 14 2 13 3 15 4 16 5 2 6 1 7 3 8 11 10 9 11 10 12 5 13
REMARK SMILES IDX 6 14 7 15 8 16 4 17
REMARK H PARENT
REMARK Flexibility Score: 60.00
ROOT
ATOM      1  C   UNL     1      -6.085  -7.415  18.660  1.00  0.00    -0.070 C 
ATOM      2  C   UNL     1      -6.423  -8.625  18.154  1.00  0.00    -0.027 C 
ATOM      3  C   UNL     1      -4.614  -7.117  18.823  1.00  0.00     0.039 C 
ENDROOT
BRANCH   2   4
ATOM      4  C   UNL     1      -7.823  -9.172  18.005  1.00  0.00     0.032 C 
BRANCH   4   5
ATOM      5  C   UNL     1      -8.175  -9.509  16.544  1.00  0.00     0.034 C 
BRANCH   5   6
ATOM      6  C   UNL     1      -7.915  -8.343  15.609  1.00  0.00    -0.077 C 
ATOM      7  C   UNL     1      -6.960  -8.547  14.460  1.00  0.00     0.039 C 
ATOM      8  C   UNL     1      -8.510  -7.136  15.731  1.00  0.00    -0.023 CG0
ATOM      9  G   UNL     1      -9.516  -6.751  16.790  1.00  0.00     0.000 G0
ENDBRANCH   5   6
ENDBRANCH   4   5
ENDBRANCH   2   4
BRANCH   1  10
ATOM     10  C   UNL     1      -7.096  -6.383  19.129  1.00  0.00     0.111 C 
BRANCH  10  11
ATOM     11  C   UNL     1      -7.584  -5.526  17.988  1.00  0.00     0.163 C 
ATOM     12  O   UNL     1      -6.739  -4.827  17.366  1.00  0.00    -0.294 OA
BRANCH  11  13
ATOM     13  C   UNL     1      -9.016  -5.527  17.553  1.00  0.00    -0.002 C 
ATOM     14  C   UNL     1      -9.869  -4.511  17.884  1.00  0.00    -0.069 C 
ATOM     15  C   UNL     1      -9.431  -3.366  18.769  1.00  0.00     0.039 C 
ATOM     16  C   UNL     1     -11.305  -4.501  17.407  1.00  0.00     0.039 C 
BRANCH  13  17
ATOM     17  C   UNL     1      -9.504  -6.745  16.789  1.00  0.00     0.066 CG0
ATOM     18  G   UNL     1      -8.492  -7.127  15.736  1.00  0.00     0.000 G0
ENDBRANCH  13  17
ENDBRANCH  11  13
ENDBRANCH  10  11
ENDBRANCH   1  10
TORSDOF 0
ENDMDL
MODEL 5
REMARK VINA RESULT:    -3.315      1.761      4.135
REMARK INTER + INTRA:          -4.353
REMARK INTER:                  -4.888
REMARK INTRA:                   0.535
REMARK UNBOUND:                 0.318
REMARK SMILES CC1=CCC(=C(C)C)C(=O)CC(C)=CCC1
REMARK SMILES IDX 12 1 14 2 13 3 15 4 16 5 2 6 1 7 3 8 11 10 9 11 10 12 5 13
REMARK SMILES IDX 6 14 7 15 8 16 4 17
REMARK H PARENT
REMARK Flexibility Score: 60.00
ROOT
ATOM      1  C   UNL     1     -10.107  -6.529  15.726  1.00  0.00    -0.070 C 
ATOM      2  C   UNL     1     -10.806  -5.525  16.306  1.00  0.00    -0.027 C 
ATOM      3  C   UNL     1     -10.045  -6.552  14.218  1.00  0.00     0.039 C 
ENDROOT
BRANCH   2   4
ATOM      4  C   UNL     1     -11.087  -5.367  17.782  1.00  0.00     0.032 C 
BRANCH   4   5
ATOM      5  C   UNL     1     -10.166  -4.330  18.452  1.00  0.00     0.034 C 
BRANCH   5   6
ATOM      6  C   UNL     1      -9.421  -4.909  19.639  1.00  0.00    -0.077 C 
ATOM      7  C   UNL     1     -10.094  -4.881  20.988  1.00  0.00     0.039 C 
ATOM      8  C   UNL     1      -8.196  -5.473  19.554  1.00  0.00    -0.023 CG0
ATOM      9  G   UNL     1      -7.380  -5.626  18.292  1.00  0.00     0.000 G0
ENDBRANCH   5   6
ENDBRANCH   4   5
ENDBRANCH   2   4
BRANCH   1  10
ATOM     10  C   UNL     1      -9.447  -7.656  16.502  1.00  0.00     0.111 C 
BRANCH  10  11
ATOM     11  C   UNL     1      -7.955  -7.459  16.605  1.00  0.00     0.163 C 
ATOM     12  O   UNL     1      -7.267  -7.571  15.555  1.00  0.00    -0.294 OA
BRANCH  11  13
ATOM     13  C   UNL     1      -7.293  -7.089  17.895  1.00  0.00    -0.002 C 
ATOM     14  C   UNL     1      -6.717  -8.030  18.704  1.00  0.00    -0.069 C 
ATOM     15  C   UNL     1      -6.781  -9.504  18.375  1.00  0.00     0.039 C 
ATOM     16  C   UNL     1      -6.015  -7.642  19.988  1.00  0.00     0.039 C 
BRANCH  13  17
ATOM     17  C   UNL     1      -7.353  -5.629  18.308  1.00  0.00     0.066 CG0
ATOM     18  G   UNL     1      -8.195  -5.483  19.553  1.00  0.00     0.000 G0
ENDBRANCH  13  17
ENDBRANCH  11  13
ENDBRANCH  10  11
ENDBRANCH   1  10
TORSDOF 0
ENDMDL
MODEL 6
REMARK VINA RESULT:    -3.287     19.921     21.602
REMARK INTER + INTRA:          -4.314
REMARK INTER:                  -4.901
REMARK INTRA:                   0.588
REMARK UNBOUND:                 0.318
REMARK SMILES CC1=CCC(=C(C)C)C(=O)CC(C)=CCC1
REMARK SMILES IDX 12 1 14 2 13 3 15 4 16 5 2 6 1 7 3 8 11 10 9 11 10 12 5 13
REMARK SMILES IDX 6 14 7 15 8 16 4 17
REMARK H PARENT
REMARK Flexibility Score: 60.00
ROOT
ATOM      1  C   UNL     1       2.590   4.005  29.813  1.00  0.00    -0.070 C 
ATOM      2  C   UNL     1       3.829   3.528  29.548  1.00  0.00    -0.027 C 
ATOM      3  C   UNL     1       1.945   3.582  31.111  1.00  0.00     0.039 C 
ENDROOT
BRANCH   2   4
ATOM      4  C   UNL     1       4.612   3.733  28.272  1.00  0.00     0.032 C 
BRANCH   4   5
ATOM      5  C   UNL     1       4.974   5.210  28.032  1.00  0.00     0.034 C 
BRANCH   5   6
ATOM      6  C   UNL     1       5.563   5.864  29.267  1.00  0.00    -0.077 C 
ATOM      7  C   UNL     1       6.887   5.359  29.781  1.00  0.00     0.039 C 
ATOM      8  C   UNL     1       4.980   6.894  29.921  1.00  0.00    -0.023 CG0
ATOM      9  G   UNL     1       3.678   7.557  29.541  1.00  0.00     0.000 G0
ENDBRANCH   5   6
ENDBRANCH   4   5
ENDBRANCH   2   4
BRANCH   1  10
ATOM     10  C   UNL     1       1.797   4.877  28.854  1.00  0.00     0.111 C 
BRANCH  10  11
ATOM     11  C   UNL     1       1.496   6.228  29.452  1.00  0.00     0.163 C 
ATOM     12  O   UNL     1       0.346   6.712  29.279  1.00  0.00    -0.294 OA
BRANCH  11  13
ATOM     13  C   UNL     1       2.501   6.970  30.277  1.00  0.00    -0.002 C 
ATOM     14  C   UNL     1       2.339   7.145  31.623  1.00  0.00    -0.069 C 
ATOM     15  C   UNL     1       1.098   6.663  32.340  1.00  0.00     0.039 C 
ATOM     16  C   UNL     1       3.380   7.862  32.456  1.00  0.00     0.039 C 
BRANCH  13  17
ATOM     17  C   UNL     1       3.678   7.586  29.540  1.00  0.00     0.066 CG0
ATOM     18  G   UNL     1       4.953   6.879  29.931  1.00  0.00     0.000 G0
ENDBRANCH  13  17
ENDBRANCH  11  13
ENDBRANCH  10  11
ENDBRANCH   1  10
TORSDOF 0
ENDMDL
MODEL 7
REMARK VINA RESULT:    -3.263     20.285     22.094
REMARK INTER + INTRA:          -4.281
REMARK INTER:                  -4.841
REMARK INTRA:                   0.561
REMARK UNBOUND:                 0.318
REMARK SMILES CC1=CCC(=C(C)C)C(=O)CC(C)=CCC1
REMARK SMILES IDX 12 1 14 2 13 3 15 4 16 5 2 6 1 7 3 8 11 10 9 11 10 12 5 13
REMARK SMILES IDX 6 14 7 15 8 16 4 17
REMARK H PARENT
REMARK Flexibility Score: 60.00
ROOT
ATOM      1  C   UNL     1       1.844   6.593  29.025  1.00  0.00    -0.070 C 
ATOM      2  C   UNL     1       1.862   5.239  29.007  1.00  0.00    -0.027 C 
ATOM      3  C   UNL     1       0.555   7.266  29.428  1.00  0.00     0.039 C 
ENDROOT
BRANCH   2   4
ATOM      4  C   UNL     1       3.002   4.366  28.536  1.00  0.00     0.032 C 
BRANCH   4   5
ATOM      5  C   UNL     1       3.748   3.690  29.701  1.00  0.00     0.034 C 
BRANCH   5   6
ATOM      6  C   UNL     1       3.075   3.942  31.036  1.00  0.00    -0.077 C 
ATOM      7  C   UNL     1       1.957   3.023  31.459  1.00  0.00     0.039 C 
ATOM      8  C   UNL     1       3.437   4.931  31.884  1.00  0.00    -0.023 CG0
ATOM      9  G   UNL     1       4.549   5.926  31.656  1.00  0.00     0.000 G0
ENDBRANCH   5   6
ENDBRANCH   4   5
ENDBRANCH   2   4
BRANCH   1  10
ATOM     10  C   UNL     1       3.018   7.459  28.600  1.00  0.00     0.111 C 
BRANCH  10  11
ATOM     11  C   UNL     1       4.192   7.299  29.534  1.00  0.00     0.163 C 
ATOM     12  O   UNL     1       5.351   7.305  29.038  1.00  0.00    -0.294 OA
BRANCH  11  13
ATOM     13  C   UNL     1       4.015   7.186  31.016  1.00  0.00    -0.002 C 
ATOM     14  C   UNL     1       3.459   8.195  31.753  1.00  0.00    -0.069 C 
ATOM     15  C   UNL     1       3.061   9.510  31.121  1.00  0.00     0.039 C 
ATOM     16  C   UNL     1       3.248   8.057  33.245  1.00  0.00     0.039 C 
BRANCH  13  17
ATOM     17  C   UNL     1       4.547   5.929  31.680  1.00  0.00     0.066 CG0
ATOM     18  G   UNL     1       3.427   4.933  31.863  1.00  0.00     0.000 G0
ENDBRANCH  13  17
ENDBRANCH  11  13
ENDBRANCH  10  11
ENDBRANCH   1  10
TORSDOF 0
ENDMDL
MODEL 8
REMARK VINA RESULT:    -3.256      1.808      3.579
REMARK INTER + INTRA:          -4.271
REMARK INTER:                  -4.796
REMARK INTRA:                   0.526
REMARK UNBOUND:                 0.318
REMARK SMILES CC1=CCC(=C(C)C)C(=O)CC(C)=CCC1
REMARK SMILES IDX 12 1 14 2 13 3 15 4 16 5 2 6 1 7 3 8 11 10 9 11 10 12 5 13
REMARK SMILES IDX 6 14 7 15 8 16 4 17
REMARK H PARENT
REMARK Flexibility Score: 60.00
ROOT
ATOM      1  C   UNL     1      -8.963  -4.901  19.899  1.00  0.00    -0.070 C 
ATOM      2  C   UNL     1      -7.887  -5.719  19.973  1.00  0.00    -0.027 C 
ATOM      3  C   UNL     1      -9.716  -4.626  21.178  1.00  0.00     0.039 C 
ENDROOT
BRANCH   2   4
ATOM      4  C   UNL     1      -7.058  -6.212  18.810  1.00  0.00     0.032 C 
BRANCH   4   5
ATOM      5  C   UNL     1      -7.843  -7.160  17.884  1.00  0.00     0.034 C 
BRANCH   5   6
ATOM      6  C   UNL     1      -7.715  -6.769  16.424  1.00  0.00    -0.077 C 
ATOM      7  C   UNL     1      -6.332  -6.626  15.840  1.00  0.00     0.039 C 
ATOM      8  C   UNL     1      -8.772  -6.567  15.606  1.00  0.00    -0.023 CG0
ATOM      9  G   UNL     1     -10.225  -6.696  15.994  1.00  0.00     0.000 G0
ENDBRANCH   5   6
ENDBRANCH   4   5
ENDBRANCH   2   4
BRANCH   1  10
ATOM     10  C   UNL     1      -9.485  -4.305  18.602  1.00  0.00     0.111 C 
BRANCH  10  11
ATOM     11  C   UNL     1     -10.594  -5.142  18.015  1.00  0.00     0.163 C 
ATOM     12  O   UNL     1     -11.449  -5.631  18.801  1.00  0.00    -0.294 OA
BRANCH  11  13
ATOM     13  C   UNL     1     -10.727  -5.356  16.539  1.00  0.00    -0.002 C 
ATOM     14  C   UNL     1     -11.329  -4.433  15.730  1.00  0.00    -0.069 C 
ATOM     15  C   UNL     1     -11.959  -3.178  16.291  1.00  0.00     0.039 C 
ATOM     16  C   UNL     1     -11.424  -4.640  14.233  1.00  0.00     0.039 C 
BRANCH  13  17
ATOM     17  C   UNL     1     -10.230  -6.681  15.988  1.00  0.00     0.066 CG0
ATOM     18  G   UNL     1      -8.779  -6.556  15.589  1.00  0.00     0.000 G0
ENDBRANCH  13  17
ENDBRANCH  11  13
ENDBRANCH  10  11
ENDBRANCH   1  10
TORSDOF 0
ENDMDL
MODEL 9
REMARK VINA RESULT:    -3.067      1.995      2.554
REMARK INTER + INTRA:          -4.004
REMARK INTER:                  -4.708
REMARK INTRA:                   0.704
REMARK UNBOUND:                 0.318
REMARK SMILES CC1=CCC(=C(C)C)C(=O)CC(C)=CCC1
REMARK SMILES IDX 12 1 14 2 13 3 15 4 16 5 2 6 1 7 3 8 11 10 9 11 10 12 5 13
REMARK SMILES IDX 6 14 7 15 8 16 4 17
REMARK H PARENT
REMARK Flexibility Score: 60.00
ROOT
ATOM      1  C   UNL     1      -8.457  -8.914  16.101  1.00  0.00    -0.070 C 
ATOM      2  C   UNL     1      -8.121  -9.677  17.167  1.00  0.00    -0.027 C 
ATOM      3  C   UNL     1      -9.829  -9.115  15.507  1.00  0.00     0.039 C 
ENDROOT
BRANCH   2   4
ATOM      4  C   UNL     1      -6.773  -9.718  17.848  1.00  0.00     0.032 C 
BRANCH   4   5
ATOM      5  C   UNL     1      -6.753  -8.923  19.168  1.00  0.00     0.034 C 
BRANCH   5   6
ATOM      6  C   UNL     1      -6.136  -7.548  18.998  1.00  0.00    -0.077 C 
ATOM      7  C   UNL     1      -4.640  -7.414  19.125  1.00  0.00     0.039 C 
ATOM      8  C   UNL     1      -6.850  -6.436  18.714  1.00  0.00    -0.023 CG0
ATOM      9  G   UNL     1      -8.345  -6.373  18.516  1.00  0.00     0.000 G0
ENDBRANCH   5   6
ENDBRANCH   4   5
ENDBRANCH   2   4
BRANCH   1  10
ATOM     10  C   UNL     1      -7.512  -7.925  15.438  1.00  0.00     0.111 C 
BRANCH  10  11
ATOM     11  C   UNL     1      -7.617  -6.555  16.060  1.00  0.00     0.163 C 
ATOM     12  O   UNL     1      -6.796  -5.672  15.694  1.00  0.00    -0.294 OA
BRANCH  11  13
ATOM     13  C   UNL     1      -8.689  -6.214  17.047  1.00  0.00    -0.002 C 
ATOM     14  C   UNL     1      -9.900  -5.718  16.651  1.00  0.00    -0.069 C 
ATOM     15  C   UNL     1     -10.196  -5.417  15.199  1.00  0.00     0.039 C 
ATOM     16  C   UNL     1     -10.993  -5.413  17.653  1.00  0.00     0.039 C 
BRANCH  13  17
ATOM     17  C   UNL     1      -8.348  -6.373  18.518  1.00  0.00     0.066 CG0
ATOM     18  G   UNL     1      -6.849  -6.426  18.693  1.00  0.00     0.000 G0
ENDBRANCH  13  17
ENDBRANCH  11  13
ENDBRANCH  10  11
ENDBRANCH   1  10
TORSDOF 0
ENDMDL
