MODEL 1
REMARK VINA RESULT:    -3.592      0.000      0.000
REMARK INTER + INTRA:          -5.428
REMARK INTER:                  -4.852
REMARK INTRA:                  -0.576
REMARK UNBOUND:                -0.576
REMARK SMILES CCCCCCC=CC(=O)[O-]
REMARK SMILES IDX 5 1 6 2 7 3 8 4 9 5 10 6 11 7 4 8 3 9 2 10 1 11
REMARK H PARENT
REMARK Flexibility Score: inf
ROOT
ATOM      1  C   UNL     1      17.077  11.298   4.348  1.00  0.00     0.004 C 
ENDROOT
BRANCH   1   2
ATOM      2  C   UNL     1      18.262  10.698   3.580  1.00  0.00     0.027 C 
BRANCH   2   3
ATOM      3  C   UNL     1      17.899  10.416   2.148  1.00  0.00    -0.025 C 
ATOM      4  C   UNL     1      17.557   9.220   1.641  1.00  0.00     0.020 C 
BRANCH   4   5
ATOM      5  C   UNL     1      17.507   7.936   2.369  1.00  0.00     0.064 C 
ATOM      6  O   UNL     1      16.387   7.402   2.583  1.00  0.00    -0.545 OA
ATOM      7  O   UNL     1      18.653   7.284   2.804  1.00  0.00    -0.545 OA
ENDBRANCH   4   5
ENDBRANCH   2   3
ENDBRANCH   1   2
BRANCH   1   8
ATOM      8  C   UNL     1      17.251  12.813   4.528  1.00  0.00     0.000 C 
BRANCH   8   9
ATOM      9  C   UNL     1      18.687  13.282   4.245  1.00  0.00    -0.000 C 
BRANCH   9  10
ATOM     10  C   UNL     1      18.752  14.361   3.154  1.00  0.00    -0.003 C 
ATOM     11  C   UNL     1      17.652  14.160   2.116  1.00  0.00     0.004 C 
ENDBRANCH   9  10
ENDBRANCH   8   9
ENDBRANCH   1   8
TORSDOF 6
ENDMDL
MODEL 2
REMARK VINA RESULT:    -3.479      1.009      1.507
REMARK INTER + INTRA:          -5.275
REMARK INTER:                  -4.766
REMARK INTRA:                  -0.509
REMARK UNBOUND:                -0.576
REMARK SMILES CCCCCCC=CC(=O)[O-]
REMARK SMILES IDX 5 1 6 2 7 3 8 4 9 5 10 6 11 7 4 8 3 9 2 10 1 11
REMARK H PARENT
REMARK Flexibility Score: inf
ROOT
ATOM      1  C   UNL     1      18.233  10.757   3.805  1.00  0.00     0.004 C 
ENDROOT
BRANCH   1   2
ATOM      2  C   UNL     1      17.832  10.395   2.369  1.00  0.00     0.027 C 
BRANCH   2   3
ATOM      3  C   UNL     1      16.689   9.418   2.350  1.00  0.00    -0.025 C 
ATOM      4  C   UNL     1      16.789   8.088   2.193  1.00  0.00     0.020 C 
BRANCH   4   5
ATOM      5  C   UNL     1      18.031   7.319   1.965  1.00  0.00     0.064 C 
ATOM      6  O   UNL     1      18.293   6.920   0.800  1.00  0.00    -0.545 OA
ATOM      7  O   UNL     1      18.930   7.042   2.986  1.00  0.00    -0.545 OA
ENDBRANCH   4   5
ENDBRANCH   2   3
ENDBRANCH   1   2
BRANCH   1   8
ATOM      8  C   UNL     1      17.076  11.449   4.540  1.00  0.00     0.000 C 
BRANCH   8   9
ATOM      9  C   UNL     1      17.231  12.977   4.582  1.00  0.00    -0.000 C 
BRANCH   9  10
ATOM     10  C   UNL     1      18.674  13.433   4.315  1.00  0.00    -0.003 C 
ATOM     11  C   UNL     1      18.745  14.340   3.090  1.00  0.00     0.004 C 
ENDBRANCH   9  10
ENDBRANCH   8   9
ENDBRANCH   1   8
TORSDOF 6
ENDMDL
MODEL 3
REMARK VINA RESULT:    -3.424      1.856      2.611
REMARK INTER + INTRA:          -5.201
REMARK INTER:                  -4.881
REMARK INTRA:                  -0.320
REMARK UNBOUND:                -0.576
REMARK SMILES CCCCCCC=CC(=O)[O-]
REMARK SMILES IDX 5 1 6 2 7 3 8 4 9 5 10 6 11 7 4 8 3 9 2 10 1 11
REMARK H PARENT
REMARK Flexibility Score: inf
ROOT
ATOM      1  C   UNL     1      17.809  10.060   2.224  1.00  0.00     0.004 C 
ENDROOT
BRANCH   1   2
ATOM      2  C   UNL     1      17.170   8.666   2.175  1.00  0.00     0.027 C 
BRANCH   2   3
ATOM      3  C   UNL     1      18.165   7.596   2.533  1.00  0.00    -0.025 C 
ATOM      4  C   UNL     1      18.559   6.587   1.740  1.00  0.00     0.020 C 
BRANCH   4   5
ATOM      5  C   UNL     1      18.071   6.295   0.376  1.00  0.00     0.064 C 
ATOM      6  O   UNL     1      17.252   5.353   0.213  1.00  0.00    -0.545 OA
ATOM      7  O   UNL     1      18.463   7.040  -0.728  1.00  0.00    -0.545 OA
ENDBRANCH   4   5
ENDBRANCH   2   3
ENDBRANCH   1   2
BRANCH   1   8
ATOM      8  C   UNL     1      17.256  10.875   3.402  1.00  0.00     0.000 C 
BRANCH   8   9
ATOM      9  C   UNL     1      18.364  11.413   4.321  1.00  0.00    -0.000 C 
BRANCH   9  10
ATOM     10  C   UNL     1      18.288  12.936   4.509  1.00  0.00    -0.003 C 
ATOM     11  C   UNL     1      18.514  13.665   3.188  1.00  0.00     0.004 C 
ENDBRANCH   9  10
ENDBRANCH   8   9
ENDBRANCH   1   8
TORSDOF 6
ENDMDL
MODEL 4
REMARK VINA RESULT:    -3.412      2.962      5.504
REMARK INTER + INTRA:          -5.184
REMARK INTER:                  -4.729
REMARK INTRA:                  -0.456
REMARK UNBOUND:                -0.576
REMARK SMILES CCCCCCC=CC(=O)[O-]
REMARK SMILES IDX 5 1 6 2 7 3 8 4 9 5 10 6 11 7 4 8 3 9 2 10 1 11
REMARK H PARENT
REMARK Flexibility Score: inf
ROOT
ATOM      1  C   UNL     1      17.342  10.423   0.593  1.00  0.00     0.004 C 
ENDROOT
BRANCH   1   2
ATOM      2  C   UNL     1      17.846  11.396   1.668  1.00  0.00     0.027 C 
BRANCH   2   3
ATOM      3  C   UNL     1      18.186  10.673   2.943  1.00  0.00    -0.025 C 
ATOM      4  C   UNL     1      18.133  11.189   4.182  1.00  0.00     0.020 C 
BRANCH   4   5
ATOM      5  C   UNL     1      17.775  12.577   4.543  1.00  0.00     0.064 C 
ATOM      6  O   UNL     1      16.638  12.801   5.036  1.00  0.00    -0.545 OA
ATOM      7  O   UNL     1      18.656  13.638   4.383  1.00  0.00    -0.545 OA
ENDBRANCH   4   5
ENDBRANCH   2   3
ENDBRANCH   1   2
BRANCH   1   8
ATOM      8  C   UNL     1      17.396   8.974   1.097  1.00  0.00     0.000 C 
BRANCH   8   9
ATOM      9  C   UNL     1      17.648   7.964  -0.034  1.00  0.00    -0.000 C 
BRANCH   9  10
ATOM     10  C   UNL     1      18.174   6.616   0.484  1.00  0.00    -0.003 C 
ATOM     11  C   UNL     1      18.536   6.700   1.963  1.00  0.00     0.004 C 
ENDBRANCH   9  10
ENDBRANCH   8   9
ENDBRANCH   1   8
TORSDOF 6
ENDMDL
MODEL 5
REMARK VINA RESULT:    -3.360      3.341      5.736
REMARK INTER + INTRA:          -5.115
REMARK INTER:                  -4.846
REMARK INTRA:                  -0.268
REMARK UNBOUND:                -0.576
REMARK SMILES CCCCCCC=CC(=O)[O-]
REMARK SMILES IDX 5 1 6 2 7 3 8 4 9 5 10 6 11 7 4 8 3 9 2 10 1 11
REMARK H PARENT
REMARK Flexibility Score: inf
ROOT
ATOM      1  C   UNL     1      17.792   9.185   2.474  1.00  0.00     0.004 C 
ENDROOT
BRANCH   1   2
ATOM      2  C   UNL     1      18.045  10.698   2.505  1.00  0.00     0.027 C 
BRANCH   2   3
ATOM      3  C   UNL     1      18.162  11.203   3.917  1.00  0.00    -0.025 C 
ATOM      4  C   UNL     1      18.066  12.485   4.308  1.00  0.00     0.020 C 
BRANCH   4   5
ATOM      5  C   UNL     1      17.870  13.660   3.435  1.00  0.00     0.064 C 
ATOM      6  O   UNL     1      18.844  14.429   3.222  1.00  0.00    -0.545 OA
ATOM      7  O   UNL     1      16.655  13.933   2.819  1.00  0.00    -0.545 OA
ENDBRANCH   4   5
ENDBRANCH   2   3
ENDBRANCH   1   2
BRANCH   1   8
ATOM      8  C   UNL     1      17.364   8.730   1.071  1.00  0.00     0.000 C 
BRANCH   8   9
ATOM      9  C   UNL     1      17.837   7.306   0.741  1.00  0.00    -0.000 C 
BRANCH   9  10
ATOM     10  C   UNL     1      18.166   7.123  -0.749  1.00  0.00    -0.003 C 
ATOM     11  C   UNL     1      17.798   8.368  -1.550  1.00  0.00     0.004 C 
ENDBRANCH   9  10
ENDBRANCH   8   9
ENDBRANCH   1   8
TORSDOF 6
ENDMDL
MODEL 6
REMARK VINA RESULT:    -3.349      1.706      2.949
REMARK INTER + INTRA:          -5.100
REMARK INTER:                  -4.767
REMARK INTRA:                  -0.333
REMARK UNBOUND:                -0.576
REMARK SMILES CCCCCCC=CC(=O)[O-]
REMARK SMILES IDX 5 1 6 2 7 3 8 4 9 5 10 6 11 7 4 8 3 9 2 10 1 11
REMARK H PARENT
REMARK Flexibility Score: inf
ROOT
ATOM      1  C   UNL     1      17.194  10.342   0.957  1.00  0.00     0.004 C 
ENDROOT
BRANCH   1   2
ATOM      2  C   UNL     1      17.232   8.838   1.258  1.00  0.00     0.027 C 
BRANCH   2   3
ATOM      3  C   UNL     1      17.651   8.049   0.048  1.00  0.00    -0.025 C 
ATOM      4  C   UNL     1      18.131   6.794   0.049  1.00  0.00     0.020 C 
BRANCH   4   5
ATOM      5  C   UNL     1      18.383   5.949   1.235  1.00  0.00     0.064 C 
ATOM      6  O   UNL     1      17.688   4.913   1.401  1.00  0.00    -0.545 OA
ATOM      7  O   UNL     1      19.376   6.244   2.159  1.00  0.00    -0.545 OA
ENDBRANCH   4   5
ENDBRANCH   2   3
ENDBRANCH   1   2
BRANCH   1   8
ATOM      8  C   UNL     1      18.117  11.114   1.911  1.00  0.00     0.000 C 
BRANCH   8   9
ATOM      9  C   UNL     1      18.222  10.457   3.296  1.00  0.00    -0.000 C 
BRANCH   9  10
ATOM     10  C   UNL     1      18.144  11.477   4.442  1.00  0.00    -0.003 C 
ATOM     11  C   UNL     1      18.870  12.769   4.078  1.00  0.00     0.004 C 
ENDBRANCH   9  10
ENDBRANCH   8   9
ENDBRANCH   1   8
TORSDOF 6
ENDMDL
MODEL 7
REMARK VINA RESULT:    -3.255      1.409      2.245
REMARK INTER + INTRA:          -4.973
REMARK INTER:                  -4.347
REMARK INTRA:                  -0.626
REMARK UNBOUND:                -0.576
REMARK SMILES CCCCCCC=CC(=O)[O-]
REMARK SMILES IDX 5 1 6 2 7 3 8 4 9 5 10 6 11 7 4 8 3 9 2 10 1 11
REMARK H PARENT
REMARK Flexibility Score: inf
ROOT
ATOM      1  C   UNL     1      16.496  12.077   1.368  1.00  0.00     0.004 C 
ENDROOT
BRANCH   1   2
ATOM      2  C   UNL     1      17.766  11.229   1.218  1.00  0.00     0.027 C 
BRANCH   2   3
ATOM      3  C   UNL     1      17.911  10.254   2.354  1.00  0.00    -0.025 C 
ATOM      4  C   UNL     1      17.725   8.926   2.284  1.00  0.00     0.020 C 
BRANCH   4   5
ATOM      5  C   UNL     1      17.301   8.158   1.094  1.00  0.00     0.064 C 
ATOM      6  O   UNL     1      18.098   7.318   0.599  1.00  0.00    -0.545 OA
ATOM      7  O   UNL     1      16.047   8.310   0.519  1.00  0.00    -0.545 OA
ENDBRANCH   4   5
ENDBRANCH   2   3
ENDBRANCH   1   2
BRANCH   1   8
ATOM      8  C   UNL     1      16.634  13.070   2.531  1.00  0.00     0.000 C 
BRANCH   8   9
ATOM      9  C   UNL     1      17.643  14.191   2.235  1.00  0.00    -0.000 C 
BRANCH   9  10
ATOM     10  C   UNL     1      18.784  14.245   3.262  1.00  0.00    -0.003 C 
ATOM     11  C   UNL     1      18.521  13.294   4.426  1.00  0.00     0.004 C 
ENDBRANCH   9  10
ENDBRANCH   8   9
ENDBRANCH   1   8
TORSDOF 6
ENDMDL
MODEL 8
REMARK VINA RESULT:    -2.988      3.011      4.718
REMARK INTER + INTRA:          -4.611
REMARK INTER:                  -4.142
REMARK INTRA:                  -0.469
REMARK UNBOUND:                -0.576
REMARK SMILES CCCCCCC=CC(=O)[O-]
REMARK SMILES IDX 5 1 6 2 7 3 8 4 9 5 10 6 11 7 4 8 3 9 2 10 1 11
REMARK H PARENT
REMARK Flexibility Score: inf
ROOT
ATOM      1  C   UNL     1      16.332  14.649   1.575  1.00  0.00     0.004 C 
ENDROOT
BRANCH   1   2
ATOM      2  C   UNL     1      17.414  13.607   1.888  1.00  0.00     0.027 C 
BRANCH   2   3
ATOM      3  C   UNL     1      18.305  14.065   3.011  1.00  0.00    -0.025 C 
ATOM      4  C   UNL     1      18.492  13.431   4.180  1.00  0.00     0.020 C 
BRANCH   4   5
ATOM      5  C   UNL     1      17.834  12.182   4.620  1.00  0.00     0.064 C 
ATOM      6  O   UNL     1      18.466  11.097   4.525  1.00  0.00    -0.545 OA
ATOM      7  O   UNL     1      16.554  12.167   5.157  1.00  0.00    -0.545 OA
ENDBRANCH   4   5
ENDBRANCH   2   3
ENDBRANCH   1   2
BRANCH   1   8
ATOM      8  C   UNL     1      16.622  15.358   0.245  1.00  0.00     0.000 C 
BRANCH   8   9
ATOM      9  C   UNL     1      16.390  16.875   0.320  1.00  0.00    -0.000 C 
BRANCH   9  10
ATOM     10  C   UNL     1      17.615  17.684  -0.131  1.00  0.00    -0.003 C 
ATOM     11  C   UNL     1      18.857  17.288   0.663  1.00  0.00     0.004 C 
ENDBRANCH   9  10
ENDBRANCH   8   9
ENDBRANCH   1   8
TORSDOF 6
ENDMDL
MODEL 9
REMARK VINA RESULT:    -2.974      3.043      3.988
REMARK INTER + INTRA:          -4.593
REMARK INTER:                  -4.057
REMARK INTRA:                  -0.537
REMARK UNBOUND:                -0.576
REMARK SMILES CCCCCCC=CC(=O)[O-]
REMARK SMILES IDX 5 1 6 2 7 3 8 4 9 5 10 6 11 7 4 8 3 9 2 10 1 11
REMARK H PARENT
REMARK Flexibility Score: inf
ROOT
ATOM      1  C   UNL     1      16.792  11.294   0.906  1.00  0.00     0.004 C 
ENDROOT
BRANCH   1   2
ATOM      2  C   UNL     1      18.123  11.446   1.656  1.00  0.00     0.027 C 
BRANCH   2   3
ATOM      3  C   UNL     1      18.127  10.645   2.930  1.00  0.00    -0.025 C 
ATOM      4  C   UNL     1      17.980  11.136   4.171  1.00  0.00     0.020 C 
BRANCH   4   5
ATOM      5  C   UNL     1      17.826  12.558   4.544  1.00  0.00     0.064 C 
ATOM      6  O   UNL     1      16.715  12.953   4.985  1.00  0.00    -0.545 OA
ATOM      7  O   UNL     1      18.871  13.467   4.450  1.00  0.00    -0.545 OA
ENDBRANCH   4   5
ENDBRANCH   2   3
ENDBRANCH   1   2
BRANCH   1   8
ATOM      8  C   UNL     1      16.260  12.661   0.453  1.00  0.00     0.000 C 
BRANCH   8   9
ATOM      9  C   UNL     1      16.179  13.676   1.604  1.00  0.00    -0.000 C 
BRANCH   9  10
ATOM     10  C   UNL     1      17.136  14.862   1.415  1.00  0.00    -0.003 C 
ATOM     11  C   UNL     1      16.626  15.814   0.337  1.00  0.00     0.004 C 
ENDBRANCH   9  10
ENDBRANCH   8   9
ENDBRANCH   1   8
TORSDOF 6
ENDMDL
