MODEL 1
REMARK VINA RESULT:    -5.272      0.000      0.000
REMARK INTER + INTRA:          -5.613
REMARK INTER:                  -5.580
REMARK INTRA:                  -0.033
REMARK UNBOUND:                -0.033
REMARK SMILES COc1ccc2ccc(=O)oc2c1
REMARK SMILES IDX 3 1 13 2 12 3 6 4 5 5 4 6 7 7 8 8 9 9 10 10 11 11 2 12 1 13
REMARK H PARENT
REMARK Flexibility Score: inf
ROOT
ATOM      1  C   UNL     1      26.653   9.658 -32.043  1.00  0.00     0.122 A 
ATOM      2  C   UNL     1      27.513   9.023 -32.961  1.00  0.00     0.094 A 
ATOM      3  C   UNL     1      28.641   9.690 -33.450  1.00  0.00     0.142 A 
ATOM      4  C   UNL     1      28.920  11.006 -33.020  1.00  0.00     0.018 A 
ATOM      5  C   UNL     1      28.066  11.638 -32.108  1.00  0.00     0.016 A 
ATOM      6  C   UNL     1      26.940  10.964 -31.625  1.00  0.00     0.047 A 
ATOM      7  C   UNL     1      30.055  11.646 -33.526  1.00  0.00     0.019 A 
ATOM      8  C   UNL     1      30.874  10.973 -34.432  1.00  0.00     0.094 A 
ATOM      9  C   UNL     1      30.536   9.671 -34.813  1.00  0.00     0.336 A 
ATOM     10  O   UNL     1      31.262   9.046 -35.630  1.00  0.00    -0.246 OA
ATOM     11  O   UNL     1      29.449   9.084 -34.317  1.00  0.00    -0.423 OA
ENDROOT
BRANCH   1  12
ATOM     12  O   UNL     1      25.510   9.031 -31.527  1.00  0.00    -0.497 OA
ATOM     13  C   UNL     1      24.265   8.934 -32.213  1.00  0.00     0.278 C 
ENDBRANCH   1  12
TORSDOF 1
ENDMDL
MODEL 2
REMARK VINA RESULT:    -4.727     10.969     11.862
REMARK INTER + INTRA:          -5.036
REMARK INTER:                  -5.000
REMARK INTRA:                  -0.036
REMARK UNBOUND:                -0.033
REMARK SMILES COc1ccc2ccc(=O)oc2c1
REMARK SMILES IDX 3 1 13 2 12 3 6 4 5 5 4 6 7 7 8 8 9 9 10 10 11 11 2 12 1 13
REMARK H PARENT
REMARK Flexibility Score: inf
ROOT
ATOM      1  C   UNL     1      31.354   6.051 -24.761  1.00  0.00     0.122 A 
ATOM      2  C   UNL     1      32.304   6.910 -24.173  1.00  0.00     0.094 A 
ATOM      3  C   UNL     1      32.144   7.339 -22.851  1.00  0.00     0.142 A 
ATOM      4  C   UNL     1      31.026   6.909 -22.103  1.00  0.00     0.018 A 
ATOM      5  C   UNL     1      30.083   6.056 -22.687  1.00  0.00     0.016 A 
ATOM      6  C   UNL     1      30.249   5.631 -24.009  1.00  0.00     0.047 A 
ATOM      7  C   UNL     1      30.895   7.355 -20.785  1.00  0.00     0.019 A 
ATOM      8  C   UNL     1      31.863   8.204 -20.249  1.00  0.00     0.094 A 
ATOM      9  C   UNL     1      32.944   8.589 -21.049  1.00  0.00     0.336 A 
ATOM     10  O   UNL     1      33.829   9.355 -20.585  1.00  0.00    -0.246 OA
ATOM     11  O   UNL     1      33.046   8.151 -22.301  1.00  0.00    -0.423 OA
ENDROOT
BRANCH   1  12
ATOM     12  O   UNL     1      31.470   5.595 -26.082  1.00  0.00    -0.497 OA
ATOM     13  C   UNL     1      31.821   6.418 -27.190  1.00  0.00     0.278 C 
ENDBRANCH   1  12
TORSDOF 1
ENDMDL
MODEL 3
REMARK VINA RESULT:    -4.590     11.822     12.360
REMARK INTER + INTRA:          -4.892
REMARK INTER:                  -4.853
REMARK INTRA:                  -0.039
REMARK UNBOUND:                -0.033
REMARK SMILES COc1ccc2ccc(=O)oc2c1
REMARK SMILES IDX 3 1 13 2 12 3 6 4 5 5 4 6 7 7 8 8 9 9 10 10 11 11 2 12 1 13
REMARK H PARENT
REMARK Flexibility Score: inf
ROOT
ATOM      1  C   UNL     1      30.368   5.827 -23.149  1.00  0.00     0.122 A 
ATOM      2  C   UNL     1      31.776   5.797 -23.082  1.00  0.00     0.094 A 
ATOM      3  C   UNL     1      32.460   6.658 -22.217  1.00  0.00     0.142 A 
ATOM      4  C   UNL     1      31.736   7.562 -21.408  1.00  0.00     0.018 A 
ATOM      5  C   UNL     1      30.338   7.592 -21.475  1.00  0.00     0.016 A 
ATOM      6  C   UNL     1      29.662   6.727 -22.341  1.00  0.00     0.047 A 
ATOM      7  C   UNL     1      32.448   8.409 -20.554  1.00  0.00     0.019 A 
ATOM      8  C   UNL     1      33.840   8.339 -20.525  1.00  0.00     0.094 A 
ATOM      9  C   UNL     1      34.491   7.420 -21.355  1.00  0.00     0.336 A 
ATOM     10  O   UNL     1      35.748   7.341 -21.343  1.00  0.00    -0.246 OA
ATOM     11  O   UNL     1      33.789   6.624 -22.159  1.00  0.00    -0.423 OA
ENDROOT
BRANCH   1  12
ATOM     12  O   UNL     1      29.639   4.984 -24.000  1.00  0.00    -0.497 OA
ATOM     13  C   UNL     1      30.203   3.911 -24.748  1.00  0.00     0.278 C 
ENDBRANCH   1  12
TORSDOF 1
ENDMDL
MODEL 4
REMARK VINA RESULT:    -4.571      1.488      4.982
REMARK INTER + INTRA:          -4.872
REMARK INTER:                  -4.834
REMARK INTRA:                  -0.038
REMARK UNBOUND:                -0.033
REMARK SMILES COc1ccc2ccc(=O)oc2c1
REMARK SMILES IDX 3 1 13 2 12 3 6 4 5 5 4 6 7 7 8 8 9 9 10 10 11 11 2 12 1 13
REMARK H PARENT
REMARK Flexibility Score: inf
ROOT
ATOM      1  C   UNL     1      28.437  10.183 -33.136  1.00  0.00     0.122 A 
ATOM      2  C   UNL     1      27.724   9.028 -33.517  1.00  0.00     0.094 A 
ATOM      3  C   UNL     1      26.389   8.864 -33.132  1.00  0.00     0.142 A 
ATOM      4  C   UNL     1      25.753   9.860 -32.358  1.00  0.00     0.018 A 
ATOM      5  C   UNL     1      26.461  11.007 -31.980  1.00  0.00     0.016 A 
ATOM      6  C   UNL     1      27.795  11.164 -32.369  1.00  0.00     0.047 A 
ATOM      7  C   UNL     1      24.418   9.668 -31.990  1.00  0.00     0.019 A 
ATOM      8  C   UNL     1      23.758   8.508 -32.393  1.00  0.00     0.094 A 
ATOM      9  C   UNL     1      24.451   7.564 -33.158  1.00  0.00     0.336 A 
ATOM     10  O   UNL     1      23.872   6.509 -33.532  1.00  0.00    -0.246 OA
ATOM     11  O   UNL     1      25.721   7.771 -33.495  1.00  0.00    -0.423 OA
ENDROOT
BRANCH   1  12
ATOM     12  O   UNL     1      29.776  10.392 -33.496  1.00  0.00    -0.497 OA
ATOM     13  C   UNL     1      30.374  11.673 -33.664  1.00  0.00     0.278 C 
ENDBRANCH   1  12
TORSDOF 1
ENDMDL
MODEL 5
REMARK VINA RESULT:    -4.558     12.322     13.328
REMARK INTER + INTRA:          -4.857
REMARK INTER:                  -4.822
REMARK INTRA:                  -0.035
REMARK UNBOUND:                -0.033
REMARK SMILES COc1ccc2ccc(=O)oc2c1
REMARK SMILES IDX 3 1 13 2 12 3 6 4 5 5 4 6 7 7 8 8 9 9 10 10 11 11 2 12 1 13
REMARK H PARENT
REMARK Flexibility Score: inf
ROOT
ATOM      1  C   UNL     1      34.705   7.282 -21.413  1.00  0.00     0.122 A 
ATOM      2  C   UNL     1      33.857   6.483 -22.207  1.00  0.00     0.094 A 
ATOM      3  C   UNL     1      32.472   6.685 -22.185  1.00  0.00     0.142 A 
ATOM      4  C   UNL     1      31.923   7.694 -21.365  1.00  0.00     0.018 A 
ATOM      5  C   UNL     1      32.764   8.488 -20.576  1.00  0.00     0.016 A 
ATOM      6  C   UNL     1      34.147   8.280 -20.604  1.00  0.00     0.047 A 
ATOM      7  C   UNL     1      30.536   7.872 -21.365  1.00  0.00     0.019 A 
ATOM      8  C   UNL     1      29.742   7.055 -22.169  1.00  0.00     0.094 A 
ATOM      9  C   UNL     1      30.355   6.075 -22.956  1.00  0.00     0.336 A 
ATOM     10  O   UNL     1      29.656   5.327 -23.689  1.00  0.00    -0.246 OA
ATOM     11  O   UNL     1      31.678   5.927 -22.937  1.00  0.00    -0.423 OA
ENDROOT
BRANCH   1  12
ATOM     12  O   UNL     1      36.097   7.116 -21.400  1.00  0.00    -0.497 OA
ATOM     13  C   UNL     1      36.893   7.085 -20.220  1.00  0.00     0.278 C 
ENDBRANCH   1  12
TORSDOF 1
ENDMDL
MODEL 6
REMARK VINA RESULT:    -4.516     13.127     13.424
REMARK INTER + INTRA:          -4.813
REMARK INTER:                  -4.781
REMARK INTRA:                  -0.031
REMARK UNBOUND:                -0.033
REMARK SMILES COc1ccc2ccc(=O)oc2c1
REMARK SMILES IDX 3 1 13 2 12 3 6 4 5 5 4 6 7 7 8 8 9 9 10 10 11 11 2 12 1 13
REMARK H PARENT
REMARK Flexibility Score: inf
ROOT
ATOM      1  C   UNL     1      32.208   7.790 -21.973  1.00  0.00     0.122 A 
ATOM      2  C   UNL     1      33.237   7.872 -21.013  1.00  0.00     0.094 A 
ATOM      3  C   UNL     1      34.524   7.417 -21.318  1.00  0.00     0.142 A 
ATOM      4  C   UNL     1      34.794   6.872 -22.593  1.00  0.00     0.018 A 
ATOM      5  C   UNL     1      33.772   6.790 -23.546  1.00  0.00     0.016 A 
ATOM      6  C   UNL     1      32.488   7.247 -23.234  1.00  0.00     0.047 A 
ATOM      7  C   UNL     1      36.090   6.426 -22.867  1.00  0.00     0.019 A 
ATOM      8  C   UNL     1      37.072   6.530 -21.883  1.00  0.00     0.094 A 
ATOM      9  C   UNL     1      36.733   7.080 -20.642  1.00  0.00     0.336 A 
ATOM     10  O   UNL     1      37.606   7.184 -19.740  1.00  0.00    -0.246 OA
ATOM     11  O   UNL     1      35.492   7.498 -20.407  1.00  0.00    -0.423 OA
ENDROOT
BRANCH   1  12
ATOM     12  O   UNL     1      30.902   8.232 -21.715  1.00  0.00    -0.497 OA
ATOM     13  C   UNL     1      29.767   7.378 -21.620  1.00  0.00     0.278 C 
ENDBRANCH   1  12
TORSDOF 1
ENDMDL
MODEL 7
REMARK VINA RESULT:    -4.458      1.873      4.389
REMARK INTER + INTRA:          -4.751
REMARK INTER:                  -4.716
REMARK INTRA:                  -0.035
REMARK UNBOUND:                -0.033
REMARK SMILES COc1ccc2ccc(=O)oc2c1
REMARK SMILES IDX 3 1 13 2 12 3 6 4 5 5 4 6 7 7 8 8 9 9 10 10 11 11 2 12 1 13
REMARK H PARENT
REMARK Flexibility Score: inf
ROOT
ATOM      1  C   UNL     1      29.008  11.262 -34.567  1.00  0.00     0.122 A 
ATOM      2  C   UNL     1      28.512   9.954 -34.396  1.00  0.00     0.094 A 
ATOM      3  C   UNL     1      27.928   9.574 -33.183  1.00  0.00     0.142 A 
ATOM      4  C   UNL     1      27.834  10.505 -32.126  1.00  0.00     0.018 A 
ATOM      5  C   UNL     1      28.326  11.805 -32.295  1.00  0.00     0.016 A 
ATOM      6  C   UNL     1      28.909  12.177 -33.511  1.00  0.00     0.047 A 
ATOM      7  C   UNL     1      27.245  10.095 -30.926  1.00  0.00     0.019 A 
ATOM      8  C   UNL     1      26.770   8.789 -30.808  1.00  0.00     0.094 A 
ATOM      9  C   UNL     1      26.896   7.921 -31.897  1.00  0.00     0.336 A 
ATOM     10  O   UNL     1      26.474   6.738 -31.811  1.00  0.00    -0.246 OA
ATOM     11  O   UNL     1      27.462   8.336 -33.028  1.00  0.00    -0.423 OA
ENDROOT
BRANCH   1  12
ATOM     12  O   UNL     1      29.603  11.690 -35.763  1.00  0.00    -0.497 OA
ATOM     13  C   UNL     1      29.017  11.538 -37.052  1.00  0.00     0.278 C 
ENDBRANCH   1  12
TORSDOF 1
ENDMDL
MODEL 8
REMARK VINA RESULT:    -4.398     13.423     14.283
REMARK INTER + INTRA:          -4.688
REMARK INTER:                  -4.656
REMARK INTRA:                  -0.032
REMARK UNBOUND:                -0.033
REMARK SMILES COc1ccc2ccc(=O)oc2c1
REMARK SMILES IDX 3 1 13 2 12 3 6 4 5 5 4 6 7 7 8 8 9 9 10 10 11 11 2 12 1 13
REMARK H PARENT
REMARK Flexibility Score: inf
ROOT
ATOM      1  C   UNL     1      36.529   7.033 -20.690  1.00  0.00     0.122 A 
ATOM      2  C   UNL     1      35.235   7.509 -20.397  1.00  0.00     0.094 A 
ATOM      3  C   UNL     1      34.227   7.455 -21.366  1.00  0.00     0.142 A 
ATOM      4  C   UNL     1      34.507   6.920 -22.643  1.00  0.00     0.018 A 
ATOM      5  C   UNL     1      35.792   6.446 -22.933  1.00  0.00     0.016 A 
ATOM      6  C   UNL     1      36.794   6.504 -21.960  1.00  0.00     0.047 A 
ATOM      7  C   UNL     1      33.479   6.879 -23.589  1.00  0.00     0.019 A 
ATOM      8  C   UNL     1      32.217   7.364 -23.249  1.00  0.00     0.094 A 
ATOM      9  C   UNL     1      32.012   7.880 -21.966  1.00  0.00     0.336 A 
ATOM     10  O   UNL     1      30.878   8.322 -21.639  1.00  0.00    -0.246 OA
ATOM     11  O   UNL     1      33.007   7.907 -21.083  1.00  0.00    -0.423 OA
ENDROOT
BRANCH   1  12
ATOM     12  O   UNL     1      37.571   7.067 -19.753  1.00  0.00    -0.497 OA
ATOM     13  C   UNL     1      38.742   7.867 -19.879  1.00  0.00     0.278 C 
ENDBRANCH   1  12
TORSDOF 1
ENDMDL
