MODEL 1
REMARK VINA RESULT:    -5.667      0.000      0.000
REMARK INTER + INTRA:          -6.397
REMARK INTER:                  -6.330
REMARK INTRA:                  -0.068
REMARK UNBOUND:                -0.068
REMARK SMILES COc1cc2ccc(=O)oc2c(O)c1O
REMARK SMILES IDX 3 1 14 2 12 3 11 4 5 5 4 6 6 7 7 8 8 9 9 10 10 11 2 12 1 13
REMARK SMILES IDX 15 14 13 16
REMARK H PARENT 15 15 13 17
REMARK Flexibility Score: inf
ROOT
ATOM      1  C   UNL     1      32.344   7.961 -21.417  1.00  0.00     0.165 A 
ATOM      2  C   UNL     1      31.160   7.510 -20.803  1.00  0.00     0.204 A 
ATOM      3  C   UNL     1      30.301   6.628 -21.476  1.00  0.00     0.205 A 
ATOM      4  C   UNL     1      30.621   6.189 -22.770  1.00  0.00     0.184 A 
ATOM      5  C   UNL     1      31.807   6.638 -23.390  1.00  0.00     0.025 A 
ATOM      6  C   UNL     1      32.661   7.520 -22.715  1.00  0.00     0.062 A 
ATOM      7  C   UNL     1      32.101   6.184 -24.680  1.00  0.00     0.020 A 
ATOM      8  C   UNL     1      31.223   5.308 -25.315  1.00  0.00     0.094 A 
ATOM      9  C   UNL     1      30.066   4.903 -24.641  1.00  0.00     0.336 A 
ATOM     10  O   UNL     1      29.260   4.112 -25.197  1.00  0.00    -0.246 OA
ATOM     11  O   UNL     1      29.811   5.350 -23.415  1.00  0.00    -0.419 OA
ENDROOT
BRANCH   1  12
ATOM     12  O   UNL     1      33.176   8.845 -20.710  1.00  0.00    -0.493 OA
ATOM     13  C   UNL     1      34.443   8.498 -20.161  1.00  0.00     0.278 C 
ENDBRANCH   1  12
BRANCH   2  14
ATOM     14  O   UNL     1      30.817   7.931 -19.516  1.00  0.00    -0.502 OA
ATOM     15  H   UNL     1      31.446   8.478 -18.940  1.00  0.00     0.293 HD
ENDBRANCH   2  14
BRANCH   3  16
ATOM     16  O   UNL     1      29.135   6.197 -20.842  1.00  0.00    -0.502 OA
ATOM     17  H   UNL     1      29.096   5.335 -20.311  1.00  0.00     0.293 HD
ENDBRANCH   3  16
TORSDOF 3
ENDMDL
MODEL 2
REMARK VINA RESULT:    -5.201     11.522     12.240
REMARK INTER + INTRA:          -5.876
REMARK INTER:                  -5.826
REMARK INTRA:                  -0.051
REMARK UNBOUND:                -0.068
REMARK SMILES COc1cc2ccc(=O)oc2c(O)c1O
REMARK SMILES IDX 3 1 14 2 12 3 11 4 5 5 4 6 6 7 7 8 8 9 9 10 10 11 2 12 1 13
REMARK SMILES IDX 15 14 13 16
REMARK H PARENT 15 15 13 17
REMARK Flexibility Score: inf
ROOT
ATOM      1  C   UNL     1      26.876  11.617 -32.172  1.00  0.00     0.165 A 
ATOM      2  C   UNL     1      26.578  10.241 -32.188  1.00  0.00     0.204 A 
ATOM      3  C   UNL     1      27.432   9.336 -32.836  1.00  0.00     0.205 A 
ATOM      4  C   UNL     1      28.593   9.801 -33.473  1.00  0.00     0.184 A 
ATOM      5  C   UNL     1      28.897  11.179 -33.460  1.00  0.00     0.025 A 
ATOM      6  C   UNL     1      28.041  12.080 -32.813  1.00  0.00     0.062 A 
ATOM      7  C   UNL     1      30.060  11.615 -34.102  1.00  0.00     0.020 A 
ATOM      8  C   UNL     1      30.883  10.684 -34.735  1.00  0.00     0.094 A 
ATOM      9  C   UNL     1      30.521   9.334 -34.709  1.00  0.00     0.336 A 
ATOM     10  O   UNL     1      31.251   8.478 -35.273  1.00  0.00    -0.246 OA
ATOM     11  O   UNL     1      29.409   8.947 -34.090  1.00  0.00    -0.419 OA
ENDROOT
BRANCH   1  12
ATOM     12  O   UNL     1      25.995  12.491 -31.514  1.00  0.00    -0.493 OA
ATOM     13  C   UNL     1      24.877  13.124 -32.126  1.00  0.00     0.278 C 
ENDBRANCH   1  12
BRANCH   2  14
ATOM     14  O   UNL     1      25.429   9.751 -31.563  1.00  0.00    -0.502 OA
ATOM     15  H   UNL     1      24.885   8.990 -31.950  1.00  0.00     0.293 HD
ENDBRANCH   2  14
BRANCH   3  16
ATOM     16  O   UNL     1      27.111   7.978 -32.836  1.00  0.00    -0.502 OA
ATOM     17  H   UNL     1      26.176   7.645 -33.037  1.00  0.00     0.293 HD
ENDBRANCH   3  16
TORSDOF 3
ENDMDL
MODEL 3
REMARK VINA RESULT:    -5.200     11.813     12.033
REMARK INTER + INTRA:          -5.876
REMARK INTER:                  -5.825
REMARK INTRA:                  -0.051
REMARK UNBOUND:                -0.068
REMARK SMILES COc1cc2ccc(=O)oc2c(O)c1O
REMARK SMILES IDX 3 1 14 2 12 3 11 4 5 5 4 6 6 7 7 8 8 9 9 10 10 11 2 12 1 13
REMARK SMILES IDX 15 14 13 16
REMARK H PARENT 15 15 13 17
REMARK Flexibility Score: inf
ROOT
ATOM      1  C   UNL     1      28.625  10.943 -32.953  1.00  0.00     0.165 A 
ATOM      2  C   UNL     1      27.774  11.848 -32.291  1.00  0.00     0.204 A 
ATOM      3  C   UNL     1      26.441  11.504 -32.024  1.00  0.00     0.205 A 
ATOM      4  C   UNL     1      25.947  10.251 -32.418  1.00  0.00     0.184 A 
ATOM      5  C   UNL     1      26.796   9.340 -33.083  1.00  0.00     0.025 A 
ATOM      6  C   UNL     1      28.127   9.687 -33.348  1.00  0.00     0.062 A 
ATOM      7  C   UNL     1      26.278   8.098 -33.464  1.00  0.00     0.020 A 
ATOM      8  C   UNL     1      24.947   7.794 -33.180  1.00  0.00     0.094 A 
ATOM      9  C   UNL     1      24.163   8.744 -32.519  1.00  0.00     0.336 A 
ATOM     10  O   UNL     1      22.960   8.489 -32.253  1.00  0.00    -0.246 OA
ATOM     11  O   UNL     1      24.681   9.918 -32.167  1.00  0.00    -0.419 OA
ENDROOT
BRANCH   1  12
ATOM     12  O   UNL     1      29.954  11.325 -33.203  1.00  0.00    -0.493 OA
ATOM     13  C   UNL     1      30.712  10.919 -34.338  1.00  0.00     0.278 C 
ENDBRANCH   1  12
BRANCH   2  14
ATOM     14  O   UNL     1      28.239  13.101 -31.888  1.00  0.00    -0.502 OA
ATOM     15  H   UNL     1      28.704  13.246 -30.999  1.00  0.00     0.293 HD
ENDBRANCH   2  14
BRANCH   3  16
ATOM     16  O   UNL     1      25.621  12.421 -31.365  1.00  0.00    -0.502 OA
ATOM     17  H   UNL     1      25.170  12.206 -30.483  1.00  0.00     0.293 HD
ENDBRANCH   3  16
TORSDOF 3
ENDMDL
MODEL 4
REMARK VINA RESULT:    -5.134     11.725     12.423
REMARK INTER + INTRA:          -5.802
REMARK INTER:                  -5.734
REMARK INTRA:                  -0.068
REMARK UNBOUND:                -0.068
REMARK SMILES COc1cc2ccc(=O)oc2c(O)c1O
REMARK SMILES IDX 3 1 14 2 12 3 11 4 5 5 4 6 6 7 7 8 8 9 9 10 10 11 2 12 1 13
REMARK SMILES IDX 15 14 13 16
REMARK H PARENT 15 15 13 17
REMARK Flexibility Score: inf
ROOT
ATOM      1  C   UNL     1      25.764   8.663 -32.910  1.00  0.00     0.165 A 
ATOM      2  C   UNL     1      25.322   9.846 -32.287  1.00  0.00     0.204 A 
ATOM      3  C   UNL     1      26.175  10.954 -32.178  1.00  0.00     0.205 A 
ATOM      4  C   UNL     1      27.479  10.888 -32.694  1.00  0.00     0.184 A 
ATOM      5  C   UNL     1      27.927   9.705 -33.320  1.00  0.00     0.025 A 
ATOM      6  C   UNL     1      27.073   8.600 -33.426  1.00  0.00     0.062 A 
ATOM      7  C   UNL     1      29.231   9.668 -33.825  1.00  0.00     0.020 A 
ATOM      8  C   UNL     1      30.048  10.790 -33.697  1.00  0.00     0.094 A 
ATOM      9  C   UNL     1      29.538  11.929 -33.066  1.00  0.00     0.336 A 
ATOM     10  O   UNL     1      30.259  12.953 -32.941  1.00  0.00    -0.246 OA
ATOM     11  O   UNL     1      28.294  11.938 -32.594  1.00  0.00    -0.419 OA
ENDROOT
BRANCH   1  12
ATOM     12  O   UNL     1      24.880   7.575 -32.998  1.00  0.00    -0.493 OA
ATOM     13  C   UNL     1      24.852   6.480 -32.088  1.00  0.00     0.278 C 
ENDBRANCH   1  12
BRANCH   2  14
ATOM     14  O   UNL     1      24.030   9.938 -31.765  1.00  0.00    -0.502 OA
ATOM     15  H   UNL     1      23.578   9.160 -31.298  1.00  0.00     0.293 HD
ENDBRANCH   2  14
BRANCH   3  16
ATOM     16  O   UNL     1      25.710  12.112 -31.555  1.00  0.00    -0.502 OA
ATOM     17  H   UNL     1      24.724  12.273 -31.380  1.00  0.00     0.293 HD
ENDBRANCH   3  16
TORSDOF 3
ENDMDL
MODEL 5
REMARK VINA RESULT:    -5.095      2.491      4.817
REMARK INTER + INTRA:          -5.758
REMARK INTER:                  -5.690
REMARK INTRA:                  -0.068
REMARK UNBOUND:                -0.068
REMARK SMILES COc1cc2ccc(=O)oc2c(O)c1O
REMARK SMILES IDX 3 1 14 2 12 3 11 4 5 5 4 6 6 7 7 8 8 9 9 10 10 11 2 12 1 13
REMARK SMILES IDX 15 14 13 16
REMARK H PARENT 15 15 13 17
REMARK Flexibility Score: inf
ROOT
ATOM      1  C   UNL     1      31.868   7.768 -21.756  1.00  0.00     0.165 A 
ATOM      2  C   UNL     1      32.463   8.054 -20.512  1.00  0.00     0.204 A 
ATOM      3  C   UNL     1      33.837   7.852 -20.318  1.00  0.00     0.205 A 
ATOM      4  C   UNL     1      34.629   7.363 -21.369  1.00  0.00     0.184 A 
ATOM      5  C   UNL     1      34.037   7.075 -22.618  1.00  0.00     0.025 A 
ATOM      6  C   UNL     1      32.664   7.276 -22.807  1.00  0.00     0.062 A 
ATOM      7  C   UNL     1      34.850   6.588 -23.647  1.00  0.00     0.020 A 
ATOM      8  C   UNL     1      36.212   6.402 -23.415  1.00  0.00     0.094 A 
ATOM      9  C   UNL     1      36.731   6.708 -22.153  1.00  0.00     0.336 A 
ATOM     10  O   UNL     1      37.958   6.547 -21.923  1.00  0.00    -0.246 OA
ATOM     11  O   UNL     1      35.936   7.170 -21.192  1.00  0.00    -0.419 OA
ENDROOT
BRANCH   1  12
ATOM     12  O   UNL     1      30.488   7.982 -21.909  1.00  0.00    -0.493 OA
ATOM     13  C   UNL     1      29.493   6.974 -21.773  1.00  0.00     0.278 C 
ENDBRANCH   1  12
BRANCH   2  14
ATOM     14  O   UNL     1      31.698   8.542 -19.450  1.00  0.00    -0.502 OA
ATOM     15  H   UNL     1      30.721   8.788 -19.555  1.00  0.00     0.293 HD
ENDBRANCH   2  14
BRANCH   3  16
ATOM     16  O   UNL     1      34.399   8.144 -19.075  1.00  0.00    -0.502 OA
ATOM     17  H   UNL     1      33.884   8.031 -18.210  1.00  0.00     0.293 HD
ENDBRANCH   3  16
TORSDOF 3
ENDMDL
MODEL 6
REMARK VINA RESULT:    -4.985      2.692      5.523
REMARK INTER + INTRA:          -5.635
REMARK INTER:                  -5.583
REMARK INTRA:                  -0.052
REMARK UNBOUND:                -0.068
REMARK SMILES COc1cc2ccc(=O)oc2c(O)c1O
REMARK SMILES IDX 3 1 14 2 12 3 11 4 5 5 4 6 6 7 7 8 8 9 9 10 10 11 2 12 1 13
REMARK SMILES IDX 15 14 13 16
REMARK H PARENT 15 15 13 17
REMARK Flexibility Score: inf
ROOT
ATOM      1  C   UNL     1      32.930   7.229 -23.350  1.00  0.00     0.165 A 
ATOM      2  C   UNL     1      32.673   7.895 -22.136  1.00  0.00     0.204 A 
ATOM      3  C   UNL     1      33.669   7.994 -21.154  1.00  0.00     0.205 A 
ATOM      4  C   UNL     1      34.934   7.428 -21.379  1.00  0.00     0.184 A 
ATOM      5  C   UNL     1      35.198   6.760 -22.594  1.00  0.00     0.025 A 
ATOM      6  C   UNL     1      34.200   6.662 -23.572  1.00  0.00     0.062 A 
ATOM      7  C   UNL     1      36.467   6.205 -22.791  1.00  0.00     0.020 A 
ATOM      8  C   UNL     1      37.430   6.325 -21.791  1.00  0.00     0.094 A 
ATOM      9  C   UNL     1      37.100   7.001 -20.612  1.00  0.00     0.336 A 
ATOM     10  O   UNL     1      37.956   7.121 -19.697  1.00  0.00    -0.246 OA
ATOM     11  O   UNL     1      35.886   7.519 -20.450  1.00  0.00    -0.419 OA
ENDROOT
BRANCH   1  12
ATOM     12  O   UNL     1      31.906   7.150 -24.308  1.00  0.00    -0.493 OA
ATOM     13  C   UNL     1      31.684   6.035 -25.164  1.00  0.00     0.278 C 
ENDBRANCH   1  12
BRANCH   2  14
ATOM     14  O   UNL     1      31.423   8.467 -21.887  1.00  0.00    -0.502 OA
ATOM     15  H   UNL     1      31.059   8.583 -20.949  1.00  0.00     0.293 HD
ENDBRANCH   2  14
BRANCH   3  16
ATOM     16  O   UNL     1      33.385   8.660 -19.962  1.00  0.00    -0.502 OA
ATOM     17  H   UNL     1      32.746   8.282 -19.272  1.00  0.00     0.293 HD
ENDBRANCH   3  16
TORSDOF 3
ENDMDL
MODEL 7
REMARK VINA RESULT:    -4.906      1.854      2.623
REMARK INTER + INTRA:          -5.547
REMARK INTER:                  -5.497
REMARK INTRA:                  -0.050
REMARK UNBOUND:                -0.068
REMARK SMILES COc1cc2ccc(=O)oc2c(O)c1O
REMARK SMILES IDX 3 1 14 2 12 3 11 4 5 5 4 6 6 7 7 8 8 9 9 10 10 11 2 12 1 13
REMARK SMILES IDX 15 14 13 16
REMARK H PARENT 15 15 13 17
REMARK Flexibility Score: inf
ROOT
ATOM      1  C   UNL     1      34.783   7.133 -21.524  1.00  0.00     0.165 A 
ATOM      2  C   UNL     1      33.921   7.775 -20.615  1.00  0.00     0.204 A 
ATOM      3  C   UNL     1      32.530   7.699 -20.779  1.00  0.00     0.205 A 
ATOM      4  C   UNL     1      31.989   6.977 -21.854  1.00  0.00     0.184 A 
ATOM      5  C   UNL     1      32.848   6.331 -22.769  1.00  0.00     0.025 A 
ATOM      6  C   UNL     1      34.237   6.410 -22.603  1.00  0.00     0.062 A 
ATOM      7  C   UNL     1      32.282   5.619 -23.831  1.00  0.00     0.020 A 
ATOM      8  C   UNL     1      30.895   5.567 -23.959  1.00  0.00     0.094 A 
ATOM      9  C   UNL     1      30.104   6.230 -23.016  1.00  0.00     0.336 A 
ATOM     10  O   UNL     1      28.849   6.195 -23.113  1.00  0.00    -0.246 OA
ATOM     11  O   UNL     1      30.668   6.900 -22.015  1.00  0.00    -0.419 OA
ENDROOT
BRANCH   1  12
ATOM     12  O   UNL     1      36.170   7.234 -21.327  1.00  0.00    -0.493 OA
ATOM     13  C   UNL     1      37.122   6.274 -21.773  1.00  0.00     0.278 C 
ENDBRANCH   1  12
BRANCH   2  14
ATOM     14  O   UNL     1      34.432   8.500 -19.536  1.00  0.00    -0.502 OA
ATOM     15  H   UNL     1      33.966   8.533 -18.637  1.00  0.00     0.293 HD
ENDBRANCH   2  14
BRANCH   3  16
ATOM     16  O   UNL     1      31.701   8.346 -19.862  1.00  0.00    -0.502 OA
ATOM     17  H   UNL     1      30.792   7.978 -19.603  1.00  0.00     0.293 HD
ENDBRANCH   3  16
TORSDOF 3
ENDMDL
MODEL 8
REMARK VINA RESULT:    -4.877      2.833      5.591
REMARK INTER + INTRA:          -5.515
REMARK INTER:                  -5.454
REMARK INTRA:                  -0.061
REMARK UNBOUND:                -0.068
REMARK SMILES COc1cc2ccc(=O)oc2c(O)c1O
REMARK SMILES IDX 3 1 14 2 12 3 11 4 5 5 4 6 6 7 7 8 8 9 9 10 10 11 2 12 1 13
REMARK SMILES IDX 15 14 13 16
REMARK H PARENT 15 15 13 17
REMARK Flexibility Score: inf
ROOT
ATOM      1  C   UNL     1      32.301   7.879 -21.866  1.00  0.00     0.165 A 
ATOM      2  C   UNL     1      32.790   7.562 -23.148  1.00  0.00     0.204 A 
ATOM      3  C   UNL     1      34.132   7.192 -23.325  1.00  0.00     0.205 A 
ATOM      4  C   UNL     1      34.995   7.134 -22.220  1.00  0.00     0.184 A 
ATOM      5  C   UNL     1      34.510   7.449 -20.933  1.00  0.00     0.025 A 
ATOM      6  C   UNL     1      33.170   7.821 -20.760  1.00  0.00     0.062 A 
ATOM      7  C   UNL     1      35.393   7.383 -19.850  1.00  0.00     0.020 A 
ATOM      8  C   UNL     1      36.718   7.010 -20.068  1.00  0.00     0.094 A 
ATOM      9  C   UNL     1      37.131   6.710 -21.370  1.00  0.00     0.336 A 
ATOM     10  O   UNL     1      38.323   6.370 -21.588  1.00  0.00    -0.246 OA
ATOM     11  O   UNL     1      36.270   6.781 -22.382  1.00  0.00    -0.419 OA
ENDROOT
BRANCH   1  12
ATOM     12  O   UNL     1      30.953   8.247 -21.729  1.00  0.00    -0.493 OA
ATOM     13  C   UNL     1      29.892   7.342 -21.441  1.00  0.00     0.278 C 
ENDBRANCH   1  12
BRANCH   2  14
ATOM     14  O   UNL     1      31.953   7.612 -24.264  1.00  0.00    -0.502 OA
ATOM     15  H   UNL     1      30.962   7.809 -24.188  1.00  0.00     0.293 HD
ENDBRANCH   2  14
BRANCH   3  16
ATOM     16  O   UNL     1      34.588   6.883 -24.607  1.00  0.00    -0.502 OA
ATOM     17  H   UNL     1      34.354   6.012 -25.068  1.00  0.00     0.293 HD
ENDBRANCH   3  16
TORSDOF 3
ENDMDL
MODEL 9
REMARK VINA RESULT:    -4.852      1.366      4.673
REMARK INTER + INTRA:          -5.488
REMARK INTER:                  -5.437
REMARK INTRA:                  -0.051
REMARK UNBOUND:                -0.068
REMARK SMILES COc1cc2ccc(=O)oc2c(O)c1O
REMARK SMILES IDX 3 1 14 2 12 3 11 4 5 5 4 6 6 7 7 8 8 9 9 10 10 11 2 12 1 13
REMARK SMILES IDX 15 14 13 16
REMARK H PARENT 15 15 13 17
REMARK Flexibility Score: inf
ROOT
ATOM      1  C   UNL     1      30.589   5.779 -23.100  1.00  0.00     0.165 A 
ATOM      2  C   UNL     1      30.184   6.418 -21.912  1.00  0.00     0.204 A 
ATOM      3  C   UNL     1      31.135   6.985 -21.051  1.00  0.00     0.205 A 
ATOM      4  C   UNL     1      32.500   6.918 -21.371  1.00  0.00     0.184 A 
ATOM      5  C   UNL     1      32.911   6.279 -22.561  1.00  0.00     0.025 A 
ATOM      6  C   UNL     1      31.959   5.713 -23.418  1.00  0.00     0.062 A 
ATOM      7  C   UNL     1      34.277   6.227 -22.856  1.00  0.00     0.020 A 
ATOM      8  C   UNL     1      35.191   6.803 -21.974  1.00  0.00     0.094 A 
ATOM      9  C   UNL     1      34.714   7.421 -20.814  1.00  0.00     0.336 A 
ATOM     10  O   UNL     1      35.522   7.948 -20.005  1.00  0.00    -0.246 OA
ATOM     11  O   UNL     1      33.409   7.456 -20.558  1.00  0.00    -0.419 OA
ENDROOT
BRANCH   1  12
ATOM     12  O   UNL     1      29.607   5.222 -23.935  1.00  0.00    -0.493 OA
ATOM     13  C   UNL     1      29.811   4.100 -24.787  1.00  0.00     0.278 C 
ENDBRANCH   1  12
BRANCH   2  14
ATOM     14  O   UNL     1      28.833   6.498 -21.568  1.00  0.00    -0.502 OA
ATOM     15  H   UNL     1      28.306   5.692 -21.255  1.00  0.00     0.293 HD
ENDBRANCH   2  14
BRANCH   3  16
ATOM     16  O   UNL     1      30.705   7.612 -19.881  1.00  0.00    -0.502 OA
ATOM     17  H   UNL     1      30.360   8.565 -19.875  1.00  0.00     0.293 HD
ENDBRANCH   3  16
TORSDOF 3
ENDMDL
