MODEL 1
REMARK VINA RESULT:    -4.728      0.000      0.000
REMARK INTER + INTRA:          -9.913
REMARK INTER:                  -8.044
REMARK INTRA:                  -1.869
REMARK UNBOUND:                -1.869
REMARK SMILES CCCCCCCCCCCCCC(=O)[O-]
REMARK SMILES IDX 8 1 9 2 10 3 11 4 12 5 13 6 14 7 15 8 16 9 7 10 6 11 5 12
REMARK SMILES IDX 4 13 3 14 2 15 1 16
REMARK H PARENT
REMARK Flexibility Score: inf
ROOT
ATOM      1  C   UNL     1    -101.818 -84.825  38.151  1.00  0.00     0.000 C 
ENDROOT
BRANCH   1   2
ATOM      2  C   UNL     1    -102.692 -85.931  38.777  1.00  0.00     0.000 C 
BRANCH   2   3
ATOM      3  C   UNL     1    -103.667 -85.452  39.867  1.00  0.00     0.000 C 
BRANCH   3   4
ATOM      4  C   UNL     1    -105.099 -85.255  39.339  1.00  0.00     0.000 C 
BRANCH   4   5
ATOM      5  C   UNL     1    -105.581 -83.802  39.468  1.00  0.00     0.006 C 
BRANCH   5   6
ATOM      6  C   UNL     1    -104.438 -82.830  39.787  1.00  0.00     0.053 C 
BRANCH   6   7
ATOM      7  C   UNL     1    -104.864 -81.420  39.526  1.00  0.00     0.041 C 
ATOM      8  O   UNL     1    -105.646 -81.160  38.574  1.00  0.00    -0.550 OA
ATOM      9  O   UNL     1    -104.436 -80.398  40.364  1.00  0.00    -0.550 OA
ENDBRANCH   6   7
ENDBRANCH   5   6
ENDBRANCH   4   5
ENDBRANCH   3   4
ENDBRANCH   2   3
ENDBRANCH   1   2
BRANCH   1  10
ATOM     10  C   UNL     1    -102.101 -84.531  36.667  1.00  0.00     0.000 C 
BRANCH  10  11
ATOM     11  C   UNL     1    -103.210 -83.488  36.465  1.00  0.00    -0.000 C 
BRANCH  11  12
ATOM     12  C   UNL     1    -104.440 -84.120  35.798  1.00  0.00    -0.000 C 
BRANCH  12  13
ATOM     13  C   UNL     1    -104.174 -85.546  35.292  1.00  0.00    -0.000 C 
BRANCH  13  14
ATOM     14  C   UNL     1    -105.379 -86.146  34.552  1.00  0.00    -0.000 C 
BRANCH  14  15
ATOM     15  C   UNL     1    -105.942 -87.353  35.312  1.00  0.00    -0.003 C 
ATOM     16  C   UNL     1    -105.074 -87.700  36.518  1.00  0.00     0.004 C 
ENDBRANCH  14  15
ENDBRANCH  13  14
ENDBRANCH  12  13
ENDBRANCH  11  12
ENDBRANCH  10  11
ENDBRANCH   1  10
TORSDOF 12
ENDMDL
MODEL 2
REMARK VINA RESULT:    -4.702      1.075      2.881
REMARK INTER + INTRA:          -9.870
REMARK INTER:                  -7.969
REMARK INTRA:                  -1.902
REMARK UNBOUND:                -1.869
REMARK SMILES CCCCCCCCCCCCCC(=O)[O-]
REMARK SMILES IDX 8 1 9 2 10 3 11 4 12 5 13 6 14 7 15 8 16 9 7 10 6 11 5 12
REMARK SMILES IDX 4 13 3 14 2 15 1 16
REMARK H PARENT
REMARK Flexibility Score: inf
ROOT
ATOM      1  C   UNL     1    -105.015 -87.149  37.849  1.00  0.00     0.000 C 
ENDROOT
BRANCH   1   2
ATOM      2  C   UNL     1    -103.800 -86.805  38.734  1.00  0.00     0.000 C 
BRANCH   2   3
ATOM      3  C   UNL     1    -103.996 -85.598  39.669  1.00  0.00     0.000 C 
BRANCH   3   4
ATOM      4  C   UNL     1    -105.195 -84.722  39.265  1.00  0.00     0.000 C 
BRANCH   4   5
ATOM      5  C   UNL     1    -104.960 -83.231  39.555  1.00  0.00     0.006 C 
BRANCH   5   6
ATOM      6  C   UNL     1    -103.486 -82.911  39.833  1.00  0.00     0.053 C 
BRANCH   6   7
ATOM      7  C   UNL     1    -103.266 -81.432  39.842  1.00  0.00     0.041 C 
ATOM      8  O   UNL     1    -103.194 -80.808  40.934  1.00  0.00    -0.550 OA
ATOM      9  O   UNL     1    -103.089 -80.748  38.646  1.00  0.00    -0.550 OA
ENDBRANCH   6   7
ENDBRANCH   5   6
ENDBRANCH   4   5
ENDBRANCH   3   4
ENDBRANCH   2   3
ENDBRANCH   1   2
BRANCH   1  10
ATOM     10  C   UNL     1    -104.678 -87.513  36.392  1.00  0.00     0.000 C 
BRANCH  10  11
ATOM     11  C   UNL     1    -105.799 -87.145  35.409  1.00  0.00    -0.000 C 
BRANCH  11  12
ATOM     12  C   UNL     1    -105.321 -86.089  34.403  1.00  0.00    -0.000 C 
BRANCH  12  13
ATOM     13  C   UNL     1    -104.075 -85.330  34.886  1.00  0.00    -0.000 C 
BRANCH  13  14
ATOM     14  C   UNL     1    -104.423 -84.015  35.599  1.00  0.00    -0.000 C 
BRANCH  14  15
ATOM     15  C   UNL     1    -103.173 -83.383  36.222  1.00  0.00    -0.003 C 
ATOM     16  C   UNL     1    -102.132 -84.444  36.567  1.00  0.00     0.004 C 
ENDBRANCH  14  15
ENDBRANCH  13  14
ENDBRANCH  12  13
ENDBRANCH  11  12
ENDBRANCH  10  11
ENDBRANCH   1  10
TORSDOF 12
ENDMDL
MODEL 3
REMARK VINA RESULT:    -4.547      2.615      5.628
REMARK INTER + INTRA:          -9.607
REMARK INTER:                  -8.303
REMARK INTRA:                  -1.303
REMARK UNBOUND:                -1.869
REMARK SMILES CCCCCCCCCCCCCC(=O)[O-]
REMARK SMILES IDX 8 1 9 2 10 3 11 4 12 5 13 6 14 7 15 8 16 9 7 10 6 11 5 12
REMARK SMILES IDX 4 13 3 14 2 15 1 16
REMARK H PARENT
REMARK Flexibility Score: inf
ROOT
ATOM      1  C   UNL     1    -103.668 -86.824  38.467  1.00  0.00     0.000 C 
ENDROOT
BRANCH   1   2
ATOM      2  C   UNL     1    -104.945 -87.041  37.629  1.00  0.00     0.000 C 
BRANCH   2   3
ATOM      3  C   UNL     1    -104.735 -87.020  36.105  1.00  0.00     0.000 C 
BRANCH   3   4
ATOM      4  C   UNL     1    -105.486 -85.868  35.416  1.00  0.00     0.000 C 
BRANCH   4   5
ATOM      5  C   UNL     1    -104.592 -84.642  35.173  1.00  0.00     0.006 C 
BRANCH   5   6
ATOM      6  C   UNL     1    -103.502 -84.908  34.127  1.00  0.00     0.053 C 
BRANCH   6   7
ATOM      7  C   UNL     1    -102.148 -84.648  34.707  1.00  0.00     0.041 C 
ATOM      8  O   UNL     1    -101.162 -84.449  33.949  1.00  0.00    -0.550 OA
ATOM      9  O   UNL     1    -101.984 -84.577  36.084  1.00  0.00    -0.550 OA
ENDBRANCH   6   7
ENDBRANCH   5   6
ENDBRANCH   4   5
ENDBRANCH   3   4
ENDBRANCH   2   3
ENDBRANCH   1   2
BRANCH   1  10
ATOM     10  C   UNL     1    -103.785 -85.757  39.570  1.00  0.00     0.000 C 
BRANCH  10  11
ATOM     11  C   UNL     1    -105.120 -84.998  39.527  1.00  0.00    -0.000 C 
BRANCH  11  12
ATOM     12  C   UNL     1    -104.893 -83.507  39.237  1.00  0.00    -0.000 C 
BRANCH  12  13
ATOM     13  C   UNL     1    -103.410 -83.163  39.024  1.00  0.00    -0.000 C 
BRANCH  13  14
ATOM     14  C   UNL     1    -102.908 -82.084  39.996  1.00  0.00    -0.000 C 
BRANCH  14  15
ATOM     15  C   UNL     1    -104.022 -81.083  40.325  1.00  0.00    -0.003 C 
ATOM     16  C   UNL     1    -103.525 -79.999  41.277  1.00  0.00     0.004 C 
ENDBRANCH  14  15
ENDBRANCH  13  14
ENDBRANCH  12  13
ENDBRANCH  11  12
ENDBRANCH  10  11
ENDBRANCH   1  10
TORSDOF 12
ENDMDL
MODEL 4
REMARK VINA RESULT:    -4.495      1.641      3.432
REMARK INTER + INTRA:          -9.518
REMARK INTER:                  -8.197
REMARK INTRA:                  -1.321
REMARK UNBOUND:                -1.869
REMARK SMILES CCCCCCCCCCCCCC(=O)[O-]
REMARK SMILES IDX 8 1 9 2 10 3 11 4 12 5 13 6 14 7 15 8 16 9 7 10 6 11 5 12
REMARK SMILES IDX 4 13 3 14 2 15 1 16
REMARK H PARENT
REMARK Flexibility Score: inf
ROOT
ATOM      1  C   UNL     1    -105.844 -87.290  35.251  1.00  0.00     0.000 C 
ENDROOT
BRANCH   1   2
ATOM      2  C   UNL     1    -105.146 -87.587  36.594  1.00  0.00     0.000 C 
BRANCH   2   3
ATOM      3  C   UNL     1    -105.059 -86.392  37.560  1.00  0.00     0.000 C 
BRANCH   3   4
ATOM      4  C   UNL     1    -104.014 -86.599  38.669  1.00  0.00     0.000 C 
BRANCH   4   5
ATOM      5  C   UNL     1    -104.274 -85.714  39.898  1.00  0.00     0.006 C 
BRANCH   5   6
ATOM      6  C   UNL     1    -105.286 -84.596  39.614  1.00  0.00     0.053 C 
BRANCH   6   7
ATOM      7  C   UNL     1    -104.591 -83.276  39.511  1.00  0.00     0.041 C 
ATOM      8  O   UNL     1    -103.339 -83.208  39.626  1.00  0.00    -0.550 OA
ATOM      9  O   UNL     1    -105.320 -82.126  39.238  1.00  0.00    -0.550 OA
ENDBRANCH   6   7
ENDBRANCH   5   6
ENDBRANCH   4   5
ENDBRANCH   3   4
ENDBRANCH   2   3
ENDBRANCH   1   2
BRANCH   1  10
ATOM     10  C   UNL     1    -105.074 -86.345  34.310  1.00  0.00     0.000 C 
BRANCH  10  11
ATOM     11  C   UNL     1    -105.683 -84.937  34.249  1.00  0.00    -0.000 C 
BRANCH  11  12
ATOM     12  C   UNL     1    -104.998 -84.091  33.167  1.00  0.00    -0.000 C 
BRANCH  12  13
ATOM     13  C   UNL     1    -103.511 -84.440  32.993  1.00  0.00    -0.000 C 
BRANCH  13  14
ATOM     14  C   UNL     1    -102.599 -83.624  33.921  1.00  0.00    -0.000 C 
BRANCH  14  15
ATOM     15  C   UNL     1    -101.765 -84.546  34.819  1.00  0.00    -0.003 C 
ATOM     16  C   UNL     1    -102.199 -84.435  36.278  1.00  0.00     0.004 C 
ENDBRANCH  14  15
ENDBRANCH  13  14
ENDBRANCH  12  13
ENDBRANCH  11  12
ENDBRANCH  10  11
ENDBRANCH   1  10
TORSDOF 12
ENDMDL
MODEL 5
REMARK VINA RESULT:    -4.470      2.866      5.303
REMARK INTER + INTRA:          -9.476
REMARK INTER:                  -7.861
REMARK INTRA:                  -1.615
REMARK UNBOUND:                -1.869
REMARK SMILES CCCCCCCCCCCCCC(=O)[O-]
REMARK SMILES IDX 8 1 9 2 10 3 11 4 12 5 13 6 14 7 15 8 16 9 7 10 6 11 5 12
REMARK SMILES IDX 4 13 3 14 2 15 1 16
REMARK H PARENT
REMARK Flexibility Score: inf
ROOT
ATOM      1  C   UNL     1    -103.660 -81.514  37.848  1.00  0.00     0.000 C 
ENDROOT
BRANCH   1   2
ATOM      2  C   UNL     1    -104.021 -81.838  36.384  1.00  0.00     0.000 C 
BRANCH   2   3
ATOM      3  C   UNL     1    -104.295 -83.325  36.095  1.00  0.00     0.000 C 
BRANCH   3   4
ATOM      4  C   UNL     1    -104.854 -83.563  34.682  1.00  0.00     0.000 C 
BRANCH   4   5
ATOM      5  C   UNL     1    -104.932 -85.054  34.321  1.00  0.00     0.006 C 
BRANCH   5   6
ATOM      6  C   UNL     1    -104.359 -85.956  35.422  1.00  0.00     0.053 C 
BRANCH   6   7
ATOM      7  C   UNL     1    -105.255 -87.129  35.656  1.00  0.00     0.041 C 
ATOM      8  O   UNL     1    -106.203 -87.372  34.862  1.00  0.00    -0.550 OA
ATOM      9  O   UNL     1    -105.015 -87.986  36.722  1.00  0.00    -0.550 OA
ENDBRANCH   6   7
ENDBRANCH   5   6
ENDBRANCH   4   5
ENDBRANCH   3   4
ENDBRANCH   2   3
ENDBRANCH   1   2
BRANCH   1  10
ATOM     10  C   UNL     1    -104.798 -81.728  38.863  1.00  0.00     0.000 C 
BRANCH  10  11
ATOM     11  C   UNL     1    -104.560 -82.937  39.780  1.00  0.00    -0.000 C 
BRANCH  11  12
ATOM     12  C   UNL     1    -105.629 -84.016  39.552  1.00  0.00    -0.000 C 
BRANCH  12  13
ATOM     13  C   UNL     1    -105.038 -85.336  39.032  1.00  0.00    -0.000 C 
BRANCH  13  14
ATOM     14  C   UNL     1    -103.897 -85.862  39.917  1.00  0.00    -0.000 C 
BRANCH  14  15
ATOM     15  C   UNL     1    -102.699 -86.296  39.064  1.00  0.00    -0.003 C 
ATOM     16  C   UNL     1    -102.120 -85.118  38.286  1.00  0.00     0.004 C 
ENDBRANCH  14  15
ENDBRANCH  13  14
ENDBRANCH  12  13
ENDBRANCH  11  12
ENDBRANCH  10  11
ENDBRANCH   1  10
TORSDOF 12
ENDMDL
MODEL 6
REMARK VINA RESULT:    -4.427      2.987      5.798
REMARK INTER + INTRA:          -9.401
REMARK INTER:                  -8.167
REMARK INTRA:                  -1.234
REMARK UNBOUND:                -1.869
REMARK SMILES CCCCCCCCCCCCCC(=O)[O-]
REMARK SMILES IDX 8 1 9 2 10 3 11 4 12 5 13 6 14 7 15 8 16 9 7 10 6 11 5 12
REMARK SMILES IDX 4 13 3 14 2 15 1 16
REMARK H PARENT
REMARK Flexibility Score: inf
ROOT
ATOM      1  C   UNL     1    -104.765 -83.601  39.509  1.00  0.00     0.000 C 
ENDROOT
BRANCH   1   2
ATOM      2  C   UNL     1    -105.114 -85.092  39.696  1.00  0.00     0.000 C 
BRANCH   2   3
ATOM      3  C   UNL     1    -103.909 -86.049  39.689  1.00  0.00     0.000 C 
BRANCH   3   4
ATOM      4  C   UNL     1    -103.896 -86.979  38.465  1.00  0.00     0.000 C 
BRANCH   4   5
ATOM      5  C   UNL     1    -105.090 -86.739  37.528  1.00  0.00     0.006 C 
BRANCH   5   6
ATOM      6  C   UNL     1    -105.124 -87.726  36.354  1.00  0.00     0.053 C 
BRANCH   6   7
ATOM      7  C   UNL     1    -105.808 -87.111  35.175  1.00  0.00     0.041 C 
ATOM      8  O   UNL     1    -105.582 -85.911  34.865  1.00  0.00    -0.550 OA
ATOM      9  O   UNL     1    -106.658 -87.876  34.387  1.00  0.00    -0.550 OA
ENDBRANCH   6   7
ENDBRANCH   5   6
ENDBRANCH   4   5
ENDBRANCH   3   4
ENDBRANCH   2   3
ENDBRANCH   1   2
BRANCH   1  10
ATOM     10  C   UNL     1    -103.352 -83.326  38.962  1.00  0.00     0.000 C 
BRANCH  10  11
ATOM     11  C   UNL     1    -102.480 -82.520  39.937  1.00  0.00    -0.000 C 
BRANCH  11  12
ATOM     12  C   UNL     1    -103.254 -81.319  40.499  1.00  0.00    -0.000 C 
BRANCH  12  13
ATOM     13  C   UNL     1    -103.467 -80.210  39.456  1.00  0.00    -0.000 C 
BRANCH  13  14
ATOM     14  C   UNL     1    -104.887 -79.625  39.495  1.00  0.00    -0.000 C 
BRANCH  14  15
ATOM     15  C   UNL     1    -105.757 -80.227  38.385  1.00  0.00    -0.003 C 
ATOM     16  C   UNL     1    -104.930 -80.531  37.139  1.00  0.00     0.004 C 
ENDBRANCH  14  15
ENDBRANCH  13  14
ENDBRANCH  12  13
ENDBRANCH  11  12
ENDBRANCH  10  11
ENDBRANCH   1  10
TORSDOF 12
ENDMDL
MODEL 7
REMARK VINA RESULT:    -4.424      1.352      2.870
REMARK INTER + INTRA:          -9.396
REMARK INTER:                  -7.728
REMARK INTRA:                  -1.668
REMARK UNBOUND:                -1.869
REMARK SMILES CCCCCCCCCCCCCC(=O)[O-]
REMARK SMILES IDX 8 1 9 2 10 3 11 4 12 5 13 6 14 7 15 8 16 9 7 10 6 11 5 12
REMARK SMILES IDX 4 13 3 14 2 15 1 16
REMARK H PARENT
REMARK Flexibility Score: inf
ROOT
ATOM      1  C   UNL     1    -103.960 -86.694  38.452  1.00  0.00     0.000 C 
ENDROOT
BRANCH   1   2
ATOM      2  C   UNL     1    -104.168 -85.590  39.508  1.00  0.00     0.000 C 
BRANCH   2   3
ATOM      3  C   UNL     1    -105.407 -84.704  39.289  1.00  0.00     0.000 C 
BRANCH   3   4
ATOM      4  C   UNL     1    -105.114 -83.209  39.498  1.00  0.00     0.000 C 
BRANCH   4   5
ATOM      5  C   UNL     1    -103.635 -82.935  39.811  1.00  0.00     0.006 C 
BRANCH   5   6
ATOM      6  C   UNL     1    -103.125 -81.643  39.160  1.00  0.00     0.053 C 
BRANCH   6   7
ATOM      7  C   UNL     1    -103.506 -80.457  39.986  1.00  0.00     0.041 C 
ATOM      8  O   UNL     1    -104.048 -79.456  39.447  1.00  0.00    -0.550 OA
ATOM      9  O   UNL     1    -103.307 -80.475  41.361  1.00  0.00    -0.550 OA
ENDBRANCH   6   7
ENDBRANCH   5   6
ENDBRANCH   4   5
ENDBRANCH   3   4
ENDBRANCH   2   3
ENDBRANCH   1   2
BRANCH   1  10
ATOM     10  C   UNL     1    -105.203 -87.033  37.610  1.00  0.00     0.000 C 
BRANCH  10  11
ATOM     11  C   UNL     1    -104.852 -87.656  36.251  1.00  0.00    -0.000 C 
BRANCH  11  12
ATOM     12  C   UNL     1    -105.676 -87.015  35.125  1.00  0.00    -0.000 C 
BRANCH  12  13
ATOM     13  C   UNL     1    -105.395 -85.512  34.967  1.00  0.00    -0.000 C 
BRANCH  13  14
ATOM     14  C   UNL     1    -103.900 -85.206  34.784  1.00  0.00    -0.000 C 
BRANCH  14  15
ATOM     15  C   UNL     1    -103.414 -84.204  35.837  1.00  0.00    -0.003 C 
ATOM     16  C   UNL     1    -104.194 -82.895  35.755  1.00  0.00     0.004 C 
ENDBRANCH  14  15
ENDBRANCH  13  14
ENDBRANCH  12  13
ENDBRANCH  11  12
ENDBRANCH  10  11
ENDBRANCH   1  10
TORSDOF 12
ENDMDL
MODEL 8
REMARK VINA RESULT:    -4.400      2.502      5.631
REMARK INTER + INTRA:          -9.355
REMARK INTER:                  -8.044
REMARK INTRA:                  -1.311
REMARK UNBOUND:                -1.869
REMARK SMILES CCCCCCCCCCCCCC(=O)[O-]
REMARK SMILES IDX 8 1 9 2 10 3 11 4 12 5 13 6 14 7 15 8 16 9 7 10 6 11 5 12
REMARK SMILES IDX 4 13 3 14 2 15 1 16
REMARK H PARENT
REMARK Flexibility Score: inf
ROOT
ATOM      1  C   UNL     1    -105.140 -85.250  39.507  1.00  0.00     0.000 C 
ENDROOT
BRANCH   1   2
ATOM      2  C   UNL     1    -103.772 -85.962  39.534  1.00  0.00     0.000 C 
BRANCH   2   3
ATOM      3  C   UNL     1    -103.631 -87.138  38.552  1.00  0.00     0.000 C 
BRANCH   3   4
ATOM      4  C   UNL     1    -104.933 -87.434  37.787  1.00  0.00     0.000 C 
BRANCH   4   5
ATOM      5  C   UNL     1    -104.780 -87.249  36.269  1.00  0.00     0.006 C 
BRANCH   5   6
ATOM      6  C   UNL     1    -105.070 -85.810  35.820  1.00  0.00     0.053 C 
BRANCH   6   7
ATOM      7  C   UNL     1    -103.852 -85.201  35.202  1.00  0.00     0.041 C 
ATOM      8  O   UNL     1    -102.888 -84.838  35.925  1.00  0.00    -0.550 OA
ATOM      9  O   UNL     1    -103.761 -85.080  33.821  1.00  0.00    -0.550 OA
ENDBRANCH   6   7
ENDBRANCH   5   6
ENDBRANCH   4   5
ENDBRANCH   3   4
ENDBRANCH   2   3
ENDBRANCH   1   2
BRANCH   1  10
ATOM     10  C   UNL     1    -105.074 -83.712  39.494  1.00  0.00     0.000 C 
BRANCH  10  11
ATOM     11  C   UNL     1    -103.746 -83.175  38.938  1.00  0.00    -0.000 C 
BRANCH  11  12
ATOM     12  C   UNL     1    -102.932 -82.480  40.039  1.00  0.00    -0.000 C 
BRANCH  12  13
ATOM     13  C   UNL     1    -102.998 -80.947  39.947  1.00  0.00    -0.000 C 
BRANCH  13  14
ATOM     14  C   UNL     1    -104.312 -80.378  40.502  1.00  0.00    -0.000 C 
BRANCH  14  15
ATOM     15  C   UNL     1    -104.931 -79.373  39.523  1.00  0.00    -0.003 C 
ATOM     16  C   UNL     1    -105.757 -80.083  38.454  1.00  0.00     0.004 C 
ENDBRANCH  14  15
ENDBRANCH  13  14
ENDBRANCH  12  13
ENDBRANCH  11  12
ENDBRANCH  10  11
ENDBRANCH   1  10
TORSDOF 12
ENDMDL
MODEL 9
REMARK VINA RESULT:    -4.377      2.388      5.458
REMARK INTER + INTRA:          -9.317
REMARK INTER:                  -8.105
REMARK INTRA:                  -1.212
REMARK UNBOUND:                -1.869
REMARK SMILES CCCCCCCCCCCCCC(=O)[O-]
REMARK SMILES IDX 8 1 9 2 10 3 11 4 12 5 13 6 14 7 15 8 16 9 7 10 6 11 5 12
REMARK SMILES IDX 4 13 3 14 2 15 1 16
REMARK H PARENT
REMARK Flexibility Score: inf
ROOT
ATOM      1  C   UNL     1    -105.136 -85.372  39.047  1.00  0.00     0.000 C 
ENDROOT
BRANCH   1   2
ATOM      2  C   UNL     1    -105.021 -85.715  37.548  1.00  0.00     0.000 C 
BRANCH   2   3
ATOM      3  C   UNL     1    -105.151 -87.211  37.210  1.00  0.00     0.000 C 
BRANCH   3   4
ATOM      4  C   UNL     1    -105.500 -87.458  35.732  1.00  0.00     0.000 C 
BRANCH   4   5
ATOM      5  C   UNL     1    -105.710 -86.153  34.949  1.00  0.00     0.006 C 
BRANCH   5   6
ATOM      6  C   UNL     1    -104.607 -85.905  33.912  1.00  0.00     0.053 C 
BRANCH   6   7
ATOM      7  C   UNL     1    -104.455 -84.440  33.652  1.00  0.00     0.041 C 
ATOM      8  O   UNL     1    -104.228 -84.023  32.485  1.00  0.00    -0.550 OA
ATOM      9  O   UNL     1    -104.612 -83.530  34.690  1.00  0.00    -0.550 OA
ENDBRANCH   6   7
ENDBRANCH   5   6
ENDBRANCH   4   5
ENDBRANCH   3   4
ENDBRANCH   2   3
ENDBRANCH   1   2
BRANCH   1  10
ATOM     10  C   UNL     1    -103.863 -85.630  39.874  1.00  0.00     0.000 C 
BRANCH  10  11
ATOM     11  C   UNL     1    -102.578 -85.531  39.039  1.00  0.00    -0.000 C 
BRANCH  11  12
ATOM     12  C   UNL     1    -102.123 -84.071  38.905  1.00  0.00    -0.000 C 
BRANCH  12  13
ATOM     13  C   UNL     1    -102.380 -83.250  40.179  1.00  0.00    -0.000 C 
BRANCH  13  14
ATOM     14  C   UNL     1    -102.867 -81.825  39.876  1.00  0.00    -0.000 C 
BRANCH  14  15
ATOM     15  C   UNL     1    -104.384 -81.713  40.071  1.00  0.00    -0.003 C 
ATOM     16  C   UNL     1    -105.114 -81.719  38.731  1.00  0.00     0.004 C 
ENDBRANCH  14  15
ENDBRANCH  13  14
ENDBRANCH  12  13
ENDBRANCH  11  12
ENDBRANCH  10  11
ENDBRANCH   1  10
TORSDOF 12
ENDMDL
