MODEL 1
REMARK VINA RESULT:    -6.936      0.000      0.000
REMARK INTER + INTRA:         -10.023
REMARK INTER:                  -9.369
REMARK INTRA:                  -0.654
REMARK UNBOUND:                -0.654
REMARK SMILES O=c1c(-c2ccc(O)cc2)coc2c([C@H]3O[C@@H](CO)[C@H](O)[C@@H](O)[C@H]3O)c(O)ccc12
REMARK SMILES IDX 3 1 11 2 12 3 13 4 30 5 2 6 1 7 29 8 28 9 26 10 14 11 4 12
REMARK SMILES IDX 5 13 6 14 7 15 10 16 9 17 8 18 15 20 24 21 16 22 22 23 17 24
REMARK SMILES IDX 20 25 25 26 23 28 18 30 19 31 21 33 27 35
REMARK H PARENT 8 19 25 27 23 29 19 32 21 34 27 36
REMARK Flexibility Score: inf
ROOT
ATOM      1  C   UNL     1       5.092 -15.865   6.759  1.00  0.00     0.065 A 
ATOM      2  C   UNL     1       4.627 -16.358   5.522  1.00  0.00     0.208 A 
ATOM      3  O   UNL     1       4.561 -17.651   5.272  1.00  0.00    -0.463 OA
ATOM      4  C   UNL     1       4.935 -18.583   6.147  1.00  0.00     0.147 A 
ATOM      5  C   UNL     1       5.348 -18.202   7.445  1.00  0.00     0.066 A 
ATOM      6  C   UNL     1       5.513 -16.826   7.705  1.00  0.00     0.200 A 
ATOM      7  O   UNL     1       5.855 -16.470   8.862  1.00  0.00    -0.288 OA
ATOM      8  C   UNL     1       6.146 -19.129   8.164  1.00  0.00     0.020 A 
ATOM      9  C   UNL     1       6.260 -20.444   7.765  1.00  0.00     0.047 A 
ATOM     10  C   UNL     1       5.741 -20.858   6.534  1.00  0.00     0.125 A 
ATOM     11  C   UNL     1       5.089 -19.924   5.689  1.00  0.00     0.069 A 
ENDROOT
BRANCH   1  12
ATOM     12  C   UNL     1       5.111 -14.383   7.029  1.00  0.00    -0.011 A 
ATOM     13  C   UNL     1       5.380 -13.461   5.988  1.00  0.00     0.013 A 
ATOM     14  C   UNL     1       5.382 -12.088   6.227  1.00  0.00     0.047 A 
ATOM     15  C   UNL     1       5.016 -11.589   7.495  1.00  0.00     0.115 A 
ATOM     16  C   UNL     1       4.836 -13.862   8.316  1.00  0.00     0.013 A 
ATOM     17  C   UNL     1       4.759 -12.489   8.535  1.00  0.00     0.047 A 
BRANCH  15  18
ATOM     18  O   UNL     1       4.916 -10.216   7.720  1.00  0.00    -0.508 OA
ATOM     19  H   UNL     1       4.025  -9.730   7.682  1.00  0.00     0.293 HD
ENDBRANCH  15  18
ENDBRANCH   1  12
BRANCH  11  20
ATOM     20  C   UNL     1       4.889 -20.241   4.205  1.00  0.00     0.188 C 
ATOM     21  C   UNL     1       3.535 -20.990   3.981  1.00  0.00     0.179 C 
ATOM     22  O   UNL     1       5.974 -21.009   3.714  1.00  0.00    -0.362 OA
ATOM     23  C   UNL     1       3.644 -22.017   2.824  1.00  0.00     0.177 C 
ATOM     24  C   UNL     1       5.961 -21.053   2.294  1.00  0.00     0.176 C 
ATOM     25  C   UNL     1       4.587 -21.519   1.721  1.00  0.00     0.177 C 
BRANCH  21  26
ATOM     26  O   UNL     1       3.094 -21.645   5.151  1.00  0.00    -0.387 OA
ATOM     27  H   UNL     1       3.165 -20.983   5.886  1.00  0.00     0.211 HD
ENDBRANCH  21  26
BRANCH  23  28
ATOM     28  O   UNL     1       4.044 -23.300   3.276  1.00  0.00    -0.387 OA
ATOM     29  H   UNL     1       4.252 -23.859   2.474  1.00  0.00     0.211 HD
ENDBRANCH  23  28
BRANCH  24  30
ATOM     30  C   UNL     1       7.102 -21.978   1.853  1.00  0.00     0.191 C 
BRANCH  30  31
ATOM     31  O   UNL     1       7.582 -22.728   2.949  1.00  0.00    -0.394 OA
ATOM     32  H   UNL     1       7.956 -23.567   2.590  1.00  0.00     0.210 HD
ENDBRANCH  30  31
ENDBRANCH  24  30
BRANCH  25  33
ATOM     33  O   UNL     1       3.981 -20.436   1.060  1.00  0.00    -0.388 OA
ATOM     34  H   UNL     1       3.217 -20.124   1.620  1.00  0.00     0.211 HD
ENDBRANCH  25  33
ENDBRANCH  11  20
BRANCH  10  35
ATOM     35  O   UNL     1       5.940 -22.191   6.178  1.00  0.00    -0.507 OA
ATOM     36  H   UNL     1       6.691 -22.761   6.525  1.00  0.00     0.293 HD
ENDBRANCH  10  35
TORSDOF 9
ENDMDL
MODEL 2
REMARK VINA RESULT:    -6.810      2.024      3.499
REMARK INTER + INTRA:          -9.853
REMARK INTER:                  -9.461
REMARK INTRA:                  -0.392
REMARK UNBOUND:                -0.654
REMARK SMILES O=c1c(-c2ccc(O)cc2)coc2c([C@H]3O[C@@H](CO)[C@H](O)[C@@H](O)[C@H]3O)c(O)ccc12
REMARK SMILES IDX 3 1 11 2 12 3 13 4 30 5 2 6 1 7 29 8 28 9 26 10 14 11 4 12
REMARK SMILES IDX 5 13 6 14 7 15 10 16 9 17 8 18 15 20 24 21 16 22 22 23 17 24
REMARK SMILES IDX 20 25 25 26 23 28 18 30 19 31 21 33 27 35
REMARK H PARENT 8 19 25 27 23 29 19 32 21 34 27 36
REMARK Flexibility Score: inf
ROOT
ATOM      1  C   UNL     1       4.345 -14.882   7.090  1.00  0.00     0.065 A 
ATOM      2  C   UNL     1       4.102 -16.205   7.513  1.00  0.00     0.208 A 
ATOM      3  O   UNL     1       4.674 -17.237   6.925  1.00  0.00    -0.463 OA
ATOM      4  C   UNL     1       5.505 -17.118   5.889  1.00  0.00     0.147 A 
ATOM      5  C   UNL     1       5.875 -15.833   5.430  1.00  0.00     0.066 A 
ATOM      6  C   UNL     1       5.208 -14.720   5.984  1.00  0.00     0.200 A 
ATOM      7  O   UNL     1       5.544 -13.569   5.604  1.00  0.00    -0.288 OA
ATOM      8  C   UNL     1       6.364 -15.740   4.103  1.00  0.00     0.020 A 
ATOM      9  C   UNL     1       6.752 -16.859   3.397  1.00  0.00     0.047 A 
ATOM     10  C   UNL     1       6.501 -18.138   3.905  1.00  0.00     0.125 A 
ATOM     11  C   UNL     1       5.847 -18.289   5.154  1.00  0.00     0.069 A 
ENDROOT
BRANCH   1  12
ATOM     12  C   UNL     1       3.711 -13.723   7.814  1.00  0.00    -0.011 A 
ATOM     13  C   UNL     1       4.496 -12.845   8.602  1.00  0.00     0.013 A 
ATOM     14  C   UNL     1       3.918 -11.760   9.260  1.00  0.00     0.047 A 
ATOM     15  C   UNL     1       2.552 -11.463   9.071  1.00  0.00     0.115 A 
ATOM     16  C   UNL     1       2.325 -13.457   7.714  1.00  0.00     0.013 A 
ATOM     17  C   UNL     1       1.764 -12.329   8.306  1.00  0.00     0.047 A 
BRANCH  15  18
ATOM     18  O   UNL     1       1.984 -10.325   9.644  1.00  0.00    -0.508 OA
ATOM     19  H   UNL     1       2.553  -9.589  10.052  1.00  0.00     0.293 HD
ENDBRANCH  15  18
ENDBRANCH   1  12
BRANCH  11  20
ATOM     20  C   UNL     1       5.205 -19.628   5.526  1.00  0.00     0.188 C 
ATOM     21  C   UNL     1       5.603 -20.043   6.980  1.00  0.00     0.179 C 
ATOM     22  O   UNL     1       5.581 -20.631   4.598  1.00  0.00    -0.362 OA
ATOM     23  C   UNL     1       5.740 -21.583   7.110  1.00  0.00     0.177 C 
ATOM     24  C   UNL     1       4.768 -21.786   4.745  1.00  0.00     0.176 C 
ATOM     25  C   UNL     1       4.729 -22.311   6.214  1.00  0.00     0.177 C 
BRANCH  21  26
ATOM     26  O   UNL     1       6.804 -19.428   7.395  1.00  0.00    -0.387 OA
ATOM     27  H   UNL     1       7.012 -18.735   6.716  1.00  0.00     0.211 HD
ENDBRANCH  21  26
BRANCH  23  28
ATOM     28  O   UNL     1       7.057 -22.033   6.840  1.00  0.00    -0.387 OA
ATOM     29  H   UNL     1       7.676 -21.576   7.477  1.00  0.00     0.211 HD
ENDBRANCH  23  28
BRANCH  24  30
ATOM     30  C   UNL     1       5.303 -22.850   3.778  1.00  0.00     0.191 C 
BRANCH  30  31
ATOM     31  O   UNL     1       6.538 -23.358   4.236  1.00  0.00    -0.394 OA
ATOM     32  H   UNL     1       6.567 -23.227   5.213  1.00  0.00     0.210 HD
ENDBRANCH  30  31
ENDBRANCH  24  30
BRANCH  25  33
ATOM     33  O   UNL     1       3.437 -22.114   6.732  1.00  0.00    -0.388 OA
ATOM     34  H   UNL     1       3.515 -22.028   7.723  1.00  0.00     0.211 HD
ENDBRANCH  25  33
ENDBRANCH  11  20
BRANCH  10  35
ATOM     35  O   UNL     1       6.877 -19.220   3.110  1.00  0.00    -0.507 OA
ATOM     36  H   UNL     1       7.424 -19.997   3.437  1.00  0.00     0.293 HD
ENDBRANCH  10  35
TORSDOF 9
ENDMDL
MODEL 3
REMARK VINA RESULT:    -6.783      2.703      8.635
REMARK INTER + INTRA:          -9.815
REMARK INTER:                  -8.818
REMARK INTRA:                  -0.997
REMARK UNBOUND:                -0.654
REMARK SMILES O=c1c(-c2ccc(O)cc2)coc2c([C@H]3O[C@@H](CO)[C@H](O)[C@@H](O)[C@H]3O)c(O)ccc12
REMARK SMILES IDX 3 1 11 2 12 3 13 4 30 5 2 6 1 7 29 8 28 9 26 10 14 11 4 12
REMARK SMILES IDX 5 13 6 14 7 15 10 16 9 17 8 18 15 20 24 21 16 22 22 23 17 24
REMARK SMILES IDX 20 25 25 26 23 28 18 30 19 31 21 33 27 35
REMARK H PARENT 8 19 25 27 23 29 19 32 21 34 27 36
REMARK Flexibility Score: inf
ROOT
ATOM      1  C   UNL     1       4.198 -19.501   6.552  1.00  0.00     0.065 A 
ATOM      2  C   UNL     1       3.411 -18.449   6.039  1.00  0.00     0.208 A 
ATOM      3  O   UNL     1       3.711 -17.186   6.265  1.00  0.00    -0.463 OA
ATOM      4  C   UNL     1       4.757 -16.804   6.996  1.00  0.00     0.147 A 
ATOM      5  C   UNL     1       5.655 -17.775   7.497  1.00  0.00     0.066 A 
ATOM      6  C   UNL     1       5.307 -19.133   7.345  1.00  0.00     0.200 A 
ATOM      7  O   UNL     1       6.108 -20.008   7.762  1.00  0.00    -0.288 OA
ATOM      8  C   UNL     1       6.456 -17.399   8.605  1.00  0.00     0.020 A 
ATOM      9  C   UNL     1       6.588 -16.080   8.985  1.00  0.00     0.047 A 
ATOM     10  C   UNL     1       5.788 -15.092   8.403  1.00  0.00     0.125 A 
ATOM     11  C   UNL     1       4.837 -15.443   7.412  1.00  0.00     0.069 A 
ENDROOT
BRANCH   1  12
ATOM     12  C   UNL     1       3.854 -20.933   6.236  1.00  0.00    -0.011 A 
ATOM     13  C   UNL     1       3.848 -21.918   7.254  1.00  0.00     0.013 A 
ATOM     14  C   UNL     1       3.512 -23.241   6.971  1.00  0.00     0.047 A 
ATOM     15  C   UNL     1       3.076 -23.602   5.679  1.00  0.00     0.115 A 
ATOM     16  C   UNL     1       3.501 -21.338   4.926  1.00  0.00     0.013 A 
ATOM     17  C   UNL     1       3.089 -22.641   4.662  1.00  0.00     0.047 A 
BRANCH  15  18
ATOM     18  O   UNL     1       2.643 -24.899   5.408  1.00  0.00    -0.508 OA
ATOM     19  H   UNL     1       2.901 -25.383   4.552  1.00  0.00     0.293 HD
ENDBRANCH  15  18
ENDBRANCH   1  12
BRANCH  11  20
ATOM     20  C   UNL     1       3.695 -14.482   7.069  1.00  0.00     0.188 C 
ATOM     21  C   UNL     1       4.104 -13.541   5.889  1.00  0.00     0.179 C 
ATOM     22  O   UNL     1       3.329 -13.725   8.210  1.00  0.00    -0.362 OA
ATOM     23  C   UNL     1       3.471 -12.134   6.045  1.00  0.00     0.177 C 
ATOM     24  C   UNL     1       2.092 -13.060   7.999  1.00  0.00     0.176 C 
ATOM     25  C   UNL     1       2.080 -12.215   6.688  1.00  0.00     0.177 C 
BRANCH  21  26
ATOM     26  O   UNL     1       5.505 -13.417   5.775  1.00  0.00    -0.387 OA
ATOM     27  H   UNL     1       5.674 -12.541   5.341  1.00  0.00     0.211 HD
ENDBRANCH  21  26
BRANCH  23  28
ATOM     28  O   UNL     1       4.303 -11.245   6.771  1.00  0.00    -0.387 OA
ATOM     29  H   UNL     1       4.758 -10.643   6.117  1.00  0.00     0.211 HD
ENDBRANCH  23  28
BRANCH  24  30
ATOM     30  C   UNL     1       1.821 -12.192   9.234  1.00  0.00     0.191 C 
BRANCH  30  31
ATOM     31  O   UNL     1       2.853 -11.244   9.408  1.00  0.00    -0.394 OA
ATOM     32  H   UNL     1       3.465 -11.331   8.640  1.00  0.00     0.210 HD
ENDBRANCH  30  31
ENDBRANCH  24  30
BRANCH  25  33
ATOM     33  O   UNL     1       1.191 -12.807   5.774  1.00  0.00    -0.388 OA
ATOM     34  H   UNL     1       1.729 -13.178   5.020  1.00  0.00     0.211 HD
ENDBRANCH  25  33
ENDBRANCH  11  20
BRANCH  10  35
ATOM     35  O   UNL     1       5.944 -13.790   8.876  1.00  0.00    -0.507 OA
ATOM     36  H   UNL     1       5.427 -13.000   8.534  1.00  0.00     0.293 HD
ENDBRANCH  10  35
TORSDOF 9
ENDMDL
MODEL 4
REMARK VINA RESULT:    -6.639      2.178      8.630
REMARK INTER + INTRA:          -9.621
REMARK INTER:                  -9.035
REMARK INTRA:                  -0.587
REMARK UNBOUND:                -0.654
REMARK SMILES O=c1c(-c2ccc(O)cc2)coc2c([C@H]3O[C@@H](CO)[C@H](O)[C@@H](O)[C@H]3O)c(O)ccc12
REMARK SMILES IDX 3 1 11 2 12 3 13 4 30 5 2 6 1 7 29 8 28 9 26 10 14 11 4 12
REMARK SMILES IDX 5 13 6 14 7 15 10 16 9 17 8 18 15 20 24 21 16 22 22 23 17 24
REMARK SMILES IDX 20 25 25 26 23 28 18 30 19 31 21 33 27 35
REMARK H PARENT 8 19 25 27 23 29 19 32 21 34 27 36
REMARK Flexibility Score: inf
ROOT
ATOM      1  C   UNL     1       5.470 -18.562   5.463  1.00  0.00     0.065 A 
ATOM      2  C   UNL     1       5.947 -17.243   5.316  1.00  0.00     0.208 A 
ATOM      3  O   UNL     1       5.486 -16.253   6.053  1.00  0.00    -0.463 OA
ATOM      4  C   UNL     1       4.536 -16.410   6.974  1.00  0.00     0.147 A 
ATOM      5  C   UNL     1       4.038 -17.704   7.255  1.00  0.00     0.066 A 
ATOM      6  C   UNL     1       4.450 -18.762   6.419  1.00  0.00     0.200 A 
ATOM      7  O   UNL     1       4.037 -19.922   6.672  1.00  0.00    -0.288 OA
ATOM      8  C   UNL     1       2.765 -17.783   7.873  1.00  0.00     0.020 A 
ATOM      9  C   UNL     1       2.174 -16.679   8.451  1.00  0.00     0.047 A 
ATOM     10  C   UNL     1       2.731 -15.407   8.281  1.00  0.00     0.125 A 
ATOM     11  C   UNL     1       3.914 -15.248   7.515  1.00  0.00     0.069 A 
ENDROOT
BRANCH   1  12
ATOM     12  C   UNL     1       6.052 -19.678   4.636  1.00  0.00    -0.011 A 
ATOM     13  C   UNL     1       6.483 -19.446   3.306  1.00  0.00     0.013 A 
ATOM     14  C   UNL     1       7.039 -20.471   2.543  1.00  0.00     0.047 A 
ATOM     15  C   UNL     1       7.272 -21.738   3.118  1.00  0.00     0.115 A 
ATOM     16  C   UNL     1       6.212 -20.982   5.162  1.00  0.00     0.013 A 
ATOM     17  C   UNL     1       6.840 -21.983   4.425  1.00  0.00     0.047 A 
BRANCH  15  18
ATOM     18  O   UNL     1       7.918 -22.741   2.396  1.00  0.00    -0.508 OA
ATOM     19  H   UNL     1       8.758 -22.556   1.854  1.00  0.00     0.293 HD
ENDBRANCH  15  18
ENDBRANCH   1  12
BRANCH  11  20
ATOM     20  C   UNL     1       4.300 -13.867   6.980  1.00  0.00     0.188 C 
ATOM     21  C   UNL     1       5.424 -13.231   7.862  1.00  0.00     0.179 C 
ATOM     22  O   UNL     1       3.165 -13.021   6.929  1.00  0.00    -0.362 OA
ATOM     23  C   UNL     1       5.269 -11.690   7.949  1.00  0.00     0.177 C 
ATOM     24  C   UNL     1       3.435 -11.857   6.163  1.00  0.00     0.176 C 
ATOM     25  C   UNL     1       4.719 -11.109   6.639  1.00  0.00     0.177 C 
BRANCH  21  26
ATOM     26  O   UNL     1       5.445 -13.775   9.164  1.00  0.00    -0.387 OA
ATOM     27  H   UNL     1       5.301 -14.752   9.062  1.00  0.00     0.211 HD
ENDBRANCH  21  26
BRANCH  23  28
ATOM     28  O   UNL     1       4.464 -11.289   9.045  1.00  0.00    -0.387 OA
ATOM     29  H   UNL     1       4.504 -12.009   9.737  1.00  0.00     0.211 HD
ENDBRANCH  23  28
BRANCH  24  30
ATOM     30  C   UNL     1       2.195 -10.958   6.241  1.00  0.00     0.191 C 
BRANCH  30  31
ATOM     31  O   UNL     1       2.389  -9.929   7.189  1.00  0.00    -0.394 OA
ATOM     32  H   UNL     1       1.562  -9.860   7.722  1.00  0.00     0.210 HD
ENDBRANCH  30  31
ENDBRANCH  24  30
BRANCH  25  33
ATOM     33  O   UNL     1       5.705 -11.222   5.643  1.00  0.00    -0.388 OA
ATOM     34  H   UNL     1       5.409 -11.923   4.998  1.00  0.00     0.211 HD
ENDBRANCH  25  33
ENDBRANCH  11  20
BRANCH  10  35
ATOM     35  O   UNL     1       2.048 -14.335   8.853  1.00  0.00    -0.507 OA
ATOM     36  H   UNL     1       1.124 -14.397   9.240  1.00  0.00     0.293 HD
ENDBRANCH  10  35
TORSDOF 9
ENDMDL
MODEL 5
REMARK VINA RESULT:    -6.639      3.092      9.209
REMARK INTER + INTRA:          -9.621
REMARK INTER:                  -9.071
REMARK INTRA:                  -0.550
REMARK UNBOUND:                -0.654
REMARK SMILES O=c1c(-c2ccc(O)cc2)coc2c([C@H]3O[C@@H](CO)[C@H](O)[C@@H](O)[C@H]3O)c(O)ccc12
REMARK SMILES IDX 3 1 11 2 12 3 13 4 30 5 2 6 1 7 29 8 28 9 26 10 14 11 4 12
REMARK SMILES IDX 5 13 6 14 7 15 10 16 9 17 8 18 15 20 24 21 16 22 22 23 17 24
REMARK SMILES IDX 20 25 25 26 23 28 18 30 19 31 21 33 27 35
REMARK H PARENT 8 19 25 27 23 29 19 32 21 34 27 36
REMARK Flexibility Score: inf
ROOT
ATOM      1  C   UNL     1       4.355 -17.551   7.255  1.00  0.00     0.065 A 
ATOM      2  C   UNL     1       3.094 -17.011   6.928  1.00  0.00     0.208 A 
ATOM      3  O   UNL     1       2.859 -15.715   6.990  1.00  0.00    -0.463 OA
ATOM      4  C   UNL     1       3.773 -14.825   7.373  1.00  0.00     0.147 A 
ATOM      5  C   UNL     1       5.092 -15.250   7.654  1.00  0.00     0.066 A 
ATOM      6  C   UNL     1       5.343 -16.638   7.682  1.00  0.00     0.200 A 
ATOM      7  O   UNL     1       6.517 -17.031   7.905  1.00  0.00    -0.288 OA
ATOM      8  C   UNL     1       5.883 -14.401   8.468  1.00  0.00     0.020 A 
ATOM      9  C   UNL     1       5.513 -13.096   8.722  1.00  0.00     0.047 A 
ATOM     10  C   UNL     1       4.252 -12.630   8.335  1.00  0.00     0.125 A 
ATOM     11  C   UNL     1       3.348 -13.499   7.673  1.00  0.00     0.069 A 
ENDROOT
BRANCH   1  12
ATOM     12  C   UNL     1       4.604 -19.032   7.130  1.00  0.00    -0.011 A 
ATOM     13  C   UNL     1       5.843 -19.594   7.524  1.00  0.00     0.013 A 
ATOM     14  C   UNL     1       6.073 -20.965   7.426  1.00  0.00     0.047 A 
ATOM     15  C   UNL     1       5.034 -21.831   7.024  1.00  0.00     0.115 A 
ATOM     16  C   UNL     1       3.607 -19.911   6.643  1.00  0.00     0.013 A 
ATOM     17  C   UNL     1       3.810 -21.288   6.622  1.00  0.00     0.047 A 
BRANCH  15  18
ATOM     18  O   UNL     1       5.220 -23.214   7.018  1.00  0.00    -0.508 OA
ATOM     19  H   UNL     1       5.474 -23.717   6.173  1.00  0.00     0.293 HD
ENDBRANCH  15  18
ENDBRANCH   1  12
BRANCH  11  20
ATOM     20  C   UNL     1       1.857 -13.153   7.614  1.00  0.00     0.188 C 
ATOM     21  C   UNL     1       1.543 -12.289   6.348  1.00  0.00     0.179 C 
ATOM     22  O   UNL     1       1.460 -12.476   8.793  1.00  0.00    -0.362 OA
ATOM     23  C   UNL     1       0.413 -11.266   6.631  1.00  0.00     0.177 C 
ATOM     24  C   UNL     1       0.044 -12.420   8.891  1.00  0.00     0.176 C 
ATOM     25  C   UNL     1      -0.624 -11.834   7.609  1.00  0.00     0.177 C 
BRANCH  21  26
ATOM     26  O   UNL     1       2.687 -11.609   5.877  1.00  0.00    -0.387 OA
ATOM     27  H   UNL     1       2.821 -10.835   6.482  1.00  0.00     0.211 HD
ENDBRANCH  21  26
BRANCH  23  28
ATOM     28  O   UNL     1       0.912 -10.025   7.102  1.00  0.00    -0.387 OA
ATOM     29  H   UNL     1       0.240  -9.641   7.733  1.00  0.00     0.211 HD
ENDBRANCH  23  28
BRANCH  24  30
ATOM     30  C   UNL     1      -0.297 -11.591  10.136  1.00  0.00     0.191 C 
BRANCH  30  31
ATOM     31  O   UNL     1       0.596 -10.505  10.267  1.00  0.00    -0.394 OA
ATOM     32  H   UNL     1       0.171  -9.845  10.865  1.00  0.00     0.210 HD
ENDBRANCH  30  31
ENDBRANCH  24  30
BRANCH  25  33
ATOM     33  O   UNL     1      -1.344 -12.856   6.966  1.00  0.00    -0.388 OA
ATOM     34  H   UNL     1      -1.691 -12.490   6.105  1.00  0.00     0.211 HD
ENDBRANCH  25  33
ENDBRANCH  11  20
BRANCH  10  35
ATOM     35  O   UNL     1       3.932 -11.316   8.671  1.00  0.00    -0.507 OA
ATOM     36  H   UNL     1       4.585 -10.553   8.652  1.00  0.00     0.293 HD
ENDBRANCH  10  35
TORSDOF 9
ENDMDL
MODEL 6
REMARK VINA RESULT:    -6.595      1.307      1.593
REMARK INTER + INTRA:          -9.563
REMARK INTER:                  -8.294
REMARK INTRA:                  -1.269
REMARK UNBOUND:                -0.654
REMARK SMILES O=c1c(-c2ccc(O)cc2)coc2c([C@H]3O[C@@H](CO)[C@H](O)[C@@H](O)[C@H]3O)c(O)ccc12
REMARK SMILES IDX 3 1 11 2 12 3 13 4 30 5 2 6 1 7 29 8 28 9 26 10 14 11 4 12
REMARK SMILES IDX 5 13 6 14 7 15 10 16 9 17 8 18 15 20 24 21 16 22 22 23 17 24
REMARK SMILES IDX 20 25 25 26 23 28 18 30 19 31 21 33 27 35
REMARK H PARENT 8 19 25 27 23 29 19 32 21 34 27 36
REMARK Flexibility Score: inf
ROOT
ATOM      1  C   UNL     1       4.721 -14.637   6.408  1.00  0.00     0.065 A 
ATOM      2  C   UNL     1       4.340 -15.447   5.318  1.00  0.00     0.208 A 
ATOM      3  O   UNL     1       4.403 -16.762   5.377  1.00  0.00    -0.463 OA
ATOM      4  C   UNL     1       4.837 -17.425   6.448  1.00  0.00     0.147 A 
ATOM      5  C   UNL     1       5.175 -16.714   7.623  1.00  0.00     0.066 A 
ATOM      6  C   UNL     1       5.202 -15.306   7.554  1.00  0.00     0.200 A 
ATOM      7  O   UNL     1       5.476 -14.660   8.598  1.00  0.00    -0.288 OA
ATOM      8  C   UNL     1       6.034 -17.366   8.544  1.00  0.00     0.020 A 
ATOM      9  C   UNL     1       6.282 -18.720   8.465  1.00  0.00     0.047 A 
ATOM     10  C   UNL     1       5.841 -19.457   7.361  1.00  0.00     0.125 A 
ATOM     11  C   UNL     1       5.129 -18.813   6.317  1.00  0.00     0.069 A 
ENDROOT
BRANCH   1  12
ATOM     12  C   UNL     1       4.593 -13.139   6.324  1.00  0.00    -0.011 A 
ATOM     13  C   UNL     1       5.723 -12.330   6.049  1.00  0.00     0.013 A 
ATOM     14  C   UNL     1       5.608 -10.944   5.952  1.00  0.00     0.047 A 
ATOM     15  C   UNL     1       4.339 -10.331   6.029  1.00  0.00     0.115 A 
ATOM     16  C   UNL     1       3.344 -12.492   6.488  1.00  0.00     0.013 A 
ATOM     17  C   UNL     1       3.217 -11.117   6.312  1.00  0.00     0.047 A 
BRANCH  15  18
ATOM     18  O   UNL     1       4.198  -8.957   5.835  1.00  0.00    -0.508 OA
ATOM     19  H   UNL     1       3.855  -8.344   6.569  1.00  0.00     0.293 HD
ENDBRANCH  15  18
ENDBRANCH   1  12
BRANCH  11  20
ATOM     20  C   UNL     1       5.004 -19.485   4.947  1.00  0.00     0.188 C 
ATOM     21  C   UNL     1       3.696 -20.340   4.872  1.00  0.00     0.179 C 
ATOM     22  O   UNL     1       6.142 -20.286   4.683  1.00  0.00    -0.362 OA
ATOM     23  C   UNL     1       3.899 -21.604   3.998  1.00  0.00     0.177 C 
ATOM     24  C   UNL     1       6.187 -20.666   3.316  1.00  0.00     0.176 C 
ATOM     25  C   UNL     1       4.860 -21.331   2.833  1.00  0.00     0.177 C 
BRANCH  21  26
ATOM     26  O   UNL     1       3.241 -20.721   6.152  1.00  0.00    -0.387 OA
ATOM     27  H   UNL     1       3.473 -19.976   6.766  1.00  0.00     0.211 HD
ENDBRANCH  21  26
BRANCH  23  28
ATOM     28  O   UNL     1       4.341 -22.719   4.754  1.00  0.00    -0.387 OA
ATOM     29  H   UNL     1       3.538 -23.249   5.022  1.00  0.00     0.211 HD
ENDBRANCH  23  28
BRANCH  24  30
ATOM     30  C   UNL     1       7.387 -21.605   3.140  1.00  0.00     0.191 C 
BRANCH  30  31
ATOM     31  O   UNL     1       7.493 -22.484   4.240  1.00  0.00    -0.394 OA
ATOM     32  H   UNL     1       7.035 -22.058   5.003  1.00  0.00     0.210 HD
ENDBRANCH  30  31
ENDBRANCH  24  30
BRANCH  25  33
ATOM     33  O   UNL     1       4.230 -20.471   1.916  1.00  0.00    -0.388 OA
ATOM     34  H   UNL     1       3.604 -21.017   1.365  1.00  0.00     0.211 HD
ENDBRANCH  25  33
ENDBRANCH  11  20
BRANCH  10  35
ATOM     35  O   UNL     1       6.175 -20.810   7.328  1.00  0.00    -0.507 OA
ATOM     36  H   UNL     1       7.025 -21.172   6.934  1.00  0.00     0.293 HD
ENDBRANCH  10  35
TORSDOF 9
ENDMDL
MODEL 7
REMARK VINA RESULT:    -6.483      1.827      3.289
REMARK INTER + INTRA:          -9.410
REMARK INTER:                  -8.214
REMARK INTRA:                  -1.197
REMARK UNBOUND:                -0.654
REMARK SMILES O=c1c(-c2ccc(O)cc2)coc2c([C@H]3O[C@@H](CO)[C@H](O)[C@@H](O)[C@H]3O)c(O)ccc12
REMARK SMILES IDX 3 1 11 2 12 3 13 4 30 5 2 6 1 7 29 8 28 9 26 10 14 11 4 12
REMARK SMILES IDX 5 13 6 14 7 15 10 16 9 17 8 18 15 20 24 21 16 22 22 23 17 24
REMARK SMILES IDX 20 25 25 26 23 28 18 30 19 31 21 33 27 35
REMARK H PARENT 8 19 25 27 23 29 19 32 21 34 27 36
REMARK Flexibility Score: inf
ROOT
ATOM      1  C   UNL     1       5.450 -16.041   5.762  1.00  0.00     0.065 A 
ATOM      2  C   UNL     1       4.899 -17.238   6.266  1.00  0.00     0.208 A 
ATOM      3  O   UNL     1       5.168 -18.408   5.721  1.00  0.00    -0.463 OA
ATOM      4  C   UNL     1       5.958 -18.553   4.659  1.00  0.00     0.147 A 
ATOM      5  C   UNL     1       6.622 -17.428   4.118  1.00  0.00     0.066 A 
ATOM      6  C   UNL     1       6.280 -16.157   4.625  1.00  0.00     0.200 A 
ATOM      7  O   UNL     1       6.880 -15.149   4.172  1.00  0.00    -0.288 OA
ATOM      8  C   UNL     1       7.064 -17.526   2.774  1.00  0.00     0.020 A 
ATOM      9  C   UNL     1       7.129 -18.740   2.123  1.00  0.00     0.047 A 
ATOM     10  C   UNL     1       6.584 -19.887   2.709  1.00  0.00     0.125 A 
ATOM     11  C   UNL     1       5.964 -19.807   3.982  1.00  0.00     0.069 A 
ENDROOT
BRANCH   1  12
ATOM     12  C   UNL     1       5.158 -14.726   6.436  1.00  0.00    -0.011 A 
ATOM     13  C   UNL     1       5.571 -14.490   7.771  1.00  0.00     0.013 A 
ATOM     14  C   UNL     1       5.320 -13.268   8.394  1.00  0.00     0.047 A 
ATOM     15  C   UNL     1       4.735 -12.209   7.669  1.00  0.00     0.115 A 
ATOM     16  C   UNL     1       4.491 -13.679   5.757  1.00  0.00     0.013 A 
ATOM     17  C   UNL     1       4.312 -12.434   6.354  1.00  0.00     0.047 A 
BRANCH  15  18
ATOM     18  O   UNL     1       4.570 -10.952   8.250  1.00  0.00    -0.508 OA
ATOM     19  H   UNL     1       4.327 -10.843   9.231  1.00  0.00     0.293 HD
ENDBRANCH  15  18
ENDBRANCH   1  12
BRANCH  11  20
ATOM     20  C   UNL     1       5.021 -20.920   4.447  1.00  0.00     0.188 C 
ATOM     21  C   UNL     1       5.807 -22.007   5.250  1.00  0.00     0.179 C 
ATOM     22  O   UNL     1       4.357 -21.499   3.338  1.00  0.00    -0.362 OA
ATOM     23  C   UNL     1       5.215 -23.421   5.014  1.00  0.00     0.177 C 
ATOM     24  C   UNL     1       3.270 -22.308   3.765  1.00  0.00     0.176 C 
ATOM     25  C   UNL     1       3.692 -23.366   4.832  1.00  0.00     0.177 C 
BRANCH  21  26
ATOM     26  O   UNL     1       7.181 -22.012   4.926  1.00  0.00    -0.387 OA
ATOM     27  H   UNL     1       7.571 -21.203   5.347  1.00  0.00     0.211 HD
ENDBRANCH  21  26
BRANCH  23  28
ATOM     28  O   UNL     1       5.822 -24.084   3.918  1.00  0.00    -0.387 OA
ATOM     29  H   UNL     1       6.760 -23.750   3.836  1.00  0.00     0.211 HD
ENDBRANCH  23  28
BRANCH  24  30
ATOM     30  C   UNL     1       2.673 -22.970   2.517  1.00  0.00     0.191 C 
BRANCH  30  31
ATOM     31  O   UNL     1       3.665 -23.690   1.816  1.00  0.00    -0.394 OA
ATOM     32  H   UNL     1       3.343 -24.618   1.721  1.00  0.00     0.210 HD
ENDBRANCH  30  31
ENDBRANCH  24  30
BRANCH  25  33
ATOM     33  O   UNL     1       3.099 -23.030   6.062  1.00  0.00    -0.388 OA
ATOM     34  H   UNL     1       3.818 -23.008   6.752  1.00  0.00     0.211 HD
ENDBRANCH  25  33
ENDBRANCH  11  20
BRANCH  10  35
ATOM     35  O   UNL     1       6.643 -21.066   1.967  1.00  0.00    -0.507 OA
ATOM     36  H   UNL     1       6.857 -21.967   2.356  1.00  0.00     0.293 HD
ENDBRANCH  10  35
TORSDOF 9
ENDMDL
MODEL 8
REMARK VINA RESULT:    -6.328      2.554      8.554
REMARK INTER + INTRA:          -9.201
REMARK INTER:                  -8.586
REMARK INTRA:                  -0.615
REMARK UNBOUND:                -0.654
REMARK SMILES O=c1c(-c2ccc(O)cc2)coc2c([C@H]3O[C@@H](CO)[C@H](O)[C@@H](O)[C@H]3O)c(O)ccc12
REMARK SMILES IDX 3 1 11 2 12 3 13 4 30 5 2 6 1 7 29 8 28 9 26 10 14 11 4 12
REMARK SMILES IDX 5 13 6 14 7 15 10 16 9 17 8 18 15 20 24 21 16 22 22 23 17 24
REMARK SMILES IDX 20 25 25 26 23 28 18 30 19 31 21 33 27 35
REMARK H PARENT 8 19 25 27 23 29 19 32 21 34 27 36
REMARK Flexibility Score: inf
ROOT
ATOM      1  C   UNL     1       6.499 -17.627   4.039  1.00  0.00     0.065 A 
ATOM      2  C   UNL     1       6.544 -16.218   4.007  1.00  0.00     0.208 A 
ATOM      3  O   UNL     1       6.078 -15.487   4.999  1.00  0.00    -0.463 OA
ATOM      4  C   UNL     1       5.520 -16.010   6.091  1.00  0.00     0.147 A 
ATOM      5  C   UNL     1       5.489 -17.413   6.260  1.00  0.00     0.066 A 
ATOM      6  C   UNL     1       5.899 -18.215   5.174  1.00  0.00     0.200 A 
ATOM      7  O   UNL     1       5.902 -19.464   5.318  1.00  0.00    -0.288 OA
ATOM      8  C   UNL     1       4.524 -17.932   7.160  1.00  0.00     0.020 A 
ATOM      9  C   UNL     1       3.861 -17.118   8.054  1.00  0.00     0.047 A 
ATOM     10  C   UNL     1       3.986 -15.727   7.972  1.00  0.00     0.125 A 
ATOM     11  C   UNL     1       4.802 -15.146   6.968  1.00  0.00     0.069 A 
ENDROOT
BRANCH   1  12
ATOM     12  C   UNL     1       7.083 -18.433   2.908  1.00  0.00    -0.011 A 
ATOM     13  C   UNL     1       7.867 -17.811   1.905  1.00  0.00     0.013 A 
ATOM     14  C   UNL     1       8.425 -18.554   0.866  1.00  0.00     0.047 A 
ATOM     15  C   UNL     1       8.300 -19.959   0.853  1.00  0.00     0.115 A 
ATOM     16  C   UNL     1       6.895 -19.833   2.823  1.00  0.00     0.013 A 
ATOM     17  C   UNL     1       7.519 -20.584   1.831  1.00  0.00     0.047 A 
BRANCH  15  18
ATOM     18  O   UNL     1       8.937 -20.723  -0.125  1.00  0.00    -0.508 OA
ATOM     19  H   UNL     1       8.438 -21.421  -0.670  1.00  0.00     0.293 HD
ENDBRANCH  15  18
ENDBRANCH   1  12
BRANCH  11  20
ATOM     20  C   UNL     1       4.633 -13.670   6.602  1.00  0.00     0.188 C 
ATOM     21  C   UNL     1       5.583 -12.777   7.465  1.00  0.00     0.179 C 
ATOM     22  O   UNL     1       3.283 -13.271   6.768  1.00  0.00    -0.362 OA
ATOM     23  C   UNL     1       4.935 -11.404   7.780  1.00  0.00     0.177 C 
ATOM     24  C   UNL     1       3.049 -12.013   6.152  1.00  0.00     0.176 C 
ATOM     25  C   UNL     1       4.059 -10.919   6.617  1.00  0.00     0.177 C 
BRANCH  21  26
ATOM     26  O   UNL     1       5.952 -13.411   8.671  1.00  0.00    -0.387 OA
ATOM     27  H   UNL     1       6.157 -12.687   9.317  1.00  0.00     0.211 HD
ENDBRANCH  21  26
BRANCH  23  28
ATOM     28  O   UNL     1       4.191 -11.422   8.987  1.00  0.00    -0.387 OA
ATOM     29  H   UNL     1       3.330 -11.898   8.812  1.00  0.00     0.211 HD
ENDBRANCH  23  28
BRANCH  24  30
ATOM     30  C   UNL     1       1.600 -11.614   6.463  1.00  0.00     0.191 C 
BRANCH  30  31
ATOM     31  O   UNL     1       1.514 -11.018   7.740  1.00  0.00    -0.394 OA
ATOM     32  H   UNL     1       2.431 -10.955   8.098  1.00  0.00     0.210 HD
ENDBRANCH  30  31
ENDBRANCH  24  30
BRANCH  25  33
ATOM     33  O   UNL     1       4.889 -10.579   5.535  1.00  0.00    -0.388 OA
ATOM     34  H   UNL     1       5.812 -10.445   5.887  1.00  0.00     0.211 HD
ENDBRANCH  25  33
ENDBRANCH  11  20
BRANCH  10  35
ATOM     35  O   UNL     1       3.245 -14.970   8.878  1.00  0.00    -0.507 OA
ATOM     36  H   UNL     1       2.292 -15.163   9.128  1.00  0.00     0.293 HD
ENDBRANCH  10  35
TORSDOF 9
ENDMDL
MODEL 9
REMARK VINA RESULT:    -6.106      3.302      8.589
REMARK INTER + INTRA:          -8.901
REMARK INTER:                  -7.897
REMARK INTRA:                  -1.005
REMARK UNBOUND:                -0.654
REMARK SMILES O=c1c(-c2ccc(O)cc2)coc2c([C@H]3O[C@@H](CO)[C@H](O)[C@@H](O)[C@H]3O)c(O)ccc12
REMARK SMILES IDX 3 1 11 2 12 3 13 4 30 5 2 6 1 7 29 8 28 9 26 10 14 11 4 12
REMARK SMILES IDX 5 13 6 14 7 15 10 16 9 17 8 18 15 20 24 21 16 22 22 23 17 24
REMARK SMILES IDX 20 25 25 26 23 28 18 30 19 31 21 33 27 35
REMARK H PARENT 8 19 25 27 23 29 19 32 21 34 27 36
REMARK Flexibility Score: inf
ROOT
ATOM      1  C   UNL     1       6.692 -16.306   4.109  1.00  0.00     0.065 A 
ATOM      2  C   UNL     1       6.398 -14.928   4.155  1.00  0.00     0.208 A 
ATOM      3  O   UNL     1       5.718 -14.398   5.153  1.00  0.00    -0.463 OA
ATOM      4  C   UNL     1       5.248 -15.110   6.176  1.00  0.00     0.147 A 
ATOM      5  C   UNL     1       5.549 -16.489   6.267  1.00  0.00     0.066 A 
ATOM      6  C   UNL     1       6.196 -17.095   5.170  1.00  0.00     0.200 A 
ATOM      7  O   UNL     1       6.492 -18.315   5.247  1.00  0.00    -0.288 OA
ATOM      8  C   UNL     1       4.693 -17.282   7.073  1.00  0.00     0.020 A 
ATOM      9  C   UNL     1       3.808 -16.711   7.964  1.00  0.00     0.047 A 
ATOM     10  C   UNL     1       3.598 -15.328   7.964  1.00  0.00     0.125 A 
ATOM     11  C   UNL     1       4.299 -14.504   7.049  1.00  0.00     0.069 A 
ENDROOT
BRANCH   1  12
ATOM     12  C   UNL     1       7.511 -16.872   2.978  1.00  0.00    -0.011 A 
ATOM     13  C   UNL     1       8.701 -16.230   2.555  1.00  0.00     0.013 A 
ATOM     14  C   UNL     1       9.472 -16.758   1.520  1.00  0.00     0.047 A 
ATOM     15  C   UNL     1       9.130 -17.998   0.943  1.00  0.00     0.115 A 
ATOM     16  C   UNL     1       7.139 -18.069   2.322  1.00  0.00     0.013 A 
ATOM     17  C   UNL     1       7.951 -18.636   1.344  1.00  0.00     0.047 A 
BRANCH  15  18
ATOM     18  O   UNL     1       9.948 -18.586  -0.022  1.00  0.00    -0.508 OA
ATOM     19  H   UNL     1      10.961 -18.524   0.023  1.00  0.00     0.293 HD
ENDBRANCH  15  18
ENDBRANCH   1  12
BRANCH  11  20
ATOM     20  C   UNL     1       3.797 -13.089   6.751  1.00  0.00     0.188 C 
ATOM     21  C   UNL     1       4.475 -12.053   7.707  1.00  0.00     0.179 C 
ATOM     22  O   UNL     1       2.386 -13.030   6.868  1.00  0.00    -0.362 OA
ATOM     23  C   UNL     1       3.506 -10.894   8.060  1.00  0.00     0.177 C 
ATOM     24  C   UNL     1       1.882 -11.827   6.308  1.00  0.00     0.176 C 
ATOM     25  C   UNL     1       2.585 -10.557   6.880  1.00  0.00     0.177 C 
BRANCH  21  26
ATOM     26  O   UNL     1       4.938 -12.657   8.896  1.00  0.00    -0.387 OA
ATOM     27  H   UNL     1       5.193 -13.585   8.657  1.00  0.00     0.211 HD
ENDBRANCH  21  26
BRANCH  23  28
ATOM     28  O   UNL     1       2.744 -11.162   9.224  1.00  0.00    -0.387 OA
ATOM     29  H   UNL     1       1.781 -11.206   8.960  1.00  0.00     0.211 HD
ENDBRANCH  23  28
BRANCH  24  30
ATOM     30  C   UNL     1       0.370 -11.800   6.564  1.00  0.00     0.191 C 
BRANCH  30  31
ATOM     31  O   UNL     1       0.095 -12.040   7.928  1.00  0.00    -0.394 OA
ATOM     32  H   UNL     1       0.928 -12.363   8.344  1.00  0.00     0.210 HD
ENDBRANCH  30  31
ENDBRANCH  24  30
BRANCH  25  33
ATOM     33  O   UNL     1       3.350  -9.964   5.860  1.00  0.00    -0.388 OA
ATOM     34  H   UNL     1       3.678 -10.691   5.262  1.00  0.00     0.211 HD
ENDBRANCH  25  33
ENDBRANCH  11  20
BRANCH  10  35
ATOM     35  O   UNL     1       2.651 -14.832   8.859  1.00  0.00    -0.507 OA
ATOM     36  H   UNL     1       2.477 -13.855   9.012  1.00  0.00     0.293 HD
ENDBRANCH  10  35
TORSDOF 9
ENDMDL
