MODEL 1
REMARK VINA RESULT:    -2.987      0.000      0.000
REMARK INTER + INTRA:          -3.613
REMARK INTER:                  -3.510
REMARK INTRA:                  -0.103
REMARK UNBOUND:                -0.103
REMARK SMILES CCCCC(=O)[O-]
REMARK SMILES IDX 4 1 5 2 6 3 7 4 3 5 2 6 1 7
REMARK H PARENT
REMARK Flexibility Score: inf
ROOT
ATOM      1  C   UNL     1      26.493  -5.111  51.785  1.00  0.00     0.053 C 
ENDROOT
BRANCH   1   2
ATOM      2  C   UNL     1      27.860  -5.550  52.210  1.00  0.00     0.041 C 
ATOM      3  O   UNL     1      28.110  -5.751  53.427  1.00  0.00    -0.550 OA
ATOM      4  O   UNL     1      28.868  -5.704  51.266  1.00  0.00    -0.550 OA
ENDBRANCH   1   2
BRANCH   1   5
ATOM      5  C   UNL     1      26.204  -3.663  52.204  1.00  0.00     0.006 C 
BRANCH   5   6
ATOM      6  C   UNL     1      24.937  -3.550  53.064  1.00  0.00    -0.003 C 
ATOM      7  C   UNL     1      25.199  -4.011  54.495  1.00  0.00     0.004 C 
ENDBRANCH   5   6
ENDBRANCH   1   5
TORSDOF 3
ENDMDL
MODEL 2
REMARK VINA RESULT:    -2.984      1.587      2.138
REMARK INTER + INTRA:          -3.610
REMARK INTER:                  -3.563
REMARK INTRA:                  -0.046
REMARK UNBOUND:                -0.103
REMARK SMILES CCCCC(=O)[O-]
REMARK SMILES IDX 4 1 5 2 6 3 7 4 3 5 2 6 1 7
REMARK H PARENT
REMARK Flexibility Score: inf
ROOT
ATOM      1  C   UNL     1      26.115  -3.614  52.816  1.00  0.00     0.053 C 
ENDROOT
BRANCH   1   2
ATOM      2  C   UNL     1      26.322  -4.649  51.754  1.00  0.00     0.041 C 
ATOM      3  O   UNL     1      25.486  -4.777  50.822  1.00  0.00    -0.550 OA
ATOM      4  O   UNL     1      27.423  -5.495  51.811  1.00  0.00    -0.550 OA
ENDBRANCH   1   2
BRANCH   1   5
ATOM      5  C   UNL     1      24.652  -3.556  53.276  1.00  0.00     0.006 C 
BRANCH   5   6
ATOM      6  C   UNL     1      24.512  -3.749  54.793  1.00  0.00    -0.003 C 
ATOM      7  C   UNL     1      25.567  -4.716  55.324  1.00  0.00     0.004 C 
ENDBRANCH   5   6
ENDBRANCH   1   5
TORSDOF 3
ENDMDL
MODEL 3
REMARK VINA RESULT:    -2.958      1.244      1.868
REMARK INTER + INTRA:          -3.580
REMARK INTER:                  -3.519
REMARK INTRA:                  -0.061
REMARK UNBOUND:                -0.103
REMARK SMILES CCCCC(=O)[O-]
REMARK SMILES IDX 4 1 5 2 6 3 7 4 3 5 2 6 1 7
REMARK H PARENT
REMARK Flexibility Score: inf
ROOT
ATOM      1  C   UNL     1      27.773  -5.516  52.473  1.00  0.00     0.053 C 
ENDROOT
BRANCH   1   2
ATOM      2  C   UNL     1      29.002  -5.135  51.706  1.00  0.00     0.041 C 
ATOM      3  O   UNL     1      29.460  -5.903  50.820  1.00  0.00    -0.550 OA
ATOM      4  O   UNL     1      29.660  -3.945  51.991  1.00  0.00    -0.550 OA
ENDBRANCH   1   2
BRANCH   1   5
ATOM      5  C   UNL     1      26.491  -5.151  51.714  1.00  0.00     0.006 C 
BRANCH   5   6
ATOM      6  C   UNL     1      26.100  -3.680  51.907  1.00  0.00    -0.003 C 
ATOM      7  C   UNL     1      25.118  -3.518  53.064  1.00  0.00     0.004 C 
ENDBRANCH   5   6
ENDBRANCH   1   5
TORSDOF 3
ENDMDL
MODEL 4
REMARK VINA RESULT:    -2.844      1.731      2.090
REMARK INTER + INTRA:          -3.446
REMARK INTER:                  -3.421
REMARK INTRA:                  -0.025
REMARK UNBOUND:                -0.103
REMARK SMILES CCCCC(=O)[O-]
REMARK SMILES IDX 4 1 5 2 6 3 7 4 3 5 2 6 1 7
REMARK H PARENT
REMARK Flexibility Score: inf
ROOT
ATOM      1  C   UNL     1      26.347  -4.747  53.350  1.00  0.00     0.053 C 
ENDROOT
BRANCH   1   2
ATOM      2  C   UNL     1      26.575  -5.032  51.898  1.00  0.00     0.041 C 
ATOM      3  O   UNL     1      27.671  -5.516  51.511  1.00  0.00    -0.550 OA
ATOM      4  O   UNL     1      25.589  -4.731  50.966  1.00  0.00    -0.550 OA
ENDBRANCH   1   2
BRANCH   1   5
ATOM      5  C   UNL     1      25.298  -3.646  53.557  1.00  0.00     0.006 C 
BRANCH   5   6
ATOM      6  C   UNL     1      24.518  -3.825  54.867  1.00  0.00    -0.003 C 
ATOM      7  C   UNL     1      24.477  -2.525  55.665  1.00  0.00     0.004 C 
ENDBRANCH   5   6
ENDBRANCH   1   5
TORSDOF 3
ENDMDL
MODEL 5
REMARK VINA RESULT:    -2.656      3.107      4.039
REMARK INTER + INTRA:          -3.225
REMARK INTER:                  -3.187
REMARK INTRA:                  -0.037
REMARK UNBOUND:                -0.103
REMARK SMILES CCCCC(=O)[O-]
REMARK SMILES IDX 4 1 5 2 6 3 7 4 3 5 2 6 1 7
REMARK H PARENT
REMARK Flexibility Score: inf
ROOT
ATOM      1  C   UNL     1      25.677  -4.421  54.188  1.00  0.00     0.053 C 
ENDROOT
BRANCH   1   2
ATOM      2  C   UNL     1      24.949  -3.979  55.420  1.00  0.00     0.041 C 
ATOM      3  O   UNL     1      24.370  -2.862  55.447  1.00  0.00    -0.550 OA
ATOM      4  O   UNL     1      24.939  -4.787  56.550  1.00  0.00    -0.550 OA
ENDBRANCH   1   2
BRANCH   1   5
ATOM      5  C   UNL     1      25.274  -3.591  52.961  1.00  0.00     0.006 C 
BRANCH   5   6
ATOM      6  C   UNL     1      25.893  -4.133  51.665  1.00  0.00    -0.003 C 
ATOM      7  C   UNL     1      26.790  -5.336  51.944  1.00  0.00     0.004 C 
ENDBRANCH   5   6
ENDBRANCH   1   5
TORSDOF 3
ENDMDL
MODEL 6
REMARK VINA RESULT:    -2.639      2.432      3.211
REMARK INTER + INTRA:          -3.204
REMARK INTER:                  -3.114
REMARK INTRA:                  -0.090
REMARK UNBOUND:                -0.103
REMARK SMILES CCCCC(=O)[O-]
REMARK SMILES IDX 4 1 5 2 6 3 7 4 3 5 2 6 1 7
REMARK H PARENT
REMARK Flexibility Score: inf
ROOT
ATOM      1  C   UNL     1      26.539  -4.789  53.157  1.00  0.00     0.053 C 
ENDROOT
BRANCH   1   2
ATOM      2  C   UNL     1      25.734  -4.751  54.420  1.00  0.00     0.041 C 
ATOM      3  O   UNL     1      26.033  -5.502  55.385  1.00  0.00    -0.550 OA
ATOM      4  O   UNL     1      24.634  -3.909  54.519  1.00  0.00    -0.550 OA
ENDBRANCH   1   2
BRANCH   1   5
ATOM      5  C   UNL     1      25.829  -4.062  52.008  1.00  0.00     0.006 C 
BRANCH   5   6
ATOM      6  C   UNL     1      26.726  -3.008  51.344  1.00  0.00    -0.003 C 
ATOM      7  C   UNL     1      26.635  -1.670  52.073  1.00  0.00     0.004 C 
ENDBRANCH   5   6
ENDBRANCH   1   5
TORSDOF 3
ENDMDL
MODEL 7
REMARK VINA RESULT:    -2.605      2.368      3.711
REMARK INTER + INTRA:          -3.164
REMARK INTER:                  -3.063
REMARK INTRA:                  -0.102
REMARK UNBOUND:                -0.103
REMARK SMILES CCCCC(=O)[O-]
REMARK SMILES IDX 4 1 5 2 6 3 7 4 3 5 2 6 1 7
REMARK H PARENT
REMARK Flexibility Score: inf
ROOT
ATOM      1  C   UNL     1      24.887  -3.492  53.082  1.00  0.00     0.053 C 
ENDROOT
BRANCH   1   2
ATOM      2  C   UNL     1      25.369  -2.945  54.390  1.00  0.00     0.041 C 
ATOM      3  O   UNL     1      24.617  -2.214  55.087  1.00  0.00    -0.550 OA
ATOM      4  O   UNL     1      26.660  -3.216  54.824  1.00  0.00    -0.550 OA
ENDBRANCH   1   2
BRANCH   1   5
ATOM      5  C   UNL     1      26.023  -3.598  52.056  1.00  0.00     0.006 C 
BRANCH   5   6
ATOM      6  C   UNL     1      26.374  -5.055  51.726  1.00  0.00    -0.003 C 
ATOM      7  C   UNL     1      27.815  -5.375  52.111  1.00  0.00     0.004 C 
ENDBRANCH   5   6
ENDBRANCH   1   5
TORSDOF 3
ENDMDL
MODEL 8
REMARK VINA RESULT:    -2.551      2.342      3.440
REMARK INTER + INTRA:          -3.100
REMARK INTER:                  -3.022
REMARK INTRA:                  -0.078
REMARK UNBOUND:                -0.103
REMARK SMILES CCCCC(=O)[O-]
REMARK SMILES IDX 4 1 5 2 6 3 7 4 3 5 2 6 1 7
REMARK H PARENT
REMARK Flexibility Score: inf
ROOT
ATOM      1  C   UNL     1      26.486  -5.183  51.679  1.00  0.00     0.053 C 
ENDROOT
BRANCH   1   2
ATOM      2  C   UNL     1      26.086  -3.755  51.884  1.00  0.00     0.041 C 
ATOM      3  O   UNL     1      26.636  -2.840  51.217  1.00  0.00    -0.550 OA
ATOM      4  O   UNL     1      25.128  -3.430  52.837  1.00  0.00    -0.550 OA
ENDBRANCH   1   2
BRANCH   1   5
ATOM      5  C   UNL     1      27.916  -5.450  52.169  1.00  0.00     0.006 C 
BRANCH   5   6
ATOM      6  C   UNL     1      28.037  -5.337  53.695  1.00  0.00    -0.003 C 
ATOM      7  C   UNL     1      28.923  -6.444  54.259  1.00  0.00     0.004 C 
ENDBRANCH   5   6
ENDBRANCH   1   5
TORSDOF 3
ENDMDL
MODEL 9
REMARK VINA RESULT:    -2.504      2.765      3.291
REMARK INTER + INTRA:          -3.046
REMARK INTER:                  -2.950
REMARK INTRA:                  -0.096
REMARK UNBOUND:                -0.103
REMARK SMILES CCCCC(=O)[O-]
REMARK SMILES IDX 4 1 5 2 6 3 7 4 3 5 2 6 1 7
REMARK H PARENT
REMARK Flexibility Score: inf
ROOT
ATOM      1  C   UNL     1      26.065  -2.775  52.443  1.00  0.00     0.053 C 
ENDROOT
BRANCH   1   2
ATOM      2  C   UNL     1      27.115  -1.754  52.129  1.00  0.00     0.041 C 
ATOM      3  O   UNL     1      26.823  -0.530  52.108  1.00  0.00    -0.550 OA
ATOM      4  O   UNL     1      28.409  -2.158  51.826  1.00  0.00    -0.550 OA
ENDBRANCH   1   2
BRANCH   1   5
ATOM      5  C   UNL     1      26.124  -3.967  51.479  1.00  0.00     0.006 C 
BRANCH   5   6
ATOM      6  C   UNL     1      26.644  -5.241  52.161  1.00  0.00    -0.003 C 
ATOM      7  C   UNL     1      26.583  -5.116  53.680  1.00  0.00     0.004 C 
ENDBRANCH   5   6
ENDBRANCH   1   5
TORSDOF 3
ENDMDL
