MODEL 1
REMARK VINA RESULT:     0.677      0.000      0.000
REMARK INTER + INTRA:           1.897
REMARK INTER:                   0.836
REMARK INTRA:                   1.061
REMARK UNBOUND:                 1.061
REMARK SMILES CC1=CC=CC(C)(C)CC1=O
REMARK SMILES IDX 1 1 2 2 3 3 10 4 11 5 9 6 4 8 5 9 6 10 7 11 8 12
REMARK H PARENT
REMARK Flexibility Score: 80.00
ROOT
ATOM      1  C   UNL     1      11.753  36.095 -18.710  1.00  0.00     0.048 C 
ATOM      2  C   UNL     1      12.196  37.175 -17.751  1.00  0.00    -0.008 C 
ATOM      3  C   UNL     1      12.921  36.799 -16.676  1.00  0.00     0.007 C 
ENDROOT
BRANCH   2   4
ATOM      4  C   UNL     1      11.861  38.576 -18.110  1.00  0.00     0.159 C 
ATOM      5  O   UNL     1      10.996  38.784 -19.005  1.00  0.00    -0.295 OA
BRANCH   4   6
ATOM      6  C   UNL     1      12.487  39.769 -17.456  1.00  0.00     0.091 CG0
ATOM      7  G   UNL     1      12.265  39.811 -15.927  1.00  0.00     0.000 G0
ENDBRANCH   4   6
ENDBRANCH   2   4
BRANCH   3   8
ATOM      8  C   UNL     1      13.509  37.619 -15.592  1.00  0.00    -0.003 C 
ATOM      9  C   UNL     1      13.260  38.894 -15.267  1.00  0.00    -0.020 C 
BRANCH   9  10
ATOM     10  C   UNL     1      12.266  39.813 -15.938  1.00  0.00    -0.010 CG0
ATOM     11  C   UNL     1      10.842  39.289 -15.638  1.00  0.00     0.016 C 
ATOM     12  C   UNL     1      12.384  41.237 -15.351  1.00  0.00     0.016 C 
ATOM     13  G   UNL     1      12.477  39.780 -17.468  1.00  0.00     0.000 G0
ENDBRANCH   9  10
ENDBRANCH   3   8
TORSDOF 0
ENDMDL
MODEL 2
REMARK VINA RESULT:     0.699      1.913      3.283
REMARK INTER + INTRA:           1.923
REMARK INTER:                   0.875
REMARK INTRA:                   1.048
REMARK UNBOUND:                 1.061
REMARK SMILES CC1=CC=CC(C)(C)CC1=O
REMARK SMILES IDX 1 1 2 2 3 3 10 4 11 5 9 6 4 8 5 9 6 10 7 11 8 12
REMARK H PARENT
REMARK Flexibility Score: 80.00
ROOT
ATOM      1  C   UNL     1      11.362  39.059 -19.057  1.00  0.00     0.048 C 
ATOM      2  C   UNL     1      11.875  38.451 -17.772  1.00  0.00    -0.008 C 
ATOM      3  C   UNL     1      12.292  39.294 -16.804  1.00  0.00     0.007 C 
ENDROOT
BRANCH   2   4
ATOM      4  C   UNL     1      11.808  36.974 -17.650  1.00  0.00     0.159 C 
ATOM      5  O   UNL     1      11.651  36.283 -18.695  1.00  0.00    -0.295 OA
BRANCH   4   6
ATOM      6  C   UNL     1      11.932  36.245 -16.348  1.00  0.00     0.091 CG0
ATOM      7  G   UNL     1      13.282  36.493 -15.637  1.00  0.00     0.000 G0
ENDBRANCH   4   6
ENDBRANCH   2   4
BRANCH   3   8
ATOM      8  C   UNL     1      12.815  39.002 -15.449  1.00  0.00    -0.003 C 
ATOM      9  C   UNL     1      13.220  37.834 -14.934  1.00  0.00    -0.020 C 
BRANCH   9  10
ATOM     10  C   UNL     1      13.264  36.505 -15.650  1.00  0.00    -0.010 CG0
ATOM     11  C   UNL     1      14.371  36.571 -16.727  1.00  0.00     0.016 C 
ATOM     12  C   UNL     1      13.633  35.381 -14.655  1.00  0.00     0.016 C 
ATOM     13  G   UNL     1      11.916  36.251 -16.361  1.00  0.00     0.000 G0
ENDBRANCH   9  10
ENDBRANCH   3   8
TORSDOF 0
ENDMDL
MODEL 3
REMARK VINA RESULT:     0.952     11.562     12.946
REMARK INTER + INTRA:           2.235
REMARK INTER:                   1.498
REMARK INTRA:                   0.738
REMARK UNBOUND:                 1.061
REMARK SMILES CC1=CC=CC(C)(C)CC1=O
REMARK SMILES IDX 1 1 2 2 3 3 10 4 11 5 9 6 4 8 5 9 6 10 7 11 8 12
REMARK H PARENT
REMARK Flexibility Score: 80.00
ROOT
ATOM      1  C   UNL     1       1.248  37.666 -23.408  1.00  0.00     0.048 C 
ATOM      2  C   UNL     1       1.826  36.389 -23.970  1.00  0.00    -0.008 C 
ATOM      3  C   UNL     1       1.684  36.166 -25.294  1.00  0.00     0.007 C 
ENDROOT
BRANCH   2   4
ATOM      4  C   UNL     1       2.573  35.515 -23.031  1.00  0.00     0.159 C 
ATOM      5  O   UNL     1       2.860  35.959 -21.885  1.00  0.00    -0.295 OA
BRANCH   4   6
ATOM      6  C   UNL     1       2.997  34.118 -23.361  1.00  0.00     0.091 CG0
ATOM      7  G   UNL     1       3.910  34.036 -24.605  1.00  0.00     0.000 G0
ENDBRANCH   4   6
ENDBRANCH   2   4
BRANCH   3   8
ATOM      8  C   UNL     1       2.159  35.035 -26.125  1.00  0.00    -0.003 C 
ATOM      9  C   UNL     1       3.106  34.128 -25.855  1.00  0.00    -0.020 C 
BRANCH   9  10
ATOM     10  C   UNL     1       3.918  34.029 -24.584  1.00  0.00    -0.010 CG0
ATOM     11  C   UNL     1       4.591  32.638 -24.545  1.00  0.00     0.016 C 
ATOM     12  C   UNL     1       5.032  35.099 -24.585  1.00  0.00     0.016 C 
ATOM     13  G   UNL     1       2.982  34.145 -23.359  1.00  0.00     0.000 G0
ENDBRANCH   9  10
ENDBRANCH   3   8
TORSDOF 0
ENDMDL
MODEL 4
REMARK VINA RESULT:     1.046      2.346      4.125
REMARK INTER + INTRA:           2.351
REMARK INTER:                   1.579
REMARK INTRA:                   0.772
REMARK UNBOUND:                 1.061
REMARK SMILES CC1=CC=CC(C)(C)CC1=O
REMARK SMILES IDX 1 1 2 2 3 3 10 4 11 5 9 6 4 8 5 9 6 10 7 11 8 12
REMARK H PARENT
REMARK Flexibility Score: 80.00
ROOT
ATOM      1  C   UNL     1      14.062  38.134 -14.052  1.00  0.00     0.048 C 
ATOM      2  C   UNL     1      13.226  37.910 -15.290  1.00  0.00    -0.008 C 
ATOM      3  C   UNL     1      12.884  38.993 -16.019  1.00  0.00     0.007 C 
ENDROOT
BRANCH   2   4
ATOM      4  C   UNL     1      12.910  36.504 -15.646  1.00  0.00     0.159 C 
ATOM      5  O   UNL     1      13.497  35.573 -15.028  1.00  0.00    -0.295 OA
BRANCH   4   6
ATOM      6  C   UNL     1      11.915  36.121 -16.697  1.00  0.00     0.091 CG0
ATOM      7  G   UNL     1      12.257  36.687 -18.095  1.00  0.00     0.000 G0
ENDBRANCH   4   6
ENDBRANCH   2   4
BRANCH   3   8
ATOM      8  C   UNL     1      12.105  39.087 -17.276  1.00  0.00    -0.003 C 
ATOM      9  C   UNL     1      11.835  38.132 -18.175  1.00  0.00    -0.020 C 
BRANCH   9  10
ATOM     10  C   UNL     1      12.255  36.683 -18.099  1.00  0.00    -0.010 CG0
ATOM     11  C   UNL     1      11.449  35.889 -19.152  1.00  0.00     0.016 C 
ATOM     12  C   UNL     1      13.755  36.548 -18.445  1.00  0.00     0.016 C 
ATOM     13  G   UNL     1      11.912  36.115 -16.703  1.00  0.00     0.000 G0
ENDBRANCH   9  10
ENDBRANCH   3   8
TORSDOF 0
ENDMDL
MODEL 5
REMARK VINA RESULT:     1.206      1.448      3.338
REMARK INTER + INTRA:           2.549
REMARK INTER:                   1.790
REMARK INTRA:                   0.759
REMARK UNBOUND:                 1.061
REMARK SMILES CC1=CC=CC(C)(C)CC1=O
REMARK SMILES IDX 1 1 2 2 3 3 10 4 11 5 9 6 4 8 5 9 6 10 7 11 8 12
REMARK H PARENT
REMARK Flexibility Score: 80.00
ROOT
ATOM      1  C   UNL     1      11.332  40.510 -15.489  1.00  0.00     0.048 C 
ATOM      2  C   UNL     1      12.215  39.390 -15.987  1.00  0.00    -0.008 C 
ATOM      3  C   UNL     1      12.994  38.757 -15.085  1.00  0.00     0.007 C 
ENDROOT
BRANCH   2   4
ATOM      4  C   UNL     1      12.097  39.025 -17.421  1.00  0.00     0.159 C 
ATOM      5  O   UNL     1      11.141  39.501 -18.094  1.00  0.00    -0.295 OA
BRANCH   4   6
ATOM      6  C   UNL     1      13.064  38.126 -18.128  1.00  0.00     0.091 CG0
ATOM      7  G   UNL     1      13.135  36.708 -17.518  1.00  0.00     0.000 G0
ENDBRANCH   4   6
ENDBRANCH   2   4
BRANCH   3   8
ATOM      8  C   UNL     1      13.931  37.623 -15.265  1.00  0.00    -0.003 C 
ATOM      9  C   UNL     1      14.006  36.742 -16.271  1.00  0.00    -0.020 C 
BRANCH   9  10
ATOM     10  C   UNL     1      13.140  36.717 -17.509  1.00  0.00    -0.010 CG0
ATOM     11  C   UNL     1      13.802  35.779 -18.544  1.00  0.00     0.016 C 
ATOM     12  C   UNL     1      11.746  36.144 -17.168  1.00  0.00     0.016 C 
ATOM     13  G   UNL     1      13.068  38.134 -18.122  1.00  0.00     0.000 G0
ENDBRANCH   9  10
ENDBRANCH   3   8
TORSDOF 0
ENDMDL
MODEL 6
REMARK VINA RESULT:     1.368      1.333      1.663
REMARK INTER + INTRA:           2.748
REMARK INTER:                   1.957
REMARK INTRA:                   0.792
REMARK UNBOUND:                 1.061
REMARK SMILES CC1=CC=CC(C)(C)CC1=O
REMARK SMILES IDX 1 1 2 2 3 3 10 4 11 5 9 6 4 8 5 9 6 10 7 11 8 12
REMARK H PARENT
REMARK Flexibility Score: 80.00
ROOT
ATOM      1  C   UNL     1      14.042  35.740 -18.893  1.00  0.00     0.048 C 
ATOM      2  C   UNL     1      13.509  36.572 -17.751  1.00  0.00    -0.008 C 
ATOM      3  C   UNL     1      14.355  36.860 -16.738  1.00  0.00     0.007 C 
ENDROOT
BRANCH   2   4
ATOM      4  C   UNL     1      12.117  37.071 -17.870  1.00  0.00     0.159 C 
ATOM      5  O   UNL     1      11.518  36.946 -18.974  1.00  0.00    -0.295 OA
BRANCH   4   6
ATOM      6  C   UNL     1      11.367  37.708 -16.741  1.00  0.00     0.091 CG0
ATOM      7  G   UNL     1      12.055  38.980 -16.194  1.00  0.00     0.000 G0
ENDBRANCH   4   6
ENDBRANCH   2   4
BRANCH   3   8
ATOM      8  C   UNL     1      14.134  37.663 -15.513  1.00  0.00    -0.003 C 
ATOM      9  C   UNL     1      13.181  38.568 -15.257  1.00  0.00    -0.020 C 
BRANCH   9  10
ATOM     10  C   UNL     1      12.056  38.973 -16.181  1.00  0.00    -0.010 CG0
ATOM     11  C   UNL     1      11.029  39.791 -15.366  1.00  0.00     0.016 C 
ATOM     12  C   UNL     1      12.599  39.877 -17.310  1.00  0.00     0.016 C 
ATOM     13  G   UNL     1      11.346  37.710 -16.720  1.00  0.00     0.000 G0
ENDBRANCH   9  10
ENDBRANCH   3   8
TORSDOF 0
ENDMDL
MODEL 7
REMARK VINA RESULT:     2.501      1.848      3.568
REMARK INTER + INTRA:           4.147
REMARK INTER:                   3.397
REMARK INTRA:                   0.751
REMARK UNBOUND:                 1.061
REMARK SMILES CC1=CC=CC(C)(C)CC1=O
REMARK SMILES IDX 1 1 2 2 3 3 10 4 11 5 9 6 4 8 5 9 6 10 7 11 8 12
REMARK H PARENT
REMARK Flexibility Score: 80.00
ROOT
ATOM      1  C   UNL     1      14.068  37.946 -14.296  1.00  0.00     0.048 C 
ATOM      2  C   UNL     1      13.678  37.632 -15.721  1.00  0.00    -0.008 C 
ATOM      3  C   UNL     1      14.390  36.686 -16.371  1.00  0.00     0.007 C 
ENDROOT
BRANCH   2   4
ATOM      4  C   UNL     1      12.491  38.335 -16.267  1.00  0.00     0.159 C 
ATOM      5  O   UNL     1      11.754  38.988 -15.478  1.00  0.00    -0.295 OA
BRANCH   4   6
ATOM      6  C   UNL     1      12.121  38.329 -17.718  1.00  0.00     0.091 CG0
ATOM      7  G   UNL     1      11.846  36.911 -18.270  1.00  0.00     0.000 G0
ENDBRANCH   4   6
ENDBRANCH   2   4
BRANCH   3   8
ATOM      8  C   UNL     1      14.232  36.153 -17.744  1.00  0.00    -0.003 C 
ATOM      9  C   UNL     1      13.172  36.221 -18.560  1.00  0.00    -0.020 C 
BRANCH   9  10
ATOM     10  C   UNL     1      11.859  36.908 -18.268  1.00  0.00    -0.010 CG0
ATOM     11  C   UNL     1      11.084  37.057 -19.597  1.00  0.00     0.016 C 
ATOM     12  C   UNL     1      11.008  36.038 -17.315  1.00  0.00     0.016 C 
ATOM     13  G   UNL     1      12.124  38.323 -17.705  1.00  0.00     0.000 G0
ENDBRANCH   9  10
ENDBRANCH   3   8
TORSDOF 0
ENDMDL
MODEL 8
REMARK VINA RESULT:     2.568      1.772      3.288
REMARK INTER + INTRA:           4.230
REMARK INTER:                   3.480
REMARK INTRA:                   0.750
REMARK UNBOUND:                 1.061
REMARK SMILES CC1=CC=CC(C)(C)CC1=O
REMARK SMILES IDX 1 1 2 2 3 3 10 4 11 5 9 6 4 8 5 9 6 10 7 11 8 12
REMARK H PARENT
REMARK Flexibility Score: 80.00
ROOT
ATOM      1  C   UNL     1      11.753  40.265 -18.489  1.00  0.00     0.048 C 
ATOM      2  C   UNL     1      11.951  39.021 -17.655  1.00  0.00    -0.008 C 
ATOM      3  C   UNL     1      11.720  37.828 -18.245  1.00  0.00     0.007 C 
ENDROOT
BRANCH   2   4
ATOM      4  C   UNL     1      12.458  39.208 -16.273  1.00  0.00     0.159 C 
ATOM      5  O   UNL     1      12.879  40.346 -15.928  1.00  0.00    -0.295 OA
BRANCH   4   6
ATOM      6  C   UNL     1      12.485  38.116 -15.248  1.00  0.00     0.091 CG0
ATOM      7  G   UNL     1      13.321  36.892 -15.684  1.00  0.00     0.000 G0
ENDBRANCH   4   6
ENDBRANCH   2   4
BRANCH   3   8
ATOM      8  C   UNL     1      11.850  36.457 -17.701  1.00  0.00    -0.003 C 
ATOM      9  C   UNL     1      12.530  36.036 -16.627  1.00  0.00    -0.020 C 
BRANCH   9  10
ATOM     10  C   UNL     1      13.324  36.897 -15.673  1.00  0.00    -0.010 CG0
ATOM     11  C   UNL     1      13.618  36.069 -14.401  1.00  0.00     0.016 C 
ATOM     12  C   UNL     1      14.677  37.284 -16.313  1.00  0.00     0.016 C 
ATOM     13  G   UNL     1      12.486  38.128 -15.262  1.00  0.00     0.000 G0
ENDBRANCH   9  10
ENDBRANCH   3   8
TORSDOF 0
ENDMDL
MODEL 9
REMARK VINA RESULT:     2.693      1.914      2.841
REMARK INTER + INTRA:           4.383
REMARK INTER:                   3.629
REMARK INTRA:                   0.754
REMARK UNBOUND:                 1.061
REMARK SMILES CC1=CC=CC(C)(C)CC1=O
REMARK SMILES IDX 1 1 2 2 3 3 10 4 11 5 9 6 4 8 5 9 6 10 7 11 8 12
REMARK H PARENT
REMARK Flexibility Score: 80.00
ROOT
ATOM      1  C   UNL     1      13.649  35.421 -15.024  1.00  0.00     0.048 C 
ATOM      2  C   UNL     1      13.249  36.665 -15.782  1.00  0.00    -0.008 C 
ATOM      3  C   UNL     1      12.500  36.507 -16.894  1.00  0.00     0.007 C 
ENDROOT
BRANCH   2   4
ATOM      4  C   UNL     1      13.650  37.970 -15.199  1.00  0.00     0.159 C 
ATOM      5  O   UNL     1      14.113  37.995 -14.025  1.00  0.00    -0.295 OA
BRANCH   4   6
ATOM      6  C   UNL     1      13.551  39.270 -15.935  1.00  0.00     0.091 CG0
ATOM      7  G   UNL     1      12.106  39.622 -16.357  1.00  0.00     0.000 G0
ENDBRANCH   4   6
ENDBRANCH   2   4
BRANCH   3   8
ATOM      8  C   UNL     1      11.942  37.522 -17.818  1.00  0.00    -0.003 C 
ATOM      9  C   UNL     1      11.757  38.833 -17.619  1.00  0.00    -0.020 C 
BRANCH   9  10
ATOM     10  C   UNL     1      12.114  39.611 -16.374  1.00  0.00    -0.010 CG0
ATOM     11  C   UNL     1      12.077  41.118 -16.717  1.00  0.00     0.016 C 
ATOM     12  C   UNL     1      11.068  39.347 -15.268  1.00  0.00     0.016 C 
ATOM     13  G   UNL     1      13.552  39.255 -15.932  1.00  0.00     0.000 G0
ENDBRANCH   9  10
ENDBRANCH   3   8
TORSDOF 0
ENDMDL
