MODEL 1
REMARK VINA RESULT:    -3.995      0.000      0.000
REMARK INTER + INTRA:          -6.328
REMARK INTER:                  -5.746
REMARK INTRA:                  -0.582
REMARK UNBOUND:                -0.582
REMARK SMILES O=C(CO)[C@@H](O)[C@H](O)[C@H](O)CO
REMARK SMILES IDX 7 1 9 2 11 3 12 4 10 6 5 8 2 9 1 10 3 11 4 12 6 14 8 16
REMARK H PARENT 12 5 10 7 4 13 6 15 8 17
REMARK Flexibility Score: inf
ROOT
ATOM      1  C   UNL     1      -0.649  -2.368   0.397  1.00  0.00     0.181 C 
ENDROOT
BRANCH   1   2
ATOM      2  C   UNL     1      -0.947  -3.174  -0.898  1.00  0.00     0.171 C 
BRANCH   2   3
ATOM      3  C   UNL     1      -1.108  -2.272  -2.132  1.00  0.00     0.190 C 
BRANCH   3   4
ATOM      4  O   UNL     1      -0.179  -2.628  -3.119  1.00  0.00    -0.394 OA
ATOM      5  H   UNL     1       0.634  -2.083  -2.956  1.00  0.00     0.210 HD
ENDBRANCH   3   4
ENDBRANCH   2   3
BRANCH   2   6
ATOM      6  O   UNL     1       0.057  -4.125  -1.146  1.00  0.00    -0.388 OA
ATOM      7  H   UNL     1       0.915  -3.630  -1.213  1.00  0.00     0.211 HD
ENDBRANCH   2   6
ENDBRANCH   1   2
BRANCH   1   8
ATOM      8  C   UNL     1       0.527  -1.371   0.256  1.00  0.00     0.214 C 
BRANCH   8   9
ATOM      9  C   UNL     1       1.159  -1.117   1.609  1.00  0.00     0.189 C 
ATOM     10  O   UNL     1       0.434  -0.948   2.579  1.00  0.00    -0.294 OA
BRANCH   9  11
ATOM     11  C   UNL     1       2.654  -1.024   1.772  1.00  0.00     0.234 C 
BRANCH  11  12
ATOM     12  O   UNL     1       3.225  -0.338   0.691  1.00  0.00    -0.388 OA
ATOM     13  H   UNL     1       4.189  -0.574   0.693  1.00  0.00     0.211 HD
ENDBRANCH  11  12
ENDBRANCH   9  11
ENDBRANCH   8   9
BRANCH   8  14
ATOM     14  O   UNL     1       1.478  -1.876  -0.649  1.00  0.00    -0.382 OA
ATOM     15  H   UNL     1       1.070  -1.825  -1.553  1.00  0.00     0.211 HD
ENDBRANCH   8  14
ENDBRANCH   1   8
BRANCH   1  16
ATOM     16  O   UNL     1      -0.376  -3.256   1.452  1.00  0.00    -0.387 OA
ATOM     17  H   UNL     1      -1.213  -3.343   1.980  1.00  0.00     0.211 HD
ENDBRANCH   1  16
TORSDOF 10
ENDMDL
MODEL 2
REMARK VINA RESULT:    -3.653     14.970     17.789
REMARK INTER + INTRA:          -5.837
REMARK INTER:                  -5.214
REMARK INTRA:                  -0.623
REMARK UNBOUND:                -0.582
REMARK SMILES O=C(CO)[C@@H](O)[C@H](O)[C@H](O)CO
REMARK SMILES IDX 7 1 9 2 11 3 12 4 10 6 5 8 2 9 1 10 3 11 4 12 6 14 8 16
REMARK H PARENT 12 5 10 7 4 13 6 15 8 17
REMARK Flexibility Score: inf
ROOT
ATOM      1  C   UNL     1      13.661  -1.559  12.213  1.00  0.00     0.181 C 
ENDROOT
BRANCH   1   2
ATOM      2  C   UNL     1      15.134  -2.005  12.424  1.00  0.00     0.171 C 
BRANCH   2   3
ATOM      3  C   UNL     1      16.124  -0.833  12.346  1.00  0.00     0.190 C 
BRANCH   3   4
ATOM      4  O   UNL     1      15.543   0.330  12.871  1.00  0.00    -0.394 OA
ATOM      5  H   UNL     1      15.828   0.389  13.819  1.00  0.00     0.210 HD
ENDBRANCH   3   4
ENDBRANCH   2   3
BRANCH   2   6
ATOM      6  O   UNL     1      15.293  -2.666  13.653  1.00  0.00    -0.388 OA
ATOM      7  H   UNL     1      14.621  -2.284  14.277  1.00  0.00     0.211 HD
ENDBRANCH   2   6
ENDBRANCH   1   2
BRANCH   1   8
ATOM      8  C   UNL     1      12.667  -2.735  12.058  1.00  0.00     0.214 C 
BRANCH   8   9
ATOM      9  C   UNL     1      11.610  -2.392  11.027  1.00  0.00     0.189 C 
ATOM     10  O   UNL     1      11.036  -1.315  11.105  1.00  0.00    -0.294 OA
BRANCH   9  11
ATOM     11  C   UNL     1      11.224  -3.366   9.945  1.00  0.00     0.234 C 
BRANCH  11  12
ATOM     12  O   UNL     1       9.891  -3.173   9.561  1.00  0.00    -0.388 OA
ATOM     13  H   UNL     1       9.760  -3.708   8.736  1.00  0.00     0.211 HD
ENDBRANCH  11  12
ENDBRANCH   9  11
ENDBRANCH   8   9
BRANCH   8  14
ATOM     14  O   UNL     1      13.360  -3.902  11.689  1.00  0.00    -0.382 OA
ATOM     15  H   UNL     1      13.120  -4.601  12.353  1.00  0.00     0.211 HD
ENDBRANCH   8  14
ENDBRANCH   1   8
BRANCH   1  16
ATOM     16  O   UNL     1      13.577  -0.732  11.079  1.00  0.00    -0.387 OA
ATOM     17  H   UNL     1      13.312  -1.311  10.317  1.00  0.00     0.211 HD
ENDBRANCH   1  16
TORSDOF 10
ENDMDL
MODEL 3
REMARK VINA RESULT:    -3.553      0.867      4.452
REMARK INTER + INTRA:          -5.693
REMARK INTER:                  -5.073
REMARK INTRA:                  -0.620
REMARK UNBOUND:                -0.582
REMARK SMILES O=C(CO)[C@@H](O)[C@H](O)[C@H](O)CO
REMARK SMILES IDX 7 1 9 2 11 3 12 4 10 6 5 8 2 9 1 10 3 11 4 12 6 14 8 16
REMARK H PARENT 12 5 10 7 4 13 6 15 8 17
REMARK Flexibility Score: inf
ROOT
ATOM      1  C   UNL     1       0.692  -1.507   0.287  1.00  0.00     0.181 C 
ENDROOT
BRANCH   1   2
ATOM      2  C   UNL     1       1.446  -1.644   1.639  1.00  0.00     0.171 C 
BRANCH   2   3
ATOM      3  C   UNL     1       2.561  -0.600   1.802  1.00  0.00     0.190 C 
BRANCH   3   4
ATOM      4  O   UNL     1       3.422  -0.631   0.696  1.00  0.00    -0.394 OA
ATOM      5  H   UNL     1       3.202   0.162   0.141  1.00  0.00     0.210 HD
ENDBRANCH   3   4
ENDBRANCH   2   3
BRANCH   2   6
ATOM      6  O   UNL     1       0.560  -1.551   2.725  1.00  0.00    -0.388 OA
ATOM      7  H   UNL     1       0.698  -2.362   3.283  1.00  0.00     0.211 HD
ENDBRANCH   2   6
ENDBRANCH   1   2
BRANCH   1   8
ATOM      8  C   UNL     1      -0.589  -2.371   0.195  1.00  0.00     0.214 C 
BRANCH   8   9
ATOM      9  C   UNL     1      -0.876  -2.724  -1.251  1.00  0.00     0.189 C 
ATOM     10  O   UNL     1      -1.327  -1.862  -1.992  1.00  0.00    -0.294 OA
BRANCH   9  11
ATOM     11  C   UNL     1      -0.662  -4.120  -1.775  1.00  0.00     0.234 C 
BRANCH  11  12
ATOM     12  O   UNL     1      -0.278  -4.086  -3.122  1.00  0.00    -0.388 OA
ATOM     13  H   UNL     1      -1.105  -3.910  -3.641  1.00  0.00     0.211 HD
ENDBRANCH  11  12
ENDBRANCH   9  11
ENDBRANCH   8   9
BRANCH   8  14
ATOM     14  O   UNL     1      -0.439  -3.535   0.970  1.00  0.00    -0.382 OA
ATOM     15  H   UNL     1       0.154  -3.300   1.731  1.00  0.00     0.211 HD
ENDBRANCH   8  14
ENDBRANCH   1   8
BRANCH   1  16
ATOM     16  O   UNL     1       1.554  -1.846  -0.770  1.00  0.00    -0.387 OA
ATOM     17  H   UNL     1       1.059  -1.674  -1.614  1.00  0.00     0.211 HD
ENDBRANCH   1  16
TORSDOF 10
ENDMDL
MODEL 4
REMARK VINA RESULT:    -3.286      1.055      4.545
REMARK INTER + INTRA:          -5.309
REMARK INTER:                  -4.988
REMARK INTRA:                  -0.321
REMARK UNBOUND:                -0.582
REMARK SMILES O=C(CO)[C@@H](O)[C@H](O)[C@H](O)CO
REMARK SMILES IDX 7 1 9 2 11 3 12 4 10 6 5 8 2 9 1 10 3 11 4 12 6 14 8 16
REMARK H PARENT 12 5 10 7 4 13 6 15 8 17
REMARK Flexibility Score: inf
ROOT
ATOM      1  C   UNL     1       1.057  -1.177   0.601  1.00  0.00     0.181 C 
ENDROOT
BRANCH   1   2
ATOM      2  C   UNL     1       2.230  -1.266   1.616  1.00  0.00     0.171 C 
BRANCH   2   3
ATOM      3  C   UNL     1       3.553  -0.740   1.038  1.00  0.00     0.190 C 
BRANCH   3   4
ATOM      4  O   UNL     1       4.521  -0.646   2.048  1.00  0.00    -0.394 OA
ATOM      5  H   UNL     1       5.213  -0.015   1.721  1.00  0.00     0.210 HD
ENDBRANCH   3   4
ENDBRANCH   2   3
BRANCH   2   6
ATOM      6  O   UNL     1       1.930  -0.569   2.799  1.00  0.00    -0.388 OA
ATOM      7  H   UNL     1       1.095  -0.057   2.631  1.00  0.00     0.211 HD
ENDBRANCH   2   6
ENDBRANCH   1   2
BRANCH   1   8
ATOM      8  C   UNL     1      -0.197  -1.980   1.022  1.00  0.00     0.214 C 
BRANCH   8   9
ATOM      9  C   UNL     1      -0.608  -2.925  -0.089  1.00  0.00     0.189 C 
ATOM     10  O   UNL     1      -0.404  -4.123   0.047  1.00  0.00    -0.294 OA
BRANCH   9  11
ATOM     11  C   UNL     1      -1.216  -2.414  -1.369  1.00  0.00     0.234 C 
BRANCH  11  12
ATOM     12  O   UNL     1      -0.395  -2.722  -2.463  1.00  0.00    -0.388 OA
ATOM     13  H   UNL     1       0.328  -2.043  -2.465  1.00  0.00     0.211 HD
ENDBRANCH  11  12
ENDBRANCH   9  11
ENDBRANCH   8   9
BRANCH   8  14
ATOM     14  O   UNL     1       0.064  -2.690   2.207  1.00  0.00    -0.382 OA
ATOM     15  H   UNL     1       0.847  -3.273   2.027  1.00  0.00     0.211 HD
ENDBRANCH   8  14
ENDBRANCH   1   8
BRANCH   1  16
ATOM     16  O   UNL     1       1.490  -1.625  -0.660  1.00  0.00    -0.387 OA
ATOM     17  H   UNL     1       1.989  -0.875  -1.078  1.00  0.00     0.211 HD
ENDBRANCH   1  16
TORSDOF 10
ENDMDL
MODEL 5
REMARK VINA RESULT:    -3.260      1.177      2.065
REMARK INTER + INTRA:          -5.272
REMARK INTER:                  -4.575
REMARK INTRA:                  -0.697
REMARK UNBOUND:                -0.582
REMARK SMILES O=C(CO)[C@@H](O)[C@H](O)[C@H](O)CO
REMARK SMILES IDX 7 1 9 2 11 3 12 4 10 6 5 8 2 9 1 10 3 11 4 12 6 14 8 16
REMARK H PARENT 12 5 10 7 4 13 6 15 8 17
REMARK Flexibility Score: inf
ROOT
ATOM      1  C   UNL     1       0.403  -2.211  -0.004  1.00  0.00     0.181 C 
ENDROOT
BRANCH   1   2
ATOM      2  C   UNL     1      -0.752  -3.250   0.035  1.00  0.00     0.171 C 
BRANCH   2   3
ATOM      3  C   UNL     1      -0.804  -4.124  -1.228  1.00  0.00     0.190 C 
BRANCH   3   4
ATOM      4  O   UNL     1      -0.456  -3.369  -2.357  1.00  0.00    -0.394 OA
ATOM      5  H   UNL     1      -1.286  -2.925  -2.670  1.00  0.00     0.210 HD
ENDBRANCH   3   4
ENDBRANCH   2   3
BRANCH   2   6
ATOM      6  O   UNL     1      -0.654  -4.075   1.168  1.00  0.00    -0.388 OA
ATOM      7  H   UNL     1      -0.183  -4.902   0.885  1.00  0.00     0.211 HD
ENDBRANCH   2   6
ENDBRANCH   1   2
BRANCH   1   8
ATOM      8  C   UNL     1       0.966  -1.849   1.391  1.00  0.00     0.214 C 
BRANCH   8   9
ATOM      9  C   UNL     1       2.246  -1.051   1.246  1.00  0.00     0.189 C 
ATOM     10  O   UNL     1       2.609  -0.713   0.129  1.00  0.00    -0.294 OA
BRANCH   9  11
ATOM     11  C   UNL     1       3.097  -0.710   2.442  1.00  0.00     0.234 C 
BRANCH  11  12
ATOM     12  O   UNL     1       4.386  -0.337   2.038  1.00  0.00    -0.388 OA
ATOM     13  H   UNL     1       4.393   0.655   2.018  1.00  0.00     0.211 HD
ENDBRANCH  11  12
ENDBRANCH   9  11
ENDBRANCH   8   9
BRANCH   8  14
ATOM     14  O   UNL     1       0.008  -1.122   2.121  1.00  0.00    -0.382 OA
ATOM     15  H   UNL     1      -0.064  -1.553   3.012  1.00  0.00     0.211 HD
ENDBRANCH   8  14
ENDBRANCH   1   8
BRANCH   1  16
ATOM     16  O   UNL     1      -0.038  -1.039  -0.642  1.00  0.00    -0.387 OA
ATOM     17  H   UNL     1       0.649  -0.342  -0.475  1.00  0.00     0.211 HD
ENDBRANCH   1  16
TORSDOF 10
ENDMDL
MODEL 6
REMARK VINA RESULT:    -3.138     15.556     17.943
REMARK INTER + INTRA:          -5.096
REMARK INTER:                  -4.386
REMARK INTRA:                  -0.711
REMARK UNBOUND:                -0.582
REMARK SMILES O=C(CO)[C@@H](O)[C@H](O)[C@H](O)CO
REMARK SMILES IDX 7 1 9 2 11 3 12 4 10 6 5 8 2 9 1 10 3 11 4 12 6 14 8 16
REMARK H PARENT 12 5 10 7 4 13 6 15 8 17
REMARK Flexibility Score: inf
ROOT
ATOM      1  C   UNL     1      13.419  -1.877  11.502  1.00  0.00     0.181 C 
ENDROOT
BRANCH   1   2
ATOM      2  C   UNL     1      12.013  -2.529  11.392  1.00  0.00     0.171 C 
BRANCH   2   3
ATOM      3  C   UNL     1      10.903  -1.500  11.131  1.00  0.00     0.190 C 
BRANCH   3   4
ATOM      4  O   UNL     1       9.867  -2.080  10.386  1.00  0.00    -0.394 OA
ATOM      5  H   UNL     1       9.222  -2.457  11.038  1.00  0.00     0.210 HD
ENDBRANCH   3   4
ENDBRANCH   2   3
BRANCH   2   6
ATOM      6  O   UNL     1      11.986  -3.508  10.384  1.00  0.00    -0.388 OA
ATOM      7  H   UNL     1      11.256  -3.260   9.758  1.00  0.00     0.211 HD
ENDBRANCH   2   6
ENDBRANCH   1   2
BRANCH   1   8
ATOM      8  C   UNL     1      14.537  -2.867  11.909  1.00  0.00     0.214 C 
BRANCH   8   9
ATOM      9  C   UNL     1      15.594  -2.151  12.727  1.00  0.00     0.189 C 
ATOM     10  O   UNL     1      16.046  -1.093  12.314  1.00  0.00    -0.294 OA
BRANCH   9  11
ATOM     11  C   UNL     1      16.125  -2.740  14.008  1.00  0.00     0.234 C 
BRANCH  11  12
ATOM     12  O   UNL     1      15.079  -2.985  14.908  1.00  0.00    -0.388 OA
ATOM     13  H   UNL     1      15.040  -3.969  15.025  1.00  0.00     0.211 HD
ENDBRANCH  11  12
ENDBRANCH   9  11
ENDBRANCH   8   9
BRANCH   8  14
ATOM     14  O   UNL     1      13.989  -3.938  12.635  1.00  0.00    -0.382 OA
ATOM     15  H   UNL     1      13.102  -4.135  12.233  1.00  0.00     0.211 HD
ENDBRANCH   8  14
ENDBRANCH   1   8
BRANCH   1  16
ATOM     16  O   UNL     1      13.378  -0.821  12.429  1.00  0.00    -0.387 OA
ATOM     17  H   UNL     1      12.478  -0.839  12.848  1.00  0.00     0.211 HD
ENDBRANCH   1  16
TORSDOF 10
ENDMDL
MODEL 7
REMARK VINA RESULT:    -3.121      1.181      4.379
REMARK INTER + INTRA:          -5.073
REMARK INTER:                  -4.353
REMARK INTRA:                  -0.720
REMARK UNBOUND:                -0.582
REMARK SMILES O=C(CO)[C@@H](O)[C@H](O)[C@H](O)CO
REMARK SMILES IDX 7 1 9 2 11 3 12 4 10 6 5 8 2 9 1 10 3 11 4 12 6 14 8 16
REMARK H PARENT 12 5 10 7 4 13 6 15 8 17
REMARK Flexibility Score: inf
ROOT
ATOM      1  C   UNL     1       1.094  -1.744   1.383  1.00  0.00     0.181 C 
ENDROOT
BRANCH   1   2
ATOM      2  C   UNL     1       2.181  -0.638   1.281  1.00  0.00     0.171 C 
BRANCH   2   3
ATOM      3  C   UNL     1       3.232  -0.737   2.398  1.00  0.00     0.190 C 
BRANCH   3   4
ATOM      4  O   UNL     1       4.523  -0.726   1.854  1.00  0.00    -0.394 OA
ATOM      5  H   UNL     1       4.890  -1.640   1.971  1.00  0.00     0.210 HD
ENDBRANCH   3   4
ENDBRANCH   2   3
BRANCH   2   6
ATOM      6  O   UNL     1       2.825  -0.674   0.033  1.00  0.00    -0.388 OA
ATOM      7  H   UNL     1       2.675   0.209  -0.397  1.00  0.00     0.211 HD
ENDBRANCH   2   6
ENDBRANCH   1   2
BRANCH   1   8
ATOM      8  C   UNL     1       0.565  -2.228   0.012  1.00  0.00     0.214 C 
BRANCH   8   9
ATOM      9  C   UNL     1      -0.376  -3.401   0.202  1.00  0.00     0.189 C 
ATOM     10  O   UNL     1      -0.616  -3.790   1.336  1.00  0.00    -0.294 OA
BRANCH   9  11
ATOM     11  C   UNL     1      -0.982  -4.119  -0.976  1.00  0.00     0.234 C 
BRANCH  11  12
ATOM     12  O   UNL     1      -0.502  -3.584  -2.179  1.00  0.00    -0.388 OA
ATOM     13  H   UNL     1       0.329  -4.083  -2.392  1.00  0.00     0.211 HD
ENDBRANCH  11  12
ENDBRANCH   9  11
ENDBRANCH   8   9
BRANCH   8  14
ATOM     14  O   UNL     1      -0.084  -1.173  -0.653  1.00  0.00    -0.382 OA
ATOM     15  H   UNL     1       0.479  -0.937  -1.437  1.00  0.00     0.211 HD
ENDBRANCH   8  14
ENDBRANCH   1   8
BRANCH   1  16
ATOM     16  O   UNL     1       0.016  -1.274   2.153  1.00  0.00    -0.387 OA
ATOM     17  H   UNL     1       0.157  -0.300   2.286  1.00  0.00     0.211 HD
ENDBRANCH   1  16
TORSDOF 10
ENDMDL
MODEL 8
REMARK VINA RESULT:    -2.619     16.287     19.048
REMARK INTER + INTRA:          -4.349
REMARK INTER:                  -4.732
REMARK INTRA:                   0.383
REMARK UNBOUND:                -0.582
REMARK SMILES O=C(CO)[C@@H](O)[C@H](O)[C@H](O)CO
REMARK SMILES IDX 7 1 9 2 11 3 12 4 10 6 5 8 2 9 1 10 3 11 4 12 6 14 8 16
REMARK H PARENT 12 5 10 7 4 13 6 15 8 17
REMARK Flexibility Score: inf
ROOT
ATOM      1  C   UNL     1      15.059  -1.978  13.003  1.00  0.00     0.181 C 
ENDROOT
BRANCH   1   2
ATOM      2  C   UNL     1      16.093  -3.059  13.428  1.00  0.00     0.171 C 
BRANCH   2   3
ATOM      3  C   UNL     1      15.821  -3.615  14.834  1.00  0.00     0.190 C 
BRANCH   3   4
ATOM      4  O   UNL     1      15.391  -2.590  15.688  1.00  0.00    -0.394 OA
ATOM      5  H   UNL     1      16.204  -2.210  16.111  1.00  0.00     0.210 HD
ENDBRANCH   3   4
ENDBRANCH   2   3
BRANCH   2   6
ATOM      6  O   UNL     1      16.125  -4.119  12.507  1.00  0.00    -0.388 OA
ATOM      7  H   UNL     1      15.663  -4.888  12.933  1.00  0.00     0.211 HD
ENDBRANCH   2   6
ENDBRANCH   1   2
BRANCH   1   8
ATOM      8  C   UNL     1      13.707  -2.560  12.527  1.00  0.00     0.214 C 
BRANCH   8   9
ATOM      9  C   UNL     1      12.976  -1.546  11.670  1.00  0.00     0.189 C 
ATOM     10  O   UNL     1      13.479  -0.445  11.497  1.00  0.00    -0.294 OA
BRANCH   9  11
ATOM     11  C   UNL     1      11.629  -1.853  11.068  1.00  0.00     0.234 C 
BRANCH  11  12
ATOM     12  O   UNL     1      11.746  -2.834  10.075  1.00  0.00    -0.388 OA
ATOM     13  H   UNL     1      11.117  -2.573   9.353  1.00  0.00     0.211 HD
ENDBRANCH  11  12
ENDBRANCH   9  11
ENDBRANCH   8   9
BRANCH   8  14
ATOM     14  O   UNL     1      13.921  -3.752  11.813  1.00  0.00    -0.382 OA
ATOM     15  H   UNL     1      13.355  -3.705  10.998  1.00  0.00     0.211 HD
ENDBRANCH   8  14
ENDBRANCH   1   8
BRANCH   1  16
ATOM     16  O   UNL     1      15.604  -1.182  11.980  1.00  0.00    -0.387 OA
ATOM     17  H   UNL     1      15.392  -1.632  11.120  1.00  0.00     0.211 HD
ENDBRANCH   1  16
TORSDOF 10
ENDMDL
MODEL 9
REMARK VINA RESULT:    -2.411      1.498      2.797
REMARK INTER + INTRA:          -4.051
REMARK INTER:                  -3.811
REMARK INTRA:                  -0.240
REMARK UNBOUND:                -0.582
REMARK SMILES O=C(CO)[C@@H](O)[C@H](O)[C@H](O)CO
REMARK SMILES IDX 7 1 9 2 11 3 12 4 10 6 5 8 2 9 1 10 3 11 4 12 6 14 8 16
REMARK H PARENT 12 5 10 7 4 13 6 15 8 17
REMARK Flexibility Score: inf
ROOT
ATOM      1  C   UNL     1       1.076  -1.094   1.101  1.00  0.00     0.181 C 
ENDROOT
BRANCH   1   2
ATOM      2  C   UNL     1       0.838  -2.315   0.169  1.00  0.00     0.171 C 
BRANCH   2   3
ATOM      3  C   UNL     1      -0.536  -2.966   0.387  1.00  0.00     0.190 C 
BRANCH   3   4
ATOM      4  O   UNL     1      -1.258  -2.993  -0.814  1.00  0.00    -0.394 OA
ATOM      5  H   UNL     1      -0.762  -2.423  -1.457  1.00  0.00     0.210 HD
ENDBRANCH   3   4
ENDBRANCH   2   3
BRANCH   2   6
ATOM      6  O   UNL     1       0.972  -1.954  -1.182  1.00  0.00    -0.388 OA
ATOM      7  H   UNL     1       0.196  -2.343  -1.665  1.00  0.00     0.211 HD
ENDBRANCH   2   6
ENDBRANCH   1   2
BRANCH   1   8
ATOM      8  C   UNL     1       2.346  -1.214   1.977  1.00  0.00     0.214 C 
BRANCH   8   9
ATOM      9  C   UNL     1       3.573  -0.847   1.168  1.00  0.00     0.189 C 
ATOM     10  O   UNL     1       3.426  -0.304   0.082  1.00  0.00    -0.294 OA
BRANCH   9  11
ATOM     11  C   UNL     1       4.960  -1.178   1.654  1.00  0.00     0.234 C 
BRANCH  11  12
ATOM     12  O   UNL     1       5.682  -1.853   0.660  1.00  0.00    -0.388 OA
ATOM     13  H   UNL     1       6.277  -1.176   0.243  1.00  0.00     0.211 HD
ENDBRANCH  11  12
ENDBRANCH   9  11
ENDBRANCH   8   9
BRANCH   8  14
ATOM     14  O   UNL     1       2.229  -0.384   3.107  1.00  0.00    -0.382 OA
ATOM     15  H   UNL     1       3.052  -0.517   3.648  1.00  0.00     0.211 HD
ENDBRANCH   8  14
ENDBRANCH   1   8
BRANCH   1  16
ATOM     16  O   UNL     1      -0.043  -0.912   1.933  1.00  0.00    -0.387 OA
ATOM     17  H   UNL     1       0.229  -0.278   2.649  1.00  0.00     0.211 HD
ENDBRANCH   1  16
TORSDOF 10
ENDMDL
