MODEL 1
REMARK VINA RESULT:    -3.969      0.000      0.000
REMARK INTER + INTRA:          -5.494
REMARK INTER:                  -5.361
REMARK INTRA:                  -0.132
REMARK UNBOUND:                -0.132
REMARK SMILES CCCCCCCC(=O)[O-]
REMARK SMILES IDX 5 1 6 2 7 3 8 4 9 5 10 6 4 7 3 8 2 9 1 10
REMARK H PARENT
REMARK Flexibility Score: inf
ROOT
ATOM      1  C   UNL     1      15.427  33.024  11.658  1.00  0.00     0.000 C 
ENDROOT
BRANCH   1   2
ATOM      2  C   UNL     1      16.918  33.335  11.454  1.00  0.00     0.006 C 
BRANCH   2   3
ATOM      3  C   UNL     1      17.179  34.163  10.189  1.00  0.00     0.053 C 
BRANCH   3   4
ATOM      4  C   UNL     1      18.506  34.848  10.279  1.00  0.00     0.041 C 
ATOM      5  O   UNL     1      19.559  34.174  10.419  1.00  0.00    -0.550 OA
ATOM      6  O   UNL     1      18.584  36.230  10.159  1.00  0.00    -0.550 OA
ENDBRANCH   3   4
ENDBRANCH   2   3
ENDBRANCH   1   2
BRANCH   1   7
ATOM      7  C   UNL     1      15.131  31.514  11.648  1.00  0.00     0.000 C 
BRANCH   7   8
ATOM      8  C   UNL     1      13.650  31.197  11.374  1.00  0.00    -0.000 C 
BRANCH   8   9
ATOM      9  C   UNL     1      12.937  30.430  12.503  1.00  0.00    -0.003 C 
ATOM     10  C   UNL     1      13.729  29.220  12.995  1.00  0.00     0.004 C 
ENDBRANCH   8   9
ENDBRANCH   7   8
ENDBRANCH   1   7
TORSDOF 6
ENDMDL
MODEL 2
REMARK VINA RESULT:    -3.812      4.152      6.225
REMARK INTER + INTRA:          -5.282
REMARK INTER:                  -5.135
REMARK INTRA:                  -0.147
REMARK UNBOUND:                -0.132
REMARK SMILES CCCCCCCC(=O)[O-]
REMARK SMILES IDX 5 1 6 2 7 3 8 4 9 5 10 6 4 7 3 8 2 9 1 10
REMARK H PARENT
REMARK Flexibility Score: inf
ROOT
ATOM      1  C   UNL     1      14.372  32.880  11.604  1.00  0.00     0.000 C 
ENDROOT
BRANCH   1   2
ATOM      2  C   UNL     1      13.716  31.506  11.398  1.00  0.00     0.006 C 
BRANCH   2   3
ATOM      3  C   UNL     1      14.570  30.357  11.949  1.00  0.00     0.053 C 
BRANCH   3   4
ATOM      4  C   UNL     1      13.700  29.217  12.374  1.00  0.00     0.041 C 
ATOM      5  O   UNL     1      13.237  28.419  11.518  1.00  0.00    -0.550 OA
ATOM      6  O   UNL     1      13.439  29.007  13.722  1.00  0.00    -0.550 OA
ENDBRANCH   3   4
ENDBRANCH   2   3
ENDBRANCH   1   2
BRANCH   1   7
ATOM      7  C   UNL     1      15.436  33.192  10.537  1.00  0.00     0.000 C 
BRANCH   7   8
ATOM      8  C   UNL     1      16.817  33.503  11.143  1.00  0.00    -0.000 C 
BRANCH   8   9
ATOM      9  C   UNL     1      17.745  34.333  10.238  1.00  0.00    -0.003 C 
ATOM     10  C   UNL     1      19.221  34.192  10.607  1.00  0.00     0.004 C 
ENDBRANCH   8   9
ENDBRANCH   7   8
ENDBRANCH   1   7
TORSDOF 6
ENDMDL
MODEL 3
REMARK VINA RESULT:    -3.803     21.195     22.151
REMARK INTER + INTRA:          -5.269
REMARK INTER:                  -5.064
REMARK INTRA:                  -0.205
REMARK UNBOUND:                -0.132
REMARK SMILES CCCCCCCC(=O)[O-]
REMARK SMILES IDX 5 1 6 2 7 3 8 4 9 5 10 6 4 7 3 8 2 9 1 10
REMARK H PARENT
REMARK Flexibility Score: inf
ROOT
ATOM      1  C   UNL     1      27.080  20.706  24.784  1.00  0.00     0.000 C 
ENDROOT
BRANCH   1   2
ATOM      2  C   UNL     1      25.902  20.629  25.768  1.00  0.00     0.006 C 
BRANCH   2   3
ATOM      3  C   UNL     1      25.293  19.223  25.848  1.00  0.00     0.053 C 
BRANCH   3   4
ATOM      4  C   UNL     1      23.809  19.286  25.672  1.00  0.00     0.041 C 
ATOM      5  O   UNL     1      23.081  19.748  26.589  1.00  0.00    -0.550 OA
ATOM      6  O   UNL     1      23.233  18.881  24.474  1.00  0.00    -0.550 OA
ENDBRANCH   3   4
ENDBRANCH   2   3
ENDBRANCH   1   2
BRANCH   1   7
ATOM      7  C   UNL     1      28.404  21.077  25.474  1.00  0.00     0.000 C 
BRANCH   7   8
ATOM      8  C   UNL     1      29.633  20.823  24.584  1.00  0.00    -0.000 C 
BRANCH   8   9
ATOM      9  C   UNL     1      29.323  20.150  23.235  1.00  0.00    -0.003 C 
ATOM     10  C   UNL     1      30.469  20.266  22.231  1.00  0.00     0.004 C 
ENDBRANCH   8   9
ENDBRANCH   7   8
ENDBRANCH   1   7
TORSDOF 6
ENDMDL
MODEL 4
REMARK VINA RESULT:    -3.650     20.760     21.892
REMARK INTER + INTRA:          -5.063
REMARK INTER:                  -4.842
REMARK INTRA:                  -0.221
REMARK UNBOUND:                -0.132
REMARK SMILES CCCCCCCC(=O)[O-]
REMARK SMILES IDX 5 1 6 2 7 3 8 4 9 5 10 6 4 7 3 8 2 9 1 10
REMARK H PARENT
REMARK Flexibility Score: inf
ROOT
ATOM      1  C   UNL     1      25.514  19.449  25.448  1.00  0.00     0.000 C 
ENDROOT
BRANCH   1   2
ATOM      2  C   UNL     1      24.354  19.195  26.423  1.00  0.00     0.006 C 
BRANCH   2   3
ATOM      3  C   UNL     1      23.029  19.792  25.930  1.00  0.00     0.053 C 
BRANCH   3   4
ATOM      4  C   UNL     1      22.538  20.832  26.887  1.00  0.00     0.041 C 
ATOM      5  O   UNL     1      21.751  20.517  27.817  1.00  0.00    -0.550 OA
ATOM      6  O   UNL     1      22.988  22.142  26.781  1.00  0.00    -0.550 OA
ENDBRANCH   3   4
ENDBRANCH   2   3
ENDBRANCH   1   2
BRANCH   1   7
ATOM      7  C   UNL     1      26.189  20.813  25.676  1.00  0.00     0.000 C 
BRANCH   7   8
ATOM      8  C   UNL     1      27.724  20.742  25.583  1.00  0.00    -0.000 C 
BRANCH   8   9
ATOM      9  C   UNL     1      28.270  20.441  24.176  1.00  0.00    -0.003 C 
ATOM     10  C   UNL     1      29.795  20.495  24.103  1.00  0.00     0.004 C 
ENDBRANCH   8   9
ENDBRANCH   7   8
ENDBRANCH   1   7
TORSDOF 6
ENDMDL
MODEL 5
REMARK VINA RESULT:    -3.628     21.092     21.884
REMARK INTER + INTRA:          -5.032
REMARK INTER:                  -4.804
REMARK INTRA:                  -0.228
REMARK UNBOUND:                -0.132
REMARK SMILES CCCCCCCC(=O)[O-]
REMARK SMILES IDX 5 1 6 2 7 3 8 4 9 5 10 6 4 7 3 8 2 9 1 10
REMARK H PARENT
REMARK Flexibility Score: inf
ROOT
ATOM      1  C   UNL     1      27.646  20.756  25.810  1.00  0.00     0.000 C 
ENDROOT
BRANCH   1   2
ATOM      2  C   UNL     1      28.147  19.702  24.811  1.00  0.00     0.006 C 
BRANCH   2   3
ATOM      3  C   UNL     1      28.488  20.303  23.442  1.00  0.00     0.053 C 
BRANCH   3   4
ATOM      4  C   UNL     1      29.921  20.042  23.100  1.00  0.00     0.041 C 
ATOM      5  O   UNL     1      30.488  20.710  22.196  1.00  0.00    -0.550 OA
ATOM      6  O   UNL     1      30.644  19.095  23.813  1.00  0.00    -0.550 OA
ENDBRANCH   3   4
ENDBRANCH   2   3
ENDBRANCH   1   2
BRANCH   1   7
ATOM      7  C   UNL     1      26.112  20.774  25.931  1.00  0.00     0.000 C 
BRANCH   7   8
ATOM      8  C   UNL     1      25.465  19.439  25.520  1.00  0.00    -0.000 C 
BRANCH   8   9
ATOM      9  C   UNL     1      24.284  18.997  26.403  1.00  0.00    -0.003 C 
ATOM     10  C   UNL     1      23.133  20.002  26.408  1.00  0.00     0.004 C 
ENDBRANCH   8   9
ENDBRANCH   7   8
ENDBRANCH   1   7
TORSDOF 6
ENDMDL
MODEL 6
REMARK VINA RESULT:    -3.495     21.525     22.612
REMARK INTER + INTRA:          -4.853
REMARK INTER:                  -4.602
REMARK INTRA:                  -0.252
REMARK UNBOUND:                -0.132
REMARK SMILES CCCCCCCC(=O)[O-]
REMARK SMILES IDX 5 1 6 2 7 3 8 4 9 5 10 6 4 7 3 8 2 9 1 10
REMARK H PARENT
REMARK Flexibility Score: inf
ROOT
ATOM      1  C   UNL     1      28.844  21.082  25.270  1.00  0.00     0.000 C 
ENDROOT
BRANCH   1   2
ATOM      2  C   UNL     1      27.634  20.200  24.928  1.00  0.00     0.006 C 
BRANCH   2   3
ATOM      3  C   UNL     1      26.364  20.625  25.676  1.00  0.00     0.053 C 
BRANCH   3   4
ATOM      4  C   UNL     1      25.286  19.604  25.496  1.00  0.00     0.041 C 
ATOM      5  O   UNL     1      25.000  19.180  24.346  1.00  0.00    -0.550 OA
ATOM      6  O   UNL     1      24.631  19.083  26.604  1.00  0.00    -0.550 OA
ENDBRANCH   3   4
ENDBRANCH   2   3
ENDBRANCH   1   2
BRANCH   1   7
ATOM      7  C   UNL     1      30.047  20.821  24.347  1.00  0.00     0.000 C 
BRANCH   7   8
ATOM      8  C   UNL     1      29.632  20.323  22.951  1.00  0.00    -0.000 C 
BRANCH   8   9
ATOM      9  C   UNL     1      30.714  19.522  22.205  1.00  0.00    -0.003 C 
ATOM     10  C   UNL     1      31.732  18.875  23.144  1.00  0.00     0.004 C 
ENDBRANCH   8   9
ENDBRANCH   7   8
ENDBRANCH   1   7
TORSDOF 6
ENDMDL
MODEL 7
REMARK VINA RESULT:    -3.464     20.035     21.134
REMARK INTER + INTRA:          -4.811
REMARK INTER:                  -4.642
REMARK INTRA:                  -0.170
REMARK UNBOUND:                -0.132
REMARK SMILES CCCCCCCC(=O)[O-]
REMARK SMILES IDX 5 1 6 2 7 3 8 4 9 5 10 6 4 7 3 8 2 9 1 10
REMARK H PARENT
REMARK Flexibility Score: inf
ROOT
ATOM      1  C   UNL     1      25.169  20.649  26.051  1.00  0.00     0.000 C 
ENDROOT
BRANCH   1   2
ATOM      2  C   UNL     1      26.283  20.232  25.078  1.00  0.00     0.006 C 
BRANCH   2   3
ATOM      3  C   UNL     1      27.667  20.725  25.522  1.00  0.00     0.053 C 
BRANCH   3   4
ATOM      4  C   UNL     1      28.660  20.553  24.417  1.00  0.00     0.041 C 
ATOM      5  O   UNL     1      28.290  20.123  23.294  1.00  0.00    -0.550 OA
ATOM      6  O   UNL     1      29.987  20.915  24.613  1.00  0.00    -0.550 OA
ENDBRANCH   3   4
ENDBRANCH   2   3
ENDBRANCH   1   2
BRANCH   1   7
ATOM      7  C   UNL     1      25.211  22.149  26.390  1.00  0.00     0.000 C 
BRANCH   7   8
ATOM      8  C   UNL     1      23.810  22.755  26.593  1.00  0.00    -0.000 C 
BRANCH   8   9
ATOM      9  C   UNL     1      23.801  24.151  27.241  1.00  0.00    -0.003 C 
ATOM     10  C   UNL     1      24.944  25.042  26.756  1.00  0.00     0.004 C 
ENDBRANCH   8   9
ENDBRANCH   7   8
ENDBRANCH   1   7
TORSDOF 6
ENDMDL
MODEL 8
REMARK VINA RESULT:    -3.403      4.334      5.925
REMARK INTER + INTRA:          -4.729
REMARK INTER:                  -4.458
REMARK INTRA:                  -0.271
REMARK UNBOUND:                -0.132
REMARK SMILES CCCCCCCC(=O)[O-]
REMARK SMILES IDX 5 1 6 2 7 3 8 4 9 5 10 6 4 7 3 8 2 9 1 10
REMARK H PARENT
REMARK Flexibility Score: inf
ROOT
ATOM      1  C   UNL     1      15.168  32.623  11.746  1.00  0.00     0.000 C 
ENDROOT
BRANCH   1   2
ATOM      2  C   UNL     1      14.133  31.489  11.697  1.00  0.00     0.006 C 
BRANCH   2   3
ATOM      3  C   UNL     1      14.764  30.106  11.907  1.00  0.00     0.053 C 
BRANCH   3   4
ATOM      4  C   UNL     1      13.737  29.133  12.394  1.00  0.00     0.041 C 
ATOM      5  O   UNL     1      13.435  29.089  13.615  1.00  0.00    -0.550 OA
ATOM      6  O   UNL     1      13.078  28.308  11.491  1.00  0.00    -0.550 OA
ENDBRANCH   3   4
ENDBRANCH   2   3
ENDBRANCH   1   2
BRANCH   1   7
ATOM      7  C   UNL     1      15.294  33.368  10.405  1.00  0.00     0.000 C 
BRANCH   7   8
ATOM      8  C   UNL     1      13.945  33.906   9.892  1.00  0.00    -0.000 C 
BRANCH   8   9
ATOM      9  C   UNL     1      13.642  35.362  10.289  1.00  0.00    -0.003 C 
ATOM     10  C   UNL     1      12.908  35.477  11.624  1.00  0.00     0.004 C 
ENDBRANCH   8   9
ENDBRANCH   7   8
ENDBRANCH   1   7
TORSDOF 6
ENDMDL
MODEL 9
REMARK VINA RESULT:    -3.371     19.983     21.137
REMARK INTER + INTRA:          -4.686
REMARK INTER:                  -4.518
REMARK INTRA:                  -0.168
REMARK UNBOUND:                -0.132
REMARK SMILES CCCCCCCC(=O)[O-]
REMARK SMILES IDX 5 1 6 2 7 3 8 4 9 5 10 6 4 7 3 8 2 9 1 10
REMARK H PARENT
REMARK Flexibility Score: inf
ROOT
ATOM      1  C   UNL     1      23.520  19.909  25.790  1.00  0.00     0.000 C 
ENDROOT
BRANCH   1   2
ATOM      2  C   UNL     1      24.874  19.316  26.208  1.00  0.00     0.006 C 
BRANCH   2   3
ATOM      3  C   UNL     1      26.049  20.250  25.890  1.00  0.00     0.053 C 
BRANCH   3   4
ATOM      4  C   UNL     1      26.767  19.786  24.663  1.00  0.00     0.041 C 
ATOM      5  O   UNL     1      26.246  19.941  23.527  1.00  0.00    -0.550 OA
ATOM      6  O   UNL     1      28.034  19.226  24.768  1.00  0.00    -0.550 OA
ENDBRANCH   3   4
ENDBRANCH   2   3
ENDBRANCH   1   2
BRANCH   1   7
ATOM      7  C   UNL     1      22.799  20.613  26.952  1.00  0.00     0.000 C 
BRANCH   7   8
ATOM      8  C   UNL     1      22.695  22.137  26.754  1.00  0.00    -0.000 C 
BRANCH   8   9
ATOM      9  C   UNL     1      24.047  22.866  26.652  1.00  0.00    -0.003 C 
ATOM     10  C   UNL     1      23.973  24.325  27.098  1.00  0.00     0.004 C 
ENDBRANCH   8   9
ENDBRANCH   7   8
ENDBRANCH   1   7
TORSDOF 6
ENDMDL
