MODEL 1
REMARK VINA RESULT:    -6.174      0.000      0.000
REMARK INTER + INTRA:          -7.481
REMARK INTER:                  -7.257
REMARK INTRA:                  -0.224
REMARK UNBOUND:                -0.224
REMARK SMILES O=c1c(O)c(-c2ccc(O)c(O)c2)oc2cc(O)ccc12
REMARK SMILES IDX 5 1 3 2 2 3 1 4 21 5 15 6 14 7 16 8 17 9 19 10 20 11 6 12
REMARK SMILES IDX 7 13 8 14 9 15 13 16 11 17 10 18 12 20 4 22 18 24
REMARK H PARENT 10 19 12 21 4 23 18 25
REMARK Flexibility Score: inf
ROOT
ATOM      1  C   UNL     1      -9.596 -14.279  -2.591  1.00  0.00     0.180 A 
ATOM      2  C   UNL     1     -10.904 -13.760  -2.511  1.00  0.00     0.208 A 
ATOM      3  C   UNL     1     -11.757 -14.226  -1.498  1.00  0.00     0.235 A 
ATOM      4  O   UNL     1     -12.936 -13.785  -1.412  1.00  0.00    -0.285 OA
ATOM      5  C   UNL     1     -11.282 -15.177  -0.581  1.00  0.00     0.069 A 
ATOM      6  C   UNL     1      -9.952 -15.630  -0.714  1.00  0.00     0.142 A 
ATOM      7  O   UNL     1      -9.181 -15.170  -1.693  1.00  0.00    -0.452 OA
ATOM      8  C   UNL     1      -9.439 -16.570   0.187  1.00  0.00     0.094 A 
ATOM      9  C   UNL     1     -10.243 -17.068   1.221  1.00  0.00     0.119 A 
ATOM     10  C   UNL     1     -11.562 -16.622   1.354  1.00  0.00     0.047 A 
ATOM     11  C   UNL     1     -12.083 -15.681   0.460  1.00  0.00     0.020 A 
ENDROOT
BRANCH   1  12
ATOM     12  C   UNL     1      -8.643 -13.853  -3.642  1.00  0.00     0.025 A 
ATOM     13  C   UNL     1      -8.261 -14.722  -4.679  1.00  0.00     0.016 A 
ATOM     14  C   UNL     1      -7.342 -14.305  -5.646  1.00  0.00     0.051 A 
ATOM     15  C   UNL     1      -6.781 -13.023  -5.584  1.00  0.00     0.157 A 
ATOM     16  C   UNL     1      -8.062 -12.577  -3.571  1.00  0.00     0.062 A 
ATOM     17  C   UNL     1      -7.142 -12.155  -4.539  1.00  0.00     0.158 A 
BRANCH  15  18
ATOM     18  O   UNL     1      -5.867 -12.610  -6.551  1.00  0.00    -0.504 OA
ATOM     19  H   UNL     1      -6.168 -12.308  -7.471  1.00  0.00     0.293 HD
ENDBRANCH  15  18
BRANCH  17  20
ATOM     20  O   UNL     1      -6.597 -10.876  -4.444  1.00  0.00    -0.504 OA
ATOM     21  H   UNL     1      -6.619 -10.343  -3.583  1.00  0.00     0.293 HD
ENDBRANCH  17  20
ENDBRANCH   1  12
BRANCH   2  22
ATOM     22  O   UNL     1     -11.332 -12.778  -3.408  1.00  0.00    -0.502 OA
ATOM     23  H   UNL     1     -12.101 -12.928  -4.050  1.00  0.00     0.293 HD
ENDBRANCH   2  22
BRANCH   9  24
ATOM     24  O   UNL     1      -9.741 -18.004   2.121  1.00  0.00    -0.508 OA
ATOM     25  H   UNL     1     -10.327 -18.417   2.838  1.00  0.00     0.293 HD
ENDBRANCH   9  24
TORSDOF 5
ENDMDL
MODEL 2
REMARK VINA RESULT:    -5.926     10.287     12.150
REMARK INTER + INTRA:          -7.190
REMARK INTER:                  -6.927
REMARK INTRA:                  -0.263
REMARK UNBOUND:                -0.224
REMARK SMILES O=c1c(O)c(-c2ccc(O)c(O)c2)oc2cc(O)ccc12
REMARK SMILES IDX 5 1 3 2 2 3 1 4 21 5 15 6 14 7 16 8 17 9 19 10 20 11 6 12
REMARK SMILES IDX 7 13 8 14 9 15 13 16 11 17 10 18 12 20 4 22 18 24
REMARK H PARENT 10 19 12 21 4 23 18 25
REMARK Flexibility Score: inf
ROOT
ATOM      1  C   UNL     1     -14.099 -14.432 -13.073  1.00  0.00     0.180 A 
ATOM      2  C   UNL     1     -13.891 -13.140 -13.597  1.00  0.00     0.208 A 
ATOM      3  C   UNL     1     -13.914 -12.042 -12.723  1.00  0.00     0.235 A 
ATOM      4  O   UNL     1     -13.741 -10.875 -13.170  1.00  0.00    -0.285 OA
ATOM      5  C   UNL     1     -14.123 -12.258 -11.352  1.00  0.00     0.069 A 
ATOM      6  C   UNL     1     -14.300 -13.583 -10.901  1.00  0.00     0.142 A 
ATOM      7  O   UNL     1     -14.280 -14.594 -11.763  1.00  0.00    -0.452 OA
ATOM      8  C   UNL     1     -14.501 -13.840  -9.540  1.00  0.00     0.094 A 
ATOM      9  C   UNL     1     -14.529 -12.783  -8.620  1.00  0.00     0.119 A 
ATOM     10  C   UNL     1     -14.356 -11.468  -9.064  1.00  0.00     0.047 A 
ATOM     11  C   UNL     1     -14.153 -11.202 -10.422  1.00  0.00     0.020 A 
ENDROOT
BRANCH   1  12
ATOM     12  C   UNL     1     -14.107 -15.639 -13.932  1.00  0.00     0.025 A 
ATOM     13  C   UNL     1     -15.193 -15.927 -14.778  1.00  0.00     0.016 A 
ATOM     14  C   UNL     1     -15.189 -17.083 -15.562  1.00  0.00     0.051 A 
ATOM     15  C   UNL     1     -14.110 -17.975 -15.503  1.00  0.00     0.157 A 
ATOM     16  C   UNL     1     -13.038 -16.546 -13.860  1.00  0.00     0.062 A 
ATOM     17  C   UNL     1     -13.030 -17.705 -14.645  1.00  0.00     0.158 A 
BRANCH  15  18
ATOM     18  O   UNL     1     -14.108 -19.126 -16.288  1.00  0.00    -0.504 OA
ATOM     19  H   UNL     1     -14.423 -20.018 -15.923  1.00  0.00     0.293 HD
ENDBRANCH  15  18
BRANCH  17  20
ATOM     20  O   UNL     1     -11.944 -18.575 -14.558  1.00  0.00    -0.504 OA
ATOM     21  H   UNL     1     -11.352 -18.616 -13.737  1.00  0.00     0.293 HD
ENDBRANCH  17  20
ENDBRANCH   1  12
BRANCH   2  22
ATOM     22  O   UNL     1     -13.636 -12.962 -14.959  1.00  0.00    -0.502 OA
ATOM     23  H   UNL     1     -13.731 -13.714 -15.631  1.00  0.00     0.293 HD
ENDBRANCH   2  22
BRANCH   9  24
ATOM     24  O   UNL     1     -14.730 -13.029  -7.264  1.00  0.00    -0.508 OA
ATOM     25  H   UNL     1     -15.652 -12.975  -6.847  1.00  0.00     0.293 HD
ENDBRANCH   9  24
TORSDOF 5
ENDMDL
MODEL 3
REMARK VINA RESULT:    -5.879     10.203     12.898
REMARK INTER + INTRA:          -7.134
REMARK INTER:                  -7.497
REMARK INTRA:                   0.364
REMARK UNBOUND:                -0.224
REMARK SMILES O=c1c(O)c(-c2ccc(O)c(O)c2)oc2cc(O)ccc12
REMARK SMILES IDX 5 1 3 2 2 3 1 4 21 5 15 6 14 7 16 8 17 9 19 10 20 11 6 12
REMARK SMILES IDX 7 13 8 14 9 15 13 16 11 17 10 18 12 20 4 22 18 24
REMARK H PARENT 10 19 12 21 4 23 18 25
REMARK Flexibility Score: inf
ROOT
ATOM      1  C   UNL     1     -14.134 -13.386 -12.412  1.00  0.00     0.180 A 
ATOM      2  C   UNL     1     -13.871 -12.310 -13.283  1.00  0.00     0.208 A 
ATOM      3  C   UNL     1     -13.784 -12.561 -14.662  1.00  0.00     0.235 A 
ATOM      4  O   UNL     1     -13.539 -11.616 -15.461  1.00  0.00    -0.285 OA
ATOM      5  C   UNL     1     -13.981 -13.866 -15.138  1.00  0.00     0.069 A 
ATOM      6  C   UNL     1     -14.264 -14.885 -14.204  1.00  0.00     0.142 A 
ATOM      7  O   UNL     1     -14.328 -14.607 -12.906  1.00  0.00    -0.452 OA
ATOM      8  C   UNL     1     -14.476 -16.197 -14.641  1.00  0.00     0.094 A 
ATOM      9  C   UNL     1     -14.406 -16.506 -16.006  1.00  0.00     0.119 A 
ATOM     10  C   UNL     1     -14.124 -15.499 -16.935  1.00  0.00     0.047 A 
ATOM     11  C   UNL     1     -13.913 -14.184 -16.508  1.00  0.00     0.020 A 
ENDROOT
BRANCH   1  12
ATOM     12  C   UNL     1     -14.222 -13.207 -10.944  1.00  0.00     0.025 A 
ATOM     13  C   UNL     1     -13.671 -12.079 -10.310  1.00  0.00     0.016 A 
ATOM     14  C   UNL     1     -13.746 -11.943  -8.922  1.00  0.00     0.051 A 
ATOM     15  C   UNL     1     -14.358 -12.936  -8.145  1.00  0.00     0.157 A 
ATOM     16  C   UNL     1     -14.814 -14.209 -10.159  1.00  0.00     0.062 A 
ATOM     17  C   UNL     1     -14.892 -14.076  -8.768  1.00  0.00     0.158 A 
BRANCH  15  18
ATOM     18  O   UNL     1     -14.432 -12.796  -6.760  1.00  0.00    -0.504 OA
ATOM     19  H   UNL     1     -15.232 -12.362  -6.313  1.00  0.00     0.293 HD
ENDBRANCH  15  18
BRANCH  17  20
ATOM     20  O   UNL     1     -15.501 -15.085  -8.024  1.00  0.00    -0.504 OA
ATOM     21  H   UNL     1     -15.193 -16.050  -8.070  1.00  0.00     0.293 HD
ENDBRANCH  17  20
ENDBRANCH   1  12
BRANCH   2  22
ATOM     22  O   UNL     1     -13.729 -11.013 -12.784  1.00  0.00    -0.502 OA
ATOM     23  H   UNL     1     -13.141 -10.321 -13.233  1.00  0.00     0.293 HD
ENDBRANCH   2  22
BRANCH   9  24
ATOM     24  O   UNL     1     -14.615 -17.809 -16.450  1.00  0.00    -0.508 OA
ATOM     25  H   UNL     1     -14.681 -18.585 -15.802  1.00  0.00     0.293 HD
ENDBRANCH   9  24
TORSDOF 5
ENDMDL
MODEL 4
REMARK VINA RESULT:    -5.605     10.094     11.704
REMARK INTER + INTRA:          -6.812
REMARK INTER:                  -6.790
REMARK INTRA:                  -0.022
REMARK UNBOUND:                -0.224
REMARK SMILES O=c1c(O)c(-c2ccc(O)c(O)c2)oc2cc(O)ccc12
REMARK SMILES IDX 5 1 3 2 2 3 1 4 21 5 15 6 14 7 16 8 17 9 19 10 20 11 6 12
REMARK SMILES IDX 7 13 8 14 9 15 13 16 11 17 10 18 12 20 4 22 18 24
REMARK H PARENT 10 19 12 21 4 23 18 25
REMARK Flexibility Score: inf
ROOT
ATOM      1  C   UNL     1     -13.965 -13.922 -12.940  1.00  0.00     0.180 A 
ATOM      2  C   UNL     1     -13.848 -12.546 -12.654  1.00  0.00     0.208 A 
ATOM      3  C   UNL     1     -14.095 -12.103 -11.346  1.00  0.00     0.235 A 
ATOM      4  O   UNL     1     -14.007 -10.875 -11.068  1.00  0.00    -0.285 OA
ATOM      5  C   UNL     1     -14.430 -13.037 -10.353  1.00  0.00     0.069 A 
ATOM      6  C   UNL     1     -14.503 -14.400 -10.713  1.00  0.00     0.142 A 
ATOM      7  O   UNL     1     -14.271 -14.777 -11.966  1.00  0.00    -0.452 OA
ATOM      8  C   UNL     1     -14.824 -15.363  -9.750  1.00  0.00     0.094 A 
ATOM      9  C   UNL     1     -15.076 -14.979  -8.426  1.00  0.00     0.119 A 
ATOM     10  C   UNL     1     -15.006 -13.629  -8.066  1.00  0.00     0.047 A 
ATOM     11  C   UNL     1     -14.684 -12.660  -9.022  1.00  0.00     0.020 A 
ENDROOT
BRANCH   1  12
ATOM     12  C   UNL     1     -13.739 -14.465 -14.299  1.00  0.00     0.025 A 
ATOM     13  C   UNL     1     -14.380 -13.914 -15.423  1.00  0.00     0.016 A 
ATOM     14  C   UNL     1     -14.170 -14.459 -16.692  1.00  0.00     0.051 A 
ATOM     15  C   UNL     1     -13.330 -15.569 -16.857  1.00  0.00     0.157 A 
ATOM     16  C   UNL     1     -12.916 -15.590 -14.466  1.00  0.00     0.062 A 
ATOM     17  C   UNL     1     -12.702 -16.138 -15.736  1.00  0.00     0.158 A 
BRANCH  15  18
ATOM     18  O   UNL     1     -13.120 -16.108 -18.125  1.00  0.00    -0.504 OA
ATOM     19  H   UNL     1     -13.872 -16.178 -18.802  1.00  0.00     0.293 HD
ENDBRANCH  15  18
BRANCH  17  20
ATOM     20  O   UNL     1     -11.866 -17.246 -15.864  1.00  0.00    -0.504 OA
ATOM     21  H   UNL     1     -12.101 -18.147 -15.465  1.00  0.00     0.293 HD
ENDBRANCH  17  20
ENDBRANCH   1  12
BRANCH   2  22
ATOM     22  O   UNL     1     -13.465 -11.646 -13.652  1.00  0.00    -0.502 OA
ATOM     23  H   UNL     1     -12.564 -11.182 -13.647  1.00  0.00     0.293 HD
ENDBRANCH   2  22
BRANCH   9  24
ATOM     24  O   UNL     1     -15.397 -15.930  -7.461  1.00  0.00    -0.508 OA
ATOM     25  H   UNL     1     -15.653 -16.878  -7.716  1.00  0.00     0.293 HD
ENDBRANCH   9  24
TORSDOF 5
ENDMDL
MODEL 5
REMARK VINA RESULT:    -5.564     11.360     14.249
REMARK INTER + INTRA:          -6.764
REMARK INTER:                  -6.454
REMARK INTRA:                  -0.310
REMARK UNBOUND:                -0.224
REMARK SMILES O=c1c(O)c(-c2ccc(O)c(O)c2)oc2cc(O)ccc12
REMARK SMILES IDX 5 1 3 2 2 3 1 4 21 5 15 6 14 7 16 8 17 9 19 10 20 11 6 12
REMARK SMILES IDX 7 13 8 14 9 15 13 16 11 17 10 18 12 20 4 22 18 24
REMARK H PARENT 10 19 12 21 4 23 18 25
REMARK Flexibility Score: inf
ROOT
ATOM      1  C   UNL     1     -12.833 -16.904 -14.240  1.00  0.00     0.180 A 
ATOM      2  C   UNL     1     -12.252 -16.965 -15.523  1.00  0.00     0.208 A 
ATOM      3  C   UNL     1     -12.354 -15.847 -16.366  1.00  0.00     0.235 A 
ATOM      4  O   UNL     1     -11.851 -15.881 -17.523  1.00  0.00    -0.285 OA
ATOM      5  C   UNL     1     -13.011 -14.695 -15.907  1.00  0.00     0.069 A 
ATOM      6  C   UNL     1     -13.545 -14.705 -14.601  1.00  0.00     0.142 A 
ATOM      7  O   UNL     1     -13.435 -15.787 -13.838  1.00  0.00    -0.452 OA
ATOM      8  C   UNL     1     -14.199 -13.572 -14.103  1.00  0.00     0.094 A 
ATOM      9  C   UNL     1     -14.326 -12.425 -14.898  1.00  0.00     0.119 A 
ATOM     10  C   UNL     1     -13.799 -12.413 -16.193  1.00  0.00     0.047 A 
ATOM     11  C   UNL     1     -13.143 -13.540 -16.699  1.00  0.00     0.020 A 
ENDROOT
BRANCH   1  12
ATOM     12  C   UNL     1     -12.785 -18.048 -13.299  1.00  0.00     0.025 A 
ATOM     13  C   UNL     1     -11.766 -18.161 -12.337  1.00  0.00     0.016 A 
ATOM     14  C   UNL     1     -11.728 -19.260 -11.476  1.00  0.00     0.051 A 
ATOM     15  C   UNL     1     -12.697 -20.268 -11.571  1.00  0.00     0.157 A 
ATOM     16  C   UNL     1     -13.740 -19.071 -13.406  1.00  0.00     0.062 A 
ATOM     17  C   UNL     1     -13.707 -20.173 -12.544  1.00  0.00     0.158 A 
BRANCH  15  18
ATOM     18  O   UNL     1     -12.658 -21.362 -10.709  1.00  0.00    -0.504 OA
ATOM     19  H   UNL     1     -13.500 -21.733 -10.283  1.00  0.00     0.293 HD
ENDBRANCH  15  18
BRANCH  17  20
ATOM     20  O   UNL     1     -14.681 -21.162 -12.670  1.00  0.00    -0.504 OA
ATOM     21  H   UNL     1     -15.477 -21.058 -13.288  1.00  0.00     0.293 HD
ENDBRANCH  17  20
ENDBRANCH   1  12
BRANCH   2  22
ATOM     22  O   UNL     1     -11.562 -18.108 -15.934  1.00  0.00    -0.502 OA
ATOM     23  H   UNL     1     -11.867 -19.042 -15.690  1.00  0.00     0.293 HD
ENDBRANCH   2  22
BRANCH   9  24
ATOM     24  O   UNL     1     -14.976 -11.293 -14.411  1.00  0.00    -0.508 OA
ATOM     25  H   UNL     1     -15.516 -11.320 -13.553  1.00  0.00     0.293 HD
ENDBRANCH   9  24
TORSDOF 5
ENDMDL
MODEL 6
REMARK VINA RESULT:    -5.524      2.965      8.023
REMARK INTER + INTRA:          -6.717
REMARK INTER:                  -6.434
REMARK INTRA:                  -0.283
REMARK UNBOUND:                -0.224
REMARK SMILES O=c1c(O)c(-c2ccc(O)c(O)c2)oc2cc(O)ccc12
REMARK SMILES IDX 5 1 3 2 2 3 1 4 21 5 15 6 14 7 16 8 17 9 19 10 20 11 6 12
REMARK SMILES IDX 7 13 8 14 9 15 13 16 11 17 10 18 12 20 4 22 18 24
REMARK H PARENT 10 19 12 21 4 23 18 25
REMARK Flexibility Score: inf
ROOT
ATOM      1  C   UNL     1      -6.403 -12.238  -4.801  1.00  0.00     0.180 A 
ATOM      2  C   UNL     1      -6.481 -12.085  -6.200  1.00  0.00     0.208 A 
ATOM      3  C   UNL     1      -5.334 -11.685  -6.903  1.00  0.00     0.235 A 
ATOM      4  O   UNL     1      -5.382 -11.531  -8.155  1.00  0.00    -0.285 OA
ATOM      5  C   UNL     1      -4.137 -11.468  -6.203  1.00  0.00     0.069 A 
ATOM      6  C   UNL     1      -4.134 -11.665  -4.806  1.00  0.00     0.142 A 
ATOM      7  O   UNL     1      -5.244 -12.035  -4.176  1.00  0.00    -0.452 OA
ATOM      8  C   UNL     1      -2.958 -11.469  -4.073  1.00  0.00     0.094 A 
ATOM      9  C   UNL     1      -1.780 -11.074  -4.723  1.00  0.00     0.119 A 
ATOM     10  C   UNL     1      -1.781 -10.876  -6.107  1.00  0.00     0.047 A 
ATOM     11  C   UNL     1      -2.951 -11.072  -6.848  1.00  0.00     0.020 A 
ENDROOT
BRANCH   1  12
ATOM     12  C   UNL     1      -7.573 -12.638  -3.986  1.00  0.00     0.025 A 
ATOM     13  C   UNL     1      -8.291 -11.697  -3.225  1.00  0.00     0.016 A 
ATOM     14  C   UNL     1      -9.377 -12.102  -2.446  1.00  0.00     0.051 A 
ATOM     15  C   UNL     1      -9.754 -13.451  -2.402  1.00  0.00     0.157 A 
ATOM     16  C   UNL     1      -7.941 -13.991  -3.922  1.00  0.00     0.062 A 
ATOM     17  C   UNL     1      -9.029 -14.400  -3.143  1.00  0.00     0.158 A 
BRANCH  15  18
ATOM     18  O   UNL     1     -10.840 -13.851  -1.625  1.00  0.00    -0.504 OA
ATOM     19  H   UNL     1     -11.063 -13.391  -0.750  1.00  0.00     0.293 HD
ENDBRANCH  15  18
BRANCH  17  20
ATOM     20  O   UNL     1      -9.374 -15.751  -3.115  1.00  0.00    -0.504 OA
ATOM     21  H   UNL     1      -9.395 -16.284  -2.254  1.00  0.00     0.293 HD
ENDBRANCH  17  20
ENDBRANCH   1  12
BRANCH   2  22
ATOM     22  O   UNL     1      -7.674 -12.356  -6.876  1.00  0.00    -0.502 OA
ATOM     23  H   UNL     1      -8.264 -13.144  -6.638  1.00  0.00     0.293 HD
ENDBRANCH   2  22
BRANCH   9  24
ATOM     24  O   UNL     1      -0.605 -10.875  -4.002  1.00  0.00    -0.508 OA
ATOM     25  H   UNL     1      -0.312  -9.949  -3.713  1.00  0.00     0.293 HD
ENDBRANCH   9  24
TORSDOF 5
ENDMDL
MODEL 7
REMARK VINA RESULT:    -5.133      2.094      2.830
REMARK INTER + INTRA:          -6.258
REMARK INTER:                  -6.382
REMARK INTRA:                   0.124
REMARK UNBOUND:                -0.224
REMARK SMILES O=c1c(O)c(-c2ccc(O)c(O)c2)oc2cc(O)ccc12
REMARK SMILES IDX 5 1 3 2 2 3 1 4 21 5 15 6 14 7 16 8 17 9 19 10 20 11 6 12
REMARK SMILES IDX 7 13 8 14 9 15 13 16 11 17 10 18 12 20 4 22 18 24
REMARK H PARENT 10 19 12 21 4 23 18 25
REMARK Flexibility Score: inf
ROOT
ATOM      1  C   UNL     1      -9.867 -13.728  -1.410  1.00  0.00     0.180 A 
ATOM      2  C   UNL     1      -9.744 -13.408  -0.043  1.00  0.00     0.208 A 
ATOM      3  C   UNL     1     -10.472 -14.155   0.896  1.00  0.00     0.235 A 
ATOM      4  O   UNL     1     -10.387 -13.881   2.125  1.00  0.00    -0.285 OA
ATOM      5  C   UNL     1     -11.285 -15.211   0.456  1.00  0.00     0.069 A 
ATOM      6  C   UNL     1     -11.336 -15.484  -0.928  1.00  0.00     0.142 A 
ATOM      7  O   UNL     1     -10.639 -14.746  -1.785  1.00  0.00    -0.452 OA
ATOM      8  C   UNL     1     -12.127 -16.535  -1.406  1.00  0.00     0.094 A 
ATOM      9  C   UNL     1     -12.872 -17.318  -0.514  1.00  0.00     0.119 A 
ATOM     10  C   UNL     1     -12.825 -17.049   0.858  1.00  0.00     0.047 A 
ATOM     11  C   UNL     1     -12.036 -16.002   1.345  1.00  0.00     0.020 A 
ENDROOT
BRANCH   1  12
ATOM     12  C   UNL     1      -9.147 -12.975  -2.463  1.00  0.00     0.025 A 
ATOM     13  C   UNL     1      -8.998 -11.578  -2.392  1.00  0.00     0.016 A 
ATOM     14  C   UNL     1      -8.336 -10.887  -3.409  1.00  0.00     0.051 A 
ATOM     15  C   UNL     1      -7.824 -11.576  -4.517  1.00  0.00     0.157 A 
ATOM     16  C   UNL     1      -8.652 -13.658  -3.585  1.00  0.00     0.062 A 
ATOM     17  C   UNL     1      -7.986 -12.969  -4.605  1.00  0.00     0.158 A 
BRANCH  15  18
ATOM     18  O   UNL     1      -7.161 -10.883  -5.529  1.00  0.00    -0.504 OA
ATOM     19  H   UNL     1      -7.572 -10.069  -5.970  1.00  0.00     0.293 HD
ENDBRANCH  15  18
BRANCH  17  20
ATOM     20  O   UNL     1      -7.496 -13.683  -5.698  1.00  0.00    -0.504 OA
ATOM     21  H   UNL     1      -7.741 -13.444  -6.651  1.00  0.00     0.293 HD
ENDBRANCH  17  20
ENDBRANCH   1  12
BRANCH   2  22
ATOM     22  O   UNL     1      -8.889 -12.383   0.370  1.00  0.00    -0.502 OA
ATOM     23  H   UNL     1      -7.970 -12.566   0.755  1.00  0.00     0.293 HD
ENDBRANCH   2  22
BRANCH   9  24
ATOM     24  O   UNL     1     -13.663 -18.366  -0.980  1.00  0.00    -0.508 OA
ATOM     25  H   UNL     1     -14.094 -18.337  -1.897  1.00  0.00     0.293 HD
ENDBRANCH   9  24
TORSDOF 5
ENDMDL
MODEL 8
REMARK VINA RESULT:    -5.073      4.382      8.587
REMARK INTER + INTRA:          -6.187
REMARK INTER:                  -5.904
REMARK INTRA:                  -0.283
REMARK UNBOUND:                -0.224
REMARK SMILES O=c1c(O)c(-c2ccc(O)c(O)c2)oc2cc(O)ccc12
REMARK SMILES IDX 5 1 3 2 2 3 1 4 21 5 15 6 14 7 16 8 17 9 19 10 20 11 6 12
REMARK SMILES IDX 7 13 8 14 9 15 13 16 11 17 10 18 12 20 4 22 18 24
REMARK H PARENT 10 19 12 21 4 23 18 25
REMARK Flexibility Score: inf
ROOT
ATOM      1  C   UNL     1      -4.449 -11.797  -4.501  1.00  0.00     0.180 A 
ATOM      2  C   UNL     1      -3.935 -11.413  -5.756  1.00  0.00     0.208 A 
ATOM      3  C   UNL     1      -2.550 -11.230  -5.892  1.00  0.00     0.235 A 
ATOM      4  O   UNL     1      -2.067 -10.876  -7.003  1.00  0.00    -0.285 OA
ATOM      5  C   UNL     1      -1.713 -11.452  -4.788  1.00  0.00     0.069 A 
ATOM      6  C   UNL     1      -2.302 -11.858  -3.572  1.00  0.00     0.142 A 
ATOM      7  O   UNL     1      -3.619 -12.011  -3.482  1.00  0.00    -0.452 OA
ATOM      8  C   UNL     1      -1.500 -12.098  -2.451  1.00  0.00     0.094 A 
ATOM      9  C   UNL     1      -0.111 -11.936  -2.530  1.00  0.00     0.119 A 
ATOM     10  C   UNL     1       0.477 -11.532  -3.733  1.00  0.00     0.047 A 
ATOM     11  C   UNL     1      -0.317 -11.291  -4.860  1.00  0.00     0.020 A 
ENDROOT
BRANCH   1  12
ATOM     12  C   UNL     1      -5.900 -11.993  -4.270  1.00  0.00     0.025 A 
ATOM     13  C   UNL     1      -6.672 -11.024  -3.605  1.00  0.00     0.016 A 
ATOM     14  C   UNL     1      -8.033 -11.240  -3.378  1.00  0.00     0.051 A 
ATOM     15  C   UNL     1      -8.640 -12.431  -3.799  1.00  0.00     0.157 A 
ATOM     16  C   UNL     1      -6.508 -13.193  -4.671  1.00  0.00     0.062 A 
ATOM     17  C   UNL     1      -7.872 -13.413  -4.447  1.00  0.00     0.158 A 
BRANCH  15  18
ATOM     18  O   UNL     1      -9.999 -12.643  -3.574  1.00  0.00    -0.504 OA
ATOM     19  H   UNL     1     -10.526 -13.324  -4.108  1.00  0.00     0.293 HD
ENDBRANCH  15  18
BRANCH  17  20
ATOM     20  O   UNL     1      -8.444 -14.611  -4.872  1.00  0.00    -0.504 OA
ATOM     21  H   UNL     1      -8.141 -15.083  -5.716  1.00  0.00     0.293 HD
ENDBRANCH  17  20
ENDBRANCH   1  12
BRANCH   2  22
ATOM     22  O   UNL     1      -4.788 -11.248  -6.849  1.00  0.00    -0.502 OA
ATOM     23  H   UNL     1      -4.976 -10.340  -7.258  1.00  0.00     0.293 HD
ENDBRANCH   2  22
BRANCH   9  24
ATOM     24  O   UNL     1       0.695 -12.172  -1.419  1.00  0.00    -0.508 OA
ATOM     25  H   UNL     1       0.640 -13.041  -0.900  1.00  0.00     0.293 HD
ENDBRANCH   9  24
TORSDOF 5
ENDMDL
MODEL 9
REMARK VINA RESULT:    -4.729      4.772      9.510
REMARK INTER + INTRA:          -5.782
REMARK INTER:                  -5.659
REMARK INTRA:                  -0.123
REMARK UNBOUND:                -0.224
REMARK SMILES O=c1c(O)c(-c2ccc(O)c(O)c2)oc2cc(O)ccc12
REMARK SMILES IDX 5 1 3 2 2 3 1 4 21 5 15 6 14 7 16 8 17 9 19 10 20 11 6 12
REMARK SMILES IDX 7 13 8 14 9 15 13 16 11 17 10 18 12 20 4 22 18 24
REMARK H PARENT 10 19 12 21 4 23 18 25
REMARK Flexibility Score: inf
ROOT
ATOM      1  C   UNL     1      -3.757 -11.611  -4.227  1.00  0.00     0.180 A 
ATOM      2  C   UNL     1      -3.029 -11.538  -3.022  1.00  0.00     0.208 A 
ATOM      3  C   UNL     1      -1.638 -11.362  -3.081  1.00  0.00     0.235 A 
ATOM      4  O   UNL     1      -0.963 -11.304  -2.016  1.00  0.00    -0.285 OA
ATOM      5  C   UNL     1      -1.010 -11.244  -4.331  1.00  0.00     0.069 A 
ATOM      6  C   UNL     1      -1.812 -11.304  -5.491  1.00  0.00     0.142 A 
ATOM      7  O   UNL     1      -3.125 -11.481  -5.392  1.00  0.00    -0.452 OA
ATOM      8  C   UNL     1      -1.225 -11.180  -6.755  1.00  0.00     0.094 A 
ATOM      9  C   UNL     1       0.160 -10.998  -6.875  1.00  0.00     0.119 A 
ATOM     10  C   UNL     1       0.957 -10.940  -5.727  1.00  0.00     0.047 A 
ATOM     11  C   UNL     1       0.379 -11.061  -4.459  1.00  0.00     0.020 A 
ENDROOT
BRANCH   1  12
ATOM     12  C   UNL     1      -5.224 -11.814  -4.250  1.00  0.00     0.025 A 
ATOM     13  C   UNL     1      -6.101 -10.885  -3.662  1.00  0.00     0.016 A 
ATOM     14  C   UNL     1      -7.479 -11.110  -3.675  1.00  0.00     0.051 A 
ATOM     15  C   UNL     1      -8.002 -12.270  -4.262  1.00  0.00     0.157 A 
ATOM     16  C   UNL     1      -5.751 -12.986  -4.817  1.00  0.00     0.062 A 
ATOM     17  C   UNL     1      -7.132 -13.214  -4.833  1.00  0.00     0.158 A 
BRANCH  15  18
ATOM     18  O   UNL     1      -9.379 -12.490  -4.275  1.00  0.00    -0.504 OA
ATOM     19  H   UNL     1      -9.965 -12.136  -5.022  1.00  0.00     0.293 HD
ENDBRANCH  15  18
BRANCH  17  20
ATOM     20  O   UNL     1      -7.619 -14.381  -5.419  1.00  0.00    -0.504 OA
ATOM     21  H   UNL     1      -8.350 -14.935  -4.987  1.00  0.00     0.293 HD
ENDBRANCH  17  20
ENDBRANCH   1  12
BRANCH   2  22
ATOM     22  O   UNL     1      -3.688 -11.609  -1.792  1.00  0.00    -0.502 OA
ATOM     23  H   UNL     1      -4.637 -11.950  -1.705  1.00  0.00     0.293 HD
ENDBRANCH   2  22
BRANCH   9  24
ATOM     24  O   UNL     1       0.753 -10.875  -8.129  1.00  0.00    -0.508 OA
ATOM     25  H   UNL     1       1.474 -11.516  -8.439  1.00  0.00     0.293 HD
ENDBRANCH   9  24
TORSDOF 5
ENDMDL
