MODEL 1
REMARK VINA RESULT:    -4.082      0.000      0.000
REMARK INTER + INTRA:          -7.478
REMARK INTER:                  -6.230
REMARK INTRA:                  -1.248
REMARK UNBOUND:                -1.248
REMARK SMILES CCCCCCCCCCC(=O)[O-]
REMARK SMILES IDX 7 1 8 2 9 3 10 4 11 5 12 6 13 7 6 8 5 9 4 10 3 11 2 12 1 13
REMARK H PARENT
REMARK Flexibility Score: inf
ROOT
ATOM      1  C   UNL     1     -15.662  44.461  31.036  1.00  0.00     0.000 C 
ENDROOT
BRANCH   1   2
ATOM      2  C   UNL     1     -15.285  43.052  31.526  1.00  0.00     0.000 C 
BRANCH   2   3
ATOM      3  C   UNL     1     -14.620  43.060  32.913  1.00  0.00     0.006 C 
BRANCH   3   4
ATOM      4  C   UNL     1     -15.300  44.041  33.876  1.00  0.00     0.053 C 
BRANCH   4   5
ATOM      5  C   UNL     1     -14.365  45.123  34.321  1.00  0.00     0.041 C 
ATOM      6  O   UNL     1     -13.164  45.119  33.944  1.00  0.00    -0.550 OA
ATOM      7  O   UNL     1     -14.828  46.152  35.130  1.00  0.00    -0.550 OA
ENDBRANCH   4   5
ENDBRANCH   3   4
ENDBRANCH   2   3
ENDBRANCH   1   2
BRANCH   1   8
ATOM      8  C   UNL     1     -17.176  44.741  30.946  1.00  0.00     0.000 C 
BRANCH   8   9
ATOM      9  C   UNL     1     -18.082  43.579  31.389  1.00  0.00    -0.000 C 
BRANCH   9  10
ATOM     10  C   UNL     1     -18.900  43.904  32.647  1.00  0.00    -0.000 C 
BRANCH  10  11
ATOM     11  C   UNL     1     -18.936  42.704  33.604  1.00  0.00    -0.000 C 
BRANCH  11  12
ATOM     12  C   UNL     1     -18.217  41.472  33.033  1.00  0.00    -0.003 C 
ATOM     13  C   UNL     1     -17.296  40.800  34.051  1.00  0.00     0.004 C 
ENDBRANCH  11  12
ENDBRANCH  10  11
ENDBRANCH   9  10
ENDBRANCH   8   9
ENDBRANCH   1   8
TORSDOF 9
ENDMDL
MODEL 2
REMARK VINA RESULT:    -4.009      2.801      4.692
REMARK INTER + INTRA:          -7.367
REMARK INTER:                  -6.173
REMARK INTRA:                  -1.194
REMARK UNBOUND:                -1.248
REMARK SMILES CCCCCCCCCCC(=O)[O-]
REMARK SMILES IDX 7 1 8 2 9 3 10 4 11 5 12 6 13 7 6 8 5 9 4 10 3 11 2 12 1 13
REMARK H PARENT
REMARK Flexibility Score: inf
ROOT
ATOM      1  C   UNL     1     -13.822  43.667  30.151  1.00  0.00     0.000 C 
ENDROOT
BRANCH   1   2
ATOM      2  C   UNL     1     -14.753  44.873  30.372  1.00  0.00     0.000 C 
BRANCH   2   3
ATOM      3  C   UNL     1     -16.130  44.693  29.709  1.00  0.00     0.006 C 
BRANCH   3   4
ATOM      4  C   UNL     1     -17.282  44.939  30.693  1.00  0.00     0.053 C 
BRANCH   4   5
ATOM      5  C   UNL     1     -17.821  43.657  31.249  1.00  0.00     0.041 C 
ATOM      6  O   UNL     1     -18.845  43.664  31.981  1.00  0.00    -0.550 OA
ATOM      7  O   UNL     1     -17.209  42.451  30.934  1.00  0.00    -0.550 OA
ENDBRANCH   4   5
ENDBRANCH   3   4
ENDBRANCH   2   3
ENDBRANCH   1   2
BRANCH   1   8
ATOM      8  C   UNL     1     -12.838  43.380  31.304  1.00  0.00     0.000 C 
BRANCH   8   9
ATOM      9  C   UNL     1     -12.566  44.569  32.241  1.00  0.00    -0.000 C 
BRANCH   9  10
ATOM     10  C   UNL     1     -13.039  44.318  33.680  1.00  0.00    -0.000 C 
BRANCH  10  11
ATOM     11  C   UNL     1     -14.095  45.351  34.098  1.00  0.00    -0.000 C 
BRANCH  11  12
ATOM     12  C   UNL     1     -15.529  44.816  33.968  1.00  0.00    -0.003 C 
ATOM     13  C   UNL     1     -15.598  43.290  34.016  1.00  0.00     0.004 C 
ENDBRANCH  11  12
ENDBRANCH  10  11
ENDBRANCH   9  10
ENDBRANCH   8   9
ENDBRANCH   1   8
TORSDOF 9
ENDMDL
MODEL 3
REMARK VINA RESULT:    -3.954      1.384      3.362
REMARK INTER + INTRA:          -7.283
REMARK INTER:                  -5.941
REMARK INTRA:                  -1.342
REMARK UNBOUND:                -1.248
REMARK SMILES CCCCCCCCCCC(=O)[O-]
REMARK SMILES IDX 7 1 8 2 9 3 10 4 11 5 12 6 13 7 6 8 5 9 4 10 3 11 2 12 1 13
REMARK H PARENT
REMARK Flexibility Score: inf
ROOT
ATOM      1  C   UNL     1     -17.681  43.560  31.391  1.00  0.00     0.000 C 
ENDROOT
BRANCH   1   2
ATOM      2  C   UNL     1     -17.515  43.396  32.912  1.00  0.00     0.000 C 
BRANCH   2   3
ATOM      3  C   UNL     1     -16.648  44.501  33.541  1.00  0.00     0.006 C 
BRANCH   3   4
ATOM      4  C   UNL     1     -15.307  43.961  34.055  1.00  0.00     0.053 C 
BRANCH   4   5
ATOM      5  C   UNL     1     -14.313  45.060  34.278  1.00  0.00     0.041 C 
ATOM      6  O   UNL     1     -14.619  46.058  34.982  1.00  0.00    -0.550 OA
ATOM      7  O   UNL     1     -13.040  44.966  33.733  1.00  0.00    -0.550 OA
ENDBRANCH   4   5
ENDBRANCH   3   4
ENDBRANCH   2   3
ENDBRANCH   1   2
BRANCH   1   8
ATOM      8  C   UNL     1     -17.142  44.883  30.812  1.00  0.00     0.000 C 
BRANCH   8   9
ATOM      9  C   UNL     1     -15.987  44.734  29.807  1.00  0.00    -0.000 C 
BRANCH   9  10
ATOM     10  C   UNL     1     -14.604  44.814  30.470  1.00  0.00    -0.000 C 
BRANCH  10  11
ATOM     11  C   UNL     1     -13.704  43.660  30.002  1.00  0.00    -0.000 C 
BRANCH  11  12
ATOM     12  C   UNL     1     -13.438  42.632  31.112  1.00  0.00    -0.003 C 
ATOM     13  C   UNL     1     -14.541  41.579  31.220  1.00  0.00     0.004 C 
ENDBRANCH  11  12
ENDBRANCH  10  11
ENDBRANCH   9  10
ENDBRANCH   8   9
ENDBRANCH   1   8
TORSDOF 9
ENDMDL
MODEL 4
REMARK VINA RESULT:    -3.939      2.989      4.998
REMARK INTER + INTRA:          -7.260
REMARK INTER:                  -6.090
REMARK INTRA:                  -1.170
REMARK UNBOUND:                -1.248
REMARK SMILES CCCCCCCCCCC(=O)[O-]
REMARK SMILES IDX 7 1 8 2 9 3 10 4 11 5 12 6 13 7 6 8 5 9 4 10 3 11 2 12 1 13
REMARK H PARENT
REMARK Flexibility Score: inf
ROOT
ATOM      1  C   UNL     1     -15.875  43.716  33.742  1.00  0.00     0.000 C 
ENDROOT
BRANCH   1   2
ATOM      2  C   UNL     1     -17.336  44.073  33.416  1.00  0.00     0.000 C 
BRANCH   2   3
ATOM      3  C   UNL     1     -18.254  42.840  33.359  1.00  0.00     0.006 C 
BRANCH   3   4
ATOM      4  C   UNL     1     -17.858  41.876  32.232  1.00  0.00     0.053 C 
BRANCH   4   5
ATOM      5  C   UNL     1     -17.566  40.502  32.752  1.00  0.00     0.041 C 
ATOM      6  O   UNL     1     -17.209  40.339  33.948  1.00  0.00    -0.550 OA
ATOM      7  O   UNL     1     -17.718  39.399  31.922  1.00  0.00    -0.550 OA
ENDBRANCH   4   5
ENDBRANCH   3   4
ENDBRANCH   2   3
ENDBRANCH   1   2
BRANCH   1   8
ATOM      8  C   UNL     1     -14.847  44.826  33.443  1.00  0.00     0.000 C 
BRANCH   8   9
ATOM      9  C   UNL     1     -13.809  44.480  32.361  1.00  0.00    -0.000 C 
BRANCH   9  10
ATOM     10  C   UNL     1     -14.294  44.805  30.941  1.00  0.00    -0.000 C 
BRANCH  10  11
ATOM     11  C   UNL     1     -14.654  43.522  30.177  1.00  0.00    -0.000 C 
BRANCH  11  12
ATOM     12  C   UNL     1     -16.067  43.569  29.575  1.00  0.00    -0.003 C 
ATOM     13  C   UNL     1     -16.781  44.893  29.846  1.00  0.00     0.004 C 
ENDBRANCH  11  12
ENDBRANCH  10  11
ENDBRANCH   9  10
ENDBRANCH   8   9
ENDBRANCH   1   8
TORSDOF 9
ENDMDL
MODEL 5
REMARK VINA RESULT:    -3.902      2.651      4.923
REMARK INTER + INTRA:          -7.203
REMARK INTER:                  -5.936
REMARK INTRA:                  -1.266
REMARK UNBOUND:                -1.248
REMARK SMILES CCCCCCCCCCC(=O)[O-]
REMARK SMILES IDX 7 1 8 2 9 3 10 4 11 5 12 6 13 7 6 8 5 9 4 10 3 11 2 12 1 13
REMARK H PARENT
REMARK Flexibility Score: inf
ROOT
ATOM      1  C   UNL     1     -14.805  45.266  34.260  1.00  0.00     0.000 C 
ENDROOT
BRANCH   1   2
ATOM      2  C   UNL     1     -16.088  44.560  33.788  1.00  0.00     0.000 C 
BRANCH   2   3
ATOM      3  C   UNL     1     -16.032  43.033  33.972  1.00  0.00     0.006 C 
BRANCH   3   4
ATOM      4  C   UNL     1     -17.372  42.361  33.645  1.00  0.00     0.053 C 
BRANCH   4   5
ATOM      5  C   UNL     1     -17.731  42.510  32.199  1.00  0.00     0.041 C 
ATOM      6  O   UNL     1     -17.167  41.797  31.328  1.00  0.00    -0.550 OA
ATOM      7  O   UNL     1     -18.711  43.417  31.816  1.00  0.00    -0.550 OA
ENDBRANCH   4   5
ENDBRANCH   3   4
ENDBRANCH   2   3
ENDBRANCH   1   2
BRANCH   1   8
ATOM      8  C   UNL     1     -13.513  44.434  34.130  1.00  0.00     0.000 C 
BRANCH   8   9
ATOM      9  C   UNL     1     -12.819  44.515  32.759  1.00  0.00    -0.000 C 
BRANCH   9  10
ATOM     10  C   UNL     1     -12.876  43.192  31.981  1.00  0.00    -0.000 C 
BRANCH  10  11
ATOM     11  C   UNL     1     -13.684  43.352  30.685  1.00  0.00    -0.000 C 
BRANCH  11  12
ATOM     12  C   UNL     1     -14.246  44.771  30.511  1.00  0.00    -0.003 C 
ATOM     13  C   UNL     1     -15.716  44.778  30.091  1.00  0.00     0.004 C 
ENDBRANCH  11  12
ENDBRANCH  10  11
ENDBRANCH   9  10
ENDBRANCH   8   9
ENDBRANCH   1   8
TORSDOF 9
ENDMDL
MODEL 6
REMARK VINA RESULT:    -3.866      2.817      4.507
REMARK INTER + INTRA:          -7.148
REMARK INTER:                  -5.847
REMARK INTRA:                  -1.301
REMARK UNBOUND:                -1.248
REMARK SMILES CCCCCCCCCCC(=O)[O-]
REMARK SMILES IDX 7 1 8 2 9 3 10 4 11 5 12 6 13 7 6 8 5 9 4 10 3 11 2 12 1 13
REMARK H PARENT
REMARK Flexibility Score: inf
ROOT
ATOM      1  C   UNL     1     -14.442  43.728  33.980  1.00  0.00     0.000 C 
ENDROOT
BRANCH   1   2
ATOM      2  C   UNL     1     -15.948  43.411  33.936  1.00  0.00     0.000 C 
BRANCH   2   3
ATOM      3  C   UNL     1     -16.781  44.553  33.328  1.00  0.00     0.006 C 
BRANCH   3   4
ATOM      4  C   UNL     1     -18.034  44.036  32.609  1.00  0.00     0.053 C 
BRANCH   4   5
ATOM      5  C   UNL     1     -19.166  43.803  33.562  1.00  0.00     0.041 C 
ATOM      6  O   UNL     1     -19.507  42.630  33.867  1.00  0.00    -0.550 OA
ATOM      7  O   UNL     1     -19.825  44.883  34.135  1.00  0.00    -0.550 OA
ENDBRANCH   4   5
ENDBRANCH   3   4
ENDBRANCH   2   3
ENDBRANCH   1   2
BRANCH   1   8
ATOM      8  C   UNL     1     -14.006  44.952  33.149  1.00  0.00     0.000 C 
BRANCH   8   9
ATOM      9  C   UNL     1     -13.323  44.623  31.811  1.00  0.00    -0.000 C 
BRANCH   9  10
ATOM     10  C   UNL     1     -14.261  44.782  30.605  1.00  0.00    -0.000 C 
BRANCH  10  11
ATOM     11  C   UNL     1     -14.366  43.470  29.815  1.00  0.00    -0.000 C 
BRANCH  11  12
ATOM     12  C   UNL     1     -15.566  42.614  30.246  1.00  0.00    -0.003 C 
ATOM     13  C   UNL     1     -15.152  41.346  30.992  1.00  0.00     0.004 C 
ENDBRANCH  11  12
ENDBRANCH  10  11
ENDBRANCH   9  10
ENDBRANCH   8   9
ENDBRANCH   1   8
TORSDOF 9
ENDMDL
MODEL 7
REMARK VINA RESULT:    -3.821      2.287      3.688
REMARK INTER + INTRA:          -7.079
REMARK INTER:                  -5.978
REMARK INTRA:                  -1.102
REMARK UNBOUND:                -1.248
REMARK SMILES CCCCCCCCCCC(=O)[O-]
REMARK SMILES IDX 7 1 8 2 9 3 10 4 11 5 12 6 13 7 6 8 5 9 4 10 3 11 2 12 1 13
REMARK H PARENT
REMARK Flexibility Score: inf
ROOT
ATOM      1  C   UNL     1     -17.176  44.897  30.868  1.00  0.00     0.000 C 
ENDROOT
BRANCH   1   2
ATOM      2  C   UNL     1     -16.417  44.212  29.717  1.00  0.00     0.000 C 
BRANCH   2   3
ATOM      3  C   UNL     1     -15.062  43.631  30.158  1.00  0.00     0.006 C 
BRANCH   3   4
ATOM      4  C   UNL     1     -14.084  44.723  30.610  1.00  0.00     0.053 C 
BRANCH   4   5
ATOM      5  C   UNL     1     -12.658  44.287  30.465  1.00  0.00     0.041 C 
ATOM      6  O   UNL     1     -12.236  43.278  31.089  1.00  0.00    -0.550 OA
ATOM      7  O   UNL     1     -11.803  44.979  29.617  1.00  0.00    -0.550 OA
ENDBRANCH   4   5
ENDBRANCH   3   4
ENDBRANCH   2   3
ENDBRANCH   1   2
BRANCH   1   8
ATOM      8  C   UNL     1     -18.249  44.028  31.554  1.00  0.00     0.000 C 
BRANCH   8   9
ATOM      9  C   UNL     1     -17.926  43.610  32.999  1.00  0.00    -0.000 C 
BRANCH   9  10
ATOM     10  C   UNL     1     -16.679  44.309  33.558  1.00  0.00    -0.000 C 
BRANCH  10  11
ATOM     11  C   UNL     1     -15.599  43.285  33.937  1.00  0.00    -0.000 C 
BRANCH  11  12
ATOM     12  C   UNL     1     -14.205  43.917  34.067  1.00  0.00    -0.003 C 
ATOM     13  C   UNL     1     -14.260  45.415  34.365  1.00  0.00     0.004 C 
ENDBRANCH  11  12
ENDBRANCH  10  11
ENDBRANCH   9  10
ENDBRANCH   8   9
ENDBRANCH   1   8
TORSDOF 9
ENDMDL
MODEL 8
REMARK VINA RESULT:    -3.786      3.490      5.000
REMARK INTER + INTRA:          -7.026
REMARK INTER:                  -5.851
REMARK INTRA:                  -1.175
REMARK UNBOUND:                -1.248
REMARK SMILES CCCCCCCCCCC(=O)[O-]
REMARK SMILES IDX 7 1 8 2 9 3 10 4 11 5 12 6 13 7 6 8 5 9 4 10 3 11 2 12 1 13
REMARK H PARENT
REMARK Flexibility Score: inf
ROOT
ATOM      1  C   UNL     1     -15.943  43.314  33.905  1.00  0.00     0.000 C 
ENDROOT
BRANCH   1   2
ATOM      2  C   UNL     1     -16.587  41.923  33.761  1.00  0.00     0.000 C 
BRANCH   2   3
ATOM      3  C   UNL     1     -16.230  41.235  32.431  1.00  0.00     0.006 C 
BRANCH   3   4
ATOM      4  C   UNL     1     -17.437  40.523  31.807  1.00  0.00     0.053 C 
BRANCH   4   5
ATOM      5  C   UNL     1     -17.067  39.181  31.254  1.00  0.00     0.041 C 
ATOM      6  O   UNL     1     -17.923  38.259  31.199  1.00  0.00    -0.550 OA
ATOM      7  O   UNL     1     -15.783  38.958  30.773  1.00  0.00    -0.550 OA
ENDBRANCH   4   5
ENDBRANCH   3   4
ENDBRANCH   2   3
ENDBRANCH   1   2
BRANCH   1   8
ATOM      8  C   UNL     1     -16.859  44.500  33.540  1.00  0.00     0.000 C 
BRANCH   8   9
ATOM      9  C   UNL     1     -18.257  44.112  33.029  1.00  0.00    -0.000 C 
BRANCH   9  10
ATOM     10  C   UNL     1     -18.358  44.121  31.497  1.00  0.00    -0.000 C 
BRANCH  10  11
ATOM     11  C   UNL     1     -17.219  44.944  30.877  1.00  0.00    -0.000 C 
BRANCH  11  12
ATOM     12  C   UNL     1     -16.303  44.102  29.977  1.00  0.00    -0.003 C 
ATOM     13  C   UNL     1     -14.822  44.274  30.312  1.00  0.00     0.004 C 
ENDBRANCH  11  12
ENDBRANCH  10  11
ENDBRANCH   9  10
ENDBRANCH   8   9
ENDBRANCH   1   8
TORSDOF 9
ENDMDL
MODEL 9
REMARK VINA RESULT:    -3.736      2.829      4.803
REMARK INTER + INTRA:          -6.950
REMARK INTER:                  -5.831
REMARK INTRA:                  -1.119
REMARK UNBOUND:                -1.248
REMARK SMILES CCCCCCCCCCC(=O)[O-]
REMARK SMILES IDX 7 1 8 2 9 3 10 4 11 5 12 6 13 7 6 8 5 9 4 10 3 11 2 12 1 13
REMARK H PARENT
REMARK Flexibility Score: inf
ROOT
ATOM      1  C   UNL     1     -15.643  44.861  30.321  1.00  0.00     0.000 C 
ENDROOT
BRANCH   1   2
ATOM      2  C   UNL     1     -17.117  44.867  30.763  1.00  0.00     0.000 C 
BRANCH   2   3
ATOM      3  C   UNL     1     -17.612  43.480  31.211  1.00  0.00     0.006 C 
BRANCH   3   4
ATOM      4  C   UNL     1     -17.896  43.427  32.718  1.00  0.00     0.053 C 
BRANCH   4   5
ATOM      5  C   UNL     1     -18.643  42.185  33.100  1.00  0.00     0.041 C 
ATOM      6  O   UNL     1     -19.576  42.241  33.943  1.00  0.00    -0.550 OA
ATOM      7  O   UNL     1     -18.327  40.973  32.501  1.00  0.00    -0.550 OA
ENDBRANCH   4   5
ENDBRANCH   3   4
ENDBRANCH   2   3
ENDBRANCH   1   2
BRANCH   1   8
ATOM      8  C   UNL     1     -15.012  43.463  30.162  1.00  0.00     0.000 C 
BRANCH   8   9
ATOM      9  C   UNL     1     -13.869  43.147  31.143  1.00  0.00    -0.000 C 
BRANCH   9  10
ATOM     10  C   UNL     1     -13.077  44.395  31.559  1.00  0.00    -0.000 C 
BRANCH  10  11
ATOM     11  C   UNL     1     -12.923  44.463  33.086  1.00  0.00    -0.000 C 
BRANCH  11  12
ATOM     12  C   UNL     1     -14.197  44.031  33.827  1.00  0.00    -0.003 C 
ATOM     13  C   UNL     1     -15.047  45.216  34.285  1.00  0.00     0.004 C 
ENDBRANCH  11  12
ENDBRANCH  10  11
ENDBRANCH   9  10
ENDBRANCH   8   9
ENDBRANCH   1   8
TORSDOF 9
ENDMDL
