MODEL 1
REMARK VINA RESULT:    -3.629      0.000      0.000
REMARK INTER + INTRA:          -8.212
REMARK INTER:                  -6.386
REMARK INTRA:                  -1.826
REMARK UNBOUND:                -1.826
REMARK SMILES CCCCCCCCCCCCCCC(=O)[O-]
REMARK SMILES IDX 9 1 10 2 11 3 12 4 13 5 14 6 15 7 16 8 17 9 8 10 7 11 6 12
REMARK SMILES IDX 5 13 4 14 3 15 2 16 1 17
REMARK H PARENT
REMARK Flexibility Score: inf
ROOT
ATOM      1  C   UNL     1      -2.400  -8.398 -40.203  1.00  0.00     0.000 C 
ENDROOT
BRANCH   1   2
ATOM      2  C   UNL     1      -0.985  -8.370 -39.596  1.00  0.00     0.000 C 
BRANCH   2   3
ATOM      3  C   UNL     1      -0.819  -9.377 -38.446  1.00  0.00     0.000 C 
BRANCH   3   4
ATOM      4  C   UNL     1      -0.424  -8.698 -37.121  1.00  0.00     0.000 C 
BRANCH   4   5
ATOM      5  C   UNL     1      -1.160  -9.292 -35.906  1.00  0.00     0.006 C 
BRANCH   5   6
ATOM      6  C   UNL     1      -0.317 -10.268 -35.070  1.00  0.00     0.053 C 
BRANCH   6   7
ATOM      7  C   UNL     1      -0.788 -11.682 -35.216  1.00  0.00     0.041 C 
ATOM      8  O   UNL     1      -0.270 -12.598 -34.525  1.00  0.00    -0.550 OA
ATOM      9  O   UNL     1      -1.822 -11.984 -36.093  1.00  0.00    -0.550 OA
ENDBRANCH   6   7
ENDBRANCH   5   6
ENDBRANCH   4   5
ENDBRANCH   3   4
ENDBRANCH   2   3
ENDBRANCH   1   2
BRANCH   1  10
ATOM     10  C   UNL     1      -2.390  -8.357 -41.742  1.00  0.00     0.000 C 
BRANCH  10  11
ATOM     11  C   UNL     1      -2.818  -9.666 -42.433  1.00  0.00    -0.000 C 
BRANCH  11  12
ATOM     12  C   UNL     1      -2.924 -10.890 -41.503  1.00  0.00    -0.000 C 
BRANCH  12  13
ATOM     13  C   UNL     1      -1.786 -11.917 -41.693  1.00  0.00    -0.000 C 
BRANCH  13  14
ATOM     14  C   UNL     1      -0.532 -11.293 -42.330  1.00  0.00    -0.000 C 
BRANCH  14  15
ATOM     15  C   UNL     1       0.658 -11.235 -41.358  1.00  0.00    -0.000 C 
BRANCH  15  16
ATOM     16  C   UNL     1       1.634 -10.098 -41.691  1.00  0.00    -0.003 C 
ATOM     17  C   UNL     1       1.125  -9.261 -42.861  1.00  0.00     0.004 C 
ENDBRANCH  15  16
ENDBRANCH  14  15
ENDBRANCH  13  14
ENDBRANCH  12  13
ENDBRANCH  11  12
ENDBRANCH  10  11
ENDBRANCH   1  10
TORSDOF 13
ENDMDL
MODEL 2
REMARK VINA RESULT:    -3.563      3.707      5.496
REMARK INTER + INTRA:          -8.098
REMARK INTER:                  -5.889
REMARK INTRA:                  -2.208
REMARK UNBOUND:                -1.826
REMARK SMILES CCCCCCCCCCCCCCC(=O)[O-]
REMARK SMILES IDX 9 1 10 2 11 3 12 4 13 5 14 6 15 7 16 8 17 9 8 10 7 11 6 12
REMARK SMILES IDX 5 13 4 14 3 15 2 16 1 17
REMARK H PARENT
REMARK Flexibility Score: inf
ROOT
ATOM      1  C   UNL     1      -1.526  -8.287 -39.513  1.00  0.00     0.000 C 
ENDROOT
BRANCH   1   2
ATOM      2  C   UNL     1      -2.722  -8.363 -40.478  1.00  0.00     0.000 C 
BRANCH   2   3
ATOM      3  C   UNL     1      -2.288  -8.381 -41.953  1.00  0.00     0.000 C 
BRANCH   3   4
ATOM      4  C   UNL     1      -3.263  -9.171 -42.845  1.00  0.00     0.000 C 
BRANCH   4   5
ATOM      5  C   UNL     1      -4.220 -10.064 -42.035  1.00  0.00     0.006 C 
BRANCH   5   6
ATOM      6  C   UNL     1      -4.366 -11.494 -42.579  1.00  0.00     0.053 C 
BRANCH   6   7
ATOM      7  C   UNL     1      -5.638 -11.674 -43.348  1.00  0.00     0.041 C 
ATOM      8  O   UNL     1      -6.589 -12.337 -42.855  1.00  0.00    -0.550 OA
ATOM      9  O   UNL     1      -5.787 -11.084 -44.596  1.00  0.00    -0.550 OA
ENDBRANCH   6   7
ENDBRANCH   5   6
ENDBRANCH   4   5
ENDBRANCH   3   4
ENDBRANCH   2   3
ENDBRANCH   1   2
BRANCH   1  10
ATOM     10  C   UNL     1      -1.242  -9.624 -38.805  1.00  0.00     0.000 C 
BRANCH  10  11
ATOM     11  C   UNL     1      -2.249 -10.750 -39.109  1.00  0.00    -0.000 C 
BRANCH  11  12
ATOM     12  C   UNL     1      -1.682 -11.931 -39.921  1.00  0.00    -0.000 C 
BRANCH  12  13
ATOM     13  C   UNL     1      -0.294 -11.653 -40.538  1.00  0.00    -0.000 C 
BRANCH  13  14
ATOM     14  C   UNL     1      -0.348 -11.517 -42.070  1.00  0.00    -0.000 C 
BRANCH  14  15
ATOM     15  C   UNL     1       0.716 -10.551 -42.615  1.00  0.00    -0.000 C 
BRANCH  15  16
ATOM     16  C   UNL     1       1.845 -10.289 -41.608  1.00  0.00    -0.003 C 
ATOM     17  C   UNL     1       3.179 -10.814 -42.130  1.00  0.00     0.004 C 
ENDBRANCH  15  16
ENDBRANCH  14  15
ENDBRANCH  13  14
ENDBRANCH  12  13
ENDBRANCH  11  12
ENDBRANCH  10  11
ENDBRANCH   1  10
TORSDOF 13
ENDMDL
MODEL 3
REMARK VINA RESULT:    -3.561      1.533      1.974
REMARK INTER + INTRA:          -8.094
REMARK INTER:                  -7.048
REMARK INTRA:                  -1.046
REMARK UNBOUND:                -1.826
REMARK SMILES CCCCCCCCCCCCCCC(=O)[O-]
REMARK SMILES IDX 9 1 10 2 11 3 12 4 13 5 14 6 15 7 16 8 17 9 8 10 7 11 6 12
REMARK SMILES IDX 5 13 4 14 3 15 2 16 1 17
REMARK H PARENT
REMARK Flexibility Score: inf
ROOT
ATOM      1  C   UNL     1      -1.877  -9.126 -39.390  1.00  0.00     0.000 C 
ENDROOT
BRANCH   1   2
ATOM      2  C   UNL     1      -0.611  -8.488 -38.790  1.00  0.00     0.000 C 
BRANCH   2   3
ATOM      3  C   UNL     1      -0.864  -7.068 -38.257  1.00  0.00     0.000 C 
BRANCH   3   4
ATOM      4  C   UNL     1      -1.099  -7.043 -36.735  1.00  0.00     0.000 C 
BRANCH   4   5
ATOM      5  C   UNL     1      -0.491  -8.262 -36.019  1.00  0.00     0.006 C 
BRANCH   5   6
ATOM      6  C   UNL     1      -1.479  -9.031 -35.126  1.00  0.00     0.053 C 
BRANCH   6   7
ATOM      7  C   UNL     1      -0.904 -10.326 -34.641  1.00  0.00     0.041 C 
ATOM      8  O   UNL     1       0.282 -10.640 -34.924  1.00  0.00    -0.550 OA
ATOM      9  O   UNL     1      -1.670 -11.173 -33.850  1.00  0.00    -0.550 OA
ENDBRANCH   6   7
ENDBRANCH   5   6
ENDBRANCH   4   5
ENDBRANCH   3   4
ENDBRANCH   2   3
ENDBRANCH   1   2
BRANCH   1  10
ATOM     10  C   UNL     1      -2.508  -8.269 -40.502  1.00  0.00     0.000 C 
BRANCH  10  11
ATOM     11  C   UNL     1      -2.390  -8.854 -41.923  1.00  0.00    -0.000 C 
BRANCH  11  12
ATOM     12  C   UNL     1      -0.949  -9.021 -42.441  1.00  0.00    -0.000 C 
BRANCH  12  13
ATOM     13  C   UNL     1      -0.417 -10.468 -42.349  1.00  0.00    -0.000 C 
BRANCH  13  14
ATOM     14  C   UNL     1       0.860 -10.572 -41.497  1.00  0.00    -0.000 C 
BRANCH  14  15
ATOM     15  C   UNL     1       2.140 -10.365 -42.322  1.00  0.00    -0.000 C 
BRANCH  15  16
ATOM     16  C   UNL     1       1.949 -10.723 -43.803  1.00  0.00    -0.003 C 
ATOM     17  C   UNL     1       2.266 -12.193 -44.058  1.00  0.00     0.004 C 
ENDBRANCH  15  16
ENDBRANCH  14  15
ENDBRANCH  13  14
ENDBRANCH  12  13
ENDBRANCH  11  12
ENDBRANCH  10  11
ENDBRANCH   1  10
TORSDOF 13
ENDMDL
MODEL 4
REMARK VINA RESULT:    -3.522      1.638      2.513
REMARK INTER + INTRA:          -8.025
REMARK INTER:                  -6.417
REMARK INTRA:                  -1.608
REMARK UNBOUND:                -1.826
REMARK SMILES CCCCCCCCCCCCCCC(=O)[O-]
REMARK SMILES IDX 9 1 10 2 11 3 12 4 13 5 14 6 15 7 16 8 17 9 8 10 7 11 6 12
REMARK SMILES IDX 5 13 4 14 3 15 2 16 1 17
REMARK H PARENT
REMARK Flexibility Score: inf
ROOT
ATOM      1  C   UNL     1      -2.616  -8.355 -41.970  1.00  0.00     0.000 C 
ENDROOT
BRANCH   1   2
ATOM      2  C   UNL     1      -3.345  -8.508 -40.623  1.00  0.00     0.000 C 
BRANCH   2   3
ATOM      3  C   UNL     1      -2.506  -7.999 -39.439  1.00  0.00     0.000 C 
BRANCH   3   4
ATOM      4  C   UNL     1      -0.996  -8.213 -39.653  1.00  0.00     0.000 C 
BRANCH   4   5
ATOM      5  C   UNL     1      -0.421  -9.327 -38.761  1.00  0.00     0.006 C 
BRANCH   5   6
ATOM      6  C   UNL     1      -1.196  -9.557 -37.453  1.00  0.00     0.053 C 
BRANCH   6   7
ATOM      7  C   UNL     1      -0.424  -9.095 -36.256  1.00  0.00     0.041 C 
ATOM      8  O   UNL     1      -0.140  -7.877 -36.116  1.00  0.00    -0.550 OA
ATOM      9  O   UNL     1      -0.046 -10.006 -35.278  1.00  0.00    -0.550 OA
ENDBRANCH   6   7
ENDBRANCH   5   6
ENDBRANCH   4   5
ENDBRANCH   3   4
ENDBRANCH   2   3
ENDBRANCH   1   2
BRANCH   1  10
ATOM     10  C   UNL     1      -2.870  -9.535 -42.925  1.00  0.00     0.000 C 
BRANCH  10  11
ATOM     11  C   UNL     1      -2.689 -10.931 -42.299  1.00  0.00    -0.000 C 
BRANCH  11  12
ATOM     12  C   UNL     1      -1.346 -11.618 -42.615  1.00  0.00    -0.000 C 
BRANCH  12  13
ATOM     13  C   UNL     1      -0.206 -11.232 -41.647  1.00  0.00    -0.000 C 
BRANCH  13  14
ATOM     14  C   UNL     1       0.701 -10.128 -42.219  1.00  0.00    -0.000 C 
BRANCH  14  15
ATOM     15  C   UNL     1       2.178 -10.321 -41.837  1.00  0.00    -0.000 C 
BRANCH  15  16
ATOM     16  C   UNL     1       2.953 -11.139 -42.880  1.00  0.00    -0.003 C 
ATOM     17  C   UNL     1       2.389 -10.919 -44.280  1.00  0.00     0.004 C 
ENDBRANCH  15  16
ENDBRANCH  14  15
ENDBRANCH  13  14
ENDBRANCH  12  13
ENDBRANCH  11  12
ENDBRANCH  10  11
ENDBRANCH   1  10
TORSDOF 13
ENDMDL
MODEL 5
REMARK VINA RESULT:    -3.419      3.586      5.841
REMARK INTER + INTRA:          -7.843
REMARK INTER:                  -6.340
REMARK INTRA:                  -1.503
REMARK UNBOUND:                -1.826
REMARK SMILES CCCCCCCCCCCCCCC(=O)[O-]
REMARK SMILES IDX 9 1 10 2 11 3 12 4 13 5 14 6 15 7 16 8 17 9 8 10 7 11 6 12
REMARK SMILES IDX 5 13 4 14 3 15 2 16 1 17
REMARK H PARENT
REMARK Flexibility Score: inf
ROOT
ATOM      1  C   UNL     1      -1.632  -8.278 -39.812  1.00  0.00     0.000 C 
ENDROOT
BRANCH   1   2
ATOM      2  C   UNL     1      -1.200  -9.557 -39.071  1.00  0.00     0.000 C 
BRANCH   2   3
ATOM      3  C   UNL     1      -0.472 -10.551 -39.991  1.00  0.00     0.000 C 
BRANCH   3   4
ATOM      4  C   UNL     1       0.459  -9.851 -40.997  1.00  0.00     0.000 C 
BRANCH   4   5
ATOM      5  C   UNL     1       0.300 -10.389 -42.430  1.00  0.00     0.006 C 
BRANCH   5   6
ATOM      6  C   UNL     1       1.618 -10.510 -43.212  1.00  0.00     0.053 C 
BRANCH   6   7
ATOM      7  C   UNL     1       2.113 -11.923 -43.261  1.00  0.00     0.041 C 
ATOM      8  O   UNL     1       2.327 -12.558 -42.195  1.00  0.00    -0.550 OA
ATOM      9  O   UNL     1       2.307 -12.550 -44.486  1.00  0.00    -0.550 OA
ENDBRANCH   6   7
ENDBRANCH   5   6
ENDBRANCH   4   5
ENDBRANCH   3   4
ENDBRANCH   2   3
ENDBRANCH   1   2
BRANCH   1  10
ATOM     10  C   UNL     1      -2.983  -8.434 -40.533  1.00  0.00     0.000 C 
BRANCH  10  11
ATOM     11  C   UNL     1      -2.923  -8.308 -42.067  1.00  0.00    -0.000 C 
BRANCH  11  12
ATOM     12  C   UNL     1      -3.099  -9.631 -42.837  1.00  0.00    -0.000 C 
BRANCH  12  13
ATOM     13  C   UNL     1      -3.589 -10.803 -41.959  1.00  0.00    -0.000 C 
BRANCH  13  14
ATOM     14  C   UNL     1      -5.074 -11.130 -42.192  1.00  0.00    -0.000 C 
BRANCH  14  15
ATOM     15  C   UNL     1      -5.367 -11.549 -43.641  1.00  0.00    -0.000 C 
BRANCH  15  16
ATOM     16  C   UNL     1      -6.626 -10.874 -44.206  1.00  0.00    -0.003 C 
ATOM     17  C   UNL     1      -6.366 -10.302 -45.596  1.00  0.00     0.004 C 
ENDBRANCH  15  16
ENDBRANCH  14  15
ENDBRANCH  13  14
ENDBRANCH  12  13
ENDBRANCH  11  12
ENDBRANCH  10  11
ENDBRANCH   1  10
TORSDOF 13
ENDMDL
MODEL 6
REMARK VINA RESULT:    -3.399      4.428      6.779
REMARK INTER + INTRA:          -7.809
REMARK INTER:                  -6.117
REMARK INTRA:                  -1.692
REMARK UNBOUND:                -1.826
REMARK SMILES CCCCCCCCCCCCCCC(=O)[O-]
REMARK SMILES IDX 9 1 10 2 11 3 12 4 13 5 14 6 15 7 16 8 17 9 8 10 7 11 6 12
REMARK SMILES IDX 5 13 4 14 3 15 2 16 1 17
REMARK H PARENT
REMARK Flexibility Score: inf
ROOT
ATOM      1  C   UNL     1      -4.795  -7.795 -45.934  1.00  0.00     0.000 C 
ENDROOT
BRANCH   1   2
ATOM      2  C   UNL     1      -3.731  -7.915 -44.827  1.00  0.00     0.000 C 
BRANCH   2   3
ATOM      3  C   UNL     1      -4.312  -7.669 -43.425  1.00  0.00     0.000 C 
BRANCH   3   4
ATOM      4  C   UNL     1      -3.431  -8.261 -42.310  1.00  0.00     0.000 C 
BRANCH   4   5
ATOM      5  C   UNL     1      -2.060  -8.736 -42.825  1.00  0.00     0.006 C 
BRANCH   5   6
ATOM      6  C   UNL     1      -1.258  -9.571 -41.814  1.00  0.00     0.053 C 
BRANCH   6   7
ATOM      7  C   UNL     1       0.055 -10.023 -42.377  1.00  0.00     0.041 C 
ATOM      8  O   UNL     1       1.022  -9.221 -42.454  1.00  0.00    -0.550 OA
ATOM      9  O   UNL     1       0.220 -11.340 -42.787  1.00  0.00    -0.550 OA
ENDBRANCH   6   7
ENDBRANCH   5   6
ENDBRANCH   4   5
ENDBRANCH   3   4
ENDBRANCH   2   3
ENDBRANCH   1   2
BRANCH   1  10
ATOM     10  C   UNL     1      -4.398  -8.531 -47.226  1.00  0.00     0.000 C 
BRANCH  10  11
ATOM     11  C   UNL     1      -5.467  -9.491 -47.785  1.00  0.00    -0.000 C 
BRANCH  11  12
ATOM     12  C   UNL     1      -6.810  -9.482 -47.030  1.00  0.00    -0.000 C 
BRANCH  12  13
ATOM     13  C   UNL     1      -7.118 -10.803 -46.292  1.00  0.00    -0.000 C 
BRANCH  13  14
ATOM     14  C   UNL     1      -6.977 -10.671 -44.766  1.00  0.00    -0.000 C 
BRANCH  14  15
ATOM     15  C   UNL     1      -5.569 -11.035 -44.269  1.00  0.00    -0.000 C 
BRANCH  15  16
ATOM     16  C   UNL     1      -5.589 -11.736 -42.903  1.00  0.00    -0.003 C 
ATOM     17  C   UNL     1      -4.176 -11.930 -42.364  1.00  0.00     0.004 C 
ENDBRANCH  15  16
ENDBRANCH  14  15
ENDBRANCH  13  14
ENDBRANCH  12  13
ENDBRANCH  11  12
ENDBRANCH  10  11
ENDBRANCH   1  10
TORSDOF 13
ENDMDL
MODEL 7
REMARK VINA RESULT:    -3.389      3.089      4.766
REMARK INTER + INTRA:          -7.791
REMARK INTER:                  -5.441
REMARK INTRA:                  -2.349
REMARK UNBOUND:                -1.826
REMARK SMILES CCCCCCCCCCCCCCC(=O)[O-]
REMARK SMILES IDX 9 1 10 2 11 3 12 4 13 5 14 6 15 7 16 8 17 9 8 10 7 11 6 12
REMARK SMILES IDX 5 13 4 14 3 15 2 16 1 17
REMARK H PARENT
REMARK Flexibility Score: inf
ROOT
ATOM      1  C   UNL     1      -3.563  -8.563 -41.560  1.00  0.00     0.000 C 
ENDROOT
BRANCH   1   2
ATOM      2  C   UNL     1      -2.030  -8.428 -41.602  1.00  0.00     0.000 C 
BRANCH   2   3
ATOM      3  C   UNL     1      -1.360  -8.924 -40.310  1.00  0.00     0.000 C 
BRANCH   3   4
ATOM      4  C   UNL     1       0.009  -9.577 -40.569  1.00  0.00     0.000 C 
BRANCH   4   5
ATOM      5  C   UNL     1       0.392  -9.584 -42.060  1.00  0.00     0.006 C 
BRANCH   5   6
ATOM      6  C   UNL     1       0.873 -10.946 -42.585  1.00  0.00     0.053 C 
BRANCH   6   7
ATOM      7  C   UNL     1       2.083 -11.435 -41.849  1.00  0.00     0.041 C 
ATOM      8  O   UNL     1       3.092 -10.692 -41.724  1.00  0.00    -0.550 OA
ATOM      9  O   UNL     1       2.085 -12.699 -41.274  1.00  0.00    -0.550 OA
ENDBRANCH   6   7
ENDBRANCH   5   6
ENDBRANCH   4   5
ENDBRANCH   3   4
ENDBRANCH   2   3
ENDBRANCH   1   2
BRANCH   1  10
ATOM     10  C   UNL     1      -4.041  -9.630 -40.558  1.00  0.00     0.000 C 
BRANCH  10  11
ATOM     11  C   UNL     1      -4.551 -10.939 -41.192  1.00  0.00    -0.000 C 
BRANCH  11  12
ATOM     12  C   UNL     1      -3.830 -11.359 -42.488  1.00  0.00    -0.000 C 
BRANCH  12  13
ATOM     13  C   UNL     1      -2.557 -12.200 -42.249  1.00  0.00    -0.000 C 
BRANCH  13  14
ATOM     14  C   UNL     1      -2.603 -12.970 -40.917  1.00  0.00    -0.000 C 
BRANCH  14  15
ATOM     15  C   UNL     1      -1.294 -12.848 -40.120  1.00  0.00    -0.000 C 
BRANCH  15  16
ATOM     16  C   UNL     1      -1.518 -12.947 -38.604  1.00  0.00    -0.003 C 
ATOM     17  C   UNL     1      -2.338 -11.768 -38.091  1.00  0.00     0.004 C 
ENDBRANCH  15  16
ENDBRANCH  14  15
ENDBRANCH  13  14
ENDBRANCH  12  13
ENDBRANCH  11  12
ENDBRANCH  10  11
ENDBRANCH   1  10
TORSDOF 13
ENDMDL
MODEL 8
REMARK VINA RESULT:    -3.344      3.813      5.403
REMARK INTER + INTRA:          -7.711
REMARK INTER:                  -5.683
REMARK INTRA:                  -2.028
REMARK UNBOUND:                -1.826
REMARK SMILES CCCCCCCCCCCCCCC(=O)[O-]
REMARK SMILES IDX 9 1 10 2 11 3 12 4 13 5 14 6 15 7 16 8 17 9 8 10 7 11 6 12
REMARK SMILES IDX 5 13 4 14 3 15 2 16 1 17
REMARK H PARENT
REMARK Flexibility Score: inf
ROOT
ATOM      1  C   UNL     1      -3.759  -8.608 -43.825  1.00  0.00     0.000 C 
ENDROOT
BRANCH   1   2
ATOM      2  C   UNL     1      -3.947  -7.932 -42.455  1.00  0.00     0.000 C 
BRANCH   2   3
ATOM      3  C   UNL     1      -2.877  -8.360 -41.437  1.00  0.00     0.000 C 
BRANCH   3   4
ATOM      4  C   UNL     1      -1.681  -9.066 -42.102  1.00  0.00     0.000 C 
BRANCH   4   5
ATOM      5  C   UNL     1      -0.557  -9.398 -41.104  1.00  0.00     0.006 C 
BRANCH   5   6
ATOM      6  C   UNL     1       0.388 -10.520 -41.564  1.00  0.00     0.053 C 
BRANCH   6   7
ATOM      7  C   UNL     1       1.648  -9.980 -42.168  1.00  0.00     0.041 C 
ATOM      8  O   UNL     1       2.764 -10.241 -41.647  1.00  0.00    -0.550 OA
ATOM      9  O   UNL     1       1.591  -9.213 -43.324  1.00  0.00    -0.550 OA
ENDBRANCH   6   7
ENDBRANCH   5   6
ENDBRANCH   4   5
ENDBRANCH   3   4
ENDBRANCH   2   3
ENDBRANCH   1   2
BRANCH   1  10
ATOM     10  C   UNL     1      -4.996  -8.475 -44.732  1.00  0.00     0.000 C 
BRANCH  10  11
ATOM     11  C   UNL     1      -5.959  -9.678 -44.701  1.00  0.00    -0.000 C 
BRANCH  11  12
ATOM     12  C   UNL     1      -5.412 -10.933 -43.995  1.00  0.00    -0.000 C 
BRANCH  12  13
ATOM     13  C   UNL     1      -5.969 -11.138 -42.569  1.00  0.00    -0.000 C 
BRANCH  13  14
ATOM     14  C   UNL     1      -4.936 -11.769 -41.619  1.00  0.00    -0.000 C 
BRANCH  14  15
ATOM     15  C   UNL     1      -3.624 -12.135 -42.332  1.00  0.00    -0.000 C 
BRANCH  15  16
ATOM     16  C   UNL     1      -2.560 -12.676 -41.366  1.00  0.00    -0.003 C 
ATOM     17  C   UNL     1      -2.808 -12.182 -39.944  1.00  0.00     0.004 C 
ENDBRANCH  15  16
ENDBRANCH  14  15
ENDBRANCH  13  14
ENDBRANCH  12  13
ENDBRANCH  11  12
ENDBRANCH  10  11
ENDBRANCH   1  10
TORSDOF 13
ENDMDL
MODEL 9
REMARK VINA RESULT:    -3.315      3.962      5.782
REMARK INTER + INTRA:          -7.661
REMARK INTER:                  -5.516
REMARK INTRA:                  -2.144
REMARK UNBOUND:                -1.826
REMARK SMILES CCCCCCCCCCCCCCC(=O)[O-]
REMARK SMILES IDX 9 1 10 2 11 3 12 4 13 5 14 6 15 7 16 8 17 9 8 10 7 11 6 12
REMARK SMILES IDX 5 13 4 14 3 15 2 16 1 17
REMARK H PARENT
REMARK Flexibility Score: inf
ROOT
ATOM      1  C   UNL     1      -4.375 -12.130 -41.532  1.00  0.00     0.000 C 
ENDROOT
BRANCH   1   2
ATOM      2  C   UNL     1      -3.091 -12.153 -42.381  1.00  0.00     0.000 C 
BRANCH   2   3
ATOM      3  C   UNL     1      -1.845 -11.754 -41.574  1.00  0.00     0.000 C 
BRANCH   3   4
ATOM      4  C   UNL     1      -0.918 -10.802 -42.353  1.00  0.00     0.000 C 
BRANCH   4   5
ATOM      5  C   UNL     1       0.128 -10.121 -41.452  1.00  0.00     0.006 C 
BRANCH   5   6
ATOM      6  C   UNL     1       1.554 -10.120 -42.026  1.00  0.00     0.053 C 
BRANCH   6   7
ATOM      7  C   UNL     1       2.001 -11.494 -42.420  1.00  0.00     0.041 C 
ATOM      8  O   UNL     1       2.232 -12.364 -41.539  1.00  0.00    -0.550 OA
ATOM      9  O   UNL     1       2.132 -11.825 -43.762  1.00  0.00    -0.550 OA
ENDBRANCH   6   7
ENDBRANCH   5   6
ENDBRANCH   4   5
ENDBRANCH   3   4
ENDBRANCH   2   3
ENDBRANCH   1   2
BRANCH   1  10
ATOM     10  C   UNL     1      -5.593 -11.591 -42.303  1.00  0.00     0.000 C 
BRANCH  10  11
ATOM     11  C   UNL     1      -5.335 -11.270 -43.788  1.00  0.00    -0.000 C 
BRANCH  11  12
ATOM     12  C   UNL     1      -5.458  -9.780 -44.164  1.00  0.00    -0.000 C 
BRANCH  12  13
ATOM     13  C   UNL     1      -4.115  -9.018 -44.140  1.00  0.00    -0.000 C 
BRANCH  13  14
ATOM     14  C   UNL     1      -4.129  -7.833 -43.159  1.00  0.00    -0.000 C 
BRANCH  14  15
ATOM     15  C   UNL     1      -3.185  -8.044 -41.964  1.00  0.00    -0.000 C 
BRANCH  15  16
ATOM     16  C   UNL     1      -3.910  -8.608 -40.734  1.00  0.00    -0.003 C 
ATOM     17  C   UNL     1      -5.381  -8.204 -40.730  1.00  0.00     0.004 C 
ENDBRANCH  15  16
ENDBRANCH  14  15
ENDBRANCH  13  14
ENDBRANCH  12  13
ENDBRANCH  11  12
ENDBRANCH  10  11
ENDBRANCH   1  10
TORSDOF 13
ENDMDL
