MODEL 1
REMARK VINA RESULT:     6.816      0.000      0.000
REMARK INTER + INTRA:          15.880
REMARK INTER:                  14.786
REMARK INTRA:                   1.095
REMARK UNBOUND:                 1.095
REMARK SMILES CCCCCCCCCCCCCCCCCCCCCC(=O)[O-]
REMARK SMILES IDX 12 1 11 2 10 3 9 4 8 5 7 6 6 7 5 8 4 9 3 10 2 11 1 12 13 13
REMARK SMILES IDX 14 14 15 15 16 16 17 17 18 18 19 19 20 20 21 21 22 22 23 23
REMARK SMILES IDX 24 24
REMARK H PARENT
REMARK Flexibility Score: inf
ROOT
ATOM      1  C   UNL     1       6.530  -7.986 -18.639  1.00  0.00     0.000 C 
ENDROOT
BRANCH   1   2
ATOM      2  C   UNL     1       5.114  -7.388 -18.648  1.00  0.00     0.000 C 
BRANCH   2   3
ATOM      3  C   UNL     1       4.617  -7.026 -17.238  1.00  0.00     0.000 C 
BRANCH   3   4
ATOM      4  C   UNL     1       3.994  -5.621 -17.178  1.00  0.00    -0.000 C 
BRANCH   4   5
ATOM      5  C   UNL     1       2.839  -5.529 -16.170  1.00  0.00    -0.000 C 
BRANCH   5   6
ATOM      6  C   UNL     1       1.458  -5.512 -16.846  1.00  0.00    -0.000 C 
BRANCH   6   7
ATOM      7  C   UNL     1       0.435  -6.304 -16.023  1.00  0.00    -0.000 C 
BRANCH   7   8
ATOM      8  C   UNL     1      -0.123  -7.487 -16.828  1.00  0.00    -0.000 C 
BRANCH   8   9
ATOM      9  C   UNL     1      -1.656  -7.571 -16.769  1.00  0.00    -0.000 C 
BRANCH   9  10
ATOM     10  C   UNL     1      -2.281  -6.431 -15.944  1.00  0.00    -0.000 C 
BRANCH  10  11
ATOM     11  C   UNL     1      -3.763  -6.679 -15.624  1.00  0.00    -0.003 C 
ATOM     12  C   UNL     1      -4.238  -5.904 -14.396  1.00  0.00     0.004 C 
ENDBRANCH  10  11
ENDBRANCH   9  10
ENDBRANCH   8   9
ENDBRANCH   7   8
ENDBRANCH   6   7
ENDBRANCH   5   6
ENDBRANCH   4   5
ENDBRANCH   3   4
ENDBRANCH   2   3
ENDBRANCH   1   2
BRANCH   1  13
ATOM     13  C   UNL     1       6.871  -8.609 -19.998  1.00  0.00     0.000 C 
BRANCH  13  14
ATOM     14  C   UNL     1       7.515  -9.991 -19.824  1.00  0.00     0.000 C 
BRANCH  14  15
ATOM     15  C   UNL     1       8.830 -10.129 -20.608  1.00  0.00     0.000 C 
BRANCH  15  16
ATOM     16  C   UNL     1       8.943  -9.114 -21.756  1.00  0.00     0.000 C 
BRANCH  16  17
ATOM     17  C   UNL     1       8.335  -7.746 -21.406  1.00  0.00     0.000 C 
BRANCH  17  18
ATOM     18  C   UNL     1       9.092  -6.555 -22.032  1.00  0.00     0.000 C 
BRANCH  18  19
ATOM     19  C   UNL     1       8.174  -5.662 -22.880  1.00  0.00     0.000 C 
BRANCH  19  20
ATOM     20  C   UNL     1       7.689  -6.405 -24.133  1.00  0.00     0.006 C 
BRANCH  20  21
ATOM     21  C   UNL     1       6.751  -5.543 -24.991  1.00  0.00     0.053 C 
BRANCH  21  22
ATOM     22  C   UNL     1       5.312  -5.839 -24.701  1.00  0.00     0.041 C 
ATOM     23  O   UNL     1       4.972  -6.967 -24.257  1.00  0.00    -0.550 OA
ATOM     24  O   UNL     1       4.340  -4.879 -24.955  1.00  0.00    -0.550 OA
ENDBRANCH  21  22
ENDBRANCH  20  21
ENDBRANCH  19  20
ENDBRANCH  18  19
ENDBRANCH  17  18
ENDBRANCH  16  17
ENDBRANCH  15  16
ENDBRANCH  14  15
ENDBRANCH  13  14
ENDBRANCH   1  13
TORSDOF 20
ENDMDL
MODEL 2
REMARK VINA RESULT:     6.903      0.994      2.065
REMARK INTER + INTRA:          16.069
REMARK INTER:                  16.872
REMARK INTRA:                  -0.804
REMARK UNBOUND:                 1.095
REMARK SMILES CCCCCCCCCCCCCCCCCCCCCC(=O)[O-]
REMARK SMILES IDX 12 1 11 2 10 3 9 4 8 5 7 6 6 7 5 8 4 9 3 10 2 11 1 12 13 13
REMARK SMILES IDX 14 14 15 15 16 16 17 17 18 18 19 19 20 20 21 21 22 22 23 23
REMARK SMILES IDX 24 24
REMARK H PARENT
REMARK Flexibility Score: inf
ROOT
ATOM      1  C   UNL     1       4.771  -6.377 -17.855  1.00  0.00     0.000 C 
ENDROOT
BRANCH   1   2
ATOM      2  C   UNL     1       3.976  -6.542 -16.550  1.00  0.00     0.000 C 
BRANCH   2   3
ATOM      3  C   UNL     1       3.041  -5.353 -16.275  1.00  0.00     0.000 C 
BRANCH   3   4
ATOM      4  C   UNL     1       1.806  -5.353 -17.193  1.00  0.00    -0.000 C 
BRANCH   4   5
ATOM      5  C   UNL     1       1.065  -6.699 -17.186  1.00  0.00    -0.000 C 
BRANCH   5   6
ATOM      6  C   UNL     1      -0.049  -6.759 -16.128  1.00  0.00    -0.000 C 
BRANCH   6   7
ATOM      7  C   UNL     1      -1.139  -7.758 -16.536  1.00  0.00    -0.000 C 
BRANCH   7   8
ATOM      8  C   UNL     1      -2.507  -7.067 -16.644  1.00  0.00    -0.000 C 
BRANCH   8   9
ATOM      9  C   UNL     1      -2.827  -6.196 -15.419  1.00  0.00    -0.000 C 
BRANCH   9  10
ATOM     10  C   UNL     1      -4.253  -6.424 -14.887  1.00  0.00    -0.000 C 
BRANCH  10  11
ATOM     11  C   UNL     1      -5.255  -6.746 -16.006  1.00  0.00    -0.003 C 
ATOM     12  C   UNL     1      -5.363  -5.626 -17.040  1.00  0.00     0.004 C 
ENDBRANCH  10  11
ENDBRANCH   9  10
ENDBRANCH   8   9
ENDBRANCH   7   8
ENDBRANCH   6   7
ENDBRANCH   5   6
ENDBRANCH   4   5
ENDBRANCH   3   4
ENDBRANCH   2   3
ENDBRANCH   1   2
BRANCH   1  13
ATOM     13  C   UNL     1       5.943  -7.365 -17.911  1.00  0.00     0.000 C 
BRANCH  13  14
ATOM     14  C   UNL     1       6.065  -7.995 -19.306  1.00  0.00     0.000 C 
BRANCH  14  15
ATOM     15  C   UNL     1       6.979  -9.230 -19.315  1.00  0.00     0.000 C 
BRANCH  15  16
ATOM     16  C   UNL     1       7.871  -9.297 -20.565  1.00  0.00     0.000 C 
BRANCH  16  17
ATOM     17  C   UNL     1       7.538  -8.205 -21.596  1.00  0.00     0.000 C 
BRANCH  17  18
ATOM     18  C   UNL     1       8.631  -7.123 -21.724  1.00  0.00     0.000 C 
BRANCH  18  19
ATOM     19  C   UNL     1       8.802  -6.637 -23.171  1.00  0.00     0.000 C 
BRANCH  19  20
ATOM     20  C   UNL     1       7.965  -5.375 -23.430  1.00  0.00     0.006 C 
BRANCH  20  21
ATOM     21  C   UNL     1       7.167  -5.468 -24.738  1.00  0.00     0.053 C 
BRANCH  21  22
ATOM     22  C   UNL     1       5.712  -5.717 -24.480  1.00  0.00     0.041 C 
ATOM     23  O   UNL     1       4.835  -5.084 -25.124  1.00  0.00    -0.550 OA
ATOM     24  O   UNL     1       5.326  -6.625 -23.502  1.00  0.00    -0.550 OA
ENDBRANCH  21  22
ENDBRANCH  20  21
ENDBRANCH  19  20
ENDBRANCH  18  19
ENDBRANCH  17  18
ENDBRANCH  16  17
ENDBRANCH  15  16
ENDBRANCH  14  15
ENDBRANCH  13  14
ENDBRANCH   1  13
TORSDOF 20
ENDMDL
MODEL 3
REMARK VINA RESULT:     8.969      9.729     14.850
REMARK INTER + INTRA:          20.551
REMARK INTER:                  21.266
REMARK INTRA:                  -0.715
REMARK UNBOUND:                 1.095
REMARK SMILES CCCCCCCCCCCCCCCCCCCCCC(=O)[O-]
REMARK SMILES IDX 12 1 11 2 10 3 9 4 8 5 7 6 6 7 5 8 4 9 3 10 2 11 1 12 13 13
REMARK SMILES IDX 14 14 15 15 16 16 17 17 18 18 19 19 20 20 21 21 22 22 23 23
REMARK SMILES IDX 24 24
REMARK H PARENT
REMARK Flexibility Score: inf
ROOT
ATOM      1  C   UNL     1      -4.212 -10.300  -7.912  1.00  0.00     0.000 C 
ENDROOT
BRANCH   1   2
ATOM      2  C   UNL     1      -4.746  -8.950  -8.418  1.00  0.00     0.000 C 
BRANCH   2   3
ATOM      3  C   UNL     1      -5.272  -9.028  -9.861  1.00  0.00     0.000 C 
BRANCH   3   4
ATOM      4  C   UNL     1      -6.201  -7.852 -10.210  1.00  0.00    -0.000 C 
BRANCH   4   5
ATOM      5  C   UNL     1      -5.444  -6.661 -10.816  1.00  0.00    -0.000 C 
BRANCH   5   6
ATOM      6  C   UNL     1      -5.711  -6.489 -12.321  1.00  0.00    -0.000 C 
BRANCH   6   7
ATOM      7  C   UNL     1      -4.631  -5.619 -12.973  1.00  0.00    -0.000 C 
BRANCH   7   8
ATOM      8  C   UNL     1      -4.843  -5.522 -14.492  1.00  0.00    -0.000 C 
BRANCH   8   9
ATOM      9  C   UNL     1      -4.403  -6.795 -15.232  1.00  0.00    -0.000 C 
BRANCH   9  10
ATOM     10  C   UNL     1      -4.010  -6.523 -16.695  1.00  0.00    -0.000 C 
BRANCH  10  11
ATOM     11  C   UNL     1      -2.491  -6.579 -16.917  1.00  0.00    -0.003 C 
ATOM     12  C   UNL     1      -1.704  -6.588 -15.607  1.00  0.00     0.004 C 
ENDBRANCH  10  11
ENDBRANCH   9  10
ENDBRANCH   8   9
ENDBRANCH   7   8
ENDBRANCH   6   7
ENDBRANCH   5   6
ENDBRANCH   4   5
ENDBRANCH   3   4
ENDBRANCH   2   3
ENDBRANCH   1   2
BRANCH   1  13
ATOM     13  C   UNL     1      -3.960 -10.258  -6.400  1.00  0.00     0.000 C 
BRANCH  13  14
ATOM     14  C   UNL     1      -2.830  -9.277  -6.058  1.00  0.00     0.000 C 
BRANCH  14  15
ATOM     15  C   UNL     1      -3.355  -7.954  -5.479  1.00  0.00     0.000 C 
BRANCH  15  16
ATOM     16  C   UNL     1      -2.268  -6.869  -5.404  1.00  0.00     0.000 C 
BRANCH  16  17
ATOM     17  C   UNL     1      -0.922  -7.405  -4.890  1.00  0.00     0.000 C 
BRANCH  17  18
ATOM     18  C   UNL     1       0.265  -7.093  -5.825  1.00  0.00     0.000 C 
BRANCH  18  19
ATOM     19  C   UNL     1       1.573  -7.739  -5.343  1.00  0.00     0.000 C 
BRANCH  19  20
ATOM     20  C   UNL     1       2.596  -6.669  -4.933  1.00  0.00     0.006 C 
BRANCH  20  21
ATOM     21  C   UNL     1       3.957  -6.880  -5.611  1.00  0.00     0.053 C 
BRANCH  21  22
ATOM     22  C   UNL     1       4.639  -5.577  -5.896  1.00  0.00     0.041 C 
ATOM     23  O   UNL     1       4.652  -5.109  -7.064  1.00  0.00    -0.550 OA
ATOM     24  O   UNL     1       5.292  -4.897  -4.876  1.00  0.00    -0.550 OA
ENDBRANCH  21  22
ENDBRANCH  20  21
ENDBRANCH  19  20
ENDBRANCH  18  19
ENDBRANCH  17  18
ENDBRANCH  16  17
ENDBRANCH  15  16
ENDBRANCH  14  15
ENDBRANCH  13  14
ENDBRANCH   1  13
TORSDOF 20
ENDMDL
MODEL 4
REMARK VINA RESULT:     9.225      9.080     14.144
REMARK INTER + INTRA:          21.106
REMARK INTER:                  21.941
REMARK INTRA:                  -0.835
REMARK UNBOUND:                 1.095
REMARK SMILES CCCCCCCCCCCCCCCCCCCCCC(=O)[O-]
REMARK SMILES IDX 12 1 11 2 10 3 9 4 8 5 7 6 6 7 5 8 4 9 3 10 2 11 1 12 13 13
REMARK SMILES IDX 14 14 15 15 16 16 17 17 18 18 19 19 20 20 21 21 22 22 23 23
REMARK SMILES IDX 24 24
REMARK H PARENT
REMARK Flexibility Score: inf
ROOT
ATOM      1  C   UNL     1      -4.374  -9.718  -7.774  1.00  0.00     0.000 C 
ENDROOT
BRANCH   1   2
ATOM      2  C   UNL     1      -3.207  -9.548  -6.788  1.00  0.00     0.000 C 
BRANCH   2   3
ATOM      3  C   UNL     1      -3.178  -8.152  -6.144  1.00  0.00     0.000 C 
BRANCH   3   4
ATOM      4  C   UNL     1      -2.109  -8.037  -5.043  1.00  0.00    -0.000 C 
BRANCH   4   5
ATOM      5  C   UNL     1      -0.988  -7.052  -5.409  1.00  0.00    -0.000 C 
BRANCH   5   6
ATOM      6  C   UNL     1       0.386  -7.490  -4.875  1.00  0.00    -0.000 C 
BRANCH   6   7
ATOM      7  C   UNL     1       1.517  -6.924  -5.743  1.00  0.00    -0.000 C 
BRANCH   7   8
ATOM      8  C   UNL     1       2.722  -6.517  -4.882  1.00  0.00    -0.000 C 
BRANCH   8   9
ATOM      9  C   UNL     1       3.217  -5.096  -5.192  1.00  0.00    -0.000 C 
BRANCH   9  10
ATOM     10  C   UNL     1       4.730  -4.932  -4.964  1.00  0.00    -0.000 C 
BRANCH  10  11
ATOM     11  C   UNL     1       5.567  -5.760  -5.951  1.00  0.00    -0.003 C 
ATOM     12  C   UNL     1       5.623  -5.136  -7.345  1.00  0.00     0.004 C 
ENDBRANCH  10  11
ENDBRANCH   9  10
ENDBRANCH   8   9
ENDBRANCH   7   8
ENDBRANCH   6   7
ENDBRANCH   5   6
ENDBRANCH   4   5
ENDBRANCH   3   4
ENDBRANCH   2   3
ENDBRANCH   1   2
BRANCH   1  13
ATOM     13  C   UNL     1      -4.896  -8.356  -8.247  1.00  0.00     0.000 C 
BRANCH  13  14
ATOM     14  C   UNL     1      -5.224  -8.383  -9.746  1.00  0.00     0.000 C 
BRANCH  14  15
ATOM     15  C   UNL     1      -5.990  -7.131 -10.203  1.00  0.00     0.000 C 
BRANCH  15  16
ATOM     16  C   UNL     1      -5.135  -6.202 -11.080  1.00  0.00     0.000 C 
BRANCH  16  17
ATOM     17  C   UNL     1      -5.645  -6.112 -12.528  1.00  0.00     0.000 C 
BRANCH  17  18
ATOM     18  C   UNL     1      -4.650  -5.432 -13.491  1.00  0.00     0.000 C 
BRANCH  18  19
ATOM     19  C   UNL     1      -5.210  -5.309 -14.917  1.00  0.00     0.000 C 
BRANCH  19  20
ATOM     20  C   UNL     1      -4.700  -6.451 -15.808  1.00  0.00     0.006 C 
BRANCH  20  21
ATOM     21  C   UNL     1      -3.496  -7.175 -15.190  1.00  0.00     0.053 C 
BRANCH  21  22
ATOM     22  C   UNL     1      -2.283  -7.074 -16.063  1.00  0.00     0.041 C 
ATOM     23  O   UNL     1      -2.270  -7.619 -17.198  1.00  0.00    -0.550 OA
ATOM     24  O   UNL     1      -1.153  -6.407 -15.607  1.00  0.00    -0.550 OA
ENDBRANCH  21  22
ENDBRANCH  20  21
ENDBRANCH  19  20
ENDBRANCH  18  19
ENDBRANCH  17  18
ENDBRANCH  16  17
ENDBRANCH  15  16
ENDBRANCH  14  15
ENDBRANCH  13  14
ENDBRANCH   1  13
TORSDOF 20
ENDMDL
MODEL 5
REMARK VINA RESULT:     9.259      3.676      9.964
REMARK INTER + INTRA:          21.179
REMARK INTER:                  22.083
REMARK INTRA:                  -0.904
REMARK UNBOUND:                 1.095
REMARK SMILES CCCCCCCCCCCCCCCCCCCCCC(=O)[O-]
REMARK SMILES IDX 12 1 11 2 10 3 9 4 8 5 7 6 6 7 5 8 4 9 3 10 2 11 1 12 13 13
REMARK SMILES IDX 14 14 15 15 16 16 17 17 18 18 19 19 20 20 21 21 22 22 23 23
REMARK SMILES IDX 24 24
REMARK H PARENT
REMARK Flexibility Score: inf
ROOT
ATOM      1  C   UNL     1       5.380  -8.742 -18.722  1.00  0.00     0.000 C 
ENDROOT
BRANCH   1   2
ATOM      2  C   UNL     1       6.705  -9.318 -19.247  1.00  0.00     0.000 C 
BRANCH   2   3
ATOM      3  C   UNL     1       7.072  -8.779 -20.639  1.00  0.00     0.000 C 
BRANCH   3   4
ATOM      4  C   UNL     1       8.583  -8.526 -20.790  1.00  0.00    -0.000 C 
BRANCH   4   5
ATOM      5  C   UNL     1       8.910  -7.050 -21.061  1.00  0.00    -0.000 C 
BRANCH   5   6
ATOM      6  C   UNL     1       9.117  -6.750 -22.554  1.00  0.00    -0.000 C 
BRANCH   6   7
ATOM      7  C   UNL     1       8.903  -5.260 -22.848  1.00  0.00    -0.000 C 
BRANCH   7   8
ATOM      8  C   UNL     1       9.080  -4.962 -24.345  1.00  0.00    -0.000 C 
BRANCH   8   9
ATOM      9  C   UNL     1       7.759  -5.048 -25.124  1.00  0.00    -0.000 C 
BRANCH   9  10
ATOM     10  C   UNL     1       6.543  -5.273 -24.207  1.00  0.00    -0.000 C 
BRANCH  10  11
ATOM     11  C   UNL     1       5.558  -6.304 -24.778  1.00  0.00    -0.003 C 
ATOM     12  C   UNL     1       4.161  -5.724 -24.999  1.00  0.00     0.004 C 
ENDBRANCH  10  11
ENDBRANCH   9  10
ENDBRANCH   8   9
ENDBRANCH   7   8
ENDBRANCH   6   7
ENDBRANCH   5   6
ENDBRANCH   4   5
ENDBRANCH   3   4
ENDBRANCH   2   3
ENDBRANCH   1   2
BRANCH   1  13
ATOM     13  C   UNL     1       5.575  -7.320 -18.181  1.00  0.00     0.000 C 
BRANCH  13  14
ATOM     14  C   UNL     1       4.516  -6.984 -17.121  1.00  0.00     0.000 C 
BRANCH  14  15
ATOM     15  C   UNL     1       3.728  -5.710 -17.462  1.00  0.00     0.000 C 
BRANCH  15  16
ATOM     16  C   UNL     1       3.212  -4.982 -16.210  1.00  0.00     0.000 C 
BRANCH  16  17
ATOM     17  C   UNL     1       1.802  -5.434 -15.795  1.00  0.00     0.000 C 
BRANCH  17  18
ATOM     18  C   UNL     1       1.125  -6.365 -16.823  1.00  0.00     0.000 C 
BRANCH  18  19
ATOM     19  C   UNL     1       0.121  -7.325 -16.166  1.00  0.00     0.000 C 
BRANCH  19  20
ATOM     20  C   UNL     1      -1.300  -7.077 -16.691  1.00  0.00     0.006 C 
BRANCH  20  21
ATOM     21  C   UNL     1      -2.206  -6.435 -15.631  1.00  0.00     0.053 C 
BRANCH  21  22
ATOM     22  C   UNL     1      -3.656  -6.665 -15.931  1.00  0.00     0.041 C 
ATOM     23  O   UNL     1      -4.429  -7.097 -15.037  1.00  0.00    -0.550 OA
ATOM     24  O   UNL     1      -4.145  -6.435 -17.211  1.00  0.00    -0.550 OA
ENDBRANCH  21  22
ENDBRANCH  20  21
ENDBRANCH  19  20
ENDBRANCH  18  19
ENDBRANCH  17  18
ENDBRANCH  16  17
ENDBRANCH  15  16
ENDBRANCH  14  15
ENDBRANCH  13  14
ENDBRANCH   1  13
TORSDOF 20
ENDMDL
