MODEL 1
REMARK VINA RESULT:    -4.119      0.000      0.000
REMARK INTER + INTRA:          -7.839
REMARK INTER:                  -6.287
REMARK INTRA:                  -1.552
REMARK UNBOUND:                -1.552
REMARK SMILES CCCCCCCCCC=CC(=O)[O-]
REMARK SMILES IDX 7 1 8 2 9 3 10 4 11 5 12 6 13 7 14 8 6 9 5 10 4 11 3 12 2 13
REMARK SMILES IDX 1 14
REMARK H PARENT
REMARK Flexibility Score: inf
ROOT
ATOM      1  C   UNL     1      -8.290  24.840  22.307  1.00  0.00     0.000 C 
ENDROOT
BRANCH   1   2
ATOM      2  C   UNL     1      -7.138  25.771  22.708  1.00  0.00     0.004 C 
BRANCH   2   3
ATOM      3  C   UNL     1      -7.123  26.006  24.223  1.00  0.00     0.027 C 
BRANCH   3   4
ATOM      4  C   UNL     1      -8.510  25.952  24.796  1.00  0.00    -0.025 C 
ATOM      5  C   UNL     1      -8.857  26.691  25.856  1.00  0.00     0.020 C 
BRANCH   5   6
ATOM      6  C   UNL     1     -10.206  26.643  26.443  1.00  0.00     0.064 C 
ATOM      7  O   UNL     1     -10.849  25.562  26.511  1.00  0.00    -0.545 OA
ATOM      8  O   UNL     1     -10.780  27.810  26.931  1.00  0.00    -0.545 OA
ENDBRANCH   5   6
ENDBRANCH   3   4
ENDBRANCH   2   3
ENDBRANCH   1   2
BRANCH   1   9
ATOM      9  C   UNL     1      -9.058  25.404  21.102  1.00  0.00     0.000 C 
BRANCH   9  10
ATOM     10  C   UNL     1      -9.247  26.926  21.184  1.00  0.00     0.000 C 
BRANCH  10  11
ATOM     11  C   UNL     1     -10.637  27.322  21.710  1.00  0.00    -0.000 C 
BRANCH  11  12
ATOM     12  C   UNL     1     -10.553  28.327  22.879  1.00  0.00    -0.000 C 
BRANCH  12  13
ATOM     13  C   UNL     1      -9.270  29.177  22.868  1.00  0.00    -0.003 C 
ATOM     14  C   UNL     1      -8.981  29.843  24.211  1.00  0.00     0.004 C 
ENDBRANCH  12  13
ENDBRANCH  11  12
ENDBRANCH  10  11
ENDBRANCH   9  10
ENDBRANCH   1   9
TORSDOF 9
ENDMDL
MODEL 2
REMARK VINA RESULT:    -4.012      2.861      4.506
REMARK INTER + INTRA:          -7.675
REMARK INTER:                  -6.139
REMARK INTRA:                  -1.536
REMARK UNBOUND:                -1.552
REMARK SMILES CCCCCCCCCC=CC(=O)[O-]
REMARK SMILES IDX 7 1 8 2 9 3 10 4 11 5 12 6 13 7 14 8 6 9 5 10 4 11 3 12 2 13
REMARK SMILES IDX 1 14
REMARK H PARENT
REMARK Flexibility Score: inf
ROOT
ATOM      1  C   UNL     1      -8.474  25.278  24.491  1.00  0.00     0.000 C 
ENDROOT
BRANCH   1   2
ATOM      2  C   UNL     1      -7.278  26.070  23.950  1.00  0.00     0.004 C 
BRANCH   2   3
ATOM      3  C   UNL     1      -7.026  25.746  22.472  1.00  0.00     0.027 C 
BRANCH   3   4
ATOM      4  C   UNL     1      -8.207  25.049  21.859  1.00  0.00    -0.025 C 
ATOM      5  C   UNL     1      -8.446  25.105  20.544  1.00  0.00     0.020 C 
BRANCH   5   6
ATOM      6  C   UNL     1      -9.604  24.442  19.924  1.00  0.00     0.064 C 
ATOM      7  O   UNL     1     -10.503  23.908  20.627  1.00  0.00    -0.545 OA
ATOM      8  O   UNL     1      -9.708  24.404  18.539  1.00  0.00    -0.545 OA
ENDBRANCH   5   6
ENDBRANCH   3   4
ENDBRANCH   2   3
ENDBRANCH   1   2
BRANCH   1   9
ATOM      9  C   UNL     1      -9.346  26.153  25.404  1.00  0.00     0.000 C 
BRANCH   9  10
ATOM     10  C   UNL     1      -8.939  27.633  25.364  1.00  0.00     0.000 C 
BRANCH  10  11
ATOM     11  C   UNL     1      -9.954  28.506  24.607  1.00  0.00    -0.000 C 
BRANCH  11  12
ATOM     12  C   UNL     1      -9.397  29.011  23.259  1.00  0.00    -0.000 C 
BRANCH  12  13
ATOM     13  C   UNL     1     -10.118  28.419  22.035  1.00  0.00    -0.003 C 
ATOM     14  C   UNL     1     -11.084  27.293  22.395  1.00  0.00     0.004 C 
ENDBRANCH  12  13
ENDBRANCH  11  12
ENDBRANCH  10  11
ENDBRANCH   9  10
ENDBRANCH   1   9
TORSDOF 9
ENDMDL
MODEL 3
REMARK VINA RESULT:    -3.869      2.965      5.436
REMARK INTER + INTRA:          -7.456
REMARK INTER:                  -6.171
REMARK INTRA:                  -1.285
REMARK UNBOUND:                -1.552
REMARK SMILES CCCCCCCCCC=CC(=O)[O-]
REMARK SMILES IDX 7 1 8 2 9 3 10 4 11 5 12 6 13 7 14 8 6 9 5 10 4 11 3 12 2 13
REMARK SMILES IDX 1 14
REMARK H PARENT
REMARK Flexibility Score: inf
ROOT
ATOM      1  C   UNL     1      -9.389  29.327  22.871  1.00  0.00     0.000 C 
ENDROOT
BRANCH   1   2
ATOM      2  C   UNL     1     -10.673  28.552  22.551  1.00  0.00     0.004 C 
BRANCH   2   3
ATOM      3  C   UNL     1     -10.773  28.248  21.050  1.00  0.00     0.027 C 
BRANCH   3   4
ATOM      4  C   UNL     1     -10.593  26.783  20.779  1.00  0.00    -0.025 C 
ATOM      5  C   UNL     1      -9.627  26.335  19.969  1.00  0.00     0.020 C 
BRANCH   5   6
ATOM      6  C   UNL     1      -9.441  24.905  19.678  1.00  0.00     0.064 C 
ATOM      7  O   UNL     1      -9.553  24.036  20.583  1.00  0.00    -0.545 OA
ATOM      8  O   UNL     1      -9.136  24.506  18.383  1.00  0.00    -0.545 OA
ENDBRANCH   5   6
ENDBRANCH   3   4
ENDBRANCH   2   3
ENDBRANCH   1   2
BRANCH   1   9
ATOM      9  C   UNL     1      -9.018  29.189  24.355  1.00  0.00     0.000 C 
BRANCH   9  10
ATOM     10  C   UNL     1      -9.823  28.087  25.062  1.00  0.00     0.000 C 
BRANCH  10  11
ATOM     11  C   UNL     1      -8.927  26.980  25.643  1.00  0.00    -0.000 C 
BRANCH  11  12
ATOM     12  C   UNL     1      -7.733  26.654  24.720  1.00  0.00    -0.000 C 
BRANCH  12  13
ATOM     13  C   UNL     1      -8.109  25.777  23.513  1.00  0.00    -0.003 C 
ATOM     14  C   UNL     1      -7.016  25.723  22.448  1.00  0.00     0.004 C 
ENDBRANCH  12  13
ENDBRANCH  11  12
ENDBRANCH  10  11
ENDBRANCH   9  10
ENDBRANCH   1   9
TORSDOF 9
ENDMDL
MODEL 4
REMARK VINA RESULT:    -3.838      2.901      4.752
REMARK INTER + INTRA:          -7.409
REMARK INTER:                  -6.472
REMARK INTRA:                  -0.937
REMARK UNBOUND:                -1.552
REMARK SMILES CCCCCCCCCC=CC(=O)[O-]
REMARK SMILES IDX 7 1 8 2 9 3 10 4 11 5 12 6 13 7 14 8 6 9 5 10 4 11 3 12 2 13
REMARK SMILES IDX 1 14
REMARK H PARENT
REMARK Flexibility Score: inf
ROOT
ATOM      1  C   UNL     1      -8.128  24.616  21.899  1.00  0.00     0.000 C 
ENDROOT
BRANCH   1   2
ATOM      2  C   UNL     1      -7.294  25.723  22.555  1.00  0.00     0.004 C 
BRANCH   2   3
ATOM      3  C   UNL     1      -7.978  26.247  23.825  1.00  0.00     0.027 C 
BRANCH   3   4
ATOM      4  C   UNL     1      -9.151  27.122  23.489  1.00  0.00    -0.025 C 
ATOM      5  C   UNL     1      -9.027  28.172  22.670  1.00  0.00     0.020 C 
BRANCH   5   6
ATOM      6  C   UNL     1     -10.160  29.052  22.338  1.00  0.00     0.064 C 
ATOM      7  O   UNL     1     -10.484  29.272  21.140  1.00  0.00    -0.545 OA
ATOM      8  O   UNL     1     -10.882  29.650  23.361  1.00  0.00    -0.545 OA
ENDBRANCH   5   6
ENDBRANCH   3   4
ENDBRANCH   2   3
ENDBRANCH   1   2
BRANCH   1   9
ATOM      9  C   UNL     1      -8.437  24.956  20.433  1.00  0.00     0.000 C 
BRANCH   9  10
ATOM     10  C   UNL     1      -9.888  25.419  20.229  1.00  0.00     0.000 C 
BRANCH  10  11
ATOM     11  C   UNL     1     -10.877  24.243  20.141  1.00  0.00    -0.000 C 
BRANCH  11  12
ATOM     12  C   UNL     1     -10.523  23.269  18.997  1.00  0.00    -0.000 C 
BRANCH  12  13
ATOM     13  C   UNL     1     -11.023  21.833  19.235  1.00  0.00    -0.003 C 
ATOM     14  C   UNL     1     -10.514  21.230  20.541  1.00  0.00     0.004 C 
ENDBRANCH  12  13
ENDBRANCH  11  12
ENDBRANCH  10  11
ENDBRANCH   9  10
ENDBRANCH   1   9
TORSDOF 9
ENDMDL
MODEL 5
REMARK VINA RESULT:    -3.816      2.810      4.290
REMARK INTER + INTRA:          -7.375
REMARK INTER:                  -6.268
REMARK INTRA:                  -1.107
REMARK UNBOUND:                -1.552
REMARK SMILES CCCCCCCCCC=CC(=O)[O-]
REMARK SMILES IDX 7 1 8 2 9 3 10 4 11 5 12 6 13 7 14 8 6 9 5 10 4 11 3 12 2 13
REMARK SMILES IDX 1 14
REMARK H PARENT
REMARK Flexibility Score: inf
ROOT
ATOM      1  C   UNL     1      -7.341  25.800  22.712  1.00  0.00     0.000 C 
ENDROOT
BRANCH   1   2
ATOM      2  C   UNL     1      -8.133  26.797  21.858  1.00  0.00     0.004 C 
BRANCH   2   3
ATOM      3  C   UNL     1      -9.286  26.100  21.124  1.00  0.00     0.027 C 
BRANCH   3   4
ATOM      4  C   UNL     1      -9.073  24.614  21.065  1.00  0.00    -0.025 C 
ATOM      5  C   UNL     1      -9.817  23.773  21.792  1.00  0.00     0.020 C 
BRANCH   5   6
ATOM      6  C   UNL     1      -9.617  22.315  21.761  1.00  0.00     0.064 C 
ATOM      7  O   UNL     1     -10.340  21.573  21.044  1.00  0.00    -0.545 OA
ATOM      8  O   UNL     1      -8.614  21.747  22.536  1.00  0.00    -0.545 OA
ENDBRANCH   5   6
ENDBRANCH   3   4
ENDBRANCH   2   3
ENDBRANCH   1   2
BRANCH   1   9
ATOM      9  C   UNL     1      -7.370  26.201  24.194  1.00  0.00     0.000 C 
BRANCH   9  10
ATOM     10  C   UNL     1      -8.733  25.934  24.850  1.00  0.00     0.000 C 
BRANCH  10  11
ATOM     11  C   UNL     1      -9.385  27.214  25.402  1.00  0.00    -0.000 C 
BRANCH  11  12
ATOM     12  C   UNL     1     -10.504  27.742  24.480  1.00  0.00    -0.000 C 
BRANCH  12  13
ATOM     13  C   UNL     1     -10.375  29.240  24.151  1.00  0.00    -0.003 C 
ATOM     14  C   UNL     1      -8.927  29.724  24.117  1.00  0.00     0.004 C 
ENDBRANCH  12  13
ENDBRANCH  11  12
ENDBRANCH  10  11
ENDBRANCH   9  10
ENDBRANCH   1   9
TORSDOF 9
ENDMDL
MODEL 6
REMARK VINA RESULT:    -3.810      2.603      4.520
REMARK INTER + INTRA:          -7.366
REMARK INTER:                  -6.721
REMARK INTRA:                  -0.646
REMARK UNBOUND:                -1.552
REMARK SMILES CCCCCCCCCC=CC(=O)[O-]
REMARK SMILES IDX 7 1 8 2 9 3 10 4 11 5 12 6 13 7 14 8 6 9 5 10 4 11 3 12 2 13
REMARK SMILES IDX 1 14
REMARK H PARENT
REMARK Flexibility Score: inf
ROOT
ATOM      1  C   UNL     1      -7.758  24.779  21.855  1.00  0.00     0.000 C 
ENDROOT
BRANCH   1   2
ATOM      2  C   UNL     1      -7.416  26.118  22.519  1.00  0.00     0.004 C 
BRANCH   2   3
ATOM      3  C   UNL     1      -7.268  25.958  24.037  1.00  0.00     0.027 C 
BRANCH   3   4
ATOM      4  C   UNL     1      -8.254  26.818  24.774  1.00  0.00    -0.025 C 
ATOM      5  C   UNL     1      -9.022  27.706  24.133  1.00  0.00     0.020 C 
BRANCH   5   6
ATOM      6  C   UNL     1      -9.985  28.570  24.835  1.00  0.00     0.064 C 
ATOM      7  O   UNL     1     -10.510  28.210  25.923  1.00  0.00    -0.545 OA
ATOM      8  O   UNL     1     -10.321  29.802  24.291  1.00  0.00    -0.545 OA
ENDBRANCH   5   6
ENDBRANCH   3   4
ENDBRANCH   2   3
ENDBRANCH   1   2
BRANCH   1   9
ATOM      9  C   UNL     1      -9.167  24.312  22.251  1.00  0.00     0.000 C 
BRANCH   9  10
ATOM     10  C   UNL     1      -9.297  22.782  22.269  1.00  0.00     0.000 C 
BRANCH  10  11
ATOM     11  C   UNL     1     -10.626  22.293  21.668  1.00  0.00    -0.000 C 
BRANCH  11  12
ATOM     12  C   UNL     1     -10.420  21.148  20.654  1.00  0.00    -0.000 C 
BRANCH  12  13
ATOM     13  C   UNL     1     -10.853  21.508  19.222  1.00  0.00    -0.003 C 
ATOM     14  C   UNL     1     -10.685  22.990  18.900  1.00  0.00     0.004 C 
ENDBRANCH  12  13
ENDBRANCH  11  12
ENDBRANCH  10  11
ENDBRANCH   9  10
ENDBRANCH   1   9
TORSDOF 9
ENDMDL
MODEL 7
REMARK VINA RESULT:    -3.796      1.582      3.421
REMARK INTER + INTRA:          -7.346
REMARK INTER:                  -6.292
REMARK INTRA:                  -1.054
REMARK UNBOUND:                -1.552
REMARK SMILES CCCCCCCCCC=CC(=O)[O-]
REMARK SMILES IDX 7 1 8 2 9 3 10 4 11 5 12 6 13 7 14 8 6 9 5 10 4 11 3 12 2 13
REMARK SMILES IDX 1 14
REMARK H PARENT
REMARK Flexibility Score: inf
ROOT
ATOM      1  C   UNL     1      -8.902  26.490  22.143  1.00  0.00     0.000 C 
ENDROOT
BRANCH   1   2
ATOM      2  C   UNL     1      -7.554  25.871  22.533  1.00  0.00     0.004 C 
BRANCH   2   3
ATOM      3  C   UNL     1      -7.299  26.013  24.039  1.00  0.00     0.027 C 
BRANCH   3   4
ATOM      4  C   UNL     1      -8.575  25.893  24.821  1.00  0.00    -0.025 C 
ATOM      5  C   UNL     1      -8.867  26.737  25.816  1.00  0.00     0.020 C 
BRANCH   5   6
ATOM      6  C   UNL     1     -10.105  26.630  26.605  1.00  0.00     0.064 C 
ATOM      7  O   UNL     1     -10.399  27.493  27.475  1.00  0.00    -0.545 OA
ATOM      8  O   UNL     1     -10.963  25.561  26.387  1.00  0.00    -0.545 OA
ENDBRANCH   5   6
ENDBRANCH   3   4
ENDBRANCH   2   3
ENDBRANCH   1   2
BRANCH   1   9
ATOM      9  C   UNL     1      -9.048  26.572  20.616  1.00  0.00     0.000 C 
BRANCH   9  10
ATOM     10  C   UNL     1      -9.089  25.187  19.954  1.00  0.00     0.000 C 
BRANCH  10  11
ATOM     11  C   UNL     1     -10.475  24.526  20.050  1.00  0.00    -0.000 C 
BRANCH  11  12
ATOM     12  C   UNL     1     -10.389  23.061  20.529  1.00  0.00    -0.000 C 
BRANCH  12  13
ATOM     13  C   UNL     1     -10.161  22.921  22.044  1.00  0.00    -0.003 C 
ATOM     14  C   UNL     1      -8.789  22.351  22.394  1.00  0.00     0.004 C 
ENDBRANCH  12  13
ENDBRANCH  11  12
ENDBRANCH  10  11
ENDBRANCH   9  10
ENDBRANCH   1   9
TORSDOF 9
ENDMDL
MODEL 8
REMARK VINA RESULT:    -3.782      3.584      5.165
REMARK INTER + INTRA:          -7.324
REMARK INTER:                  -6.233
REMARK INTRA:                  -1.091
REMARK UNBOUND:                -1.552
REMARK SMILES CCCCCCCCCC=CC(=O)[O-]
REMARK SMILES IDX 7 1 8 2 9 3 10 4 11 5 12 6 13 7 14 8 6 9 5 10 4 11 3 12 2 13
REMARK SMILES IDX 1 14
REMARK H PARENT
REMARK Flexibility Score: inf
ROOT
ATOM      1  C   UNL     1      -7.003  26.009  22.924  1.00  0.00     0.000 C 
ENDROOT
BRANCH   1   2
ATOM      2  C   UNL     1      -8.219  25.631  22.069  1.00  0.00     0.004 C 
BRANCH   2   3
ATOM      3  C   UNL     1      -8.549  26.740  21.062  1.00  0.00     0.027 C 
BRANCH   3   4
ATOM      4  C   UNL     1      -9.401  26.219  19.940  1.00  0.00    -0.025 C 
ATOM      5  C   UNL     1      -9.206  25.001  19.422  1.00  0.00     0.020 C 
BRANCH   5   6
ATOM      6  C   UNL     1     -10.019  24.476  18.313  1.00  0.00     0.064 C 
ATOM      7  O   UNL     1     -10.552  23.336  18.380  1.00  0.00    -0.545 OA
ATOM      8  O   UNL     1     -10.201  25.249  17.174  1.00  0.00    -0.545 OA
ENDBRANCH   5   6
ENDBRANCH   3   4
ENDBRANCH   2   3
ENDBRANCH   1   2
BRANCH   1   9
ATOM      9  C   UNL     1      -7.367  26.035  24.416  1.00  0.00     0.000 C 
BRANCH   9  10
ATOM     10  C   UNL     1      -8.883  25.962  24.653  1.00  0.00     0.000 C 
BRANCH  10  11
ATOM     11  C   UNL     1      -9.481  27.314  25.081  1.00  0.00    -0.000 C 
BRANCH  11  12
ATOM     12  C   UNL     1     -10.505  27.847  24.057  1.00  0.00    -0.000 C 
BRANCH  12  13
ATOM     13  C   UNL     1     -10.187  29.264  23.549  1.00  0.00    -0.003 C 
ATOM     14  C   UNL     1      -8.827  29.777  24.015  1.00  0.00     0.004 C 
ENDBRANCH  12  13
ENDBRANCH  11  12
ENDBRANCH  10  11
ENDBRANCH   9  10
ENDBRANCH   1   9
TORSDOF 9
ENDMDL
MODEL 9
REMARK VINA RESULT:    -3.741      2.797      4.562
REMARK INTER + INTRA:          -7.261
REMARK INTER:                  -6.038
REMARK INTRA:                  -1.223
REMARK UNBOUND:                -1.552
REMARK SMILES CCCCCCCCCC=CC(=O)[O-]
REMARK SMILES IDX 7 1 8 2 9 3 10 4 11 5 12 6 13 7 14 8 6 9 5 10 4 11 3 12 2 13
REMARK SMILES IDX 1 14
REMARK H PARENT
REMARK Flexibility Score: inf
ROOT
ATOM      1  C   UNL     1     -10.087  27.796  22.025  1.00  0.00     0.000 C 
ENDROOT
BRANCH   1   2
ATOM      2  C   UNL     1      -9.184  27.056  21.032  1.00  0.00     0.004 C 
BRANCH   2   3
ATOM      3  C   UNL     1      -8.082  26.278  21.763  1.00  0.00     0.027 C 
BRANCH   3   4
ATOM      4  C   UNL     1      -8.268  24.796  21.607  1.00  0.00    -0.025 C 
ATOM      5  C   UNL     1      -9.231  24.139  22.263  1.00  0.00     0.020 C 
BRANCH   5   6
ATOM      6  C   UNL     1      -9.423  22.686  22.137  1.00  0.00     0.064 C 
ATOM      7  O   UNL     1      -8.534  21.876  22.516  1.00  0.00    -0.545 OA
ATOM      8  O   UNL     1     -10.602  22.197  21.591  1.00  0.00    -0.545 OA
ENDBRANCH   5   6
ENDBRANCH   3   4
ENDBRANCH   2   3
ENDBRANCH   1   2
BRANCH   1   9
ATOM      9  C   UNL     1      -9.259  28.700  22.952  1.00  0.00     0.000 C 
BRANCH   9  10
ATOM     10  C   UNL     1      -9.553  28.444  24.438  1.00  0.00     0.000 C 
BRANCH  10  11
ATOM     11  C   UNL     1      -8.450  27.622  25.127  1.00  0.00    -0.000 C 
BRANCH  11  12
ATOM     12  C   UNL     1      -8.875  26.155  25.356  1.00  0.00    -0.000 C 
BRANCH  12  13
ATOM     13  C   UNL     1     -10.395  25.971  25.506  1.00  0.00    -0.003 C 
ATOM     14  C   UNL     1     -10.848  25.892  26.962  1.00  0.00     0.004 C 
ENDBRANCH  12  13
ENDBRANCH  11  12
ENDBRANCH  10  11
ENDBRANCH   9  10
ENDBRANCH   1   9
TORSDOF 9
ENDMDL
