MODEL 1
REMARK VINA RESULT:    -2.838      0.000      0.000
REMARK INTER + INTRA:          -3.590
REMARK INTER:                  -3.502
REMARK INTRA:                  -0.088
REMARK UNBOUND:                -0.088
REMARK SMILES CCCCCC(=O)[O-]
REMARK SMILES IDX 4 1 5 2 6 3 7 4 8 5 3 6 2 7 1 8
REMARK H PARENT
REMARK Flexibility Score: inf
ROOT
ATOM      1  C   UNL     1     -34.346  -7.529 -31.556  1.00  0.00     0.006 C 
ENDROOT
BRANCH   1   2
ATOM      2  C   UNL     1     -33.048  -7.725 -30.758  1.00  0.00     0.053 C 
BRANCH   2   3
ATOM      3  C   UNL     1     -32.588  -9.152 -30.774  1.00  0.00     0.041 C 
ATOM      4  O   UNL     1     -31.617  -9.512 -30.058  1.00  0.00    -0.550 OA
ATOM      5  O   UNL     1     -33.212 -10.074 -31.604  1.00  0.00    -0.550 OA
ENDBRANCH   2   3
ENDBRANCH   1   2
BRANCH   1   6
ATOM      6  C   UNL     1     -35.044  -6.178 -31.308  1.00  0.00     0.000 C 
BRANCH   6   7
ATOM      7  C   UNL     1     -34.355  -5.012 -32.030  1.00  0.00    -0.003 C 
ATOM      8  C   UNL     1     -34.629  -5.055 -33.530  1.00  0.00     0.004 C 
ENDBRANCH   6   7
ENDBRANCH   1   6
TORSDOF 4
ENDMDL
MODEL 2
REMARK VINA RESULT:    -2.806     15.956     16.632
REMARK INTER + INTRA:          -3.550
REMARK INTER:                  -3.470
REMARK INTRA:                  -0.080
REMARK UNBOUND:                -0.088
REMARK SMILES CCCCCC(=O)[O-]
REMARK SMILES IDX 4 1 5 2 6 3 7 4 8 5 3 6 2 7 1 8
REMARK H PARENT
REMARK Flexibility Score: inf
ROOT
ATOM      1  C   UNL     1     -24.637   6.050 -30.761  1.00  0.00     0.006 C 
ENDROOT
BRANCH   1   2
ATOM      2  C   UNL     1     -23.843   4.923 -31.440  1.00  0.00     0.053 C 
BRANCH   2   3
ATOM      3  C   UNL     1     -24.038   4.914 -32.925  1.00  0.00     0.041 C 
ATOM      4  O   UNL     1     -23.182   4.372 -33.673  1.00  0.00    -0.550 OA
ATOM      5  O   UNL     1     -25.147   5.535 -33.485  1.00  0.00    -0.550 OA
ENDBRANCH   2   3
ENDBRANCH   1   2
BRANCH   1   6
ATOM      6  C   UNL     1     -23.881   6.761 -29.622  1.00  0.00     0.000 C 
BRANCH   6   7
ATOM      7  C   UNL     1     -24.630   7.990 -29.087  1.00  0.00    -0.003 C 
ATOM      8  C   UNL     1     -26.136   7.844 -29.284  1.00  0.00     0.004 C 
ENDBRANCH   6   7
ENDBRANCH   1   6
TORSDOF 4
ENDMDL
MODEL 3
REMARK VINA RESULT:    -2.803      1.545      2.157
REMARK INTER + INTRA:          -3.547
REMARK INTER:                  -3.368
REMARK INTRA:                  -0.179
REMARK UNBOUND:                -0.088
REMARK SMILES CCCCCC(=O)[O-]
REMARK SMILES IDX 4 1 5 2 6 3 7 4 8 5 3 6 2 7 1 8
REMARK H PARENT
REMARK Flexibility Score: inf
ROOT
ATOM      1  C   UNL     1     -34.693  -5.431 -31.749  1.00  0.00     0.006 C 
ENDROOT
BRANCH   1   2
ATOM      2  C   UNL     1     -34.909  -6.923 -31.450  1.00  0.00     0.053 C 
BRANCH   2   3
ATOM      3  C   UNL     1     -33.616  -7.676 -31.381  1.00  0.00     0.041 C 
ATOM      4  O   UNL     1     -32.534  -7.061 -31.190  1.00  0.00    -0.550 OA
ATOM      5  O   UNL     1     -33.602  -9.054 -31.562  1.00  0.00    -0.550 OA
ENDBRANCH   2   3
ENDBRANCH   1   2
BRANCH   1   6
ATOM      6  C   UNL     1     -34.697  -5.079 -33.249  1.00  0.00     0.000 C 
BRANCH   6   7
ATOM      7  C   UNL     1     -33.798  -3.879 -33.580  1.00  0.00    -0.003 C 
ATOM      8  C   UNL     1     -32.331  -4.201 -33.314  1.00  0.00     0.004 C 
ENDBRANCH   6   7
ENDBRANCH   1   6
TORSDOF 4
ENDMDL
MODEL 4
REMARK VINA RESULT:    -2.793      3.137      4.492
REMARK INTER + INTRA:          -3.535
REMARK INTER:                  -3.415
REMARK INTRA:                  -0.120
REMARK UNBOUND:                -0.088
REMARK SMILES CCCCCC(=O)[O-]
REMARK SMILES IDX 4 1 5 2 6 3 7 4 8 5 3 6 2 7 1 8
REMARK H PARENT
REMARK Flexibility Score: inf
ROOT
ATOM      1  C   UNL     1     -35.130  -6.371 -31.309  1.00  0.00     0.006 C 
ENDROOT
BRANCH   1   2
ATOM      2  C   UNL     1     -34.442  -5.039 -31.649  1.00  0.00     0.053 C 
BRANCH   2   3
ATOM      3  C   UNL     1     -34.368  -4.806 -33.128  1.00  0.00     0.041 C 
ATOM      4  O   UNL     1     -33.445  -4.100 -33.613  1.00  0.00    -0.550 OA
ATOM      5  O   UNL     1     -35.339  -5.341 -33.966  1.00  0.00    -0.550 OA
ENDBRANCH   2   3
ENDBRANCH   1   2
BRANCH   1   6
ATOM      6  C   UNL     1     -34.238  -7.612 -31.501  1.00  0.00     0.000 C 
BRANCH   6   7
ATOM      7  C   UNL     1     -32.979  -7.581 -30.623  1.00  0.00    -0.003 C 
ATOM      8  C   UNL     1     -32.587  -8.985 -30.173  1.00  0.00     0.004 C 
ENDBRANCH   6   7
ENDBRANCH   1   6
TORSDOF 4
ENDMDL
MODEL 5
REMARK VINA RESULT:    -2.763     15.137     15.867
REMARK INTER + INTRA:          -3.498
REMARK INTER:                  -3.367
REMARK INTRA:                  -0.131
REMARK UNBOUND:                -0.088
REMARK SMILES CCCCCC(=O)[O-]
REMARK SMILES IDX 4 1 5 2 6 3 7 4 8 5 3 6 2 7 1 8
REMARK H PARENT
REMARK Flexibility Score: inf
ROOT
ATOM      1  C   UNL     1     -20.303  -1.934 -32.154  1.00  0.00     0.006 C 
ENDROOT
BRANCH   1   2
ATOM      2  C   UNL     1     -19.862  -0.544 -31.667  1.00  0.00     0.053 C 
BRANCH   2   3
ATOM      3  C   UNL     1     -20.090   0.513 -32.703  1.00  0.00     0.041 C 
ATOM      4  O   UNL     1     -20.243   1.715 -32.359  1.00  0.00    -0.550 OA
ATOM      5  O   UNL     1     -20.167   0.166 -34.046  1.00  0.00    -0.550 OA
ENDBRANCH   2   3
ENDBRANCH   1   2
BRANCH   1   6
ATOM      6  C   UNL     1     -19.146  -2.932 -32.352  1.00  0.00     0.000 C 
BRANCH   6   7
ATOM      7  C   UNL     1     -18.831  -3.191 -33.832  1.00  0.00    -0.003 C 
ATOM      8  C   UNL     1     -18.773  -4.687 -34.128  1.00  0.00     0.004 C 
ENDBRANCH   6   7
ENDBRANCH   1   6
TORSDOF 4
ENDMDL
MODEL 6
REMARK VINA RESULT:    -2.724     15.923     16.880
REMARK INTER + INTRA:          -3.450
REMARK INTER:                  -3.258
REMARK INTRA:                  -0.191
REMARK UNBOUND:                -0.088
REMARK SMILES CCCCCC(=O)[O-]
REMARK SMILES IDX 4 1 5 2 6 3 7 4 8 5 3 6 2 7 1 8
REMARK H PARENT
REMARK Flexibility Score: inf
ROOT
ATOM      1  C   UNL     1     -24.267   6.450 -28.805  1.00  0.00     0.006 C 
ENDROOT
BRANCH   1   2
ATOM      2  C   UNL     1     -23.658   6.382 -30.214  1.00  0.00     0.053 C 
BRANCH   2   3
ATOM      3  C   UNL     1     -24.569   5.698 -31.189  1.00  0.00     0.041 C 
ATOM      4  O   UNL     1     -25.549   5.025 -30.774  1.00  0.00    -0.550 OA
ATOM      5  O   UNL     1     -24.314   5.778 -32.552  1.00  0.00    -0.550 OA
ENDBRANCH   2   3
ENDBRANCH   1   2
BRANCH   1   6
ATOM      6  C   UNL     1     -24.510   7.881 -28.289  1.00  0.00     0.000 C 
BRANCH   6   7
ATOM      7  C   UNL     1     -25.968   8.124 -27.874  1.00  0.00    -0.003 C 
ATOM      8  C   UNL     1     -26.928   7.777 -29.007  1.00  0.00     0.004 C 
ENDBRANCH   6   7
ENDBRANCH   1   6
TORSDOF 4
ENDMDL
MODEL 7
REMARK VINA RESULT:    -2.716     15.837     16.905
REMARK INTER + INTRA:          -3.439
REMARK INTER:                  -3.187
REMARK INTRA:                  -0.253
REMARK UNBOUND:                -0.088
REMARK SMILES CCCCCC(=O)[O-]
REMARK SMILES IDX 4 1 5 2 6 3 7 4 8 5 3 6 2 7 1 8
REMARK H PARENT
REMARK Flexibility Score: inf
ROOT
ATOM      1  C   UNL     1     -24.866   7.126 -29.907  1.00  0.00     0.006 C 
ENDROOT
BRANCH   1   2
ATOM      2  C   UNL     1     -23.747   6.192 -30.394  1.00  0.00     0.053 C 
BRANCH   2   3
ATOM      3  C   UNL     1     -23.974   4.773 -29.969  1.00  0.00     0.041 C 
ATOM      4  O   UNL     1     -24.973   4.475 -29.263  1.00  0.00    -0.550 OA
ATOM      5  O   UNL     1     -23.062   3.786 -30.324  1.00  0.00    -0.550 OA
ENDBRANCH   2   3
ENDBRANCH   1   2
BRANCH   1   6
ATOM      6  C   UNL     1     -24.452   8.065 -28.759  1.00  0.00     0.000 C 
BRANCH   6   7
ATOM      7  C   UNL     1     -24.923   7.568 -27.385  1.00  0.00    -0.003 C 
ATOM      8  C   UNL     1     -23.841   6.739 -26.699  1.00  0.00     0.004 C 
ENDBRANCH   6   7
ENDBRANCH   1   6
TORSDOF 4
ENDMDL
MODEL 8
REMARK VINA RESULT:    -2.703     16.518     17.551
REMARK INTER + INTRA:          -3.424
REMARK INTER:                  -3.252
REMARK INTRA:                  -0.172
REMARK UNBOUND:                -0.088
REMARK SMILES CCCCCC(=O)[O-]
REMARK SMILES IDX 4 1 5 2 6 3 7 4 8 5 3 6 2 7 1 8
REMARK H PARENT
REMARK Flexibility Score: inf
ROOT
ATOM      1  C   UNL     1     -25.436   7.852 -27.947  1.00  0.00     0.006 C 
ENDROOT
BRANCH   1   2
ATOM      2  C   UNL     1     -24.671   8.016 -29.269  1.00  0.00     0.053 C 
BRANCH   2   3
ATOM      3  C   UNL     1     -24.607   6.735 -30.044  1.00  0.00     0.041 C 
ATOM      4  O   UNL     1     -23.507   6.325 -30.500  1.00  0.00    -0.550 OA
ATOM      5  O   UNL     1     -25.768   6.013 -30.292  1.00  0.00    -0.550 OA
ENDBRANCH   2   3
ENDBRANCH   1   2
BRANCH   1   6
ATOM      6  C   UNL     1     -24.541   7.848 -26.693  1.00  0.00     0.000 C 
BRANCH   6   7
ATOM      7  C   UNL     1     -23.658   6.596 -26.597  1.00  0.00    -0.003 C 
ATOM      8  C   UNL     1     -24.505   5.326 -26.575  1.00  0.00     0.004 C 
ENDBRANCH   6   7
ENDBRANCH   1   6
TORSDOF 4
ENDMDL
MODEL 9
REMARK VINA RESULT:    -2.689      3.532      4.728
REMARK INTER + INTRA:          -3.406
REMARK INTER:                  -3.282
REMARK INTRA:                  -0.124
REMARK UNBOUND:                -0.088
REMARK SMILES CCCCCC(=O)[O-]
REMARK SMILES IDX 4 1 5 2 6 3 7 4 8 5 3 6 2 7 1 8
REMARK H PARENT
REMARK Flexibility Score: inf
ROOT
ATOM      1  C   UNL     1     -34.748  -5.115 -31.612  1.00  0.00     0.006 C 
ENDROOT
BRANCH   1   2
ATOM      2  C   UNL     1     -34.542  -5.000 -33.131  1.00  0.00     0.053 C 
BRANCH   2   3
ATOM      3  C   UNL     1     -33.472  -4.011 -33.480  1.00  0.00     0.041 C 
ATOM      4  O   UNL     1     -32.266  -4.370 -33.519  1.00  0.00    -0.550 OA
ATOM      5  O   UNL     1     -33.804  -2.685 -33.729  1.00  0.00    -0.550 OA
ENDBRANCH   2   3
ENDBRANCH   1   2
BRANCH   1   6
ATOM      6  C   UNL     1     -35.195  -6.511 -31.138  1.00  0.00     0.000 C 
BRANCH   6   7
ATOM      7  C   UNL     1     -34.182  -7.610 -31.489  1.00  0.00    -0.003 C 
ATOM      8  C   UNL     1     -32.940  -7.516 -30.608  1.00  0.00     0.004 C 
ENDBRANCH   6   7
ENDBRANCH   1   6
TORSDOF 4
ENDMDL
