MODEL 1
REMARK VINA RESULT:    -4.175      0.000      0.000
REMARK INTER + INTRA:          -7.432
REMARK INTER:                  -6.371
REMARK INTRA:                  -1.061
REMARK UNBOUND:                -1.061
REMARK SMILES CCCCCCCCCCC(=O)[O-]
REMARK SMILES IDX 7 1 8 2 9 3 10 4 11 5 12 6 13 7 6 8 5 9 4 10 3 11 2 12 1 13
REMARK H PARENT
REMARK Flexibility Score: inf
ROOT
ATOM      1  C   UNL     1      10.512   8.463  27.806  1.00  0.00     0.000 C 
ENDROOT
BRANCH   1   2
ATOM      2  C   UNL     1      10.123   7.231  26.981  1.00  0.00     0.000 C 
BRANCH   2   3
ATOM      3  C   UNL     1      11.272   6.802  26.056  1.00  0.00     0.006 C 
BRANCH   3   4
ATOM      4  C   UNL     1      12.647   6.986  26.713  1.00  0.00     0.053 C 
BRANCH   4   5
ATOM      5  C   UNL     1      13.300   5.671  27.013  1.00  0.00     0.041 C 
ATOM      6  O   UNL     1      13.553   4.863  26.081  1.00  0.00    -0.550 OA
ATOM      7  O   UNL     1      13.600   5.327  28.324  1.00  0.00    -0.550 OA
ENDBRANCH   4   5
ENDBRANCH   3   4
ENDBRANCH   2   3
ENDBRANCH   1   2
BRANCH   1   8
ATOM      8  C   UNL     1       9.818   8.453  29.172  1.00  0.00     0.000 C 
BRANCH   8   9
ATOM      9  C   UNL     1       8.958   7.191  29.344  1.00  0.00    -0.000 C 
BRANCH   9  10
ATOM     10  C   UNL     1       9.347   6.371  30.585  1.00  0.00    -0.000 C 
BRANCH  10  11
ATOM     11  C   UNL     1       9.347   4.856  30.315  1.00  0.00    -0.000 C 
BRANCH  11  12
ATOM     12  C   UNL     1      10.368   4.450  29.242  1.00  0.00    -0.003 C 
ATOM     13  C   UNL     1       9.722   3.771  28.034  1.00  0.00     0.004 C 
ENDBRANCH  11  12
ENDBRANCH  10  11
ENDBRANCH   9  10
ENDBRANCH   8   9
ENDBRANCH   1   8
TORSDOF 9
ENDMDL
MODEL 2
REMARK VINA RESULT:    -4.047     13.635     15.384
REMARK INTER + INTRA:          -7.237
REMARK INTER:                  -6.314
REMARK INTRA:                  -0.923
REMARK UNBOUND:                -1.061
REMARK SMILES CCCCCCCCCCC(=O)[O-]
REMARK SMILES IDX 7 1 8 2 9 3 10 4 11 5 12 6 13 7 6 8 5 9 4 10 3 11 2 12 1 13
REMARK H PARENT
REMARK Flexibility Score: inf
ROOT
ATOM      1  C   UNL     1       6.875   8.916  14.475  1.00  0.00     0.000 C 
ENDROOT
BRANCH   1   2
ATOM      2  C   UNL     1       6.053   9.703  15.502  1.00  0.00     0.000 C 
BRANCH   2   3
ATOM      3  C   UNL     1       4.964   8.819  16.129  1.00  0.00     0.006 C 
BRANCH   3   4
ATOM      4  C   UNL     1       5.363   7.337  16.158  1.00  0.00     0.053 C 
BRANCH   4   5
ATOM      5  C   UNL     1       4.262   6.455  15.653  1.00  0.00     0.041 C 
ATOM      6  O   UNL     1       3.718   5.618  16.420  1.00  0.00    -0.550 OA
ATOM      7  O   UNL     1       3.859   6.537  14.326  1.00  0.00    -0.550 OA
ENDBRANCH   4   5
ENDBRANCH   3   4
ENDBRANCH   2   3
ENDBRANCH   1   2
BRANCH   1   8
ATOM      8  C   UNL     1       7.509   9.854  13.442  1.00  0.00     0.000 C 
BRANCH   8   9
ATOM      9  C   UNL     1       7.983   9.073  12.206  1.00  0.00    -0.000 C 
BRANCH   9  10
ATOM     10  C   UNL     1       8.374   7.623  12.534  1.00  0.00    -0.000 C 
BRANCH  10  11
ATOM     11  C   UNL     1       7.564   6.596  11.724  1.00  0.00    -0.000 C 
BRANCH  11  12
ATOM     12  C   UNL     1       6.838   5.581  12.619  1.00  0.00    -0.003 C 
ATOM     13  C   UNL     1       7.613   5.255  13.897  1.00  0.00     0.004 C 
ENDBRANCH  11  12
ENDBRANCH  10  11
ENDBRANCH   9  10
ENDBRANCH   8   9
ENDBRANCH   1   8
TORSDOF 9
ENDMDL
MODEL 3
REMARK VINA RESULT:    -4.034      1.796      2.579
REMARK INTER + INTRA:          -7.217
REMARK INTER:                  -6.350
REMARK INTRA:                  -0.866
REMARK UNBOUND:                -1.061
REMARK SMILES CCCCCCCCCCC(=O)[O-]
REMARK SMILES IDX 7 1 8 2 9 3 10 4 11 5 12 6 13 7 6 8 5 9 4 10 3 11 2 12 1 13
REMARK H PARENT
REMARK Flexibility Score: inf
ROOT
ATOM      1  C   UNL     1      10.254   7.308  27.831  1.00  0.00     0.000 C 
ENDROOT
BRANCH   1   2
ATOM      2  C   UNL     1      11.087   6.911  26.607  1.00  0.00     0.000 C 
BRANCH   2   3
ATOM      3  C   UNL     1      12.532   6.578  27.008  1.00  0.00     0.006 C 
BRANCH   3   4
ATOM      4  C   UNL     1      13.369   6.093  25.817  1.00  0.00     0.053 C 
BRANCH   4   5
ATOM      5  C   UNL     1      14.235   7.184  25.265  1.00  0.00     0.041 C 
ATOM      6  O   UNL     1      15.164   7.670  25.963  1.00  0.00    -0.550 OA
ATOM      7  O   UNL     1      13.995   7.686  23.992  1.00  0.00    -0.550 OA
ENDBRANCH   4   5
ENDBRANCH   3   4
ENDBRANCH   2   3
ENDBRANCH   1   2
BRANCH   1   8
ATOM      8  C   UNL     1       8.999   6.435  27.951  1.00  0.00     0.000 C 
BRANCH   8   9
ATOM      9  C   UNL     1       9.312   4.971  27.604  1.00  0.00    -0.000 C 
BRANCH   9  10
ATOM     10  C   UNL     1       9.854   4.178  28.804  1.00  0.00    -0.000 C 
BRANCH  10  11
ATOM     11  C   UNL     1       9.448   4.796  30.153  1.00  0.00    -0.000 C 
BRANCH  11  12
ATOM     12  C   UNL     1      10.657   5.077  31.059  1.00  0.00    -0.003 C 
ATOM     13  C   UNL     1      11.968   4.538  30.485  1.00  0.00     0.004 C 
ENDBRANCH  11  12
ENDBRANCH  10  11
ENDBRANCH   9  10
ENDBRANCH   8   9
ENDBRANCH   1   8
TORSDOF 9
ENDMDL
MODEL 4
REMARK VINA RESULT:    -4.012      1.554      2.934
REMARK INTER + INTRA:          -7.185
REMARK INTER:                  -6.135
REMARK INTRA:                  -1.049
REMARK UNBOUND:                -1.061
REMARK SMILES CCCCCCCCCCC(=O)[O-]
REMARK SMILES IDX 7 1 8 2 9 3 10 4 11 5 12 6 13 7 6 8 5 9 4 10 3 11 2 12 1 13
REMARK H PARENT
REMARK Flexibility Score: inf
ROOT
ATOM      1  C   UNL     1      11.000   5.088  27.295  1.00  0.00     0.000 C 
ENDROOT
BRANCH   1   2
ATOM      2  C   UNL     1      10.624   6.401  26.599  1.00  0.00     0.000 C 
BRANCH   2   3
ATOM      3  C   UNL     1      11.613   7.519  26.962  1.00  0.00     0.006 C 
BRANCH   3   4
ATOM      4  C   UNL     1      12.302   8.110  25.725  1.00  0.00     0.053 C 
BRANCH   4   5
ATOM      5  C   UNL     1      13.685   7.563  25.545  1.00  0.00     0.041 C 
ATOM      6  O   UNL     1      14.679   8.336  25.554  1.00  0.00    -0.550 OA
ATOM      7  O   UNL     1      13.873   6.203  25.335  1.00  0.00    -0.550 OA
ENDBRANCH   4   5
ENDBRANCH   3   4
ENDBRANCH   2   3
ENDBRANCH   1   2
BRANCH   1   8
ATOM      8  C   UNL     1       9.756   4.238  27.579  1.00  0.00     0.000 C 
BRANCH   8   9
ATOM      9  C   UNL     1       9.488   4.142  29.088  1.00  0.00    -0.000 C 
BRANCH   9  10
ATOM     10  C   UNL     1      10.613   4.763  29.933  1.00  0.00    -0.000 C 
BRANCH  10  11
ATOM     11  C   UNL     1      10.103   5.864  30.878  1.00  0.00    -0.000 C 
BRANCH  11  12
ATOM     12  C   UNL     1       8.925   6.651  30.284  1.00  0.00    -0.003 C 
ATOM     13  C   UNL     1       9.331   8.037  29.781  1.00  0.00     0.004 C 
ENDBRANCH  11  12
ENDBRANCH  10  11
ENDBRANCH   9  10
ENDBRANCH   8   9
ENDBRANCH   1   8
TORSDOF 9
ENDMDL
MODEL 5
REMARK VINA RESULT:    -4.007     13.973     15.941
REMARK INTER + INTRA:          -7.176
REMARK INTER:                  -6.208
REMARK INTRA:                  -0.968
REMARK UNBOUND:                -1.061
REMARK SMILES CCCCCCCCCCC(=O)[O-]
REMARK SMILES IDX 7 1 8 2 9 3 10 4 11 5 12 6 13 7 6 8 5 9 4 10 3 11 2 12 1 13
REMARK H PARENT
REMARK Flexibility Score: inf
ROOT
ATOM      1  C   UNL     1       5.963   7.856  14.854  1.00  0.00     0.000 C 
ENDROOT
BRANCH   1   2
ATOM      2  C   UNL     1       5.353   6.479  15.134  1.00  0.00     0.000 C 
BRANCH   2   3
ATOM      3  C   UNL     1       3.854   6.594  15.452  1.00  0.00     0.006 C 
BRANCH   3   4
ATOM      4  C   UNL     1       3.226   7.854  14.841  1.00  0.00     0.053 C 
BRANCH   4   5
ATOM      5  C   UNL     1       2.387   8.596  15.837  1.00  0.00     0.041 C 
ATOM      6  O   UNL     1       2.788   8.738  17.022  1.00  0.00    -0.550 OA
ATOM      7  O   UNL     1       1.148   9.101  15.464  1.00  0.00    -0.550 OA
ENDBRANCH   4   5
ENDBRANCH   3   4
ENDBRANCH   2   3
ENDBRANCH   1   2
BRANCH   1   8
ATOM      8  C   UNL     1       7.447   7.891  15.239  1.00  0.00     0.000 C 
BRANCH   8   9
ATOM      9  C   UNL     1       8.294   7.088  14.241  1.00  0.00    -0.000 C 
BRANCH   9  10
ATOM     10  C   UNL     1       8.245   7.667  12.818  1.00  0.00    -0.000 C 
BRANCH  10  11
ATOM     11  C   UNL     1       7.739   6.649  11.782  1.00  0.00    -0.000 C 
BRANCH  11  12
ATOM     12  C   UNL     1       6.482   7.135  11.044  1.00  0.00    -0.003 C 
ATOM     13  C   UNL     1       5.232   6.334  11.410  1.00  0.00     0.004 C 
ENDBRANCH  11  12
ENDBRANCH  10  11
ENDBRANCH   9  10
ENDBRANCH   8   9
ENDBRANCH   1   8
TORSDOF 9
ENDMDL
MODEL 6
REMARK VINA RESULT:    -3.936     13.407     15.457
REMARK INTER + INTRA:          -7.068
REMARK INTER:                  -5.853
REMARK INTRA:                  -1.215
REMARK UNBOUND:                -1.061
REMARK SMILES CCCCCCCCCCC(=O)[O-]
REMARK SMILES IDX 7 1 8 2 9 3 10 4 11 5 12 6 13 7 6 8 5 9 4 10 3 11 2 12 1 13
REMARK H PARENT
REMARK Flexibility Score: inf
ROOT
ATOM      1  C   UNL     1       5.883   6.382  15.103  1.00  0.00     0.000 C 
ENDROOT
BRANCH   1   2
ATOM      2  C   UNL     1       6.368   7.621  15.862  1.00  0.00     0.000 C 
BRANCH   2   3
ATOM      3  C   UNL     1       5.546   8.861  15.477  1.00  0.00     0.006 C 
BRANCH   3   4
ATOM      4  C   UNL     1       4.783   9.447  16.673  1.00  0.00     0.053 C 
BRANCH   4   5
ATOM      5  C   UNL     1       3.577   8.628  17.019  1.00  0.00     0.041 C 
ATOM      6  O   UNL     1       3.508   8.041  18.131  1.00  0.00    -0.550 OA
ATOM      7  O   UNL     1       2.545   8.487  16.100  1.00  0.00    -0.550 OA
ENDBRANCH   4   5
ENDBRANCH   3   4
ENDBRANCH   2   3
ENDBRANCH   1   2
BRANCH   1   8
ATOM      8  C   UNL     1       4.864   6.761  14.023  1.00  0.00     0.000 C 
BRANCH   8   9
ATOM      9  C   UNL     1       5.375   6.379  12.625  1.00  0.00    -0.000 C 
BRANCH   9  10
ATOM     10  C   UNL     1       6.750   5.694  12.661  1.00  0.00    -0.000 C 
BRANCH  10  11
ATOM     11  C   UNL     1       7.802   6.434  11.816  1.00  0.00    -0.000 C 
BRANCH  11  12
ATOM     12  C   UNL     1       7.579   7.954  11.800  1.00  0.00    -0.003 C 
ATOM     13  C   UNL     1       8.337   8.677  12.914  1.00  0.00     0.004 C 
ENDBRANCH  11  12
ENDBRANCH  10  11
ENDBRANCH   9  10
ENDBRANCH   8   9
ENDBRANCH   1   8
TORSDOF 9
ENDMDL
MODEL 7
REMARK VINA RESULT:    -3.829      2.476      3.554
REMARK INTER + INTRA:          -6.904
REMARK INTER:                  -6.291
REMARK INTRA:                  -0.613
REMARK UNBOUND:                -1.061
REMARK SMILES CCCCCCCCCCC(=O)[O-]
REMARK SMILES IDX 7 1 8 2 9 3 10 4 11 5 12 6 13 7 6 8 5 9 4 10 3 11 2 12 1 13
REMARK H PARENT
REMARK Flexibility Score: inf
ROOT
ATOM      1  C   UNL     1      12.667   5.735  27.496  1.00  0.00     0.000 C 
ENDROOT
BRANCH   1   2
ATOM      2  C   UNL     1      13.806   6.436  26.746  1.00  0.00     0.000 C 
BRANCH   2   3
ATOM      3  C   UNL     1      13.359   6.863  25.340  1.00  0.00     0.006 C 
BRANCH   3   4
ATOM      4  C   UNL     1      13.933   8.228  24.937  1.00  0.00     0.053 C 
BRANCH   4   5
ATOM      5  C   UNL     1      14.918   8.107  23.814  1.00  0.00     0.041 C 
ATOM      6  O   UNL     1      14.735   8.741  22.741  1.00  0.00    -0.550 OA
ATOM      7  O   UNL     1      16.019   7.271  23.941  1.00  0.00    -0.550 OA
ENDBRANCH   4   5
ENDBRANCH   3   4
ENDBRANCH   2   3
ENDBRANCH   1   2
BRANCH   1   8
ATOM      8  C   UNL     1      11.316   6.390  27.184  1.00  0.00     0.000 C 
BRANCH   8   9
ATOM      9  C   UNL     1      10.202   5.337  27.090  1.00  0.00    -0.000 C 
BRANCH   9  10
ATOM     10  C   UNL     1       9.067   5.580  28.099  1.00  0.00    -0.000 C 
BRANCH  10  11
ATOM     11  C   UNL     1       9.353   4.951  29.473  1.00  0.00    -0.000 C 
BRANCH  11  12
ATOM     12  C   UNL     1       9.553   6.005  30.573  1.00  0.00    -0.003 C 
ATOM     13  C   UNL     1       8.849   7.327  30.263  1.00  0.00     0.004 C 
ENDBRANCH  11  12
ENDBRANCH  10  11
ENDBRANCH   9  10
ENDBRANCH   8   9
ENDBRANCH   1   8
TORSDOF 9
ENDMDL
MODEL 8
REMARK VINA RESULT:    -3.788      2.027      2.378
REMARK INTER + INTRA:          -6.842
REMARK INTER:                  -6.073
REMARK INTRA:                  -0.770
REMARK UNBOUND:                -1.061
REMARK SMILES CCCCCCCCCCC(=O)[O-]
REMARK SMILES IDX 7 1 8 2 9 3 10 4 11 5 12 6 13 7 6 8 5 9 4 10 3 11 2 12 1 13
REMARK H PARENT
REMARK Flexibility Score: inf
ROOT
ATOM      1  C   UNL     1      11.003   7.076  26.758  1.00  0.00     0.000 C 
ENDROOT
BRANCH   1   2
ATOM      2  C   UNL     1      12.437   6.569  26.940  1.00  0.00     0.000 C 
BRANCH   2   3
ATOM      3  C   UNL     1      13.124   6.357  25.582  1.00  0.00     0.006 C 
BRANCH   3   4
ATOM      4  C   UNL     1      13.623   7.674  24.972  1.00  0.00     0.053 C 
BRANCH   4   5
ATOM      5  C   UNL     1      15.117   7.772  25.008  1.00  0.00     0.041 C 
ATOM      6  O   UNL     1      15.794   7.511  23.979  1.00  0.00    -0.550 OA
ATOM      7  O   UNL     1      15.763   8.122  26.186  1.00  0.00    -0.550 OA
ENDBRANCH   4   5
ENDBRANCH   3   4
ENDBRANCH   2   3
ENDBRANCH   1   2
BRANCH   1   8
ATOM      8  C   UNL     1      10.673   8.175  27.775  1.00  0.00     0.000 C 
BRANCH   8   9
ATOM      9  C   UNL     1       9.419   7.815  28.587  1.00  0.00    -0.000 C 
BRANCH   9  10
ATOM     10  C   UNL     1       8.959   6.366  28.360  1.00  0.00    -0.000 C 
BRANCH  10  11
ATOM     11  C   UNL     1       9.291   5.447  29.548  1.00  0.00    -0.000 C 
BRANCH  11  12
ATOM     12  C   UNL     1       9.667   4.026  29.104  1.00  0.00    -0.003 C 
ATOM     13  C   UNL     1       9.540   3.821  27.594  1.00  0.00     0.004 C 
ENDBRANCH  11  12
ENDBRANCH  10  11
ENDBRANCH   9  10
ENDBRANCH   8   9
ENDBRANCH   1   8
TORSDOF 9
ENDMDL
MODEL 9
REMARK VINA RESULT:    -3.757      3.019      6.042
REMARK INTER + INTRA:          -6.795
REMARK INTER:                  -6.241
REMARK INTRA:                  -0.554
REMARK UNBOUND:                -1.061
REMARK SMILES CCCCCCCCCCC(=O)[O-]
REMARK SMILES IDX 7 1 8 2 9 3 10 4 11 5 12 6 13 7 6 8 5 9 4 10 3 11 2 12 1 13
REMARK H PARENT
REMARK Flexibility Score: inf
ROOT
ATOM      1  C   UNL     1      12.907   5.771  27.605  1.00  0.00     0.000 C 
ENDROOT
BRANCH   1   2
ATOM      2  C   UNL     1      11.569   6.083  26.926  1.00  0.00     0.000 C 
BRANCH   2   3
ATOM      3  C   UNL     1      10.490   6.426  27.965  1.00  0.00     0.006 C 
BRANCH   3   4
ATOM      4  C   UNL     1       9.313   5.443  27.928  1.00  0.00     0.053 C 
BRANCH   4   5
ATOM      5  C   UNL     1       9.739   4.053  28.292  1.00  0.00     0.041 C 
ATOM      6  O   UNL     1      10.106   3.791  29.468  1.00  0.00    -0.550 OA
ATOM      7  O   UNL     1       9.759   3.056  27.326  1.00  0.00    -0.550 OA
ENDBRANCH   4   5
ENDBRANCH   3   4
ENDBRANCH   2   3
ENDBRANCH   1   2
BRANCH   1   8
ATOM      8  C   UNL     1      14.043   6.599  26.992  1.00  0.00     0.000 C 
BRANCH   8   9
ATOM      9  C   UNL     1      13.839   6.779  25.480  1.00  0.00    -0.000 C 
BRANCH   9  10
ATOM     10  C   UNL     1      14.512   8.049  24.937  1.00  0.00    -0.000 C 
BRANCH  10  11
ATOM     11  C   UNL     1      15.701   7.739  24.012  1.00  0.00    -0.000 C 
BRANCH  11  12
ATOM     12  C   UNL     1      17.045   8.170  24.618  1.00  0.00    -0.003 C 
ATOM     13  C   UNL     1      16.890   8.884  25.961  1.00  0.00     0.004 C 
ENDBRANCH  11  12
ENDBRANCH  10  11
ENDBRANCH   9  10
ENDBRANCH   8   9
ENDBRANCH   1   8
TORSDOF 9
ENDMDL
