MODEL 1
REMARK VINA RESULT:    -5.482      0.000      0.000
REMARK INTER + INTRA:         -10.077
REMARK INTER:                  -9.328
REMARK INTRA:                  -0.750
REMARK UNBOUND:                -0.750
REMARK SMILES CCCCCCCCCCCCCC(=O)[O-]
REMARK SMILES IDX 8 1 9 2 10 3 11 4 12 5 13 6 14 7 15 8 16 9 7 10 6 11 5 12
REMARK SMILES IDX 4 13 3 14 2 15 1 16
REMARK H PARENT
REMARK Flexibility Score: inf
ROOT
ATOM      1  C   UNL     1       8.739  10.134  39.176  1.00  0.00     0.000 C 
ENDROOT
BRANCH   1   2
ATOM      2  C   UNL     1       9.706  11.061  38.411  1.00  0.00     0.000 C 
BRANCH   2   3
ATOM      3  C   UNL     1       9.936  12.438  39.060  1.00  0.00     0.000 C 
BRANCH   3   4
ATOM      4  C   UNL     1       8.960  12.729  40.208  1.00  0.00     0.000 C 
BRANCH   4   5
ATOM      5  C   UNL     1       8.987  14.217  40.590  1.00  0.00     0.006 C 
BRANCH   5   6
ATOM      6  C   UNL     1       8.952  14.427  42.109  1.00  0.00     0.053 C 
BRANCH   6   7
ATOM      7  C   UNL     1       8.926  15.881  42.468  1.00  0.00     0.041 C 
ATOM      8  O   UNL     1       9.602  16.710  41.803  1.00  0.00    -0.550 OA
ATOM      9  O   UNL     1       8.129  16.326  43.516  1.00  0.00    -0.550 OA
ENDBRANCH   6   7
ENDBRANCH   5   6
ENDBRANCH   4   5
ENDBRANCH   3   4
ENDBRANCH   2   3
ENDBRANCH   1   2
BRANCH   1  10
ATOM     10  C   UNL     1       9.386   8.871  39.778  1.00  0.00     0.000 C 
BRANCH  10  11
ATOM     11  C   UNL     1       8.826   8.438  41.147  1.00  0.00    -0.000 C 
BRANCH  11  12
ATOM     12  C   UNL     1       8.604   9.580  42.157  1.00  0.00    -0.000 C 
BRANCH  12  13
ATOM     13  C   UNL     1       8.609   9.095  43.617  1.00  0.00    -0.000 C 
BRANCH  13  14
ATOM     14  C   UNL     1       9.695   9.775  44.471  1.00  0.00    -0.000 C 
BRANCH  14  15
ATOM     15  C   UNL     1      10.269   8.908  45.606  1.00  0.00    -0.003 C 
ATOM     16  C   UNL     1      11.706   8.454  45.348  1.00  0.00     0.004 C 
ENDBRANCH  14  15
ENDBRANCH  13  14
ENDBRANCH  12  13
ENDBRANCH  11  12
ENDBRANCH  10  11
ENDBRANCH   1  10
TORSDOF 12
ENDMDL
MODEL 2
REMARK VINA RESULT:    -5.476      2.155      2.877
REMARK INTER + INTRA:         -10.067
REMARK INTER:                  -9.100
REMARK INTRA:                  -0.967
REMARK UNBOUND:                -0.750
REMARK SMILES CCCCCCCCCCCCCC(=O)[O-]
REMARK SMILES IDX 8 1 9 2 10 3 11 4 12 5 13 6 14 7 15 8 16 9 7 10 6 11 5 12
REMARK SMILES IDX 4 13 3 14 2 15 1 16
REMARK H PARENT
REMARK Flexibility Score: inf
ROOT
ATOM      1  C   UNL     1       8.876  12.511  41.032  1.00  0.00     0.000 C 
ENDROOT
BRANCH   1   2
ATOM      2  C   UNL     1       9.117  14.004  40.730  1.00  0.00     0.000 C 
BRANCH   2   3
ATOM      3  C   UNL     1      10.005  14.739  41.750  1.00  0.00     0.000 C 
BRANCH   3   4
ATOM      4  C   UNL     1       9.690  16.239  41.847  1.00  0.00     0.000 C 
BRANCH   4   5
ATOM      5  C   UNL     1       8.176  16.488  41.782  1.00  0.00     0.006 C 
BRANCH   5   6
ATOM      6  C   UNL     1       7.503  16.337  43.153  1.00  0.00     0.053 C 
BRANCH   6   7
ATOM      7  C   UNL     1       6.181  15.640  43.050  1.00  0.00     0.041 C 
ATOM      8  O   UNL     1       5.997  14.760  42.168  1.00  0.00    -0.550 OA
ATOM      9  O   UNL     1       5.164  15.939  43.947  1.00  0.00    -0.550 OA
ENDBRANCH   6   7
ENDBRANCH   5   6
ENDBRANCH   4   5
ENDBRANCH   3   4
ENDBRANCH   2   3
ENDBRANCH   1   2
BRANCH   1  10
ATOM     10  C   UNL     1       8.485  12.197  42.490  1.00  0.00     0.000 C 
BRANCH  10  11
ATOM     11  C   UNL     1       7.816  10.825  42.707  1.00  0.00    -0.000 C 
BRANCH  11  12
ATOM     12  C   UNL     1       8.768   9.690  43.128  1.00  0.00    -0.000 C 
BRANCH  12  13
ATOM     13  C   UNL     1       8.250   8.895  44.339  1.00  0.00    -0.000 C 
BRANCH  13  14
ATOM     14  C   UNL     1       9.190   8.978  45.556  1.00  0.00    -0.000 C 
BRANCH  14  15
ATOM     15  C   UNL     1      10.590   9.548  45.260  1.00  0.00    -0.003 C 
ATOM     16  C   UNL     1      11.703   8.512  45.410  1.00  0.00     0.004 C 
ENDBRANCH  14  15
ENDBRANCH  13  14
ENDBRANCH  12  13
ENDBRANCH  11  12
ENDBRANCH  10  11
ENDBRANCH   1  10
TORSDOF 12
ENDMDL
MODEL 3
REMARK VINA RESULT:    -5.453     11.091     12.292
REMARK INTER + INTRA:         -10.028
REMARK INTER:                  -9.187
REMARK INTRA:                  -0.841
REMARK UNBOUND:                -0.750
REMARK SMILES CCCCCCCCCCCCCC(=O)[O-]
REMARK SMILES IDX 8 1 9 2 10 3 11 4 12 5 13 6 14 7 15 8 16 9 7 10 6 11 5 12
REMARK SMILES IDX 4 13 3 14 2 15 1 16
REMARK H PARENT
REMARK Flexibility Score: inf
ROOT
ATOM      1  C   UNL     1      21.136  12.864  43.515  1.00  0.00     0.000 C 
ENDROOT
BRANCH   1   2
ATOM      2  C   UNL     1      20.103  13.958  43.855  1.00  0.00     0.000 C 
BRANCH   2   3
ATOM      3  C   UNL     1      19.507  14.691  42.640  1.00  0.00     0.000 C 
BRANCH   3   4
ATOM      4  C   UNL     1      19.505  16.218  42.803  1.00  0.00     0.000 C 
BRANCH   4   5
ATOM      5  C   UNL     1      20.536  16.871  41.870  1.00  0.00     0.006 C 
BRANCH   5   6
ATOM      6  C   UNL     1      21.932  16.939  42.504  1.00  0.00     0.053 C 
BRANCH   6   7
ATOM      7  C   UNL     1      22.965  16.278  41.644  1.00  0.00     0.041 C 
ATOM      8  O   UNL     1      23.936  16.945  41.196  1.00  0.00    -0.550 OA
ATOM      9  O   UNL     1      22.874  14.921  41.363  1.00  0.00    -0.550 OA
ENDBRANCH   6   7
ENDBRANCH   5   6
ENDBRANCH   4   5
ENDBRANCH   3   4
ENDBRANCH   2   3
ENDBRANCH   1   2
BRANCH   1  10
ATOM     10  C   UNL     1      20.684  11.855  42.441  1.00  0.00     0.000 C 
BRANCH  10  11
ATOM     11  C   UNL     1      21.103  10.394  42.700  1.00  0.00    -0.000 C 
BRANCH  11  12
ATOM     12  C   UNL     1      20.419   9.346  41.803  1.00  0.00    -0.000 C 
BRANCH  12  13
ATOM     13  C   UNL     1      20.973   9.334  40.368  1.00  0.00    -0.000 C 
BRANCH  13  14
ATOM     14  C   UNL     1      19.949   8.829  39.334  1.00  0.00    -0.000 C 
BRANCH  14  15
ATOM     15  C   UNL     1      18.502   9.302  39.566  1.00  0.00    -0.003 C 
ATOM     16  C   UNL     1      17.497   8.152  39.623  1.00  0.00     0.004 C 
ENDBRANCH  14  15
ENDBRANCH  13  14
ENDBRANCH  12  13
ENDBRANCH  11  12
ENDBRANCH  10  11
ENDBRANCH   1  10
TORSDOF 12
ENDMDL
MODEL 4
REMARK VINA RESULT:    -5.307      1.666      2.270
REMARK INTER + INTRA:          -9.780
REMARK INTER:                  -8.944
REMARK INTRA:                  -0.836
REMARK UNBOUND:                -0.750
REMARK SMILES CCCCCCCCCCCCCC(=O)[O-]
REMARK SMILES IDX 8 1 9 2 10 3 11 4 12 5 13 6 14 7 15 8 16 9 7 10 6 11 5 12
REMARK SMILES IDX 4 13 3 14 2 15 1 16
REMARK H PARENT
REMARK Flexibility Score: inf
ROOT
ATOM      1  C   UNL     1       7.650  11.234  42.369  1.00  0.00     0.000 C 
ENDROOT
BRANCH   1   2
ATOM      2  C   UNL     1       8.642  12.402  42.187  1.00  0.00     0.000 C 
BRANCH   2   3
ATOM      3  C   UNL     1       9.062  12.677  40.733  1.00  0.00     0.000 C 
BRANCH   3   4
ATOM      4  C   UNL     1       9.341  14.162  40.461  1.00  0.00     0.000 C 
BRANCH   4   5
ATOM      5  C   UNL     1       9.528  14.936  41.774  1.00  0.00     0.006 C 
BRANCH   5   6
ATOM      6  C   UNL     1       9.135  16.413  41.638  1.00  0.00     0.053 C 
BRANCH   6   7
ATOM      7  C   UNL     1       8.043  16.788  42.593  1.00  0.00     0.041 C 
ATOM      8  O   UNL     1       8.023  16.302  43.754  1.00  0.00    -0.550 OA
ATOM      9  O   UNL     1       7.066  17.700  42.211  1.00  0.00    -0.550 OA
ENDBRANCH   6   7
ENDBRANCH   5   6
ENDBRANCH   4   5
ENDBRANCH   3   4
ENDBRANCH   2   3
ENDBRANCH   1   2
BRANCH   1  10
ATOM     10  C   UNL     1       8.237   9.834  42.109  1.00  0.00     0.000 C 
BRANCH  10  11
ATOM     11  C   UNL     1       7.912   8.778  43.185  1.00  0.00    -0.000 C 
BRANCH  11  12
ATOM     12  C   UNL     1       7.239   9.324  44.458  1.00  0.00    -0.000 C 
BRANCH  12  13
ATOM     13  C   UNL     1       8.209   9.428  45.648  1.00  0.00    -0.000 C 
BRANCH  13  14
ATOM     14  C   UNL     1       9.467   8.557  45.474  1.00  0.00    -0.000 C 
BRANCH  14  15
ATOM     15  C   UNL     1      10.794   9.335  45.399  1.00  0.00    -0.003 C 
ATOM     16  C   UNL     1      12.021   8.426  45.350  1.00  0.00     0.004 C 
ENDBRANCH  14  15
ENDBRANCH  13  14
ENDBRANCH  12  13
ENDBRANCH  11  12
ENDBRANCH  10  11
ENDBRANCH   1  10
TORSDOF 12
ENDMDL
MODEL 5
REMARK VINA RESULT:    -5.275     10.544     12.604
REMARK INTER + INTRA:          -9.725
REMARK INTER:                  -8.525
REMARK INTRA:                  -1.200
REMARK UNBOUND:                -0.750
REMARK SMILES CCCCCCCCCCCCCC(=O)[O-]
REMARK SMILES IDX 8 1 9 2 10 3 11 4 12 5 13 6 14 7 15 8 16 9 7 10 6 11 5 12
REMARK SMILES IDX 4 13 3 14 2 15 1 16
REMARK H PARENT
REMARK Flexibility Score: inf
ROOT
ATOM      1  C   UNL     1      20.250  12.915  42.475  1.00  0.00     0.000 C 
ENDROOT
BRANCH   1   2
ATOM      2  C   UNL     1      20.006  13.945  43.598  1.00  0.00     0.000 C 
BRANCH   2   3
ATOM      3  C   UNL     1      20.235  13.416  45.025  1.00  0.00     0.000 C 
BRANCH   3   4
ATOM      4  C   UNL     1      19.254  12.301  45.415  1.00  0.00     0.000 C 
BRANCH   4   5
ATOM      5  C   UNL     1      19.952  11.225  46.259  1.00  0.00     0.006 C 
BRANCH   5   6
ATOM      6  C   UNL     1      19.998   9.867  45.546  1.00  0.00     0.053 C 
BRANCH   6   7
ATOM      7  C   UNL     1      21.391   9.320  45.481  1.00  0.00     0.041 C 
ATOM      8  O   UNL     1      22.319   9.873  46.128  1.00  0.00    -0.550 OA
ATOM      9  O   UNL     1      21.658   8.181  44.731  1.00  0.00    -0.550 OA
ENDBRANCH   6   7
ENDBRANCH   5   6
ENDBRANCH   4   5
ENDBRANCH   3   4
ENDBRANCH   2   3
ENDBRANCH   1   2
BRANCH   1  10
ATOM     10  C   UNL     1      21.681  12.346  42.413  1.00  0.00     0.000 C 
BRANCH  10  11
ATOM     11  C   UNL     1      21.772  10.808  42.374  1.00  0.00    -0.000 C 
BRANCH  11  12
ATOM     12  C   UNL     1      20.676  10.106  41.551  1.00  0.00    -0.000 C 
BRANCH  12  13
ATOM     13  C   UNL     1      21.208   9.498  40.242  1.00  0.00    -0.000 C 
BRANCH  13  14
ATOM     14  C   UNL     1      20.121   8.759  39.439  1.00  0.00    -0.000 C 
BRANCH  14  15
ATOM     15  C   UNL     1      18.706   9.355  39.556  1.00  0.00    -0.003 C 
ATOM     16  C   UNL     1      17.612   8.292  39.643  1.00  0.00     0.004 C 
ENDBRANCH  14  15
ENDBRANCH  13  14
ENDBRANCH  12  13
ENDBRANCH  11  12
ENDBRANCH  10  11
ENDBRANCH   1  10
TORSDOF 12
ENDMDL
MODEL 6
REMARK VINA RESULT:    -5.239      1.678      1.934
REMARK INTER + INTRA:          -9.664
REMARK INTER:                  -8.702
REMARK INTRA:                  -0.962
REMARK UNBOUND:                -0.750
REMARK SMILES CCCCCCCCCCCCCC(=O)[O-]
REMARK SMILES IDX 8 1 9 2 10 3 11 4 12 5 13 6 14 7 15 8 16 9 7 10 6 11 5 12
REMARK SMILES IDX 4 13 3 14 2 15 1 16
REMARK H PARENT
REMARK Flexibility Score: inf
ROOT
ATOM      1  C   UNL     1       9.352  10.096  39.132  1.00  0.00     0.000 C 
ENDROOT
BRANCH   1   2
ATOM      2  C   UNL     1       8.912  11.418  39.796  1.00  0.00     0.000 C 
BRANCH   2   3
ATOM      3  C   UNL     1       9.695  12.663  39.344  1.00  0.00     0.000 C 
BRANCH   3   4
ATOM      4  C   UNL     1       9.498  13.866  40.279  1.00  0.00     0.000 C 
BRANCH   4   5
ATOM      5  C   UNL     1       9.143  13.405  41.700  1.00  0.00     0.006 C 
BRANCH   5   6
ATOM      6  C   UNL     1       8.081  14.300  42.353  1.00  0.00     0.053 C 
BRANCH   6   7
ATOM      7  C   UNL     1       6.711  13.706  42.245  1.00  0.00     0.041 C 
ATOM      8  O   UNL     1       6.568  12.459  42.141  1.00  0.00    -0.550 OA
ATOM      9  O   UNL     1       5.590  14.526  42.293  1.00  0.00    -0.550 OA
ENDBRANCH   6   7
ENDBRANCH   5   6
ENDBRANCH   4   5
ENDBRANCH   3   4
ENDBRANCH   2   3
ENDBRANCH   1   2
BRANCH   1  10
ATOM     10  C   UNL     1       9.189   8.841  40.011  1.00  0.00     0.000 C 
BRANCH  10  11
ATOM     11  C   UNL     1       8.292   9.023  41.252  1.00  0.00    -0.000 C 
BRANCH  11  12
ATOM     12  C   UNL     1       8.929   8.605  42.590  1.00  0.00    -0.000 C 
BRANCH  12  13
ATOM     13  C   UNL     1       8.904   9.729  43.640  1.00  0.00    -0.000 C 
BRANCH  13  14
ATOM     14  C   UNL     1       9.373   9.260  45.030  1.00  0.00    -0.000 C 
BRANCH  14  15
ATOM     15  C   UNL     1      10.853   9.542  45.347  1.00  0.00    -0.003 C 
ATOM     16  C   UNL     1      11.722   8.286  45.324  1.00  0.00     0.004 C 
ENDBRANCH  14  15
ENDBRANCH  13  14
ENDBRANCH  12  13
ENDBRANCH  11  12
ENDBRANCH  10  11
ENDBRANCH   1  10
TORSDOF 12
ENDMDL
MODEL 7
REMARK VINA RESULT:    -5.215      1.369      2.152
REMARK INTER + INTRA:          -9.623
REMARK INTER:                  -8.488
REMARK INTRA:                  -1.135
REMARK UNBOUND:                -0.750
REMARK SMILES CCCCCCCCCCCCCC(=O)[O-]
REMARK SMILES IDX 8 1 9 2 10 3 11 4 12 5 13 6 14 7 15 8 16 9 7 10 6 11 5 12
REMARK SMILES IDX 4 13 3 14 2 15 1 16
REMARK H PARENT
REMARK Flexibility Score: inf
ROOT
ATOM      1  C   UNL     1       8.975   8.946  40.820  1.00  0.00     0.000 C 
ENDROOT
BRANCH   1   2
ATOM      2  C   UNL     1       9.261   9.064  39.309  1.00  0.00     0.000 C 
BRANCH   2   3
ATOM      3  C   UNL     1       8.913  10.427  38.686  1.00  0.00     0.000 C 
BRANCH   3   4
ATOM      4  C   UNL     1      10.081  11.424  38.736  1.00  0.00     0.000 C 
BRANCH   4   5
ATOM      5  C   UNL     1       9.573  12.853  38.977  1.00  0.00     0.006 C 
BRANCH   5   6
ATOM      6  C   UNL     1       9.661  13.260  40.454  1.00  0.00     0.053 C 
BRANCH   6   7
ATOM      7  C   UNL     1       8.470  14.063  40.881  1.00  0.00     0.041 C 
ATOM      8  O   UNL     1       8.606  15.271  41.208  1.00  0.00    -0.550 OA
ATOM      9  O   UNL     1       7.206  13.486  40.887  1.00  0.00    -0.550 OA
ENDBRANCH   6   7
ENDBRANCH   5   6
ENDBRANCH   4   5
ENDBRANCH   3   4
ENDBRANCH   2   3
ENDBRANCH   1   2
BRANCH   1  10
ATOM     10  C   UNL     1       7.654   9.589  41.285  1.00  0.00     0.000 C 
BRANCH  10  11
ATOM     11  C   UNL     1       7.784  10.568  42.468  1.00  0.00    -0.000 C 
BRANCH  11  12
ATOM     12  C   UNL     1       8.894  10.231  43.481  1.00  0.00    -0.000 C 
BRANCH  12  13
ATOM     13  C   UNL     1       8.352   9.582  44.767  1.00  0.00    -0.000 C 
BRANCH  13  14
ATOM     14  C   UNL     1       9.441   8.844  45.569  1.00  0.00    -0.000 C 
BRANCH  14  15
ATOM     15  C   UNL     1      10.859   9.428  45.433  1.00  0.00    -0.003 C 
ATOM     16  C   UNL     1      11.933   8.358  45.240  1.00  0.00     0.004 C 
ENDBRANCH  14  15
ENDBRANCH  13  14
ENDBRANCH  12  13
ENDBRANCH  11  12
ENDBRANCH  10  11
ENDBRANCH   1  10
TORSDOF 12
ENDMDL
MODEL 8
REMARK VINA RESULT:    -5.115      3.100      6.597
REMARK INTER + INTRA:          -9.454
REMARK INTER:                  -8.447
REMARK INTRA:                  -1.007
REMARK UNBOUND:                -0.750
REMARK SMILES CCCCCCCCCCCCCC(=O)[O-]
REMARK SMILES IDX 8 1 9 2 10 3 11 4 12 5 13 6 14 7 15 8 16 9 7 10 6 11 5 12
REMARK SMILES IDX 4 13 3 14 2 15 1 16
REMARK H PARENT
REMARK Flexibility Score: inf
ROOT
ATOM      1  C   UNL     1       8.315  12.418  42.355  1.00  0.00     0.000 C 
ENDROOT
BRANCH   1   2
ATOM      2  C   UNL     1       7.676  11.059  42.712  1.00  0.00     0.000 C 
BRANCH   2   3
ATOM      3  C   UNL     1       8.306   9.841  42.014  1.00  0.00     0.000 C 
BRANCH   3   4
ATOM      4  C   UNL     1       8.158   8.545  42.823  1.00  0.00     0.000 C 
BRANCH   4   5
ATOM      5  C   UNL     1       9.493   8.144  43.468  1.00  0.00     0.006 C 
BRANCH   5   6
ATOM      6  C   UNL     1       9.531   8.459  44.969  1.00  0.00     0.053 C 
BRANCH   6   7
ATOM      7  C   UNL     1      10.768   9.214  45.347  1.00  0.00     0.041 C 
ATOM      8  O   UNL     1      10.754  10.473  45.387  1.00  0.00    -0.550 OA
ATOM      9  O   UNL     1      11.927   8.528  45.688  1.00  0.00    -0.550 OA
ENDBRANCH   6   7
ENDBRANCH   5   6
ENDBRANCH   4   5
ENDBRANCH   3   4
ENDBRANCH   2   3
ENDBRANCH   1   2
BRANCH   1  10
ATOM     10  C   UNL     1       8.617  12.621  40.858  1.00  0.00     0.000 C 
BRANCH  10  11
ATOM     11  C   UNL     1       9.418  13.894  40.520  1.00  0.00    -0.000 C 
BRANCH  11  12
ATOM     12  C   UNL     1       9.970  14.665  41.733  1.00  0.00    -0.000 C 
BRANCH  12  13
ATOM     13  C   UNL     1       9.560  16.147  41.737  1.00  0.00    -0.000 C 
BRANCH  13  14
ATOM     14  C   UNL     1       8.042  16.349  41.903  1.00  0.00    -0.000 C 
BRANCH  14  15
ATOM     15  C   UNL     1       7.481  15.961  43.284  1.00  0.00    -0.003 C 
ATOM     16  C   UNL     1       5.955  15.885  43.312  1.00  0.00     0.004 C 
ENDBRANCH  14  15
ENDBRANCH  13  14
ENDBRANCH  12  13
ENDBRANCH  11  12
ENDBRANCH  10  11
ENDBRANCH   1  10
TORSDOF 12
ENDMDL
MODEL 9
REMARK VINA RESULT:    -5.097      2.940      5.975
REMARK INTER + INTRA:          -9.423
REMARK INTER:                  -8.638
REMARK INTRA:                  -0.785
REMARK UNBOUND:                -0.750
REMARK SMILES CCCCCCCCCCCCCC(=O)[O-]
REMARK SMILES IDX 8 1 9 2 10 3 11 4 12 5 13 6 14 7 15 8 16 9 7 10 6 11 5 12
REMARK SMILES IDX 4 13 3 14 2 15 1 16
REMARK H PARENT
REMARK Flexibility Score: inf
ROOT
ATOM      1  C   UNL     1       9.680   9.164  39.389  1.00  0.00     0.000 C 
ENDROOT
BRANCH   1   2
ATOM      2  C   UNL     1       8.654   8.280  40.128  1.00  0.00     0.000 C 
BRANCH   2   3
ATOM      3  C   UNL     1       8.906   8.114  41.637  1.00  0.00     0.000 C 
BRANCH   3   4
ATOM      4  C   UNL     1       8.456   9.333  42.456  1.00  0.00     0.000 C 
BRANCH   4   5
ATOM      5  C   UNL     1       8.681   9.100  43.957  1.00  0.00     0.006 C 
BRANCH   5   6
ATOM      6  C   UNL     1       9.958   8.296  44.235  1.00  0.00     0.053 C 
BRANCH   6   7
ATOM      7  C   UNL     1      10.899   9.040  45.132  1.00  0.00     0.041 C 
ATOM      8  O   UNL     1      10.676  10.245  45.424  1.00  0.00    -0.550 OA
ATOM      9  O   UNL     1      12.004   8.394  45.673  1.00  0.00    -0.550 OA
ENDBRANCH   6   7
ENDBRANCH   5   6
ENDBRANCH   4   5
ENDBRANCH   3   4
ENDBRANCH   2   3
ENDBRANCH   1   2
BRANCH   1  10
ATOM     10  C   UNL     1       9.091  10.420  38.717  1.00  0.00     0.000 C 
BRANCH  10  11
ATOM     11  C   UNL     1       9.661  11.760  39.224  1.00  0.00    -0.000 C 
BRANCH  11  12
ATOM     12  C   UNL     1       8.936  12.363  40.442  1.00  0.00    -0.000 C 
BRANCH  12  13
ATOM     13  C   UNL     1       8.967  13.901  40.454  1.00  0.00    -0.000 C 
BRANCH  13  14
ATOM     14  C   UNL     1       9.803  14.474  41.614  1.00  0.00    -0.000 C 
BRANCH  14  15
ATOM     15  C   UNL     1       9.646  15.989  41.844  1.00  0.00    -0.003 C 
ATOM     16  C   UNL     1       8.481  16.337  42.770  1.00  0.00     0.004 C 
ENDBRANCH  14  15
ENDBRANCH  13  14
ENDBRANCH  12  13
ENDBRANCH  11  12
ENDBRANCH  10  11
ENDBRANCH   1  10
TORSDOF 12
ENDMDL
