MODEL 1
REMARK VINA RESULT:    -4.639      0.000      0.000
REMARK INTER + INTRA:          -7.530
REMARK INTER:                  -7.080
REMARK INTRA:                  -0.450
REMARK UNBOUND:                -0.450
REMARK SMILES O=C([O-])CCCCCCCCC(=O)[O-]
REMARK SMILES IDX 7 1 6 2 5 3 4 4 2 5 1 6 3 7 8 8 9 9 10 10 11 11 12 12 13 13
REMARK SMILES IDX 14 14
REMARK H PARENT
REMARK Flexibility Score: inf
ROOT
ATOM      1  C   UNL     1       4.364 -37.012  20.262  1.00  0.00     0.000 C 
ENDROOT
BRANCH   1   2
ATOM      2  C   UNL     1       4.870 -35.566  20.410  1.00  0.00     0.000 C 
BRANCH   2   3
ATOM      3  C   UNL     1       6.125 -35.469  21.292  1.00  0.00     0.006 C 
BRANCH   3   4
ATOM      4  C   UNL     1       6.015 -36.306  22.573  1.00  0.00     0.053 C 
BRANCH   4   5
ATOM      5  C   UNL     1       5.714 -35.427  23.746  1.00  0.00     0.041 C 
ATOM      6  O   UNL     1       5.387 -35.934  24.851  1.00  0.00    -0.550 OA
ATOM      7  O   UNL     1       5.841 -34.049  23.632  1.00  0.00    -0.550 OA
ENDBRANCH   4   5
ENDBRANCH   3   4
ENDBRANCH   2   3
ENDBRANCH   1   2
BRANCH   1   8
ATOM      8  C   UNL     1       3.936 -37.353  18.823  1.00  0.00     0.000 C 
BRANCH   8   9
ATOM      9  C   UNL     1       2.416 -37.460  18.600  1.00  0.00     0.000 C 
BRANCH   9  10
ATOM     10  C   UNL     1       1.983 -37.014  17.196  1.00  0.00     0.006 C 
BRANCH  10  11
ATOM     11  C   UNL     1       3.135 -36.321  16.461  1.00  0.00     0.053 C 
BRANCH  11  12
ATOM     12  C   UNL     1       3.317 -36.912  15.098  1.00  0.00     0.041 C 
ATOM     13  O   UNL     1       3.027 -36.241  14.073  1.00  0.00    -0.550 OA
ATOM     14  O   UNL     1       3.852 -38.186  14.958  1.00  0.00    -0.550 OA
ENDBRANCH  11  12
ENDBRANCH  10  11
ENDBRANCH   9  10
ENDBRANCH   8   9
ENDBRANCH   1   8
TORSDOF 9
ENDMDL
MODEL 2
REMARK VINA RESULT:    -4.563      0.691      7.432
REMARK INTER + INTRA:          -7.414
REMARK INTER:                  -6.988
REMARK INTRA:                  -0.426
REMARK UNBOUND:                -0.450
REMARK SMILES O=C([O-])CCCCCCCCC(=O)[O-]
REMARK SMILES IDX 7 1 6 2 5 3 4 4 2 5 1 6 3 7 8 8 9 9 10 10 11 11 12 12 13 13
REMARK SMILES IDX 14 14
REMARK H PARENT
REMARK Flexibility Score: inf
ROOT
ATOM      1  C   UNL     1       3.004 -37.217  19.921  1.00  0.00     0.000 C 
ENDROOT
BRANCH   1   2
ATOM      2  C   UNL     1       2.334 -37.473  18.560  1.00  0.00     0.000 C 
BRANCH   2   3
ATOM      3  C   UNL     1       3.343 -37.488  17.400  1.00  0.00     0.006 C 
BRANCH   3   4
ATOM      4  C   UNL     1       3.132 -36.328  16.417  1.00  0.00     0.053 C 
BRANCH   4   5
ATOM      5  C   UNL     1       3.133 -36.833  15.009  1.00  0.00     0.041 C 
ATOM      6  O   UNL     1       3.967 -37.704  14.648  1.00  0.00    -0.550 OA
ATOM      7  O   UNL     1       2.180 -36.377  14.107  1.00  0.00    -0.550 OA
ENDBRANCH   4   5
ENDBRANCH   3   4
ENDBRANCH   2   3
ENDBRANCH   1   2
BRANCH   1   8
ATOM      8  C   UNL     1       4.532 -37.058  19.817  1.00  0.00     0.000 C 
BRANCH   8   9
ATOM      9  C   UNL     1       5.050 -35.613  19.940  1.00  0.00     0.000 C 
BRANCH   9  10
ATOM     10  C   UNL     1       6.068 -35.436  21.076  1.00  0.00     0.006 C 
BRANCH  10  11
ATOM     11  C   UNL     1       5.754 -36.376  22.245  1.00  0.00     0.053 C 
BRANCH  11  12
ATOM     12  C   UNL     1       5.837 -35.639  23.545  1.00  0.00     0.041 C 
ATOM     13  O   UNL     1       6.019 -36.270  24.620  1.00  0.00    -0.550 OA
ATOM     14  O   UNL     1       5.762 -34.253  23.565  1.00  0.00    -0.550 OA
ENDBRANCH  11  12
ENDBRANCH  10  11
ENDBRANCH   9  10
ENDBRANCH   8   9
ENDBRANCH   1   8
TORSDOF 9
ENDMDL
MODEL 3
REMARK VINA RESULT:    -3.362      2.087      7.274
REMARK INTER + INTRA:          -5.581
REMARK INTER:                  -5.192
REMARK INTRA:                  -0.389
REMARK UNBOUND:                -0.450
REMARK SMILES O=C([O-])CCCCCCCCC(=O)[O-]
REMARK SMILES IDX 7 1 6 2 5 3 4 4 2 5 1 6 3 7 8 8 9 9 10 10 11 11 12 12 13 13
REMARK SMILES IDX 14 14
REMARK H PARENT
REMARK Flexibility Score: inf
ROOT
ATOM      1  C   UNL     1       4.567 -35.498  20.467  1.00  0.00     0.000 C 
ENDROOT
BRANCH   1   2
ATOM      2  C   UNL     1       4.805 -35.488  18.946  1.00  0.00     0.000 C 
BRANCH   2   3
ATOM      3  C   UNL     1       4.066 -36.629  18.228  1.00  0.00     0.006 C 
BRANCH   3   4
ATOM      4  C   UNL     1       3.009 -37.300  19.114  1.00  0.00     0.053 C 
BRANCH   4   5
ATOM      5  C   UNL     1       1.719 -37.443  18.369  1.00  0.00     0.041 C 
ATOM      6  O   UNL     1       0.697 -37.890  18.952  1.00  0.00    -0.550 OA
ATOM      7  O   UNL     1       1.634 -37.038  17.043  1.00  0.00    -0.550 OA
ENDBRANCH   4   5
ENDBRANCH   3   4
ENDBRANCH   2   3
ENDBRANCH   1   2
BRANCH   1   8
ATOM      8  C   UNL     1       5.869 -35.641  21.277  1.00  0.00     0.000 C 
BRANCH   8   9
ATOM      9  C   UNL     1       6.108 -34.544  22.330  1.00  0.00     0.000 C 
BRANCH   9  10
ATOM     10  C   UNL     1       5.221 -34.703  23.574  1.00  0.00     0.006 C 
BRANCH  10  11
ATOM     11  C   UNL     1       6.019 -35.281  24.747  1.00  0.00     0.053 C 
BRANCH  11  12
ATOM     12  C   UNL     1       5.667 -36.719  24.962  1.00  0.00     0.041 C 
ATOM     13  O   UNL     1       5.080 -37.076  26.017  1.00  0.00    -0.550 OA
ATOM     14  O   UNL     1       5.944 -37.658  23.977  1.00  0.00    -0.550 OA
ENDBRANCH  11  12
ENDBRANCH  10  11
ENDBRANCH   9  10
ENDBRANCH   8   9
ENDBRANCH   1   8
TORSDOF 9
ENDMDL
MODEL 4
REMARK VINA RESULT:    -3.359      1.799      2.866
REMARK INTER + INTRA:          -5.576
REMARK INTER:                  -5.135
REMARK INTRA:                  -0.441
REMARK UNBOUND:                -0.450
REMARK SMILES O=C([O-])CCCCCCCCC(=O)[O-]
REMARK SMILES IDX 7 1 6 2 5 3 4 4 2 5 1 6 3 7 8 8 9 9 10 10 11 11 12 12 13 13
REMARK SMILES IDX 14 14
REMARK H PARENT
REMARK Flexibility Score: inf
ROOT
ATOM      1  C   UNL     1       1.790 -37.862  18.695  1.00  0.00     0.000 C 
ENDROOT
BRANCH   1   2
ATOM      2  C   UNL     1       2.774 -37.630  19.855  1.00  0.00     0.000 C 
BRANCH   2   3
ATOM      3  C   UNL     1       4.230 -37.505  19.375  1.00  0.00     0.006 C 
BRANCH   3   4
ATOM      4  C   UNL     1       5.213 -37.256  20.526  1.00  0.00     0.053 C 
BRANCH   4   5
ATOM      5  C   UNL     1       5.656 -35.827  20.531  1.00  0.00     0.041 C 
ATOM      6  O   UNL     1       6.104 -35.307  21.587  1.00  0.00    -0.550 OA
ATOM      7  O   UNL     1       5.620 -35.083  19.359  1.00  0.00    -0.550 OA
ENDBRANCH   4   5
ENDBRANCH   3   4
ENDBRANCH   2   3
ENDBRANCH   1   2
BRANCH   1   8
ATOM      8  C   UNL     1       2.431 -37.653  17.311  1.00  0.00     0.000 C 
BRANCH   8   9
ATOM      9  C   UNL     1       2.122 -36.301  16.644  1.00  0.00     0.000 C 
BRANCH   9  10
ATOM     10  C   UNL     1       2.752 -36.162  15.251  1.00  0.00     0.006 C 
BRANCH  10  11
ATOM     11  C   UNL     1       2.793 -37.513  14.529  1.00  0.00     0.053 C 
BRANCH  11  12
ATOM     12  C   UNL     1       4.198 -37.863  14.153  1.00  0.00     0.041 C 
ATOM     13  O   UNL     1       4.543 -39.070  14.045  1.00  0.00    -0.550 OA
ATOM     14  O   UNL     1       5.115 -36.858  13.875  1.00  0.00    -0.550 OA
ENDBRANCH  11  12
ENDBRANCH  10  11
ENDBRANCH   9  10
ENDBRANCH   8   9
ENDBRANCH   1   8
TORSDOF 9
ENDMDL
MODEL 5
REMARK VINA RESULT:    -3.052      2.185      6.921
REMARK INTER + INTRA:          -5.108
REMARK INTER:                  -4.687
REMARK INTRA:                  -0.421
REMARK UNBOUND:                -0.450
REMARK SMILES O=C([O-])CCCCCCCCC(=O)[O-]
REMARK SMILES IDX 7 1 6 2 5 3 4 4 2 5 1 6 3 7 8 8 9 9 10 10 11 11 12 12 13 13
REMARK SMILES IDX 14 14
REMARK H PARENT
REMARK Flexibility Score: inf
ROOT
ATOM      1  C   UNL     1       4.134 -35.746  19.354  1.00  0.00     0.000 C 
ENDROOT
BRANCH   1   2
ATOM      2  C   UNL     1       3.930 -37.038  18.544  1.00  0.00     0.000 C 
BRANCH   2   3
ATOM      3  C   UNL     1       2.888 -36.873  17.426  1.00  0.00     0.006 C 
BRANCH   3   4
ATOM      4  C   UNL     1       3.428 -36.085  16.225  1.00  0.00     0.053 C 
BRANCH   4   5
ATOM      5  C   UNL     1       3.178 -36.835  14.955  1.00  0.00     0.041 C 
ATOM      6  O   UNL     1       2.239 -36.491  14.191  1.00  0.00    -0.550 OA
ATOM      7  O   UNL     1       4.013 -37.884  14.591  1.00  0.00    -0.550 OA
ENDBRANCH   4   5
ENDBRANCH   3   4
ENDBRANCH   2   3
ENDBRANCH   1   2
BRANCH   1   8
ATOM      8  C   UNL     1       5.619 -35.385  19.545  1.00  0.00     0.000 C 
BRANCH   8   9
ATOM      9  C   UNL     1       6.111 -35.388  21.004  1.00  0.00     0.000 C 
BRANCH   9  10
ATOM     10  C   UNL     1       5.254 -36.268  21.924  1.00  0.00     0.006 C 
BRANCH  10  11
ATOM     11  C   UNL     1       6.059 -37.462  22.448  1.00  0.00     0.053 C 
BRANCH  11  12
ATOM     12  C   UNL     1       5.688 -38.709  21.710  1.00  0.00     0.041 C 
ATOM     13  O   UNL     1       5.800 -38.761  20.456  1.00  0.00    -0.550 OA
ATOM     14  O   UNL     1       5.262 -39.831  22.409  1.00  0.00    -0.550 OA
ENDBRANCH  11  12
ENDBRANCH  10  11
ENDBRANCH   9  10
ENDBRANCH   8   9
ENDBRANCH   1   8
TORSDOF 9
ENDMDL
MODEL 6
REMARK VINA RESULT:    -2.897      3.086      6.001
REMARK INTER + INTRA:          -4.871
REMARK INTER:                  -4.292
REMARK INTRA:                  -0.579
REMARK UNBOUND:                -0.450
REMARK SMILES O=C([O-])CCCCCCCCC(=O)[O-]
REMARK SMILES IDX 7 1 6 2 5 3 4 4 2 5 1 6 3 7 8 8 9 9 10 10 11 11 12 12 13 13
REMARK SMILES IDX 14 14
REMARK H PARENT
REMARK Flexibility Score: inf
ROOT
ATOM      1  C   UNL     1       5.739 -34.830  19.004  1.00  0.00     0.000 C 
ENDROOT
BRANCH   1   2
ATOM      2  C   UNL     1       4.605 -34.588  17.992  1.00  0.00     0.000 C 
BRANCH   2   3
ATOM      3  C   UNL     1       4.278 -35.841  17.164  1.00  0.00     0.006 C 
BRANCH   3   4
ATOM      4  C   UNL     1       2.972 -35.702  16.370  1.00  0.00     0.053 C 
BRANCH   4   5
ATOM      5  C   UNL     1       2.917 -36.720  15.276  1.00  0.00     0.041 C 
ATOM      6  O   UNL     1       2.322 -36.459  14.197  1.00  0.00    -0.550 OA
ATOM      7  O   UNL     1       3.563 -37.940  15.427  1.00  0.00    -0.550 OA
ENDBRANCH   4   5
ENDBRANCH   3   4
ENDBRANCH   2   3
ENDBRANCH   1   2
BRANCH   1   8
ATOM      8  C   UNL     1       5.247 -35.471  20.315  1.00  0.00     0.000 C 
BRANCH   8   9
ATOM      9  C   UNL     1       5.408 -37.000  20.396  1.00  0.00     0.000 C 
BRANCH   9  10
ATOM     10  C   UNL     1       4.177 -37.761  19.883  1.00  0.00     0.006 C 
BRANCH  10  11
ATOM     11  C   UNL     1       2.883 -37.040  20.277  1.00  0.00     0.053 C 
BRANCH  11  12
ATOM     12  C   UNL     1       1.745 -37.503  19.423  1.00  0.00     0.041 C 
ATOM     13  O   UNL     1       1.969 -38.137  18.358  1.00  0.00    -0.550 OA
ATOM     14  O   UNL     1       0.436 -37.278  19.827  1.00  0.00    -0.550 OA
ENDBRANCH  11  12
ENDBRANCH  10  11
ENDBRANCH   9  10
ENDBRANCH   8   9
ENDBRANCH   1   8
TORSDOF 9
ENDMDL
MODEL 7
REMARK VINA RESULT:    -2.750      2.951      3.937
REMARK INTER + INTRA:          -4.646
REMARK INTER:                  -4.004
REMARK INTRA:                  -0.642
REMARK UNBOUND:                -0.450
REMARK SMILES O=C([O-])CCCCCCCCC(=O)[O-]
REMARK SMILES IDX 7 1 6 2 5 3 4 4 2 5 1 6 3 7 8 8 9 9 10 10 11 11 12 12 13 13
REMARK SMILES IDX 14 14
REMARK H PARENT
REMARK Flexibility Score: inf
ROOT
ATOM      1  C   UNL     1       5.464 -35.491  19.735  1.00  0.00     0.000 C 
ENDROOT
BRANCH   1   2
ATOM      2  C   UNL     1       4.936 -36.853  20.217  1.00  0.00     0.000 C 
BRANCH   2   3
ATOM      3  C   UNL     1       3.413 -36.855  20.423  1.00  0.00     0.006 C 
BRANCH   3   4
ATOM      4  C   UNL     1       2.699 -37.895  19.549  1.00  0.00     0.053 C 
BRANCH   4   5
ATOM      5  C   UNL     1       1.229 -37.620  19.509  1.00  0.00     0.041 C 
ATOM      6  O   UNL     1       0.663 -37.054  20.481  1.00  0.00    -0.550 OA
ATOM      7  O   UNL     1       0.491 -37.944  18.378  1.00  0.00    -0.550 OA
ENDBRANCH   4   5
ENDBRANCH   3   4
ENDBRANCH   2   3
ENDBRANCH   1   2
BRANCH   1   8
ATOM      8  C   UNL     1       4.592 -34.866  18.630  1.00  0.00     0.000 C 
BRANCH   8   9
ATOM      9  C   UNL     1       4.612 -35.609  17.281  1.00  0.00     0.000 C 
BRANCH   9  10
ATOM     10  C   UNL     1       3.207 -35.910  16.741  1.00  0.00     0.006 C 
BRANCH  10  11
ATOM     11  C   UNL     1       3.124 -37.338  16.193  1.00  0.00     0.053 C 
BRANCH  11  12
ATOM     12  C   UNL     1       3.523 -37.370  14.751  1.00  0.00     0.041 C 
ATOM     13  O   UNL     1       3.204 -36.423  13.985  1.00  0.00    -0.550 OA
ATOM     14  O   UNL     1       4.287 -38.422  14.264  1.00  0.00    -0.550 OA
ENDBRANCH  11  12
ENDBRANCH  10  11
ENDBRANCH   9  10
ENDBRANCH   8   9
ENDBRANCH   1   8
TORSDOF 9
ENDMDL
