MODEL 1
REMARK VINA RESULT:    -3.302      0.000      0.000
REMARK INTER + INTRA:          -4.180
REMARK INTER:                  -4.075
REMARK INTRA:                  -0.105
REMARK UNBOUND:                -0.105
REMARK SMILES CCCCCC(=O)[O-]
REMARK SMILES IDX 4 1 5 2 6 3 7 4 8 5 3 6 2 7 1 8
REMARK H PARENT
REMARK Flexibility Score: inf
ROOT
ATOM      1  C   UNL     1     -35.208 -52.595  28.569  1.00  0.00     0.006 C 
ENDROOT
BRANCH   1   2
ATOM      2  C   UNL     1     -34.972 -53.684  29.619  1.00  0.00     0.053 C 
BRANCH   2   3
ATOM      3  C   UNL     1     -35.873 -54.852  29.376  1.00  0.00     0.041 C 
ATOM      4  O   UNL     1     -37.115 -54.740  29.544  1.00  0.00    -0.550 OA
ATOM      5  O   UNL     1     -35.336 -56.080  29.010  1.00  0.00    -0.550 OA
ENDBRANCH   2   3
ENDBRANCH   1   2
BRANCH   1   6
ATOM      6  C   UNL     1     -34.794 -53.079  27.171  1.00  0.00     0.000 C 
BRANCH   6   7
ATOM      7  C   UNL     1     -33.986 -52.028  26.397  1.00  0.00    -0.003 C 
ATOM      8  C   UNL     1     -34.280 -52.042  24.897  1.00  0.00     0.004 C 
ENDBRANCH   6   7
ENDBRANCH   1   6
TORSDOF 4
ENDMDL
MODEL 2
REMARK VINA RESULT:    -3.301      2.070      4.118
REMARK INTER + INTRA:          -4.178
REMARK INTER:                  -4.079
REMARK INTRA:                  -0.099
REMARK UNBOUND:                -0.105
REMARK SMILES CCCCCC(=O)[O-]
REMARK SMILES IDX 4 1 5 2 6 3 7 4 8 5 3 6 2 7 1 8
REMARK H PARENT
REMARK Flexibility Score: inf
ROOT
ATOM      1  C   UNL     1     -33.299 -54.168  29.334  1.00  0.00     0.006 C 
ENDROOT
BRANCH   1   2
ATOM      2  C   UNL     1     -34.499 -54.127  28.384  1.00  0.00     0.053 C 
BRANCH   2   3
ATOM      3  C   UNL     1     -35.466 -55.219  28.712  1.00  0.00     0.041 C 
ATOM      4  O   UNL     1     -35.144 -56.424  28.537  1.00  0.00    -0.550 OA
ATOM      5  O   UNL     1     -36.742 -54.906  29.164  1.00  0.00    -0.550 OA
ENDBRANCH   2   3
ENDBRANCH   1   2
BRANCH   1   6
ATOM      6  C   UNL     1     -33.754 -54.078  30.798  1.00  0.00     0.000 C 
BRANCH   6   7
ATOM      7  C   UNL     1     -32.957 -53.041  31.602  1.00  0.00    -0.003 C 
ATOM      8  C   UNL     1     -32.947 -53.334  33.102  1.00  0.00     0.004 C 
ENDBRANCH   6   7
ENDBRANCH   1   6
TORSDOF 4
ENDMDL
MODEL 3
REMARK VINA RESULT:    -3.291      0.154      1.155
REMARK INTER + INTRA:          -4.165
REMARK INTER:                  -4.058
REMARK INTRA:                  -0.107
REMARK UNBOUND:                -0.105
REMARK SMILES CCCCCC(=O)[O-]
REMARK SMILES IDX 4 1 5 2 6 3 7 4 8 5 3 6 2 7 1 8
REMARK H PARENT
REMARK Flexibility Score: inf
ROOT
ATOM      1  C   UNL     1     -35.041 -52.662  28.703  1.00  0.00     0.006 C 
ENDROOT
BRANCH   1   2
ATOM      2  C   UNL     1     -34.748 -53.830  29.649  1.00  0.00     0.053 C 
BRANCH   2   3
ATOM      3  C   UNL     1     -35.704 -54.954  29.408  1.00  0.00     0.041 C 
ATOM      4  O   UNL     1     -35.276 -56.090  29.074  1.00  0.00    -0.550 OA
ATOM      5  O   UNL     1     -37.073 -54.734  29.502  1.00  0.00    -0.550 OA
ENDBRANCH   2   3
ENDBRANCH   1   2
BRANCH   1   6
ATOM      6  C   UNL     1     -34.824 -53.073  27.238  1.00  0.00     0.000 C 
BRANCH   6   7
ATOM      7  C   UNL     1     -34.032 -52.025  26.442  1.00  0.00    -0.003 C 
ATOM      8  C   UNL     1     -34.284 -52.112  24.937  1.00  0.00     0.004 C 
ENDBRANCH   6   7
ENDBRANCH   1   6
TORSDOF 4
ENDMDL
MODEL 4
REMARK VINA RESULT:    -3.141      2.439      2.969
REMARK INTER + INTRA:          -3.981
REMARK INTER:                  -3.722
REMARK INTRA:                  -0.259
REMARK UNBOUND:                -0.105
REMARK SMILES CCCCCC(=O)[O-]
REMARK SMILES IDX 4 1 5 2 6 3 7 4 8 5 3 6 2 7 1 8
REMARK H PARENT
REMARK Flexibility Score: inf
ROOT
ATOM      1  C   UNL     1     -33.785 -54.967  29.499  1.00  0.00     0.006 C 
ENDROOT
BRANCH   1   2
ATOM      2  C   UNL     1     -35.110 -55.706  29.292  1.00  0.00     0.053 C 
BRANCH   2   3
ATOM      3  C   UNL     1     -36.200 -54.742  28.947  1.00  0.00     0.041 C 
ATOM      4  O   UNL     1     -37.257 -54.711  29.630  1.00  0.00    -0.550 OA
ATOM      5  O   UNL     1     -36.069 -53.912  27.841  1.00  0.00    -0.550 OA
ENDBRANCH   2   3
ENDBRANCH   1   2
BRANCH   1   6
ATOM      6  C   UNL     1     -33.855 -54.044  30.725  1.00  0.00     0.000 C 
BRANCH   6   7
ATOM      7  C   UNL     1     -33.171 -52.690  30.485  1.00  0.00    -0.003 C 
ATOM      8  C   UNL     1     -32.993 -52.371  29.001  1.00  0.00     0.004 C 
ENDBRANCH   6   7
ENDBRANCH   1   6
TORSDOF 4
ENDMDL
MODEL 5
REMARK VINA RESULT:    -3.074      1.702      3.172
REMARK INTER + INTRA:          -3.898
REMARK INTER:                  -3.676
REMARK INTRA:                  -0.222
REMARK UNBOUND:                -0.105
REMARK SMILES CCCCCC(=O)[O-]
REMARK SMILES IDX 4 1 5 2 6 3 7 4 8 5 3 6 2 7 1 8
REMARK H PARENT
REMARK Flexibility Score: inf
ROOT
ATOM      1  C   UNL     1     -34.714 -52.770  28.546  1.00  0.00     0.006 C 
ENDROOT
BRANCH   1   2
ATOM      2  C   UNL     1     -35.440 -53.895  27.803  1.00  0.00     0.053 C 
BRANCH   2   3
ATOM      3  C   UNL     1     -35.884 -54.954  28.760  1.00  0.00     0.041 C 
ATOM      4  O   UNL     1     -35.285 -56.061  28.803  1.00  0.00    -0.550 OA
ATOM      5  O   UNL     1     -36.991 -54.739  29.572  1.00  0.00    -0.550 OA
ENDBRANCH   2   3
ENDBRANCH   1   2
BRANCH   1   6
ATOM      6  C   UNL     1     -33.241 -53.131  28.790  1.00  0.00     0.000 C 
BRANCH   6   7
ATOM      7  C   UNL     1     -32.789 -52.832  30.226  1.00  0.00    -0.003 C 
ATOM      8  C   UNL     1     -33.474 -53.726  31.260  1.00  0.00     0.004 C 
ENDBRANCH   6   7
ENDBRANCH   1   6
TORSDOF 4
ENDMDL
MODEL 6
REMARK VINA RESULT:    -3.036      9.421      9.830
REMARK INTER + INTRA:          -3.851
REMARK INTER:                  -3.767
REMARK INTRA:                  -0.084
REMARK UNBOUND:                -0.105
REMARK SMILES CCCCCC(=O)[O-]
REMARK SMILES IDX 4 1 5 2 6 3 7 4 8 5 3 6 2 7 1 8
REMARK H PARENT
REMARK Flexibility Score: inf
ROOT
ATOM      1  C   UNL     1     -25.190 -53.279  26.793  1.00  0.00     0.006 C 
ENDROOT
BRANCH   1   2
ATOM      2  C   UNL     1     -24.730 -53.287  28.253  1.00  0.00     0.053 C 
BRANCH   2   3
ATOM      3  C   UNL     1     -25.488 -54.311  29.036  1.00  0.00     0.041 C 
ATOM      4  O   UNL     1     -26.068 -55.260  28.444  1.00  0.00    -0.550 OA
ATOM      5  O   UNL     1     -25.598 -54.192  30.416  1.00  0.00    -0.550 OA
ENDBRANCH   2   3
ENDBRANCH   1   2
BRANCH   1   6
ATOM      6  C   UNL     1     -25.949 -51.985  26.462  1.00  0.00     0.000 C 
BRANCH   6   7
ATOM      7  C   UNL     1     -26.134 -51.778  24.952  1.00  0.00    -0.003 C 
ATOM      8  C   UNL     1     -25.092 -50.834  24.353  1.00  0.00     0.004 C 
ENDBRANCH   6   7
ENDBRANCH   1   6
TORSDOF 4
ENDMDL
MODEL 7
REMARK VINA RESULT:    -3.004      2.522      3.989
REMARK INTER + INTRA:          -3.811
REMARK INTER:                  -3.563
REMARK INTRA:                  -0.248
REMARK UNBOUND:                -0.105
REMARK SMILES CCCCCC(=O)[O-]
REMARK SMILES IDX 4 1 5 2 6 3 7 4 8 5 3 6 2 7 1 8
REMARK H PARENT
REMARK Flexibility Score: inf
ROOT
ATOM      1  C   UNL     1     -35.031 -53.387  27.511  1.00  0.00     0.006 C 
ENDROOT
BRANCH   1   2
ATOM      2  C   UNL     1     -33.889 -52.380  27.676  1.00  0.00     0.053 C 
BRANCH   2   3
ATOM      3  C   UNL     1     -32.993 -52.783  28.803  1.00  0.00     0.041 C 
ATOM      4  O   UNL     1     -32.369 -53.876  28.756  1.00  0.00    -0.550 OA
ATOM      5  O   UNL     1     -32.883 -51.976  29.928  1.00  0.00    -0.550 OA
ENDBRANCH   2   3
ENDBRANCH   1   2
BRANCH   1   6
ATOM      6  C   UNL     1     -35.899 -53.445  28.776  1.00  0.00     0.000 C 
BRANCH   6   7
ATOM      7  C   UNL     1     -36.403 -54.863  29.083  1.00  0.00    -0.003 C 
ATOM      8  C   UNL     1     -35.283 -55.903  29.074  1.00  0.00     0.004 C 
ENDBRANCH   6   7
ENDBRANCH   1   6
TORSDOF 4
ENDMDL
MODEL 8
REMARK VINA RESULT:    -2.993      2.656      4.187
REMARK INTER + INTRA:          -3.798
REMARK INTER:                  -3.567
REMARK INTRA:                  -0.231
REMARK UNBOUND:                -0.105
REMARK SMILES CCCCCC(=O)[O-]
REMARK SMILES IDX 4 1 5 2 6 3 7 4 8 5 3 6 2 7 1 8
REMARK H PARENT
REMARK Flexibility Score: inf
ROOT
ATOM      1  C   UNL     1     -33.229 -54.229  28.958  1.00  0.00     0.006 C 
ENDROOT
BRANCH   1   2
ATOM      2  C   UNL     1     -33.356 -52.723  28.715  1.00  0.00     0.053 C 
BRANCH   2   3
ATOM      3  C   UNL     1     -33.885 -52.455  27.342  1.00  0.00     0.041 C 
ATOM      4  O   UNL     1     -34.717 -53.243  26.819  1.00  0.00    -0.550 OA
ATOM      5  O   UNL     1     -33.423 -51.363  26.619  1.00  0.00    -0.550 OA
ENDBRANCH   2   3
ENDBRANCH   1   2
BRANCH   1   6
ATOM      6  C   UNL     1     -34.166 -54.686  30.086  1.00  0.00     0.000 C 
BRANCH   6   7
ATOM      7  C   UNL     1     -35.330 -55.548  29.575  1.00  0.00    -0.003 C 
ATOM      8  C   UNL     1     -36.607 -54.741  29.347  1.00  0.00     0.004 C 
ENDBRANCH   6   7
ENDBRANCH   1   6
TORSDOF 4
ENDMDL
MODEL 9
REMARK VINA RESULT:    -2.958      3.078      4.052
REMARK INTER + INTRA:          -3.755
REMARK INTER:                  -3.573
REMARK INTRA:                  -0.182
REMARK UNBOUND:                -0.105
REMARK SMILES CCCCCC(=O)[O-]
REMARK SMILES IDX 4 1 5 2 6 3 7 4 8 5 3 6 2 7 1 8
REMARK H PARENT
REMARK Flexibility Score: inf
ROOT
ATOM      1  C   UNL     1     -33.844 -54.705  29.744  1.00  0.00     0.006 C 
ENDROOT
BRANCH   1   2
ATOM      2  C   UNL     1     -33.594 -53.905  31.026  1.00  0.00     0.053 C 
BRANCH   2   3
ATOM      3  C   UNL     1     -33.047 -52.552  30.702  1.00  0.00     0.041 C 
ATOM      4  O   UNL     1     -33.530 -51.885  29.750  1.00  0.00    -0.550 OA
ATOM      5  O   UNL     1     -31.970 -52.047  31.419  1.00  0.00    -0.550 OA
ENDBRANCH   2   3
ENDBRANCH   1   2
BRANCH   1   6
ATOM      6  C   UNL     1     -35.123 -55.547  29.862  1.00  0.00     0.000 C 
BRANCH   6   7
ATOM      7  C   UNL     1     -36.298 -54.952  29.073  1.00  0.00    -0.003 C 
ATOM      8  C   UNL     1     -35.849 -53.959  28.001  1.00  0.00     0.004 C 
ENDBRANCH   6   7
ENDBRANCH   1   6
TORSDOF 4
ENDMDL
