MODEL 1
REMARK VINA RESULT:    -6.839      0.000      0.000
REMARK INTER + INTRA:          -8.325
REMARK INTER:                  -8.039
REMARK INTRA:                  -0.286
REMARK UNBOUND:                -0.286
REMARK SMILES O=c1c(O)c(-c2ccc(O)cc2)oc2cc(O)cc(O)c12
REMARK SMILES IDX 5 1 3 2 2 3 1 4 21 5 19 6 18 7 16 8 15 9 14 10 13 11 6 12
REMARK SMILES IDX 7 13 8 14 9 15 12 16 11 17 10 18 4 20 20 22 17 24
REMARK H PARENT 10 19 4 21 20 23 17 25
REMARK Flexibility Score: inf
ROOT
ATOM      1  C   UNL     1     -36.736 -13.235 -10.631  1.00  0.00     0.180 A 
ATOM      2  C   UNL     1     -37.606 -12.929 -11.696  1.00  0.00     0.208 A 
ATOM      3  C   UNL     1     -37.407 -13.556 -12.936  1.00  0.00     0.238 A 
ATOM      4  O   UNL     1     -38.173 -13.281 -13.900  1.00  0.00    -0.285 OA
ATOM      5  C   UNL     1     -36.361 -14.490 -13.085  1.00  0.00     0.111 A 
ATOM      6  C   UNL     1     -36.096 -15.169 -14.300  1.00  0.00     0.134 A 
ATOM      7  C   UNL     1     -35.040 -16.091 -14.365  1.00  0.00     0.093 A 
ATOM      8  C   UNL     1     -34.248 -16.347 -13.243  1.00  0.00     0.123 A 
ATOM      9  C   UNL     1     -34.505 -15.679 -12.042  1.00  0.00     0.094 A 
ATOM     10  C   UNL     1     -35.551 -14.756 -11.957  1.00  0.00     0.146 A 
ATOM     11  O   UNL     1     -35.770 -14.131 -10.805  1.00  0.00    -0.452 OA
ENDROOT
BRANCH   1  12
ATOM     12  C   UNL     1     -36.869 -12.601  -9.300  1.00  0.00     0.021 A 
ATOM     13  C   UNL     1     -37.728 -13.171  -8.346  1.00  0.00     0.016 A 
ATOM     14  C   UNL     1     -37.853 -12.602  -7.075  1.00  0.00     0.047 A 
ATOM     15  C   UNL     1     -37.109 -11.465  -6.737  1.00  0.00     0.115 A 
ATOM     16  C   UNL     1     -36.110 -11.470  -8.947  1.00  0.00     0.016 A 
ATOM     17  C   UNL     1     -36.236 -10.904  -7.674  1.00  0.00     0.047 A 
BRANCH  15  18
ATOM     18  O   UNL     1     -37.224 -10.888  -5.474  1.00  0.00    -0.508 OA
ATOM     19  H   UNL     1     -37.935 -10.196  -5.272  1.00  0.00     0.293 HD
ENDBRANCH  15  18
ENDBRANCH   1  12
BRANCH   2  20
ATOM     20  O   UNL     1     -38.665 -12.037 -11.509  1.00  0.00    -0.502 OA
ATOM     21  H   UNL     1     -39.558 -12.150 -11.974  1.00  0.00     0.293 HD
ENDBRANCH   2  20
BRANCH   6  22
ATOM     22  O   UNL     1     -36.869 -14.935 -15.437  1.00  0.00    -0.507 OA
ATOM     23  H   UNL     1     -37.252 -14.020 -15.642  1.00  0.00     0.293 HD
ENDBRANCH   6  22
BRANCH   8  24
ATOM     24  O   UNL     1     -33.207 -17.268 -13.335  1.00  0.00    -0.508 OA
ATOM     25  H   UNL     1     -33.250 -18.054 -13.973  1.00  0.00     0.293 HD
ENDBRANCH   8  24
TORSDOF 5
ENDMDL
MODEL 2
REMARK VINA RESULT:    -6.573      4.081      6.069
REMARK INTER + INTRA:          -8.012
REMARK INTER:                  -8.419
REMARK INTRA:                   0.407
REMARK UNBOUND:                -0.286
REMARK SMILES O=c1c(O)c(-c2ccc(O)cc2)oc2cc(O)cc(O)c12
REMARK SMILES IDX 5 1 3 2 2 3 1 4 21 5 19 6 18 7 16 8 15 9 14 10 13 11 6 12
REMARK SMILES IDX 7 13 8 14 9 15 12 16 11 17 10 18 4 20 20 22 17 24
REMARK H PARENT 10 19 4 21 20 23 17 25
REMARK Flexibility Score: inf
ROOT
ATOM      1  C   UNL     1     -36.876 -12.920  -7.865  1.00  0.00     0.180 A 
ATOM      2  C   UNL     1     -37.115 -11.853  -6.977  1.00  0.00     0.208 A 
ATOM      3  C   UNL     1     -36.445 -10.637  -7.181  1.00  0.00     0.238 A 
ATOM      4  O   UNL     1     -36.643  -9.678  -6.385  1.00  0.00    -0.285 OA
ATOM      5  C   UNL     1     -35.567 -10.500  -8.276  1.00  0.00     0.111 A 
ATOM      6  C   UNL     1     -34.856  -9.308  -8.555  1.00  0.00     0.134 A 
ATOM      7  C   UNL     1     -34.007  -9.249  -9.671  1.00  0.00     0.093 A 
ATOM      8  C   UNL     1     -33.856 -10.354 -10.510  1.00  0.00     0.123 A 
ATOM      9  C   UNL     1     -34.555 -11.535 -10.239  1.00  0.00     0.094 A 
ATOM     10  C   UNL     1     -35.405 -11.614  -9.132  1.00  0.00     0.146 A 
ATOM     11  O   UNL     1     -36.053 -12.750  -8.895  1.00  0.00    -0.452 OA
ENDROOT
BRANCH   1  12
ATOM     12  C   UNL     1     -37.530 -14.239  -7.704  1.00  0.00     0.021 A 
ATOM     13  C   UNL     1     -36.937 -15.378  -8.274  1.00  0.00     0.016 A 
ATOM     14  C   UNL     1     -37.524 -16.636  -8.117  1.00  0.00     0.047 A 
ATOM     15  C   UNL     1     -38.704 -16.774  -7.374  1.00  0.00     0.115 A 
ATOM     16  C   UNL     1     -38.704 -14.388  -6.943  1.00  0.00     0.016 A 
ATOM     17  C   UNL     1     -39.288 -15.648  -6.787  1.00  0.00     0.047 A 
BRANCH  15  18
ATOM     18  O   UNL     1     -39.300 -18.023  -7.211  1.00  0.00    -0.508 OA
ATOM     19  H   UNL     1     -40.104 -18.301  -7.760  1.00  0.00     0.293 HD
ENDBRANCH  15  18
ENDBRANCH   1  12
BRANCH   2  20
ATOM     20  O   UNL     1     -38.027 -11.998  -5.928  1.00  0.00    -0.502 OA
ATOM     21  H   UNL     1     -38.803 -12.647  -5.969  1.00  0.00     0.293 HD
ENDBRANCH   2  20
BRANCH   6  22
ATOM     22  O   UNL     1     -34.986  -8.186  -7.735  1.00  0.00    -0.507 OA
ATOM     23  H   UNL     1     -35.489  -7.360  -8.038  1.00  0.00     0.293 HD
ENDBRANCH   6  22
BRANCH   8  24
ATOM     24  O   UNL     1     -33.008 -10.268 -11.611  1.00  0.00    -0.508 OA
ATOM     25  H   UNL     1     -33.190  -9.622 -12.371  1.00  0.00     0.293 HD
ENDBRANCH   8  24
TORSDOF 5
ENDMDL
MODEL 3
REMARK VINA RESULT:    -6.505      1.677      3.280
REMARK INTER + INTRA:          -7.932
REMARK INTER:                  -7.635
REMARK INTRA:                  -0.298
REMARK UNBOUND:                -0.286
REMARK SMILES O=c1c(O)c(-c2ccc(O)cc2)oc2cc(O)cc(O)c12
REMARK SMILES IDX 5 1 3 2 2 3 1 4 21 5 19 6 18 7 16 8 15 9 14 10 13 11 6 12
REMARK SMILES IDX 7 13 8 14 9 15 12 16 11 17 10 18 4 20 20 22 17 24
REMARK H PARENT 10 19 4 21 20 23 17 25
REMARK Flexibility Score: inf
ROOT
ATOM      1  C   UNL     1     -36.082 -14.699 -10.597  1.00  0.00     0.180 A 
ATOM      2  C   UNL     1     -34.757 -15.159 -10.724  1.00  0.00     0.208 A 
ATOM      3  C   UNL     1     -34.382 -15.831 -11.898  1.00  0.00     0.238 A 
ATOM      4  O   UNL     1     -33.200 -16.258 -12.018  1.00  0.00    -0.285 OA
ATOM      5  C   UNL     1     -35.326 -16.011 -12.931  1.00  0.00     0.111 A 
ATOM      6  C   UNL     1     -35.026 -16.672 -14.146  1.00  0.00     0.134 A 
ATOM      7  C   UNL     1     -36.020 -16.803 -15.129  1.00  0.00     0.093 A 
ATOM      8  C   UNL     1     -37.301 -16.288 -14.920  1.00  0.00     0.123 A 
ATOM      9  C   UNL     1     -37.602 -15.634 -13.721  1.00  0.00     0.094 A 
ATOM     10  C   UNL     1     -36.627 -15.494 -12.729  1.00  0.00     0.146 A 
ATOM     11  O   UNL     1     -36.941 -14.874 -11.597  1.00  0.00    -0.452 OA
ENDROOT
BRANCH   1  12
ATOM     12  C   UNL     1     -36.559 -14.000  -9.382  1.00  0.00     0.021 A 
ATOM     13  C   UNL     1     -36.523 -12.597  -9.333  1.00  0.00     0.016 A 
ATOM     14  C   UNL     1     -36.989 -11.914  -8.206  1.00  0.00     0.047 A 
ATOM     15  C   UNL     1     -37.510 -12.627  -7.118  1.00  0.00     0.115 A 
ATOM     16  C   UNL     1     -37.102 -14.708  -8.294  1.00  0.00     0.016 A 
ATOM     17  C   UNL     1     -37.568 -14.023  -7.168  1.00  0.00     0.047 A 
BRANCH  15  18
ATOM     18  O   UNL     1     -37.977 -11.959  -5.988  1.00  0.00    -0.508 OA
ATOM     19  H   UNL     1     -38.301 -11.001  -6.036  1.00  0.00     0.293 HD
ENDBRANCH  15  18
ENDBRANCH   1  12
BRANCH   2  20
ATOM     20  O   UNL     1     -33.827 -14.925  -9.708  1.00  0.00    -0.502 OA
ATOM     21  H   UNL     1     -33.975 -15.234  -8.755  1.00  0.00     0.293 HD
ENDBRANCH   2  20
BRANCH   6  22
ATOM     22  O   UNL     1     -33.756 -17.198 -14.385  1.00  0.00    -0.507 OA
ATOM     23  H   UNL     1     -33.045 -16.670 -14.877  1.00  0.00     0.293 HD
ENDBRANCH   6  22
BRANCH   8  24
ATOM     24  O   UNL     1     -38.268 -16.431 -15.912  1.00  0.00    -0.508 OA
ATOM     25  H   UNL     1     -38.227 -15.896 -16.772  1.00  0.00     0.293 HD
ENDBRANCH   8  24
TORSDOF 5
ENDMDL
MODEL 4
REMARK VINA RESULT:    -6.290     10.098     13.359
REMARK INTER + INTRA:          -7.680
REMARK INTER:                  -7.428
REMARK INTRA:                  -0.252
REMARK UNBOUND:                -0.286
REMARK SMILES O=c1c(O)c(-c2ccc(O)cc2)oc2cc(O)cc(O)c12
REMARK SMILES IDX 5 1 3 2 2 3 1 4 21 5 19 6 18 7 16 8 15 9 14 10 13 11 6 12
REMARK SMILES IDX 7 13 8 14 9 15 12 16 11 17 10 18 4 20 20 22 17 24
REMARK H PARENT 10 19 4 21 20 23 17 25
REMARK Flexibility Score: inf
ROOT
ATOM      1  C   UNL     1     -28.490 -13.841  -3.234  1.00  0.00     0.180 A 
ATOM      2  C   UNL     1     -29.565 -12.966  -2.989  1.00  0.00     0.208 A 
ATOM      3  C   UNL     1     -29.428 -11.984  -1.995  1.00  0.00     0.238 A 
ATOM      4  O   UNL     1     -30.390 -11.202  -1.760  1.00  0.00    -0.285 OA
ATOM      5  C   UNL     1     -28.217 -11.879  -1.281  1.00  0.00     0.111 A 
ATOM      6  C   UNL     1     -27.996 -10.915  -0.268  1.00  0.00     0.134 A 
ATOM      7  C   UNL     1     -26.758 -10.870   0.392  1.00  0.00     0.093 A 
ATOM      8  C   UNL     1     -25.740 -11.766   0.058  1.00  0.00     0.123 A 
ATOM      9  C   UNL     1     -25.953 -12.721  -0.942  1.00  0.00     0.094 A 
ATOM     10  C   UNL     1     -27.180 -12.783  -1.609  1.00  0.00     0.146 A 
ATOM     11  O   UNL     1     -27.357 -13.703  -2.551  1.00  0.00    -0.452 OA
ENDROOT
BRANCH   1  12
ATOM     12  C   UNL     1     -28.564 -14.914  -4.251  1.00  0.00     0.021 A 
ATOM     13  C   UNL     1     -28.380 -14.596  -5.607  1.00  0.00     0.016 A 
ATOM     14  C   UNL     1     -28.424 -15.596  -6.583  1.00  0.00     0.047 A 
ATOM     15  C   UNL     1     -28.639 -16.930  -6.213  1.00  0.00     0.115 A 
ATOM     16  C   UNL     1     -28.759 -16.259  -3.886  1.00  0.00     0.016 A 
ATOM     17  C   UNL     1     -28.802 -17.257  -4.864  1.00  0.00     0.047 A 
BRANCH  15  18
ATOM     18  O   UNL     1     -28.686 -17.936  -7.176  1.00  0.00    -0.508 OA
ATOM     19  H   UNL     1     -28.456 -17.751  -8.145  1.00  0.00     0.293 HD
ENDBRANCH  15  18
ENDBRANCH   1  12
BRANCH   2  20
ATOM     20  O   UNL     1     -30.737 -13.058  -3.745  1.00  0.00    -0.502 OA
ATOM     21  H   UNL     1     -31.026 -13.917  -4.196  1.00  0.00     0.293 HD
ENDBRANCH   2  20
BRANCH   6  22
ATOM     22  O   UNL     1     -28.993 -10.006   0.088  1.00  0.00    -0.507 OA
ATOM     23  H   UNL     1     -29.970 -10.179  -0.115  1.00  0.00     0.293 HD
ENDBRANCH   6  22
BRANCH   8  24
ATOM     24  O   UNL     1     -24.521 -11.699   0.728  1.00  0.00    -0.508 OA
ATOM     25  H   UNL     1     -23.916 -12.508   0.807  1.00  0.00     0.293 HD
ENDBRANCH   8  24
TORSDOF 5
ENDMDL
MODEL 5
REMARK VINA RESULT:    -6.224      1.951      6.798
REMARK INTER + INTRA:          -7.601
REMARK INTER:                  -7.305
REMARK INTRA:                  -0.296
REMARK UNBOUND:                -0.286
REMARK SMILES O=c1c(O)c(-c2ccc(O)cc2)oc2cc(O)cc(O)c12
REMARK SMILES IDX 5 1 3 2 2 3 1 4 21 5 19 6 18 7 16 8 15 9 14 10 13 11 6 12
REMARK SMILES IDX 7 13 8 14 9 15 12 16 11 17 10 18 4 20 20 22 17 24
REMARK H PARENT 10 19 4 21 20 23 17 25
REMARK Flexibility Score: inf
ROOT
ATOM      1  C   UNL     1     -36.228 -13.301 -11.854  1.00  0.00     0.180 A 
ATOM      2  C   UNL     1     -34.977 -12.654 -11.867  1.00  0.00     0.208 A 
ATOM      3  C   UNL     1     -34.613 -11.858 -10.769  1.00  0.00     0.238 A 
ATOM      4  O   UNL     1     -33.499 -11.265 -10.776  1.00  0.00    -0.285 OA
ATOM      5  C   UNL     1     -35.490 -11.741  -9.672  1.00  0.00     0.111 A 
ATOM      6  C   UNL     1     -35.197 -10.963  -8.526  1.00  0.00     0.134 A 
ATOM      7  C   UNL     1     -36.120 -10.903  -7.471  1.00  0.00     0.093 A 
ATOM      8  C   UNL     1     -37.326 -11.604  -7.539  1.00  0.00     0.123 A 
ATOM      9  C   UNL     1     -37.621 -12.373  -8.670  1.00  0.00     0.094 A 
ATOM     10  C   UNL     1     -36.715 -12.444  -9.732  1.00  0.00     0.146 A 
ATOM     11  O   UNL     1     -37.023 -13.178 -10.796  1.00  0.00    -0.452 OA
ENDROOT
BRANCH   1  12
ATOM     12  C   UNL     1     -36.692 -14.140 -12.982  1.00  0.00     0.021 A 
ATOM     13  C   UNL     1     -36.422 -15.518 -12.974  1.00  0.00     0.016 A 
ATOM     14  C   UNL     1     -36.869 -16.334 -14.018  1.00  0.00     0.047 A 
ATOM     15  C   UNL     1     -37.605 -15.784 -15.075  1.00  0.00     0.115 A 
ATOM     16  C   UNL     1     -37.448 -13.598 -14.037  1.00  0.00     0.016 A 
ATOM     17  C   UNL     1     -37.895 -14.416 -15.079  1.00  0.00     0.047 A 
BRANCH  15  18
ATOM     18  O   UNL     1     -38.056 -16.586 -16.121  1.00  0.00    -0.508 OA
ATOM     19  H   UNL     1     -38.361 -17.539 -15.963  1.00  0.00     0.293 HD
ENDBRANCH  15  18
ENDBRANCH   1  12
BRANCH   2  20
ATOM     20  O   UNL     1     -34.104 -12.826 -12.945  1.00  0.00    -0.502 OA
ATOM     21  H   UNL     1     -34.426 -12.865 -13.904  1.00  0.00     0.293 HD
ENDBRANCH   2  20
BRANCH   6  22
ATOM     22  O   UNL     1     -34.000 -10.252  -8.427  1.00  0.00    -0.507 OA
ATOM     23  H   UNL     1     -33.103 -10.695  -8.581  1.00  0.00     0.293 HD
ENDBRANCH   6  22
BRANCH   8  24
ATOM     24  O   UNL     1     -38.224 -11.529  -6.478  1.00  0.00    -0.508 OA
ATOM     25  H   UNL     1     -38.313 -12.281  -5.804  1.00  0.00     0.293 HD
ENDBRANCH   8  24
TORSDOF 5
ENDMDL
MODEL 6
REMARK VINA RESULT:    -6.201      2.811      7.130
REMARK INTER + INTRA:          -7.575
REMARK INTER:                  -7.298
REMARK INTRA:                  -0.277
REMARK UNBOUND:                -0.286
REMARK SMILES O=c1c(O)c(-c2ccc(O)cc2)oc2cc(O)cc(O)c12
REMARK SMILES IDX 5 1 3 2 2 3 1 4 21 5 19 6 18 7 16 8 15 9 14 10 13 11 6 12
REMARK SMILES IDX 7 13 8 14 9 15 12 16 11 17 10 18 4 20 20 22 17 24
REMARK H PARENT 10 19 4 21 20 23 17 25
REMARK Flexibility Score: inf
ROOT
ATOM      1  C   UNL     1     -35.838 -11.882  -9.441  1.00  0.00     0.180 A 
ATOM      2  C   UNL     1     -36.620 -11.678  -8.287  1.00  0.00     0.208 A 
ATOM      3  C   UNL     1     -36.406 -10.524  -7.518  1.00  0.00     0.238 A 
ATOM      4  O   UNL     1     -37.093 -10.338  -6.476  1.00  0.00    -0.285 OA
ATOM      5  C   UNL     1     -35.435  -9.586  -7.923  1.00  0.00     0.111 A 
ATOM      6  C   UNL     1     -35.161  -8.395  -7.206  1.00  0.00     0.134 A 
ATOM      7  C   UNL     1     -34.184  -7.507  -7.681  1.00  0.00     0.093 A 
ATOM      8  C   UNL     1     -33.478  -7.784  -8.854  1.00  0.00     0.123 A 
ATOM      9  C   UNL     1     -33.744  -8.959  -9.565  1.00  0.00     0.094 A 
ATOM     10  C   UNL     1     -34.712  -9.857  -9.108  1.00  0.00     0.146 A 
ATOM     11  O   UNL     1     -34.941 -10.968  -9.801  1.00  0.00    -0.452 OA
ENDROOT
BRANCH   1  12
ATOM     12  C   UNL     1     -35.990 -13.083 -10.293  1.00  0.00     0.021 A 
ATOM     13  C   UNL     1     -36.687 -12.984 -11.508  1.00  0.00     0.016 A 
ATOM     14  C   UNL     1     -36.824 -14.100 -12.340  1.00  0.00     0.047 A 
ATOM     15  C   UNL     1     -36.253 -15.325 -11.973  1.00  0.00     0.115 A 
ATOM     16  C   UNL     1     -35.401 -14.312  -9.941  1.00  0.00     0.016 A 
ATOM     17  C   UNL     1     -35.540 -15.426 -10.774  1.00  0.00     0.047 A 
BRANCH  15  18
ATOM     18  O   UNL     1     -36.383 -16.445 -12.792  1.00  0.00    -0.508 OA
ATOM     19  H   UNL     1     -37.292 -16.822 -13.030  1.00  0.00     0.293 HD
ENDBRANCH  15  18
ENDBRANCH   1  12
BRANCH   2  20
ATOM     20  O   UNL     1     -37.610 -12.599  -7.934  1.00  0.00    -0.502 OA
ATOM     21  H   UNL     1     -37.689 -12.979  -6.999  1.00  0.00     0.293 HD
ENDBRANCH   2  20
BRANCH   6  22
ATOM     22  O   UNL     1     -35.850  -8.090  -6.032  1.00  0.00    -0.507 OA
ATOM     23  H   UNL     1     -36.748  -8.505  -5.818  1.00  0.00     0.293 HD
ENDBRANCH   6  22
BRANCH   8  24
ATOM     24  O   UNL     1     -32.514  -6.885  -9.303  1.00  0.00    -0.508 OA
ATOM     25  H   UNL     1     -32.205  -6.109  -8.728  1.00  0.00     0.293 HD
ENDBRANCH   8  24
TORSDOF 5
ENDMDL
MODEL 7
REMARK VINA RESULT:    -6.123      9.741     13.349
REMARK INTER + INTRA:          -7.483
REMARK INTER:                  -7.196
REMARK INTRA:                  -0.287
REMARK UNBOUND:                -0.286
REMARK SMILES O=c1c(O)c(-c2ccc(O)cc2)oc2cc(O)cc(O)c12
REMARK SMILES IDX 5 1 3 2 2 3 1 4 21 5 19 6 18 7 16 8 15 9 14 10 13 11 6 12
REMARK SMILES IDX 7 13 8 14 9 15 12 16 11 17 10 18 4 20 20 22 17 24
REMARK H PARENT 10 19 4 21 20 23 17 25
REMARK Flexibility Score: inf
ROOT
ATOM      1  C   UNL     1     -28.314 -13.925  -3.343  1.00  0.00     0.180 A 
ATOM      2  C   UNL     1     -27.054 -13.523  -2.858  1.00  0.00     0.208 A 
ATOM      3  C   UNL     1     -26.989 -12.491  -1.909  1.00  0.00     0.238 A 
ATOM      4  O   UNL     1     -25.865 -12.116  -1.477  1.00  0.00    -0.285 OA
ATOM      5  C   UNL     1     -28.180 -11.894  -1.446  1.00  0.00     0.111 A 
ATOM      6  C   UNL     1     -28.202 -10.852  -0.488  1.00  0.00     0.134 A 
ATOM      7  C   UNL     1     -29.430 -10.316  -0.071  1.00  0.00     0.093 A 
ATOM      8  C   UNL     1     -30.632 -10.801  -0.591  1.00  0.00     0.123 A 
ATOM      9  C   UNL     1     -30.616 -11.830  -1.539  1.00  0.00     0.094 A 
ATOM     10  C   UNL     1     -29.403 -12.376  -1.968  1.00  0.00     0.146 A 
ATOM     11  O   UNL     1     -29.417 -13.349  -2.872  1.00  0.00    -0.452 OA
ENDROOT
BRANCH   1  12
ATOM     12  C   UNL     1     -28.463 -14.992  -4.358  1.00  0.00     0.021 A 
ATOM     13  C   UNL     1     -28.358 -14.668  -5.721  1.00  0.00     0.016 A 
ATOM     14  C   UNL     1     -28.472 -15.663  -6.697  1.00  0.00     0.047 A 
ATOM     15  C   UNL     1     -28.680 -16.996  -6.321  1.00  0.00     0.115 A 
ATOM     16  C   UNL     1     -28.651 -16.336  -3.988  1.00  0.00     0.016 A 
ATOM     17  C   UNL     1     -28.765 -17.329  -4.966  1.00  0.00     0.047 A 
BRANCH  15  18
ATOM     18  O   UNL     1     -28.797 -17.997  -7.283  1.00  0.00    -0.508 OA
ATOM     19  H   UNL     1     -28.809 -17.780  -8.272  1.00  0.00     0.293 HD
ENDBRANCH  15  18
ENDBRANCH   1  12
BRANCH   2  20
ATOM     20  O   UNL     1     -25.892 -14.164  -3.296  1.00  0.00    -0.502 OA
ATOM     21  H   UNL     1     -25.462 -13.958  -4.189  1.00  0.00     0.293 HD
ENDBRANCH   2  20
BRANCH   6  22
ATOM     22  O   UNL     1     -27.018 -10.347   0.051  1.00  0.00    -0.507 OA
ATOM     23  H   UNL     1     -26.169 -10.898   0.084  1.00  0.00     0.293 HD
ENDBRANCH   6  22
BRANCH   8  24
ATOM     24  O   UNL     1     -31.837 -10.251  -0.160  1.00  0.00    -0.508 OA
ATOM     25  H   UNL     1     -32.411 -10.715   0.535  1.00  0.00     0.293 HD
ENDBRANCH   8  24
TORSDOF 5
ENDMDL
MODEL 8
REMARK VINA RESULT:    -6.111      3.642      5.764
REMARK INTER + INTRA:          -7.469
REMARK INTER:                  -7.178
REMARK INTRA:                  -0.292
REMARK UNBOUND:                -0.286
REMARK SMILES O=c1c(O)c(-c2ccc(O)cc2)oc2cc(O)cc(O)c12
REMARK SMILES IDX 5 1 3 2 2 3 1 4 21 5 19 6 18 7 16 8 15 9 14 10 13 11 6 12
REMARK SMILES IDX 7 13 8 14 9 15 12 16 11 17 10 18 4 20 20 22 17 24
REMARK H PARENT 10 19 4 21 20 23 17 25
REMARK Flexibility Score: inf
ROOT
ATOM      1  C   UNL     1     -37.301 -15.054  -7.687  1.00  0.00     0.180 A 
ATOM      2  C   UNL     1     -37.684 -13.850  -7.063  1.00  0.00     0.208 A 
ATOM      3  C   UNL     1     -37.152 -12.641  -7.537  1.00  0.00     0.238 A 
ATOM      4  O   UNL     1     -37.479 -11.558  -6.978  1.00  0.00    -0.285 OA
ATOM      5  C   UNL     1     -36.266 -12.651  -8.634  1.00  0.00     0.111 A 
ATOM      6  C   UNL     1     -35.689 -11.477  -9.175  1.00  0.00     0.134 A 
ATOM      7  C   UNL     1     -34.823 -11.570 -10.275  1.00  0.00     0.093 A 
ATOM      8  C   UNL     1     -34.524 -12.811 -10.843  1.00  0.00     0.123 A 
ATOM      9  C   UNL     1     -35.090 -13.974 -10.312  1.00  0.00     0.094 A 
ATOM     10  C   UNL     1     -35.954 -13.902  -9.216  1.00  0.00     0.146 A 
ATOM     11  O   UNL     1     -36.475 -15.024  -8.728  1.00  0.00    -0.452 OA
ENDROOT
BRANCH   1  12
ATOM     12  C   UNL     1     -37.803 -16.370  -7.233  1.00  0.00     0.021 A 
ATOM     13  C   UNL     1     -38.871 -16.975  -7.916  1.00  0.00     0.016 A 
ATOM     14  C   UNL     1     -39.347 -18.228  -7.520  1.00  0.00     0.047 A 
ATOM     15  C   UNL     1     -38.752 -18.898  -6.443  1.00  0.00     0.115 A 
ATOM     16  C   UNL     1     -37.198 -17.058  -6.165  1.00  0.00     0.016 A 
ATOM     17  C   UNL     1     -37.676 -18.311  -5.770  1.00  0.00     0.047 A 
BRANCH  15  18
ATOM     18  O   UNL     1     -39.219 -20.147  -6.037  1.00  0.00    -0.508 OA
ATOM     19  H   UNL     1     -39.521 -20.842  -6.708  1.00  0.00     0.293 HD
ENDBRANCH  15  18
ENDBRANCH   1  12
BRANCH   2  20
ATOM     20  O   UNL     1     -38.602 -13.862  -6.009  1.00  0.00    -0.502 OA
ATOM     21  H   UNL     1     -38.533 -14.513  -5.237  1.00  0.00     0.293 HD
ENDBRANCH   2  20
BRANCH   6  22
ATOM     22  O   UNL     1     -35.969 -10.223  -8.630  1.00  0.00    -0.507 OA
ATOM     23  H   UNL     1     -35.851  -9.371  -9.166  1.00  0.00     0.293 HD
ENDBRANCH   6  22
BRANCH   8  24
ATOM     24  O   UNL     1     -33.661 -12.875 -11.934  1.00  0.00    -0.508 OA
ATOM     25  H   UNL     1     -33.076 -13.686 -12.099  1.00  0.00     0.293 HD
ENDBRANCH   8  24
TORSDOF 5
ENDMDL
MODEL 9
REMARK VINA RESULT:    -6.027      2.789      6.991
REMARK INTER + INTRA:          -7.370
REMARK INTER:                  -7.095
REMARK INTRA:                  -0.275
REMARK UNBOUND:                -0.286
REMARK SMILES O=c1c(O)c(-c2ccc(O)cc2)oc2cc(O)cc(O)c12
REMARK SMILES IDX 5 1 3 2 2 3 1 4 21 5 19 6 18 7 16 8 15 9 14 10 13 11 6 12
REMARK SMILES IDX 7 13 8 14 9 15 12 16 11 17 10 18 4 20 20 22 17 24
REMARK H PARENT 10 19 4 21 20 23 17 25
REMARK Flexibility Score: inf
ROOT
ATOM      1  C   UNL     1     -36.082 -15.734 -10.383  1.00  0.00     0.180 A 
ATOM      2  C   UNL     1     -36.004 -14.398  -9.943  1.00  0.00     0.208 A 
ATOM      3  C   UNL     1     -36.686 -14.029  -8.773  1.00  0.00     0.238 A 
ATOM      4  O   UNL     1     -36.633 -12.832  -8.376  1.00  0.00    -0.285 OA
ATOM      5  C   UNL     1     -37.414 -14.999  -8.054  1.00  0.00     0.111 A 
ATOM      6  C   UNL     1     -38.124 -14.710  -6.864  1.00  0.00     0.134 A 
ATOM      7  C   UNL     1     -38.818 -15.734  -6.201  1.00  0.00     0.093 A 
ATOM      8  C   UNL     1     -38.813 -17.038  -6.703  1.00  0.00     0.123 A 
ATOM      9  C   UNL     1     -38.113 -17.329  -7.879  1.00  0.00     0.094 A 
ATOM     10  C   UNL     1     -37.417 -16.322  -8.554  1.00  0.00     0.146 A 
ATOM     11  O   UNL     1     -36.765 -16.625  -9.671  1.00  0.00    -0.452 OA
ENDROOT
BRANCH   1  12
ATOM     12  C   UNL     1     -35.407 -16.196 -11.617  1.00  0.00     0.021 A 
ATOM     13  C   UNL     1     -36.020 -15.981 -12.862  1.00  0.00     0.016 A 
ATOM     14  C   UNL     1     -35.391 -16.389 -14.042  1.00  0.00     0.047 A 
ATOM     15  C   UNL     1     -34.133 -17.004 -13.993  1.00  0.00     0.115 A 
ATOM     16  C   UNL     1     -34.134 -16.796 -11.577  1.00  0.00     0.016 A 
ATOM     17  C   UNL     1     -33.507 -17.203 -12.758  1.00  0.00     0.047 A 
BRANCH  15  18
ATOM     18  O   UNL     1     -33.496 -17.416 -15.161  1.00  0.00    -0.508 OA
ATOM     19  H   UNL     1     -34.001 -17.891 -15.899  1.00  0.00     0.293 HD
ENDBRANCH  15  18
ENDBRANCH   1  12
BRANCH   2  20
ATOM     20  O   UNL     1     -35.236 -13.466 -10.646  1.00  0.00    -0.502 OA
ATOM     21  H   UNL     1     -35.452 -12.477 -10.650  1.00  0.00     0.293 HD
ENDBRANCH   2  20
BRANCH   6  22
ATOM     22  O   UNL     1     -38.148 -13.418  -6.337  1.00  0.00    -0.507 OA
ATOM     23  H   UNL     1     -37.335 -12.815  -6.368  1.00  0.00     0.293 HD
ENDBRANCH   6  22
BRANCH   8  24
ATOM     24  O   UNL     1     -39.508 -18.036  -6.025  1.00  0.00    -0.508 OA
ATOM     25  H   UNL     1     -39.100 -18.949  -5.863  1.00  0.00     0.293 HD
ENDBRANCH   8  24
TORSDOF 5
ENDMDL
