MODEL 1
REMARK VINA RESULT:    -3.126      0.000      0.000
REMARK INTER + INTRA:          -3.765
REMARK INTER:                  -3.674
REMARK INTRA:                  -0.090
REMARK UNBOUND:                -0.090
REMARK SMILES O=C([O-])CCC(=O)[O-]
REMARK SMILES IDX 4 1 2 2 1 3 3 4 5 5 6 6 7 7 8 8
REMARK H PARENT
REMARK Flexibility Score: inf
ROOT
ATOM      1  C   UNL     1       5.750   3.024  47.856  1.00  0.00     0.059 C 
ENDROOT
BRANCH   1   2
ATOM      2  C   UNL     1       6.282   4.195  48.626  1.00  0.00     0.042 C 
ATOM      3  O   UNL     1       7.116   4.975  48.096  1.00  0.00    -0.550 OA
ATOM      4  O   UNL     1       5.886   4.402  49.941  1.00  0.00    -0.550 OA
ENDBRANCH   1   2
BRANCH   1   5
ATOM      5  C   UNL     1       6.762   1.874  47.809  1.00  0.00     0.059 C 
BRANCH   5   6
ATOM      6  C   UNL     1       6.583   0.935  48.963  1.00  0.00     0.042 C 
ATOM      7  O   UNL     1       7.034   1.234  50.100  1.00  0.00    -0.550 OA
ATOM      8  O   UNL     1       5.883  -0.252  48.791  1.00  0.00    -0.550 OA
ENDBRANCH   5   6
ENDBRANCH   1   5
TORSDOF 3
ENDMDL
MODEL 2
REMARK VINA RESULT:    -3.115      0.156      1.155
REMARK INTER + INTRA:          -3.752
REMARK INTER:                  -3.652
REMARK INTRA:                  -0.100
REMARK UNBOUND:                -0.090
REMARK SMILES O=C([O-])CCC(=O)[O-]
REMARK SMILES IDX 4 1 2 2 1 3 3 4 5 5 6 6 7 7 8 8
REMARK H PARENT
REMARK Flexibility Score: inf
ROOT
ATOM      1  C   UNL     1       5.687   3.058  47.855  1.00  0.00     0.059 C 
ENDROOT
BRANCH   1   2
ATOM      2  C   UNL     1       6.187   4.240  48.628  1.00  0.00     0.042 C 
ATOM      3  O   UNL     1       7.105   4.962  48.159  1.00  0.00    -0.550 OA
ATOM      4  O   UNL     1       5.667   4.521  49.885  1.00  0.00    -0.550 OA
ENDBRANCH   1   2
BRANCH   1   5
ATOM      5  C   UNL     1       6.709   1.916  47.845  1.00  0.00     0.059 C 
BRANCH   5   6
ATOM      6  C   UNL     1       6.539   1.013  49.028  1.00  0.00     0.042 C 
ATOM      7  O   UNL     1       5.965  -0.100  48.899  1.00  0.00    -0.550 OA
ATOM      8  O   UNL     1       7.051   1.384  50.265  1.00  0.00    -0.550 OA
ENDBRANCH   5   6
ENDBRANCH   1   5
TORSDOF 3
ENDMDL
MODEL 3
REMARK VINA RESULT:    -3.107      0.150      3.661
REMARK INTER + INTRA:          -3.743
REMARK INTER:                  -3.641
REMARK INTRA:                  -0.101
REMARK UNBOUND:                -0.090
REMARK SMILES O=C([O-])CCC(=O)[O-]
REMARK SMILES IDX 4 1 2 2 1 3 3 4 5 5 6 6 7 7 8 8
REMARK H PARENT
REMARK Flexibility Score: inf
ROOT
ATOM      1  C   UNL     1       6.716   1.901  47.828  1.00  0.00     0.059 C 
ENDROOT
BRANCH   1   2
ATOM      2  C   UNL     1       6.549   0.972  48.993  1.00  0.00     0.042 C 
ATOM      3  O   UNL     1       5.929  -0.114  48.852  1.00  0.00    -0.550 OA
ATOM      4  O   UNL     1       7.044   1.325  50.241  1.00  0.00    -0.550 OA
ENDBRANCH   1   2
BRANCH   1   5
ATOM      5  C   UNL     1       5.689   3.038  47.862  1.00  0.00     0.059 C 
BRANCH   5   6
ATOM      6  C   UNL     1       6.207   4.226  48.615  1.00  0.00     0.042 C 
ATOM      7  O   UNL     1       7.132   4.929  48.131  1.00  0.00    -0.550 OA
ATOM      8  O   UNL     1       5.638   4.580  49.832  1.00  0.00    -0.550 OA
ENDBRANCH   5   6
ENDBRANCH   1   5
TORSDOF 3
ENDMDL
MODEL 4
REMARK VINA RESULT:    -3.104      1.534      3.529
REMARK INTER + INTRA:          -3.739
REMARK INTER:                  -3.631
REMARK INTRA:                  -0.108
REMARK UNBOUND:                -0.090
REMARK SMILES O=C([O-])CCC(=O)[O-]
REMARK SMILES IDX 4 1 2 2 1 3 3 4 5 5 6 6 7 7 8 8
REMARK H PARENT
REMARK Flexibility Score: inf
ROOT
ATOM      1  C   UNL     1       5.569   3.132  47.851  1.00  0.00     0.059 C 
ENDROOT
BRANCH   1   2
ATOM      2  C   UNL     1       6.587   2.057  47.620  1.00  0.00     0.042 C 
ATOM      3  O   UNL     1       7.111   1.915  46.484  1.00  0.00    -0.550 OA
ATOM      4  O   UNL     1       6.928   1.188  48.648  1.00  0.00    -0.550 OA
ENDBRANCH   1   2
BRANCH   1   5
ATOM      5  C   UNL     1       5.685   3.725  49.260  1.00  0.00     0.059 C 
BRANCH   5   6
ATOM      6  C   UNL     1       6.808   4.712  49.352  1.00  0.00     0.042 C 
ATOM      7  O   UNL     1       7.394   4.905  50.449  1.00  0.00    -0.550 OA
ATOM      8  O   UNL     1       7.235   5.388  48.216  1.00  0.00    -0.550 OA
ENDBRANCH   5   6
ENDBRANCH   1   5
TORSDOF 3
ENDMDL
MODEL 5
REMARK VINA RESULT:    -3.079      1.507      2.132
REMARK INTER + INTRA:          -3.710
REMARK INTER:                  -3.565
REMARK INTRA:                  -0.144
REMARK UNBOUND:                -0.090
REMARK SMILES O=C([O-])CCC(=O)[O-]
REMARK SMILES IDX 4 1 2 2 1 3 3 4 5 5 6 6 7 7 8 8
REMARK H PARENT
REMARK Flexibility Score: inf
ROOT
ATOM      1  C   UNL     1       5.523   3.841  49.222  1.00  0.00     0.059 C 
ENDROOT
BRANCH   1   2
ATOM      2  C   UNL     1       6.765   4.675  49.318  1.00  0.00     0.042 C 
ATOM      3  O   UNL     1       7.417   4.718  50.394  1.00  0.00    -0.550 OA
ATOM      4  O   UNL     1       7.178   5.436  48.233  1.00  0.00    -0.550 OA
ENDBRANCH   1   2
BRANCH   1   5
ATOM      5  C   UNL     1       5.415   3.147  47.859  1.00  0.00     0.059 C 
BRANCH   5   6
ATOM      6  C   UNL     1       6.451   2.076  47.702  1.00  0.00     0.042 C 
ATOM      7  O   UNL     1       7.110   1.983  46.633  1.00  0.00    -0.550 OA
ATOM      8  O   UNL     1       6.718   1.207  48.752  1.00  0.00    -0.550 OA
ENDBRANCH   5   6
ENDBRANCH   1   5
TORSDOF 3
ENDMDL
MODEL 6
REMARK VINA RESULT:    -3.044      0.483      3.785
REMARK INTER + INTRA:          -3.668
REMARK INTER:                  -3.561
REMARK INTRA:                  -0.107
REMARK UNBOUND:                -0.090
REMARK SMILES O=C([O-])CCC(=O)[O-]
REMARK SMILES IDX 4 1 2 2 1 3 3 4 5 5 6 6 7 7 8 8
REMARK H PARENT
REMARK Flexibility Score: inf
ROOT
ATOM      1  C   UNL     1       6.689   2.005  48.017  1.00  0.00     0.059 C 
ENDROOT
BRANCH   1   2
ATOM      2  C   UNL     1       6.542   0.964  49.086  1.00  0.00     0.042 C 
ATOM      3  O   UNL     1       7.054   1.146  50.221  1.00  0.00    -0.550 OA
ATOM      4  O   UNL     1       5.873  -0.222  48.815  1.00  0.00    -0.550 OA
ENDBRANCH   1   2
BRANCH   1   5
ATOM      5  C   UNL     1       5.846   3.248  48.320  1.00  0.00     0.059 C 
BRANCH   5   6
ATOM      6  C   UNL     1       6.684   4.363  48.867  1.00  0.00     0.042 C 
ATOM      7  O   UNL     1       7.144   5.247  48.097  1.00  0.00    -0.550 OA
ATOM      8  O   UNL     1       6.923   4.448  50.233  1.00  0.00    -0.550 OA
ENDBRANCH   5   6
ENDBRANCH   1   5
TORSDOF 3
ENDMDL
MODEL 7
REMARK VINA RESULT:    -2.906      1.418      3.963
REMARK INTER + INTRA:          -3.506
REMARK INTER:                  -3.411
REMARK INTRA:                  -0.096
REMARK UNBOUND:                -0.090
REMARK SMILES O=C([O-])CCC(=O)[O-]
REMARK SMILES IDX 4 1 2 2 1 3 3 4 5 5 6 6 7 7 8 8
REMARK H PARENT
REMARK Flexibility Score: inf
ROOT
ATOM      1  C   UNL     1       6.793   1.152  48.851  1.00  0.00     0.059 C 
ENDROOT
BRANCH   1   2
ATOM      2  C   UNL     1       5.748   0.230  49.403  1.00  0.00     0.042 C 
ATOM      3  O   UNL     1       5.559  -0.898  48.879  1.00  0.00    -0.550 OA
ATOM      4  O   UNL     1       4.955   0.635  50.470  1.00  0.00    -0.550 OA
ENDBRANCH   1   2
BRANCH   1   5
ATOM      5  C   UNL     1       6.683   2.556  49.457  1.00  0.00     0.059 C 
BRANCH   5   6
ATOM      6  C   UNL     1       6.276   3.569  48.432  1.00  0.00     0.042 C 
ATOM      7  O   UNL     1       5.316   3.331  47.652  1.00  0.00    -0.550 OA
ATOM      8  O   UNL     1       6.930   4.792  48.365  1.00  0.00    -0.550 OA
ENDBRANCH   5   6
ENDBRANCH   1   5
TORSDOF 3
ENDMDL
MODEL 8
REMARK VINA RESULT:    -2.701      1.990      2.719
REMARK INTER + INTRA:          -3.265
REMARK INTER:                  -3.154
REMARK INTRA:                  -0.111
REMARK UNBOUND:                -0.090
REMARK SMILES O=C([O-])CCC(=O)[O-]
REMARK SMILES IDX 4 1 2 2 1 3 3 4 5 5 6 6 7 7 8 8
REMARK H PARENT
REMARK Flexibility Score: inf
ROOT
ATOM      1  C   UNL     1       5.745   2.082  49.092  1.00  0.00     0.059 C 
ENDROOT
BRANCH   1   2
ATOM      2  C   UNL     1       6.434   2.795  47.968  1.00  0.00     0.042 C 
ATOM      3  O   UNL     1       6.617   4.039  48.025  1.00  0.00    -0.550 OA
ATOM      4  O   UNL     1       6.840   2.092  46.842  1.00  0.00    -0.550 OA
ENDBRANCH   1   2
BRANCH   1   5
ATOM      5  C   UNL     1       6.733   1.266  49.933  1.00  0.00     0.059 C 
BRANCH   5   6
ATOM      6  C   UNL     1       7.009   1.923  51.250  1.00  0.00     0.042 C 
ATOM      7  O   UNL     1       6.709   1.340  52.325  1.00  0.00    -0.550 OA
ATOM      8  O   UNL     1       7.636   3.162  51.292  1.00  0.00    -0.550 OA
ENDBRANCH   5   6
ENDBRANCH   1   5
TORSDOF 3
ENDMDL
MODEL 9
REMARK VINA RESULT:    -2.680      2.155      4.383
REMARK INTER + INTRA:          -3.241
REMARK INTER:                  -3.208
REMARK INTRA:                  -0.032
REMARK UNBOUND:                -0.090
REMARK SMILES O=C([O-])CCC(=O)[O-]
REMARK SMILES IDX 4 1 2 2 1 3 3 4 5 5 6 6 7 7 8 8
REMARK H PARENT
REMARK Flexibility Score: inf
ROOT
ATOM      1  C   UNL     1       6.764   4.463  48.174  1.00  0.00     0.059 C 
ENDROOT
BRANCH   1   2
ATOM      2  C   UNL     1       6.057   3.163  47.934  1.00  0.00     0.042 C 
ATOM      3  O   UNL     1       4.827   3.056  48.179  1.00  0.00    -0.550 OA
ATOM      4  O   UNL     1       6.766   2.059  47.479  1.00  0.00    -0.550 OA
ENDBRANCH   1   2
BRANCH   1   5
ATOM      5  C   UNL     1       6.752   4.846  49.658  1.00  0.00     0.059 C 
BRANCH   5   6
ATOM      6  C   UNL     1       7.315   6.217  49.878  1.00  0.00     0.042 C 
ATOM      7  O   UNL     1       7.760   6.545  51.009  1.00  0.00    -0.550 OA
ATOM      8  O   UNL     1       7.386   7.117  48.822  1.00  0.00    -0.550 OA
ENDBRANCH   5   6
ENDBRANCH   1   5
TORSDOF 3
ENDMDL
