MODEL 1
REMARK VINA RESULT:    -3.471      0.000      0.000
REMARK INTER + INTRA:          -4.573
REMARK INTER:                  -4.892
REMARK INTRA:                   0.319
REMARK UNBOUND:                 0.319
REMARK SMILES CC1=CCC(=C(C)C)C(=O)CC(C)=CCC1
REMARK SMILES IDX 12 1 14 2 13 3 15 4 16 5 2 6 1 7 3 8 11 10 9 11 10 12 5 13
REMARK SMILES IDX 6 14 7 15 8 16 4 17
REMARK H PARENT
REMARK Flexibility Score: 60.00
ROOT
ATOM      1  C   UNL     1      13.306  62.162  21.153  1.00  0.00    -0.070 C 
ATOM      2  C   UNL     1      14.615  61.853  21.001  1.00  0.00    -0.027 C 
ATOM      3  C   UNL     1      12.287  61.283  20.474  1.00  0.00     0.039 C 
ENDROOT
BRANCH   2   4
ATOM      4  C   UNL     1      15.764  62.585  21.657  1.00  0.00     0.032 C 
BRANCH   4   5
ATOM      5  C   UNL     1      15.990  62.109  23.099  1.00  0.00     0.034 C 
BRANCH   5   6
ATOM      6  C   UNL     1      16.356  63.232  24.060  1.00  0.00    -0.077 C 
ATOM      7  C   UNL     1      17.711  63.883  23.933  1.00  0.00     0.039 C 
ATOM      8  C   UNL     1      15.520  63.695  25.018  1.00  0.00    -0.023 CG0
ATOM      9  G   UNL     1      14.158  63.125  25.341  1.00  0.00     0.000 G0
ENDBRANCH   5   6
ENDBRANCH   4   5
ENDBRANCH   2   4
BRANCH   1  10
ATOM     10  C   UNL     1      12.827  63.347  21.970  1.00  0.00     0.111 C 
BRANCH  10  11
ATOM     11  C   UNL     1      12.499  62.938  23.378  1.00  0.00     0.163 C 
ATOM     12  O   UNL     1      11.800  61.908  23.576  1.00  0.00    -0.294 OA
BRANCH  11  13
ATOM     13  C   UNL     1      13.003  63.710  24.543  1.00  0.00    -0.002 C 
ATOM     14  C   UNL     1      12.451  64.913  24.859  1.00  0.00    -0.069 C 
ATOM     15  C   UNL     1      11.258  65.449  24.101  1.00  0.00     0.039 C 
ATOM     16  C   UNL     1      12.984  65.738  26.008  1.00  0.00     0.039 C 
BRANCH  13  17
ATOM     17  C   UNL     1      14.144  63.137  25.376  1.00  0.00     0.066 CG0
ATOM     18  G   UNL     1      15.498  63.711  25.029  1.00  0.00     0.000 G0
ENDBRANCH  13  17
ENDBRANCH  11  13
ENDBRANCH  10  11
ENDBRANCH   1  10
TORSDOF 0
ENDMDL
MODEL 2
REMARK VINA RESULT:    -3.284      2.875      4.999
REMARK INTER + INTRA:          -4.309
REMARK INTER:                  -4.638
REMARK INTRA:                   0.329
REMARK UNBOUND:                 0.319
REMARK SMILES CC1=CCC(=C(C)C)C(=O)CC(C)=CCC1
REMARK SMILES IDX 12 1 14 2 13 3 15 4 16 5 2 6 1 7 3 8 11 10 9 11 10 12 5 13
REMARK SMILES IDX 6 14 7 15 8 16 4 17
REMARK H PARENT
REMARK Flexibility Score: 60.00
ROOT
ATOM      1  C   UNL     1      13.583  62.002  21.452  1.00  0.00    -0.070 C 
ATOM      2  C   UNL     1      13.720  62.943  22.415  1.00  0.00    -0.027 C 
ATOM      3  C   UNL     1      12.775  62.351  20.228  1.00  0.00     0.039 C 
ENDROOT
BRANCH   2   4
ATOM      4  C   UNL     1      14.542  62.788  23.675  1.00  0.00     0.032 C 
BRANCH   4   5
ATOM      5  C   UNL     1      16.008  63.182  23.446  1.00  0.00     0.034 C 
BRANCH   5   6
ATOM      6  C   UNL     1      16.999  62.297  24.189  1.00  0.00    -0.077 C 
ATOM      7  C   UNL     1      17.150  62.470  25.681  1.00  0.00     0.039 C 
ATOM      8  C   UNL     1      17.744  61.343  23.586  1.00  0.00    -0.023 CG0
ATOM      9  G   UNL     1      17.782  61.071  22.100  1.00  0.00     0.000 G0
ENDBRANCH   5   6
ENDBRANCH   4   5
ENDBRANCH   2   4
BRANCH   1  10
ATOM     10  C   UNL     1      14.203  60.621  21.553  1.00  0.00     0.111 C 
BRANCH  10  11
ATOM     11  C   UNL     1      15.549  60.581  20.885  1.00  0.00     0.163 C 
ATOM     12  O   UNL     1      15.666  61.008  19.705  1.00  0.00    -0.294 OA
BRANCH  11  13
ATOM     13  C   UNL     1      16.749  60.069  21.595  1.00  0.00    -0.002 C 
ATOM     14  C   UNL     1      16.907  58.733  21.800  1.00  0.00    -0.069 C 
ATOM     15  C   UNL     1      15.925  57.733  21.232  1.00  0.00     0.039 C 
ATOM     16  C   UNL     1      18.094  58.196  22.566  1.00  0.00     0.039 C 
BRANCH  13  17
ATOM     17  C   UNL     1      17.797  61.059  22.091  1.00  0.00     0.066 CG0
ATOM     18  G   UNL     1      17.730  61.322  23.578  1.00  0.00     0.000 G0
ENDBRANCH  13  17
ENDBRANCH  11  13
ENDBRANCH  10  11
ENDBRANCH   1  10
TORSDOF 0
ENDMDL
MODEL 3
REMARK VINA RESULT:    -3.136     13.182     14.759
REMARK INTER + INTRA:          -4.101
REMARK INTER:                  -4.587
REMARK INTRA:                   0.486
REMARK UNBOUND:                 0.319
REMARK SMILES CC1=CCC(=C(C)C)C(=O)CC(C)=CCC1
REMARK SMILES IDX 12 1 14 2 13 3 15 4 16 5 2 6 1 7 3 8 11 10 9 11 10 12 5 13
REMARK SMILES IDX 6 14 7 15 8 16 4 17
REMARK H PARENT
REMARK Flexibility Score: 60.00
ROOT
ATOM      1  C   UNL     1      18.631  52.913  34.338  1.00  0.00    -0.070 C 
ATOM      2  C   UNL     1      17.848  52.139  35.125  1.00  0.00    -0.027 C 
ATOM      3  C   UNL     1      19.363  52.253  33.198  1.00  0.00     0.039 C 
ENDROOT
BRANCH   2   4
ATOM      4  C   UNL     1      16.998  52.641  36.271  1.00  0.00     0.032 C 
BRANCH   4   5
ATOM      5  C   UNL     1      15.500  52.445  35.993  1.00  0.00     0.034 C 
BRANCH   5   6
ATOM      6  C   UNL     1      15.082  52.866  34.591  1.00  0.00    -0.077 C 
ATOM      7  C   UNL     1      14.668  51.800  33.606  1.00  0.00     0.039 C 
ATOM      8  C   UNL     1      15.043  54.154  34.180  1.00  0.00    -0.023 CG0
ATOM      9  G   UNL     1      15.485  55.347  34.995  1.00  0.00     0.000 G0
ENDBRANCH   5   6
ENDBRANCH   4   5
ENDBRANCH   2   4
BRANCH   1  10
ATOM     10  C   UNL     1      18.803  54.404  34.556  1.00  0.00     0.111 C 
BRANCH  10  11
ATOM     11  C   UNL     1      17.779  55.186  33.782  1.00  0.00     0.163 C 
ATOM     12  O   UNL     1      17.772  55.120  32.523  1.00  0.00    -0.294 OA
BRANCH  11  13
ATOM     13  C   UNL     1      16.760  56.018  34.472  1.00  0.00    -0.002 C 
ATOM     14  C   UNL     1      16.960  57.354  34.634  1.00  0.00    -0.069 C 
ATOM     15  C   UNL     1      18.168  58.042  34.039  1.00  0.00     0.039 C 
ATOM     16  C   UNL     1      15.960  58.208  35.379  1.00  0.00     0.039 C 
BRANCH  13  17
ATOM     17  C   UNL     1      15.490  55.355  34.995  1.00  0.00     0.066 CG0
ATOM     18  G   UNL     1      15.057  54.151  34.191  1.00  0.00     0.000 G0
ENDBRANCH  13  17
ENDBRANCH  11  13
ENDBRANCH  10  11
ENDBRANCH   1  10
TORSDOF 0
ENDMDL
MODEL 4
REMARK VINA RESULT:    -3.106     13.575     15.255
REMARK INTER + INTRA:          -4.059
REMARK INTER:                  -4.446
REMARK INTRA:                   0.387
REMARK UNBOUND:                 0.319
REMARK SMILES CC1=CCC(=C(C)C)C(=O)CC(C)=CCC1
REMARK SMILES IDX 12 1 14 2 13 3 15 4 16 5 2 6 1 7 3 8 11 10 9 11 10 12 5 13
REMARK SMILES IDX 6 14 7 15 8 16 4 17
REMARK H PARENT
REMARK Flexibility Score: 60.00
ROOT
ATOM      1  C   UNL     1      15.534  52.247  35.993  1.00  0.00    -0.070 C 
ATOM      2  C   UNL     1      14.451  52.022  35.214  1.00  0.00    -0.027 C 
ATOM      3  C   UNL     1      15.306  52.590  37.443  1.00  0.00     0.039 C 
ENDROOT
BRANCH   2   4
ATOM      4  C   UNL     1      14.494  51.609  33.760  1.00  0.00     0.032 C 
BRANCH   4   5
ATOM      5  C   UNL     1      14.310  52.812  32.824  1.00  0.00     0.034 C 
BRANCH   5   6
ATOM      6  C   UNL     1      15.421  52.956  31.793  1.00  0.00    -0.077 C 
ATOM      7  C   UNL     1      15.356  52.125  30.535  1.00  0.00     0.039 C 
ATOM      8  C   UNL     1      16.464  53.805  31.934  1.00  0.00    -0.023 CG0
ATOM      9  G   UNL     1      16.737  54.662  33.149  1.00  0.00     0.000 G0
ENDBRANCH   5   6
ENDBRANCH   4   5
ENDBRANCH   2   4
BRANCH   1  10
ATOM     10  C   UNL     1      16.956  52.171  35.471  1.00  0.00     0.111 C 
BRANCH  10  11
ATOM     11  C   UNL     1      17.562  53.540  35.347  1.00  0.00     0.163 C 
ATOM     12  O   UNL     1      17.814  54.202  36.390  1.00  0.00    -0.294 OA
BRANCH  11  13
ATOM     13  C   UNL     1      17.894  54.120  34.021  1.00  0.00    -0.002 C 
ATOM     14  C   UNL     1      19.185  54.160  33.593  1.00  0.00    -0.069 C 
ATOM     15  C   UNL     1      20.298  53.534  34.404  1.00  0.00     0.039 C 
ATOM     16  C   UNL     1      19.550  54.793  32.269  1.00  0.00     0.039 C 
BRANCH  13  17
ATOM     17  C   UNL     1      16.771  54.670  33.148  1.00  0.00     0.066 CG0
ATOM     18  G   UNL     1      16.455  53.806  31.949  1.00  0.00     0.000 G0
ENDBRANCH  13  17
ENDBRANCH  11  13
ENDBRANCH  10  11
ENDBRANCH   1  10
TORSDOF 0
ENDMDL
MODEL 5
REMARK VINA RESULT:    -3.105     13.155     14.515
REMARK INTER + INTRA:          -4.056
REMARK INTER:                  -4.530
REMARK INTRA:                   0.473
REMARK UNBOUND:                 0.319
REMARK SMILES CC1=CCC(=C(C)C)C(=O)CC(C)=CCC1
REMARK SMILES IDX 12 1 14 2 13 3 15 4 16 5 2 6 1 7 3 8 11 10 9 11 10 12 5 13
REMARK SMILES IDX 6 14 7 15 8 16 4 17
REMARK H PARENT
REMARK Flexibility Score: 60.00
ROOT
ATOM      1  C   UNL     1      15.064  52.730  35.274  1.00  0.00    -0.070 C 
ATOM      2  C   UNL     1      16.267  52.323  35.740  1.00  0.00    -0.027 C 
ATOM      3  C   UNL     1      14.230  51.741  34.501  1.00  0.00     0.039 C 
ENDROOT
BRANCH   2   4
ATOM      4  C   UNL     1      17.204  53.159  36.583  1.00  0.00     0.032 C 
BRANCH   4   5
ATOM      5  C   UNL     1      18.602  53.250  35.953  1.00  0.00     0.034 C 
BRANCH   5   6
ATOM      6  C   UNL     1      18.590  53.763  34.520  1.00  0.00    -0.077 C 
ATOM      7  C   UNL     1      19.229  52.922  33.442  1.00  0.00     0.039 C 
ATOM      8  C   UNL     1      18.019  54.933  34.151  1.00  0.00    -0.023 CG0
ATOM      9  G   UNL     1      17.396  55.938  35.092  1.00  0.00     0.000 G0
ENDBRANCH   5   6
ENDBRANCH   4   5
ENDBRANCH   2   4
BRANCH   1  10
ATOM     10  C   UNL     1      14.525  54.131  35.495  1.00  0.00     0.111 C 
BRANCH  10  11
ATOM     11  C   UNL     1      15.035  55.079  34.446  1.00  0.00     0.163 C 
ATOM     12  O   UNL     1      14.693  54.914  33.244  1.00  0.00    -0.294 OA
BRANCH  11  13
ATOM     13  C   UNL     1      15.915  56.222  34.801  1.00  0.00    -0.002 C 
ATOM     14  C   UNL     1      15.407  57.482  34.877  1.00  0.00    -0.069 C 
ATOM     15  C   UNL     1      13.927  57.740  34.698  1.00  0.00     0.039 C 
ATOM     16  C   UNL     1      16.295  58.665  35.185  1.00  0.00     0.039 C 
BRANCH  13  17
ATOM     17  C   UNL     1      17.392  55.964  35.079  1.00  0.00     0.066 CG0
ATOM     18  G   UNL     1      18.010  54.927  34.169  1.00  0.00     0.000 G0
ENDBRANCH  13  17
ENDBRANCH  11  13
ENDBRANCH  10  11
ENDBRANCH   1  10
TORSDOF 0
ENDMDL
MODEL 6
REMARK VINA RESULT:    -3.075      3.463      6.240
REMARK INTER + INTRA:          -4.014
REMARK INTER:                  -4.422
REMARK INTRA:                   0.408
REMARK UNBOUND:                 0.319
REMARK SMILES CC1=CCC(=C(C)C)C(=O)CC(C)=CCC1
REMARK SMILES IDX 12 1 14 2 13 3 15 4 16 5 2 6 1 7 3 8 11 10 9 11 10 12 5 13
REMARK SMILES IDX 6 14 7 15 8 16 4 17
REMARK H PARENT
REMARK Flexibility Score: 60.00
ROOT
ATOM      1  C   UNL     1      16.937  62.537  22.860  1.00  0.00    -0.070 C 
ATOM      2  C   UNL     1      16.072  62.854  21.869  1.00  0.00    -0.027 C 
ATOM      3  C   UNL     1      16.963  63.413  24.086  1.00  0.00     0.039 C 
ENDROOT
BRANCH   2   4
ATOM      4  C   UNL     1      15.870  62.056  20.600  1.00  0.00     0.032 C 
BRANCH   4   5
ATOM      5  C   UNL     1      14.433  61.527  20.488  1.00  0.00     0.034 C 
BRANCH   5   6
ATOM      6  C   UNL     1      13.958  60.789  21.732  1.00  0.00    -0.077 C 
ATOM      7  C   UNL     1      12.815  61.370  22.529  1.00  0.00     0.039 C 
ATOM      8  C   UNL     1      14.495  59.623  22.158  1.00  0.00    -0.023 CG0
ATOM      9  G   UNL     1      15.684  58.928  21.537  1.00  0.00     0.000 G0
ENDBRANCH   5   6
ENDBRANCH   4   5
ENDBRANCH   2   4
BRANCH   1  10
ATOM     10  C   UNL     1      17.875  61.347  22.788  1.00  0.00     0.111 C 
BRANCH  10  11
ATOM     11  C   UNL     1      17.207  60.099  23.295  1.00  0.00     0.163 C 
ATOM     12  O   UNL     1      16.831  60.044  24.496  1.00  0.00    -0.294 OA
BRANCH  11  13
ATOM     13  C   UNL     1      16.960  58.939  22.401  1.00  0.00    -0.002 C 
ATOM     14  C   UNL     1      17.850  57.911  22.349  1.00  0.00    -0.069 C 
ATOM     15  C   UNL     1      19.056  57.874  23.261  1.00  0.00     0.039 C 
ATOM     16  C   UNL     1      17.643  56.746  21.408  1.00  0.00     0.039 C 
BRANCH  13  17
ATOM     17  C   UNL     1      15.699  58.916  21.545  1.00  0.00     0.066 CG0
ATOM     18  G   UNL     1      14.522  59.623  22.176  1.00  0.00     0.000 G0
ENDBRANCH  13  17
ENDBRANCH  11  13
ENDBRANCH  10  11
ENDBRANCH   1  10
TORSDOF 0
ENDMDL
MODEL 7
REMARK VINA RESULT:    -3.026      1.894      3.660
REMARK INTER + INTRA:          -3.946
REMARK INTER:                  -4.414
REMARK INTRA:                   0.468
REMARK UNBOUND:                 0.319
REMARK SMILES CC1=CCC(=C(C)C)C(=O)CC(C)=CCC1
REMARK SMILES IDX 12 1 14 2 13 3 15 4 16 5 2 6 1 7 3 8 11 10 9 11 10 12 5 13
REMARK SMILES IDX 6 14 7 15 8 16 4 17
REMARK H PARENT
REMARK Flexibility Score: 60.00
ROOT
ATOM      1  C   UNL     1      15.990  61.735  21.294  1.00  0.00    -0.070 C 
ATOM      2  C   UNL     1      14.939  61.335  20.541  1.00  0.00    -0.027 C 
ATOM      3  C   UNL     1      17.252  60.911  21.244  1.00  0.00     0.039 C 
ENDROOT
BRANCH   2   4
ATOM      4  C   UNL     1      13.623  62.070  20.423  1.00  0.00     0.032 C 
BRANCH   4   5
ATOM      5  C   UNL     1      12.449  61.209  20.913  1.00  0.00     0.034 C 
BRANCH   5   6
ATOM      6  C   UNL     1      12.745  60.452  22.199  1.00  0.00    -0.077 C 
ATOM      7  C   UNL     1      12.817  58.945  22.155  1.00  0.00     0.039 C 
ATOM      8  C   UNL     1      12.967  61.059  23.388  1.00  0.00    -0.023 CG0
ATOM      9  G   UNL     1      12.868  62.546  23.643  1.00  0.00     0.000 G0
ENDBRANCH   5   6
ENDBRANCH   4   5
ENDBRANCH   2   4
BRANCH   1  10
ATOM     10  C   UNL     1      15.950  62.965  22.180  1.00  0.00     0.111 C 
BRANCH  10  11
ATOM     11  C   UNL     1      15.477  62.621  23.564  1.00  0.00     0.163 C 
ATOM     12  O   UNL     1      16.183  61.869  24.290  1.00  0.00    -0.294 OA
BRANCH  11  13
ATOM     13  C   UNL     1      14.206  63.168  24.104  1.00  0.00    -0.002 C 
ATOM     14  C   UNL     1      14.225  64.205  24.985  1.00  0.00    -0.069 C 
ATOM     15  C   UNL     1      15.521  64.887  25.363  1.00  0.00     0.039 C 
ATOM     16  C   UNL     1      12.946  64.743  25.585  1.00  0.00     0.039 C 
BRANCH  13  17
ATOM     17  C   UNL     1      12.884  62.553  23.658  1.00  0.00     0.066 CG0
ATOM     18  G   UNL     1      12.959  61.065  23.408  1.00  0.00     0.000 G0
ENDBRANCH  13  17
ENDBRANCH  11  13
ENDBRANCH  10  11
ENDBRANCH   1  10
TORSDOF 0
ENDMDL
MODEL 8
REMARK VINA RESULT:    -2.903      2.841      4.559
REMARK INTER + INTRA:          -3.773
REMARK INTER:                  -4.226
REMARK INTRA:                   0.453
REMARK UNBOUND:                 0.319
REMARK SMILES CC1=CCC(=C(C)C)C(=O)CC(C)=CCC1
REMARK SMILES IDX 12 1 14 2 13 3 15 4 16 5 2 6 1 7 3 8 11 10 9 11 10 12 5 13
REMARK SMILES IDX 6 14 7 15 8 16 4 17
REMARK H PARENT
REMARK Flexibility Score: 60.00
ROOT
ATOM      1  C   UNL     1      14.689  62.354  21.248  1.00  0.00    -0.070 C 
ATOM      2  C   UNL     1      14.817  61.166  20.613  1.00  0.00    -0.027 C 
ATOM      3  C   UNL     1      13.329  63.003  21.271  1.00  0.00     0.039 C 
ENDROOT
BRANCH   2   4
ATOM      4  C   UNL     1      16.087  60.348  20.543  1.00  0.00     0.032 C 
BRANCH   4   5
ATOM      5  C   UNL     1      15.922  58.987  21.234  1.00  0.00     0.034 C 
BRANCH   5   6
ATOM      6  C   UNL     1      15.311  59.081  22.625  1.00  0.00    -0.077 C 
ATOM      7  C   UNL     1      13.941  58.493  22.858  1.00  0.00     0.039 C 
ATOM      8  C   UNL     1      15.940  59.652  23.678  1.00  0.00    -0.023 CG0
ATOM      9  G   UNL     1      17.278  60.352  23.624  1.00  0.00     0.000 G0
ENDBRANCH   5   6
ENDBRANCH   4   5
ENDBRANCH   2   4
BRANCH   1  10
ATOM     10  C   UNL     1      15.849  63.055  21.930  1.00  0.00     0.111 C 
BRANCH  10  11
ATOM     11  C   UNL     1      16.004  62.587  23.350  1.00  0.00     0.163 C 
ATOM     12  O   UNL     1      15.073  62.793  24.174  1.00  0.00    -0.294 OA
BRANCH  11  13
ATOM     13  C   UNL     1      17.224  61.866  23.796  1.00  0.00    -0.002 C 
ATOM     14  C   UNL     1      18.267  62.551  24.338  1.00  0.00    -0.069 C 
ATOM     15  C   UNL     1      18.179  64.040  24.588  1.00  0.00     0.039 C 
ATOM     16  C   UNL     1      19.537  61.843  24.749  1.00  0.00     0.039 C 
BRANCH  13  17
ATOM     17  C   UNL     1      17.290  60.351  23.638  1.00  0.00     0.066 CG0
ATOM     18  G   UNL     1      15.939  59.676  23.673  1.00  0.00     0.000 G0
ENDBRANCH  13  17
ENDBRANCH  11  13
ENDBRANCH  10  11
ENDBRANCH   1  10
TORSDOF 0
ENDMDL
MODEL 9
REMARK VINA RESULT:    -2.801     12.923     14.504
REMARK INTER + INTRA:          -3.628
REMARK INTER:                  -4.147
REMARK INTRA:                   0.519
REMARK UNBOUND:                 0.319
REMARK SMILES CC1=CCC(=C(C)C)C(=O)CC(C)=CCC1
REMARK SMILES IDX 12 1 14 2 13 3 15 4 16 5 2 6 1 7 3 8 11 10 9 11 10 12 5 13
REMARK SMILES IDX 6 14 7 15 8 16 4 17
REMARK H PARENT
REMARK Flexibility Score: 60.00
ROOT
ATOM      1  C   UNL     1      19.000  52.190  33.434  1.00  0.00    -0.070 C 
ATOM      2  C   UNL     1      18.299  52.155  34.591  1.00  0.00    -0.027 C 
ATOM      3  C   UNL     1      18.726  51.122  32.407  1.00  0.00     0.039 C 
ENDROOT
BRANCH   2   4
ATOM      4  C   UNL     1      18.399  53.176  35.702  1.00  0.00     0.032 C 
BRANCH   4   5
ATOM      5  C   UNL     1      17.053  53.870  35.957  1.00  0.00     0.034 C 
BRANCH   5   6
ATOM      6  C   UNL     1      16.421  54.450  34.700  1.00  0.00    -0.077 C 
ATOM      7  C   UNL     1      15.061  53.953  34.274  1.00  0.00     0.039 C 
ATOM      8  C   UNL     1      17.007  55.408  33.945  1.00  0.00    -0.023 CG0
ATOM      9  G   UNL     1      18.389  55.977  34.170  1.00  0.00     0.000 G0
ENDBRANCH   5   6
ENDBRANCH   4   5
ENDBRANCH   2   4
BRANCH   1  10
ATOM     10  C   UNL     1      20.043  53.250  33.133  1.00  0.00     0.111 C 
BRANCH  10  11
ATOM     11  C   UNL     1      19.435  54.416  32.406  1.00  0.00     0.163 C 
ATOM     12  O   UNL     1      18.962  54.247  31.251  1.00  0.00    -0.294 OA
BRANCH  11  13
ATOM     13  C   UNL     1      19.360  55.761  33.033  1.00  0.00    -0.002 C 
ATOM     14  C   UNL     1      20.154  56.772  32.586  1.00  0.00    -0.069 C 
ATOM     15  C   UNL     1      21.059  56.585  31.389  1.00  0.00     0.039 C 
ATOM     16  C   UNL     1      20.130  58.132  33.244  1.00  0.00     0.039 C 
BRANCH  13  17
ATOM     17  C   UNL     1      18.383  55.993  34.180  1.00  0.00     0.066 CG0
ATOM     18  G   UNL     1      17.009  55.412  33.936  1.00  0.00     0.000 G0
ENDBRANCH  13  17
ENDBRANCH  11  13
ENDBRANCH  10  11
ENDBRANCH   1  10
TORSDOF 0
ENDMDL
