MODEL 1
REMARK VINA RESULT:    -7.006      0.000      0.000
REMARK INTER + INTRA:          -7.006
REMARK INTER:                  -7.006
REMARK INTRA:                   0.000
REMARK UNBOUND:                 0.000
REMARK SMILES C=C1CCC[C@]2(C)CC(=O)C(=C(C)C)C[C@@H]12
REMARK SMILES IDX 13 1 12 2 11 3 15 4 16 5 2 6 1 7 3 8 4 9 5 10 6 11 8 12 9 13
REMARK SMILES IDX 10 14 7 15 14 16
REMARK H PARENT
REMARK Flexibility Score: inf
ROOT
ATOM      1  C   UNL     1      10.876 -30.572  21.170  1.00  0.00     0.039 C 
ATOM      2  C   UNL     1      11.886 -30.061  22.173  1.00  0.00    -0.070 C 
ATOM      3  C   UNL     1      13.132 -30.611  22.268  1.00  0.00    -0.006 C 
ATOM      4  C   UNL     1      13.544 -31.779  21.381  1.00  0.00     0.047 C 
ATOM      5  C   UNL     1      14.619 -32.696  22.022  1.00  0.00     0.025 C 
ATOM      6  C   UNL     1      15.137 -33.811  21.108  1.00  0.00    -0.073 C 
ATOM      7  C   UNL     1      14.607 -34.100  19.904  1.00  0.00     0.008 C 
ATOM      8  C   UNL     1      16.294 -34.651  21.597  1.00  0.00     0.031 C 
ATOM      9  C   UNL     1      16.623 -34.356  23.061  1.00  0.00     0.005 C 
ATOM     10  C   UNL     1      16.869 -32.858  23.305  1.00  0.00     0.008 C 
ATOM     11  C   UNL     1      15.827 -31.895  22.618  1.00  0.00    -0.018 C 
ATOM     12  C   UNL     1      15.280 -30.913  23.683  1.00  0.00     0.088 C 
ATOM     13  C   UNL     1      14.193 -30.034  23.141  1.00  0.00     0.159 C 
ATOM     14  O   UNL     1      14.211 -28.806  23.425  1.00  0.00    -0.295 OA
ATOM     15  C   UNL     1      16.559 -31.091  21.508  1.00  0.00     0.012 C 
ATOM     16  C   UNL     1      11.437 -28.942  23.086  1.00  0.00     0.039 C 
ENDROOT
TORSDOF 0
ENDMDL
MODEL 2
REMARK VINA RESULT:    -6.614      2.447      5.322
REMARK INTER + INTRA:          -6.614
REMARK INTER:                  -6.614
REMARK INTRA:                   0.000
REMARK UNBOUND:                 0.000
REMARK SMILES C=C1CCC[C@]2(C)CC(=O)C(=C(C)C)C[C@@H]12
REMARK SMILES IDX 13 1 12 2 11 3 15 4 16 5 2 6 1 7 3 8 4 9 5 10 6 11 8 12 9 13
REMARK SMILES IDX 10 14 7 15 14 16
REMARK H PARENT
REMARK Flexibility Score: inf
ROOT
ATOM      1  C   UNL     1      16.566 -36.354  19.649  1.00  0.00     0.039 C 
ATOM      2  C   UNL     1      17.150 -35.973  20.992  1.00  0.00    -0.070 C 
ATOM      3  C   UNL     1      16.663 -34.912  21.701  1.00  0.00    -0.006 C 
ATOM      4  C   UNL     1      15.527 -34.058  21.154  1.00  0.00     0.047 C 
ATOM      5  C   UNL     1      15.552 -32.594  21.667  1.00  0.00     0.025 C 
ATOM      6  C   UNL     1      14.357 -31.741  21.227  1.00  0.00    -0.073 C 
ATOM      7  C   UNL     1      13.433 -32.149  20.337  1.00  0.00     0.008 C 
ATOM      8  C   UNL     1      14.221 -30.353  21.808  1.00  0.00     0.031 C 
ATOM      9  C   UNL     1      15.462 -29.956  22.611  1.00  0.00     0.005 C 
ATOM     10  C   UNL     1      15.801 -30.992  23.695  1.00  0.00     0.008 C 
ATOM     11  C   UNL     1      15.729 -32.494  23.221  1.00  0.00    -0.018 C 
ATOM     12  C   UNL     1      17.053 -33.200  23.605  1.00  0.00     0.088 C 
ATOM     13  C   UNL     1      17.119 -34.605  23.087  1.00  0.00     0.159 C 
ATOM     14  O   UNL     1      17.546 -35.512  23.851  1.00  0.00    -0.295 OA
ATOM     15  C   UNL     1      14.549 -33.186  23.958  1.00  0.00     0.012 C 
ATOM     16  C   UNL     1      18.317 -36.797  21.488  1.00  0.00     0.039 C 
ENDROOT
TORSDOF 0
ENDMDL
MODEL 3
REMARK VINA RESULT:    -6.588      2.383      5.073
REMARK INTER + INTRA:          -6.588
REMARK INTER:                  -6.588
REMARK INTRA:                   0.000
REMARK UNBOUND:                 0.000
REMARK SMILES C=C1CCC[C@]2(C)CC(=O)C(=C(C)C)C[C@@H]12
REMARK SMILES IDX 13 1 12 2 11 3 15 4 16 5 2 6 1 7 3 8 4 9 5 10 6 11 8 12 9 13
REMARK SMILES IDX 10 14 7 15 14 16
REMARK H PARENT
REMARK Flexibility Score: inf
ROOT
ATOM      1  C   UNL     1      16.486 -35.518  20.610  1.00  0.00     0.039 C 
ATOM      2  C   UNL     1      17.177 -34.202  20.334  1.00  0.00    -0.070 C 
ATOM      3  C   UNL     1      16.881 -33.081  21.056  1.00  0.00    -0.006 C 
ATOM      4  C   UNL     1      15.824 -33.110  22.153  1.00  0.00     0.047 C 
ATOM      5  C   UNL     1      15.131 -31.741  22.382  1.00  0.00     0.025 C 
ATOM      6  C   UNL     1      14.147 -31.710  23.555  1.00  0.00    -0.073 C 
ATOM      7  C   UNL     1      13.770 -32.803  24.246  1.00  0.00     0.008 C 
ATOM      8  C   UNL     1      13.546 -30.380  23.946  1.00  0.00     0.031 C 
ATOM      9  C   UNL     1      13.889 -29.289  22.929  1.00  0.00     0.005 C 
ATOM     10  C   UNL     1      15.405 -29.179  22.693  1.00  0.00     0.008 C 
ATOM     11  C   UNL     1      16.149 -30.557  22.513  1.00  0.00    -0.018 C 
ATOM     12  C   UNL     1      16.996 -30.498  21.218  1.00  0.00     0.088 C 
ATOM     13  C   UNL     1      17.648 -31.812  20.907  1.00  0.00     0.159 C 
ATOM     14  O   UNL     1      18.853 -31.815  20.537  1.00  0.00    -0.295 OA
ATOM     15  C   UNL     1      17.091 -30.768  23.731  1.00  0.00     0.012 C 
ATOM     16  C   UNL     1      18.178 -34.179  19.202  1.00  0.00     0.039 C 
ENDROOT
TORSDOF 0
ENDMDL
MODEL 4
REMARK VINA RESULT:    -6.489      2.290      5.402
REMARK INTER + INTRA:          -6.489
REMARK INTER:                  -6.489
REMARK INTRA:                   0.000
REMARK UNBOUND:                 0.000
REMARK SMILES C=C1CCC[C@]2(C)CC(=O)C(=C(C)C)C[C@@H]12
REMARK SMILES IDX 13 1 12 2 11 3 15 4 16 5 2 6 1 7 3 8 4 9 5 10 6 11 8 12 9 13
REMARK SMILES IDX 10 14 7 15 14 16
REMARK H PARENT
REMARK Flexibility Score: inf
ROOT
ATOM      1  C   UNL     1      19.292 -31.952  20.827  1.00  0.00     0.039 C 
ATOM      2  C   UNL     1      18.256 -32.966  21.257  1.00  0.00    -0.070 C 
ATOM      3  C   UNL     1      16.979 -32.590  21.562  1.00  0.00    -0.006 C 
ATOM      4  C   UNL     1      16.556 -31.128  21.502  1.00  0.00     0.047 C 
ATOM      5  C   UNL     1      15.400 -30.778  22.475  1.00  0.00     0.025 C 
ATOM      6  C   UNL     1      14.875 -29.344  22.355  1.00  0.00    -0.073 C 
ATOM      7  C   UNL     1      15.454 -28.395  21.595  1.00  0.00     0.008 C 
ATOM      8  C   UNL     1      13.649 -28.965  23.154  1.00  0.00     0.031 C 
ATOM      9  C   UNL     1      13.255 -30.071  24.134  1.00  0.00     0.005 C 
ATOM     10  C   UNL     1      13.075 -31.426  23.431  1.00  0.00     0.008 C 
ATOM     11  C   UNL     1      14.205 -31.787  22.392  1.00  0.00    -0.018 C 
ATOM     12  C   UNL     1      14.742 -33.204  22.715  1.00  0.00     0.088 C 
ATOM     13  C   UNL     1      15.903 -33.582  21.845  1.00  0.00     0.159 C 
ATOM     14  O   UNL     1      15.935 -34.741  21.351  1.00  0.00    -0.295 OA
ATOM     15  C   UNL     1      13.579 -31.790  20.970  1.00  0.00     0.012 C 
ATOM     16  C   UNL     1      18.712 -34.404  21.370  1.00  0.00     0.039 C 
ENDROOT
TORSDOF 0
ENDMDL
MODEL 5
REMARK VINA RESULT:    -6.469      1.693      3.182
REMARK INTER + INTRA:          -6.469
REMARK INTER:                  -6.469
REMARK INTRA:                   0.000
REMARK UNBOUND:                 0.000
REMARK SMILES C=C1CCC[C@]2(C)CC(=O)C(=C(C)C)C[C@@H]12
REMARK SMILES IDX 13 1 12 2 11 3 15 4 16 5 2 6 1 7 3 8 4 9 5 10 6 11 8 12 9 13
REMARK SMILES IDX 10 14 7 15 14 16
REMARK H PARENT
REMARK Flexibility Score: inf
ROOT
ATOM      1  C   UNL     1      12.984 -27.658  24.377  1.00  0.00     0.039 C 
ATOM      2  C   UNL     1      12.445 -28.613  23.335  1.00  0.00    -0.070 C 
ATOM      3  C   UNL     1      13.167 -29.699  22.928  1.00  0.00    -0.006 C 
ATOM      4  C   UNL     1      14.554 -29.976  23.493  1.00  0.00     0.047 C 
ATOM      5  C   UNL     1      15.477 -30.751  22.516  1.00  0.00     0.025 C 
ATOM      6  C   UNL     1      16.838 -31.146  23.098  1.00  0.00    -0.073 C 
ATOM      7  C   UNL     1      17.290 -30.728  24.296  1.00  0.00     0.008 C 
ATOM      8  C   UNL     1      17.735 -32.036  22.270  1.00  0.00     0.031 C 
ATOM      9  C   UNL     1      17.185 -32.227  20.855  1.00  0.00     0.005 C 
ATOM     10  C   UNL     1      15.735 -32.739  20.866  1.00  0.00     0.008 C 
ATOM     11  C   UNL     1      14.784 -32.010  21.891  1.00  0.00    -0.018 C 
ATOM     12  C   UNL     1      13.512 -31.542  21.141  1.00  0.00     0.088 C 
ATOM     13  C   UNL     1      12.601 -30.734  22.016  1.00  0.00     0.159 C 
ATOM     14  O   UNL     1      11.363 -30.963  21.975  1.00  0.00    -0.295 OA
ATOM     15  C   UNL     1      14.381 -33.026  22.995  1.00  0.00     0.012 C 
ATOM     16  C   UNL     1      11.093 -28.287  22.743  1.00  0.00     0.039 C 
ENDROOT
TORSDOF 0
ENDMDL
MODEL 6
REMARK VINA RESULT:    -6.422      2.107      4.900
REMARK INTER + INTRA:          -6.422
REMARK INTER:                  -6.422
REMARK INTRA:                   0.000
REMARK UNBOUND:                 0.000
REMARK SMILES C=C1CCC[C@]2(C)CC(=O)C(=C(C)C)C[C@@H]12
REMARK SMILES IDX 13 1 12 2 11 3 15 4 16 5 2 6 1 7 3 8 4 9 5 10 6 11 8 12 9 13
REMARK SMILES IDX 10 14 7 15 14 16
REMARK H PARENT
REMARK Flexibility Score: inf
ROOT
ATOM      1  C   UNL     1      18.333 -33.309  19.877  1.00  0.00     0.039 C 
ATOM      2  C   UNL     1      18.370 -32.785  21.295  1.00  0.00    -0.070 C 
ATOM      3  C   UNL     1      17.231 -32.381  21.931  1.00  0.00    -0.006 C 
ATOM      4  C   UNL     1      15.881 -32.422  21.226  1.00  0.00     0.047 C 
ATOM      5  C   UNL     1      14.877 -31.361  21.749  1.00  0.00     0.025 C 
ATOM      6  C   UNL     1      13.474 -31.454  21.140  1.00  0.00    -0.073 C 
ATOM      7  C   UNL     1      13.154 -32.268  20.116  1.00  0.00     0.008 C 
ATOM      8  C   UNL     1      12.393 -30.562  21.705  1.00  0.00     0.031 C 
ATOM      9  C   UNL     1      12.966 -29.541  22.690  1.00  0.00     0.005 C 
ATOM     10  C   UNL     1      13.784 -30.212  23.804  1.00  0.00     0.008 C 
ATOM     11  C   UNL     1      14.775 -31.336  23.312  1.00  0.00    -0.018 C 
ATOM     12  C   UNL     1      16.183 -31.043  23.886  1.00  0.00     0.088 C 
ATOM     13  C   UNL     1      17.216 -32.001  23.373  1.00  0.00     0.159 C 
ATOM     14  O   UNL     1      18.050 -32.484  24.185  1.00  0.00    -0.295 OA
ATOM     15  C   UNL     1      14.275 -32.703  23.857  1.00  0.00     0.012 C 
ATOM     16  C   UNL     1      19.727 -32.695  21.956  1.00  0.00     0.039 C 
ENDROOT
TORSDOF 0
ENDMDL
MODEL 7
REMARK VINA RESULT:    -6.233      4.135      5.914
REMARK INTER + INTRA:          -6.233
REMARK INTER:                  -6.233
REMARK INTRA:                   0.000
REMARK UNBOUND:                 0.000
REMARK SMILES C=C1CCC[C@]2(C)CC(=O)C(=C(C)C)C[C@@H]12
REMARK SMILES IDX 13 1 12 2 11 3 15 4 16 5 2 6 1 7 3 8 4 9 5 10 6 11 8 12 9 13
REMARK SMILES IDX 10 14 7 15 14 16
REMARK H PARENT
REMARK Flexibility Score: inf
ROOT
ATOM      1  C   UNL     1      21.244 -31.783  22.768  1.00  0.00     0.039 C 
ATOM      2  C   UNL     1      20.057 -31.480  21.880  1.00  0.00    -0.070 C 
ATOM      3  C   UNL     1      19.149 -32.447  21.556  1.00  0.00    -0.006 C 
ATOM      4  C   UNL     1      19.310 -33.875  22.059  1.00  0.00     0.047 C 
ATOM      5  C   UNL     1      18.678 -34.937  21.120  1.00  0.00     0.025 C 
ATOM      6  C   UNL     1      18.723 -36.372  21.656  1.00  0.00    -0.073 C 
ATOM      7  C   UNL     1      19.392 -36.737  22.766  1.00  0.00     0.008 C 
ATOM      8  C   UNL     1      17.993 -37.444  20.879  1.00  0.00     0.031 C 
ATOM      9  C   UNL     1      17.488 -36.918  19.535  1.00  0.00     0.005 C 
ATOM     10  C   UNL     1      16.629 -35.653  19.697  1.00  0.00     0.008 C 
ATOM     11  C   UNL     1      17.215 -34.578  20.690  1.00  0.00    -0.018 C 
ATOM     12  C   UNL     1      17.243 -33.204  19.974  1.00  0.00     0.088 C 
ATOM     13  C   UNL     1      17.897 -32.143  20.807  1.00  0.00     0.159 C 
ATOM     14  O   UNL     1      17.355 -31.007  20.872  1.00  0.00    -0.295 OA
ATOM     15  C   UNL     1      16.280 -34.490  21.927  1.00  0.00     0.012 C 
ATOM     16  C   UNL     1      19.949 -30.071  21.342  1.00  0.00     0.039 C 
ENDROOT
TORSDOF 0
ENDMDL
MODEL 8
REMARK VINA RESULT:    -6.232      1.791      3.048
REMARK INTER + INTRA:          -6.232
REMARK INTER:                  -6.232
REMARK INTRA:                   0.000
REMARK UNBOUND:                 0.000
REMARK SMILES C=C1CCC[C@]2(C)CC(=O)C(=C(C)C)C[C@@H]12
REMARK SMILES IDX 13 1 12 2 11 3 15 4 16 5 2 6 1 7 3 8 4 9 5 10 6 11 8 12 9 13
REMARK SMILES IDX 10 14 7 15 14 16
REMARK H PARENT
REMARK Flexibility Score: inf
ROOT
ATOM      1  C   UNL     1      14.640 -28.174  22.752  1.00  0.00     0.039 C 
ATOM      2  C   UNL     1      14.086 -29.539  23.095  1.00  0.00    -0.070 C 
ATOM      3  C   UNL     1      14.810 -30.675  22.870  1.00  0.00    -0.006 C 
ATOM      4  C   UNL     1      16.195 -30.610  22.240  1.00  0.00     0.047 C 
ATOM      5  C   UNL     1      16.574 -31.888  21.445  1.00  0.00     0.025 C 
ATOM      6  C   UNL     1      18.005 -31.900  20.899  1.00  0.00    -0.073 C 
ATOM      7  C   UNL     1      18.835 -30.840  20.945  1.00  0.00     0.008 C 
ATOM      8  C   UNL     1      18.508 -33.168  20.248  1.00  0.00     0.031 C 
ATOM      9  C   UNL     1      17.383 -34.189  20.065  1.00  0.00     0.005 C 
ATOM     10  C   UNL     1      16.651 -34.482  21.385  1.00  0.00     0.008 C 
ATOM     11  C   UNL     1      16.302 -33.207  22.245  1.00  0.00    -0.018 C 
ATOM     12  C   UNL     1      14.798 -33.252  22.610  1.00  0.00     0.088 C 
ATOM     13  C   UNL     1      14.352 -32.015  23.332  1.00  0.00     0.159 C 
ATOM     14  O   UNL     1      13.603 -32.140  24.339  1.00  0.00    -0.295 OA
ATOM     15  C   UNL     1      17.146 -33.249  23.549  1.00  0.00     0.012 C 
ATOM     16  C   UNL     1      12.685 -29.585  23.663  1.00  0.00     0.039 C 
ENDROOT
TORSDOF 0
ENDMDL
