MODEL 1
REMARK VINA RESULT:    -3.853      0.000      0.000
REMARK INTER + INTRA:          -4.461
REMARK INTER:                  -4.416
REMARK INTRA:                  -0.045
REMARK UNBOUND:                -0.045
REMARK SMILES O=C([O-])c1cc(O)c(O)c(O)c1
REMARK SMILES IDX 4 1 5 2 12 3 6 4 10 5 8 6 2 7 1 8 3 9 7 10 11 12 9 14
REMARK H PARENT 7 11 11 13 9 15
REMARK Flexibility Score: inf
ROOT
ATOM      1  C   UNL     1      59.505  -1.906 -49.676  1.00  0.00     0.005 A 
ATOM      2  C   UNL     1      59.492  -2.821 -50.741  1.00  0.00     0.060 A 
ATOM      3  C   UNL     1      60.394  -2.113 -48.612  1.00  0.00     0.060 A 
ATOM      4  C   UNL     1      60.350  -3.927 -50.751  1.00  0.00     0.162 A 
ATOM      5  C   UNL     1      61.258  -3.212 -48.606  1.00  0.00     0.162 A 
ATOM      6  C   UNL     1      61.245  -4.128 -49.673  1.00  0.00     0.200 A 
ENDROOT
BRANCH   1   7
ATOM      7  C   UNL     1      58.594  -0.738 -49.672  1.00  0.00     0.072 C 
ATOM      8  O   UNL     1      58.854   0.279 -50.370  1.00  0.00    -0.545 OA
ATOM      9  O   UNL     1      57.439  -0.748 -48.899  1.00  0.00    -0.545 OA
ENDBRANCH   1   7
BRANCH   4  10
ATOM     10  O   UNL     1      60.279  -4.792 -51.845  1.00  0.00    -0.504 OA
ATOM     11  H   UNL     1      60.688  -5.714 -51.866  1.00  0.00     0.293 HD
ENDBRANCH   4  10
BRANCH   5  12
ATOM     12  O   UNL     1      62.125  -3.376 -47.525  1.00  0.00    -0.504 OA
ATOM     13  H   UNL     1      62.121  -4.210 -46.951  1.00  0.00     0.293 HD
ENDBRANCH   5  12
BRANCH   6  14
ATOM     14  O   UNL     1      62.125  -5.213 -49.627  1.00  0.00    -0.502 OA
ATOM     15  H   UNL     1      63.012  -5.205 -49.144  1.00  0.00     0.293 HD
ENDBRANCH   6  14
TORSDOF 4
ENDMDL
MODEL 2
REMARK VINA RESULT:    -3.853      1.549      3.033
REMARK INTER + INTRA:          -4.461
REMARK INTER:                  -4.413
REMARK INTRA:                  -0.048
REMARK UNBOUND:                -0.045
REMARK SMILES O=C([O-])c1cc(O)c(O)c(O)c1
REMARK SMILES IDX 4 1 5 2 12 3 6 4 10 5 8 6 2 7 1 8 3 9 7 10 11 12 9 14
REMARK H PARENT 7 11 11 13 9 15
REMARK Flexibility Score: inf
ROOT
ATOM      1  C   UNL     1      59.810  -2.164 -48.677  1.00  0.00     0.005 A 
ATOM      2  C   UNL     1      60.864  -3.090 -48.718  1.00  0.00     0.060 A 
ATOM      3  C   UNL     1      58.918  -2.100 -49.757  1.00  0.00     0.060 A 
ATOM      4  C   UNL     1      61.033  -3.941 -49.816  1.00  0.00     0.162 A 
ATOM      5  C   UNL     1      59.072  -2.943 -50.862  1.00  0.00     0.162 A 
ATOM      6  C   UNL     1      60.129  -3.870 -50.903  1.00  0.00     0.200 A 
ENDROOT
BRANCH   1   7
ATOM      7  C   UNL     1      59.637  -1.267 -47.512  1.00  0.00     0.072 C 
ATOM      8  O   UNL     1      59.652  -1.728 -46.340  1.00  0.00    -0.545 OA
ATOM      9  O   UNL     1      59.458   0.100 -47.696  1.00  0.00    -0.545 OA
ENDBRANCH   1   7
BRANCH   4  10
ATOM     10  O   UNL     1      62.106  -4.836 -49.784  1.00  0.00    -0.504 OA
ATOM     11  H   UNL     1      62.402  -5.335 -48.958  1.00  0.00     0.293 HD
ENDBRANCH   4  10
BRANCH   5  12
ATOM     12  O   UNL     1      58.160  -2.843 -51.913  1.00  0.00    -0.504 OA
ATOM     13  H   UNL     1      57.180  -2.636 -51.761  1.00  0.00     0.293 HD
ENDBRANCH   5  12
BRANCH   6  14
ATOM     14  O   UNL     1      60.246  -4.694 -52.026  1.00  0.00    -0.502 OA
ATOM     15  H   UNL     1      59.832  -4.492 -52.924  1.00  0.00     0.293 HD
ENDBRANCH   6  14
TORSDOF 4
ENDMDL
MODEL 3
REMARK VINA RESULT:    -3.830      1.644      2.960
REMARK INTER + INTRA:          -4.434
REMARK INTER:                  -4.384
REMARK INTRA:                  -0.050
REMARK UNBOUND:                -0.045
REMARK SMILES O=C([O-])c1cc(O)c(O)c(O)c1
REMARK SMILES IDX 4 1 5 2 12 3 6 4 10 5 8 6 2 7 1 8 3 9 7 10 11 12 9 14
REMARK H PARENT 7 11 11 13 9 15
REMARK Flexibility Score: inf
ROOT
ATOM      1  C   UNL     1      58.242  -2.531 -50.740  1.00  0.00     0.005 A 
ATOM      2  C   UNL     1      58.809  -2.515 -49.456  1.00  0.00     0.060 A 
ATOM      3  C   UNL     1      58.850  -3.300 -51.743  1.00  0.00     0.060 A 
ATOM      4  C   UNL     1      59.964  -3.252 -49.169  1.00  0.00     0.162 A 
ATOM      5  C   UNL     1      60.004  -4.042 -51.473  1.00  0.00     0.162 A 
ATOM      6  C   UNL     1      60.572  -4.025 -50.186  1.00  0.00     0.200 A 
ENDROOT
BRANCH   1   7
ATOM      7  C   UNL     1      57.020  -1.749 -51.036  1.00  0.00     0.072 C 
ATOM      8  O   UNL     1      56.797  -0.660 -50.443  1.00  0.00    -0.545 OA
ATOM      9  O   UNL     1      56.100  -2.207 -51.973  1.00  0.00    -0.545 OA
ENDBRANCH   1   7
BRANCH   4  10
ATOM     10  O   UNL     1      60.468  -3.185 -47.868  1.00  0.00    -0.504 OA
ATOM     11  H   UNL     1      61.445  -3.066 -47.644  1.00  0.00     0.293 HD
ENDBRANCH   4  10
BRANCH   5  12
ATOM     12  O   UNL     1      60.573  -4.791 -52.503  1.00  0.00    -0.504 OA
ATOM     13  H   UNL     1      60.053  -5.056 -53.331  1.00  0.00     0.293 HD
ENDBRANCH   5  12
BRANCH   6  14
ATOM     14  O   UNL     1      61.726  -4.781 -49.960  1.00  0.00    -0.502 OA
ATOM     15  H   UNL     1      61.723  -5.744 -49.654  1.00  0.00     0.293 HD
ENDBRANCH   6  14
TORSDOF 4
ENDMDL
MODEL 4
REMARK VINA RESULT:    -3.794     16.262     17.841
REMARK INTER + INTRA:          -4.393
REMARK INTER:                  -4.346
REMARK INTRA:                  -0.047
REMARK UNBOUND:                -0.045
REMARK SMILES O=C([O-])c1cc(O)c(O)c(O)c1
REMARK SMILES IDX 4 1 5 2 12 3 6 4 10 5 8 6 2 7 1 8 3 9 7 10 11 12 9 14
REMARK H PARENT 7 11 11 13 9 15
REMARK Flexibility Score: inf
ROOT
ATOM      1  C   UNL     1      45.281   2.373 -43.120  1.00  0.00     0.005 A 
ATOM      2  C   UNL     1      45.812   3.302 -44.027  1.00  0.00     0.060 A 
ATOM      3  C   UNL     1      43.962   1.929 -43.293  1.00  0.00     0.060 A 
ATOM      4  C   UNL     1      45.046   3.786 -45.094  1.00  0.00     0.162 A 
ATOM      5  C   UNL     1      43.183   2.402 -44.354  1.00  0.00     0.162 A 
ATOM      6  C   UNL     1      43.716   3.334 -45.263  1.00  0.00     0.200 A 
ENDROOT
BRANCH   1   7
ATOM      7  C   UNL     1      46.097   1.865 -41.994  1.00  0.00     0.072 C 
ATOM      8  O   UNL     1      47.227   1.348 -42.203  1.00  0.00    -0.545 OA
ATOM      9  O   UNL     1      45.628   1.952 -40.688  1.00  0.00    -0.545 OA
ENDBRANCH   1   7
BRANCH   4  10
ATOM     10  O   UNL     1      45.645   4.709 -45.956  1.00  0.00    -0.504 OA
ATOM     11  H   UNL     1      45.136   5.295 -46.601  1.00  0.00     0.293 HD
ENDBRANCH   4  10
BRANCH   5  12
ATOM     12  O   UNL     1      41.876   1.932 -44.486  1.00  0.00    -0.504 OA
ATOM     13  H   UNL     1      41.628   1.200 -45.141  1.00  0.00     0.293 HD
ENDBRANCH   5  12
BRANCH   6  14
ATOM     14  O   UNL     1      42.903   3.781 -46.309  1.00  0.00    -0.502 OA
ATOM     15  H   UNL     1      42.154   3.240 -46.717  1.00  0.00     0.293 HD
ENDBRANCH   6  14
TORSDOF 4
ENDMDL
MODEL 5
REMARK VINA RESULT:    -3.779      1.569      2.534
REMARK INTER + INTRA:          -4.376
REMARK INTER:                  -4.326
REMARK INTRA:                  -0.050
REMARK UNBOUND:                -0.045
REMARK SMILES O=C([O-])c1cc(O)c(O)c(O)c1
REMARK SMILES IDX 4 1 5 2 12 3 6 4 10 5 8 6 2 7 1 8 3 9 7 10 11 12 9 14
REMARK H PARENT 7 11 11 13 9 15
REMARK Flexibility Score: inf
ROOT
ATOM      1  C   UNL     1      59.847  -2.357 -48.295  1.00  0.00     0.005 A 
ATOM      2  C   UNL     1      58.948  -2.174 -49.357  1.00  0.00     0.060 A 
ATOM      3  C   UNL     1      60.901  -3.268 -48.445  1.00  0.00     0.060 A 
ATOM      4  C   UNL     1      59.092  -2.885 -50.554  1.00  0.00     0.162 A 
ATOM      5  C   UNL     1      61.061  -3.987 -49.634  1.00  0.00     0.162 A 
ATOM      6  C   UNL     1      60.159  -3.804 -50.698  1.00  0.00     0.200 A 
ENDROOT
BRANCH   1   7
ATOM      7  C   UNL     1      59.687  -1.600 -47.032  1.00  0.00     0.072 C 
ATOM      8  O   UNL     1      59.237  -0.424 -47.042  1.00  0.00    -0.545 OA
ATOM      9  O   UNL     1      60.033  -2.179 -45.816  1.00  0.00    -0.545 OA
ENDBRANCH   1   7
BRANCH   4  10
ATOM     10  O   UNL     1      58.158  -2.648 -51.566  1.00  0.00    -0.504 OA
ATOM     11  H   UNL     1      58.230  -3.019 -52.502  1.00  0.00     0.293 HD
ENDBRANCH   4  10
BRANCH   5  12
ATOM     12  O   UNL     1      62.125  -4.883 -49.737  1.00  0.00    -0.504 OA
ATOM     13  H   UNL     1      62.141  -5.627 -50.423  1.00  0.00     0.293 HD
ENDBRANCH   5  12
BRANCH   6  14
ATOM     14  O   UNL     1      60.355  -4.542 -51.869  1.00  0.00    -0.502 OA
ATOM     15  H   UNL     1      60.835  -4.194 -52.687  1.00  0.00     0.293 HD
ENDBRANCH   6  14
TORSDOF 4
ENDMDL
MODEL 6
REMARK VINA RESULT:    -3.751     16.266     17.780
REMARK INTER + INTRA:          -4.344
REMARK INTER:                  -4.299
REMARK INTRA:                  -0.045
REMARK UNBOUND:                -0.045
REMARK SMILES O=C([O-])c1cc(O)c(O)c(O)c1
REMARK SMILES IDX 4 1 5 2 12 3 6 4 10 5 8 6 2 7 1 8 3 9 7 10 11 12 9 14
REMARK H PARENT 7 11 11 13 9 15
REMARK Flexibility Score: inf
ROOT
ATOM      1  C   UNL     1      45.292   2.313 -43.123  1.00  0.00     0.005 A 
ATOM      2  C   UNL     1      43.960   1.922 -43.332  1.00  0.00     0.060 A 
ATOM      3  C   UNL     1      45.865   3.263 -43.980  1.00  0.00     0.060 A 
ATOM      4  C   UNL     1      43.206   2.465 -44.379  1.00  0.00     0.162 A 
ATOM      5  C   UNL     1      45.127   3.815 -45.030  1.00  0.00     0.162 A 
ATOM      6  C   UNL     1      43.792   3.423 -45.241  1.00  0.00     0.200 A 
ENDROOT
BRANCH   1   7
ATOM      7  C   UNL     1      46.083   1.734 -42.013  1.00  0.00     0.072 C 
ATOM      8  O   UNL     1      46.003   2.214 -40.850  1.00  0.00    -0.545 OA
ATOM      9  O   UNL     1      46.926   0.652 -42.238  1.00  0.00    -0.545 OA
ENDBRANCH   1   7
BRANCH   4  10
ATOM     10  O   UNL     1      41.888   2.026 -44.524  1.00  0.00    -0.504 OA
ATOM     11  H   UNL     1      41.130   2.607 -44.851  1.00  0.00     0.293 HD
ENDBRANCH   4  10
BRANCH   5  12
ATOM     12  O   UNL     1      45.740   4.756 -45.857  1.00  0.00    -0.504 OA
ATOM     13  H   UNL     1      46.649   4.598 -46.276  1.00  0.00     0.293 HD
ENDBRANCH   5  12
BRANCH   6  14
ATOM     14  O   UNL     1      43.090   4.000 -46.302  1.00  0.00    -0.502 OA
ATOM     15  H   UNL     1      43.024   3.597 -47.226  1.00  0.00     0.293 HD
ENDBRANCH   6  14
TORSDOF 4
ENDMDL
MODEL 7
REMARK VINA RESULT:    -3.643      1.627      2.439
REMARK INTER + INTRA:          -4.220
REMARK INTER:                  -4.175
REMARK INTRA:                  -0.046
REMARK UNBOUND:                -0.045
REMARK SMILES O=C([O-])c1cc(O)c(O)c(O)c1
REMARK SMILES IDX 4 1 5 2 12 3 6 4 10 5 8 6 2 7 1 8 3 9 7 10 11 12 9 14
REMARK H PARENT 7 11 11 13 9 15
REMARK Flexibility Score: inf
ROOT
ATOM      1  C   UNL     1      58.420  -2.580 -50.237  1.00  0.00     0.005 A 
ATOM      2  C   UNL     1      58.017  -2.630 -51.581  1.00  0.00     0.060 A 
ATOM      3  C   UNL     1      59.549  -3.308 -49.837  1.00  0.00     0.060 A 
ATOM      4  C   UNL     1      58.726  -3.392 -52.517  1.00  0.00     0.162 A 
ATOM      5  C   UNL     1      60.268  -4.075 -50.759  1.00  0.00     0.162 A 
ATOM      6  C   UNL     1      59.864  -4.125 -52.106  1.00  0.00     0.200 A 
ENDROOT
BRANCH   1   7
ATOM      7  C   UNL     1      57.666  -1.771 -49.252  1.00  0.00     0.072 C 
ATOM      8  O   UNL     1      57.640  -0.514 -49.341  1.00  0.00    -0.545 OA
ATOM      9  O   UNL     1      56.974  -2.388 -48.216  1.00  0.00    -0.545 OA
ENDBRANCH   1   7
BRANCH   4  10
ATOM     10  O   UNL     1      58.264  -3.391 -53.836  1.00  0.00    -0.504 OA
ATOM     11  H   UNL     1      58.387  -4.158 -54.480  1.00  0.00     0.293 HD
ENDBRANCH   4  10
BRANCH   5  12
ATOM     12  O   UNL     1      61.384  -4.783 -50.315  1.00  0.00    -0.504 OA
ATOM     13  H   UNL     1      62.027  -4.406 -49.628  1.00  0.00     0.293 HD
ENDBRANCH   5  12
BRANCH   6  14
ATOM     14  O   UNL     1      60.611  -4.903 -52.995  1.00  0.00    -0.502 OA
ATOM     15  H   UNL     1      60.384  -5.026 -53.972  1.00  0.00     0.293 HD
ENDBRANCH   6  14
TORSDOF 4
ENDMDL
MODEL 8
REMARK VINA RESULT:    -3.614      0.532      2.495
REMARK INTER + INTRA:          -4.187
REMARK INTER:                  -4.143
REMARK INTRA:                  -0.045
REMARK UNBOUND:                -0.045
REMARK SMILES O=C([O-])c1cc(O)c(O)c(O)c1
REMARK SMILES IDX 4 1 5 2 12 3 6 4 10 5 8 6 2 7 1 8 3 9 7 10 11 12 9 14
REMARK H PARENT 7 11 11 13 9 15
REMARK Flexibility Score: inf
ROOT
ATOM      1  C   UNL     1      59.361  -1.960 -49.129  1.00  0.00     0.005 A 
ATOM      2  C   UNL     1      60.275  -2.261 -48.107  1.00  0.00     0.060 A 
ATOM      3  C   UNL     1      59.385  -2.716 -50.309  1.00  0.00     0.060 A 
ATOM      4  C   UNL     1      61.203  -3.300 -48.253  1.00  0.00     0.162 A 
ATOM      5  C   UNL     1      60.305  -3.757 -50.471  1.00  0.00     0.162 A 
ATOM      6  C   UNL     1      61.222  -4.058 -49.448  1.00  0.00     0.200 A 
ENDROOT
BRANCH   1   7
ATOM      7  C   UNL     1      58.382  -0.860 -48.966  1.00  0.00     0.072 C 
ATOM      8  O   UNL     1      58.601   0.272 -49.473  1.00  0.00    -0.545 OA
ATOM      9  O   UNL     1      57.207  -1.063 -48.252  1.00  0.00    -0.545 OA
ENDBRANCH   1   7
BRANCH   4  10
ATOM     10  O   UNL     1      62.080  -3.539 -47.192  1.00  0.00    -0.504 OA
ATOM     11  H   UNL     1      63.017  -3.168 -47.137  1.00  0.00     0.293 HD
ENDBRANCH   4  10
BRANCH   5  12
ATOM     12  O   UNL     1      60.292  -4.481 -51.664  1.00  0.00    -0.504 OA
ATOM     13  H   UNL     1      60.182  -4.035 -52.567  1.00  0.00     0.293 HD
ENDBRANCH   5  12
BRANCH   6  14
ATOM     14  O   UNL     1      62.124  -5.106 -49.651  1.00  0.00    -0.502 OA
ATOM     15  H   UNL     1      61.920  -5.934 -50.194  1.00  0.00     0.293 HD
ENDBRANCH   6  14
TORSDOF 4
ENDMDL
MODEL 9
REMARK VINA RESULT:    -3.591     11.572     12.995
REMARK INTER + INTRA:          -4.161
REMARK INTER:                  -4.114
REMARK INTRA:                  -0.047
REMARK UNBOUND:                -0.045
REMARK SMILES O=C([O-])c1cc(O)c(O)c(O)c1
REMARK SMILES IDX 4 1 5 2 12 3 6 4 10 5 8 6 2 7 1 8 3 9 7 10 11 12 9 14
REMARK H PARENT 7 11 11 13 9 15
REMARK Flexibility Score: inf
ROOT
ATOM      1  C   UNL     1      54.246   7.530 -46.784  1.00  0.00     0.005 A 
ATOM      2  C   UNL     1      53.095   7.159 -46.071  1.00  0.00     0.060 A 
ATOM      3  C   UNL     1      55.348   8.039 -46.082  1.00  0.00     0.060 A 
ATOM      4  C   UNL     1      53.037   7.290 -44.679  1.00  0.00     0.162 A 
ATOM      5  C   UNL     1      55.306   8.176 -44.691  1.00  0.00     0.162 A 
ATOM      6  C   UNL     1      54.153   7.804 -43.977  1.00  0.00     0.200 A 
ENDROOT
BRANCH   1   7
ATOM      7  C   UNL     1      54.300   7.388 -48.257  1.00  0.00     0.072 C 
ATOM      8  O   UNL     1      55.197   6.689 -48.801  1.00  0.00    -0.545 OA
ATOM      9  O   UNL     1      53.362   8.025 -49.061  1.00  0.00    -0.545 OA
ENDBRANCH   1   7
BRANCH   4  10
ATOM     10  O   UNL     1      51.857   6.899 -44.040  1.00  0.00    -0.504 OA
ATOM     11  H   UNL     1      51.821   6.494 -43.116  1.00  0.00     0.293 HD
ENDBRANCH   4  10
BRANCH   5  12
ATOM     12  O   UNL     1      56.427   8.687 -44.035  1.00  0.00    -0.504 OA
ATOM     13  H   UNL     1      56.437   9.611 -43.621  1.00  0.00     0.293 HD
ENDBRANCH   5  12
BRANCH   6  14
ATOM     14  O   UNL     1      54.154   7.958 -42.587  1.00  0.00    -0.502 OA
ATOM     15  H   UNL     1      54.979   7.890 -42.009  1.00  0.00     0.293 HD
ENDBRANCH   6  14
TORSDOF 4
ENDMDL
