MODEL 1
REMARK VINA RESULT:    -4.066      0.000      0.000
REMARK INTER + INTRA:          -4.733
REMARK INTER:                  -4.541
REMARK INTRA:                  -0.192
REMARK UNBOUND:                -0.192
REMARK SMILES CC(C)c1ccc(C=O)cc1
REMARK SMILES IDX 4 1 5 2 6 3 7 4 10 5 11 6 2 7 1 8 3 9 8 10 9 11
REMARK H PARENT
REMARK Flexibility Score: inf
ROOT
ATOM      1  C   UNL     1      13.055   3.897  -1.937  1.00  0.00    -0.045 A 
ATOM      2  C   UNL     1      14.128   3.919  -1.026  1.00  0.00     0.005 A 
ATOM      3  C   UNL     1      15.195   3.026  -1.165  1.00  0.00     0.012 A 
ATOM      4  C   UNL     1      15.210   2.095  -2.216  1.00  0.00     0.014 A 
ATOM      5  C   UNL     1      14.142   2.071  -3.125  1.00  0.00     0.012 A 
ATOM      6  C   UNL     1      13.074   2.963  -2.987  1.00  0.00     0.005 A 
ENDROOT
BRANCH   1   7
ATOM      7  C   UNL     1      11.890   4.860  -1.799  1.00  0.00     0.013 C 
ATOM      8  C   UNL     1      10.622   4.289  -2.445  1.00  0.00     0.012 C 
ATOM      9  C   UNL     1      11.645   5.223  -0.330  1.00  0.00     0.012 C 
ENDBRANCH   1   7
BRANCH   4  10
ATOM     10  C   UNL     1      16.327   1.146  -2.379  1.00  0.00     0.260 C 
ATOM     11  O   UNL     1      17.522   1.544  -2.387  1.00  0.00    -0.298 OA
ENDBRANCH   4  10
TORSDOF 2
ENDMDL
MODEL 2
REMARK VINA RESULT:    -3.831      1.232      2.400
REMARK INTER + INTRA:          -4.471
REMARK INTER:                  -4.281
REMARK INTRA:                  -0.190
REMARK UNBOUND:                -0.192
REMARK SMILES CC(C)c1ccc(C=O)cc1
REMARK SMILES IDX 4 1 5 2 6 3 7 4 10 5 11 6 2 7 1 8 3 9 8 10 9 11
REMARK H PARENT
REMARK Flexibility Score: inf
ROOT
ATOM      1  C   UNL     1      11.688   4.410  -1.658  1.00  0.00    -0.045 A 
ATOM      2  C   UNL     1      11.680   3.543  -2.766  1.00  0.00     0.005 A 
ATOM      3  C   UNL     1      12.833   2.839  -3.125  1.00  0.00     0.012 A 
ATOM      4  C   UNL     1      14.015   2.988  -2.383  1.00  0.00     0.014 A 
ATOM      5  C   UNL     1      14.027   3.851  -1.278  1.00  0.00     0.012 A 
ATOM      6  C   UNL     1      12.874   4.557  -0.918  1.00  0.00     0.005 A 
ENDROOT
BRANCH   1   7
ATOM      7  C   UNL     1      10.444   5.182  -1.257  1.00  0.00     0.013 C 
ATOM      8  C   UNL     1      10.810   6.511  -0.587  1.00  0.00     0.012 C 
ATOM      9  C   UNL     1       9.521   5.405  -2.460  1.00  0.00     0.012 C 
ENDBRANCH   1   7
BRANCH   4  10
ATOM     10  C   UNL     1      15.242   2.253  -2.745  1.00  0.00     0.260 C 
ATOM     11  O   UNL     1      15.499   1.128  -2.240  1.00  0.00    -0.298 OA
ENDBRANCH   4  10
TORSDOF 2
ENDMDL
MODEL 3
REMARK VINA RESULT:    -3.757      2.902      5.136
REMARK INTER + INTRA:          -4.388
REMARK INTER:                  -4.194
REMARK INTRA:                  -0.194
REMARK UNBOUND:                -0.192
REMARK SMILES CC(C)c1ccc(C=O)cc1
REMARK SMILES IDX 4 1 5 2 6 3 7 4 10 5 11 6 2 7 1 8 3 9 8 10 9 11
REMARK H PARENT
REMARK Flexibility Score: inf
ROOT
ATOM      1  C   UNL     1      13.757   3.343  -2.221  1.00  0.00    -0.045 A 
ATOM      2  C   UNL     1      12.770   2.904  -3.123  1.00  0.00     0.005 A 
ATOM      3  C   UNL     1      11.477   3.434  -3.073  1.00  0.00     0.012 A 
ATOM      4  C   UNL     1      11.147   4.412  -2.121  1.00  0.00     0.014 A 
ATOM      5  C   UNL     1      12.128   4.851  -1.222  1.00  0.00     0.012 A 
ATOM      6  C   UNL     1      13.422   4.322  -1.269  1.00  0.00     0.005 A 
ENDROOT
BRANCH   1   7
ATOM      7  C   UNL     1      15.165   2.777  -2.263  1.00  0.00     0.013 C 
ATOM      8  C   UNL     1      15.911   3.053  -0.953  1.00  0.00     0.012 C 
ATOM      9  C   UNL     1      15.148   1.278  -2.583  1.00  0.00     0.012 C 
ENDBRANCH   1   7
BRANCH   4  10
ATOM     10  C   UNL     1       9.789   4.983  -2.054  1.00  0.00     0.260 C 
ATOM     11  O   UNL     1       9.604   6.183  -1.718  1.00  0.00    -0.298 OA
ENDBRANCH   4  10
TORSDOF 2
ENDMDL
MODEL 4
REMARK VINA RESULT:    -3.492      3.396      5.595
REMARK INTER + INTRA:          -4.091
REMARK INTER:                  -3.906
REMARK INTRA:                  -0.185
REMARK UNBOUND:                -0.192
REMARK SMILES CC(C)c1ccc(C=O)cc1
REMARK SMILES IDX 4 1 5 2 6 3 7 4 10 5 11 6 2 7 1 8 3 9 8 10 9 11
REMARK H PARENT
REMARK Flexibility Score: inf
ROOT
ATOM      1  C   UNL     1      12.999   4.473  -2.050  1.00  0.00    -0.045 A 
ATOM      2  C   UNL     1      12.352   5.164  -3.093  1.00  0.00     0.005 A 
ATOM      3  C   UNL     1      11.281   6.019  -2.821  1.00  0.00     0.012 A 
ATOM      4  C   UNL     1      10.835   6.201  -1.502  1.00  0.00     0.014 A 
ATOM      5  C   UNL     1      11.476   5.515  -0.461  1.00  0.00     0.012 A 
ATOM      6  C   UNL     1      12.548   4.658  -0.732  1.00  0.00     0.005 A 
ENDROOT
BRANCH   1   7
ATOM      7  C   UNL     1      14.163   3.541  -2.331  1.00  0.00     0.013 C 
ATOM      8  C   UNL     1      14.914   3.192  -1.041  1.00  0.00     0.012 C 
ATOM      9  C   UNL     1      13.695   2.275  -3.057  1.00  0.00     0.012 C 
ENDBRANCH   1   7
BRANCH   4  10
ATOM     10  C   UNL     1       9.706   7.099  -1.195  1.00  0.00     0.260 C 
ATOM     11  O   UNL     1       9.690   8.288  -1.612  1.00  0.00    -0.298 OA
ENDBRANCH   4  10
TORSDOF 2
ENDMDL
MODEL 5
REMARK VINA RESULT:    -3.389      2.771      4.111
REMARK INTER + INTRA:          -3.977
REMARK INTER:                  -3.782
REMARK INTRA:                  -0.194
REMARK UNBOUND:                -0.192
REMARK SMILES CC(C)c1ccc(C=O)cc1
REMARK SMILES IDX 4 1 5 2 6 3 7 4 10 5 11 6 2 7 1 8 3 9 8 10 9 11
REMARK H PARENT
REMARK Flexibility Score: inf
ROOT
ATOM      1  C   UNL     1      10.783   7.095  -1.558  1.00  0.00    -0.045 A 
ATOM      2  C   UNL     1      10.805   6.229  -0.448  1.00  0.00     0.005 A 
ATOM      3  C   UNL     1      11.741   5.193  -0.375  1.00  0.00     0.012 A 
ATOM      4  C   UNL     1      12.672   5.003  -1.408  1.00  0.00     0.014 A 
ATOM      5  C   UNL     1      12.653   5.864  -2.515  1.00  0.00     0.012 A 
ATOM      6  C   UNL     1      11.717   6.900  -2.590  1.00  0.00     0.005 A 
ENDROOT
BRANCH   1   7
ATOM      7  C   UNL     1       9.773   8.224  -1.651  1.00  0.00     0.013 C 
ATOM      8  C   UNL     1       9.795   8.871  -3.040  1.00  0.00     0.012 C 
ATOM      9  C   UNL     1       8.365   7.736  -1.291  1.00  0.00     0.012 C 
ENDBRANCH   1   7
BRANCH   4  10
ATOM     10  C   UNL     1      13.667   3.916  -1.349  1.00  0.00     0.260 C 
ATOM     11  O   UNL     1      14.211   3.474  -2.396  1.00  0.00    -0.298 OA
ENDBRANCH   4  10
TORSDOF 2
ENDMDL
MODEL 6
REMARK VINA RESULT:    -3.327      2.386      3.773
REMARK INTER + INTRA:          -3.907
REMARK INTER:                  -3.726
REMARK INTRA:                  -0.181
REMARK UNBOUND:                -0.192
REMARK SMILES CC(C)c1ccc(C=O)cc1
REMARK SMILES IDX 4 1 5 2 6 3 7 4 10 5 11 6 2 7 1 8 3 9 8 10 9 11
REMARK H PARENT
REMARK Flexibility Score: inf
ROOT
ATOM      1  C   UNL     1      10.905   6.440  -1.567  1.00  0.00    -0.045 A 
ATOM      2  C   UNL     1      11.610   6.317  -2.779  1.00  0.00     0.005 A 
ATOM      3  C   UNL     1      12.624   5.366  -2.918  1.00  0.00     0.012 A 
ATOM      4  C   UNL     1      12.954   4.519  -1.848  1.00  0.00     0.014 A 
ATOM      5  C   UNL     1      12.255   4.638  -0.639  1.00  0.00     0.012 A 
ATOM      6  C   UNL     1      11.240   5.590  -0.498  1.00  0.00     0.005 A 
ENDROOT
BRANCH   1   7
ATOM      7  C   UNL     1       9.802   7.468  -1.401  1.00  0.00     0.013 C 
ATOM      8  C   UNL     1      10.213   8.820  -1.996  1.00  0.00     0.012 C 
ATOM      9  C   UNL     1       8.488   6.972  -2.014  1.00  0.00     0.012 C 
ENDBRANCH   1   7
BRANCH   4  10
ATOM     10  C   UNL     1      14.022   3.509  -1.976  1.00  0.00     0.260 C 
ATOM     11  O   UNL     1      14.882   3.354  -1.069  1.00  0.00    -0.298 OA
ENDBRANCH   4  10
TORSDOF 2
ENDMDL
MODEL 7
REMARK VINA RESULT:    -3.210     10.722     12.338
REMARK INTER + INTRA:          -3.777
REMARK INTER:                  -3.586
REMARK INTRA:                  -0.191
REMARK UNBOUND:                -0.192
REMARK SMILES CC(C)c1ccc(C=O)cc1
REMARK SMILES IDX 4 1 5 2 6 3 7 4 10 5 11 6 2 7 1 8 3 9 8 10 9 11
REMARK H PARENT
REMARK Flexibility Score: inf
ROOT
ATOM      1  C   UNL     1      13.438  16.180  -0.574  1.00  0.00    -0.045 A 
ATOM      2  C   UNL     1      12.279  15.381  -0.577  1.00  0.00     0.005 A 
ATOM      3  C   UNL     1      12.238  14.192  -1.310  1.00  0.00     0.012 A 
ATOM      4  C   UNL     1      13.353  13.779  -2.056  1.00  0.00     0.014 A 
ATOM      5  C   UNL     1      14.509  14.572  -2.056  1.00  0.00     0.012 A 
ATOM      6  C   UNL     1      14.552  15.763  -1.323  1.00  0.00     0.005 A 
ENDROOT
BRANCH   1   7
ATOM      7  C   UNL     1      13.497  17.473   0.217  1.00  0.00     0.013 C 
ATOM      8  C   UNL     1      13.106  17.243   1.681  1.00  0.00     0.012 C 
ATOM      9  C   UNL     1      14.882  18.123   0.111  1.00  0.00     0.012 C 
ENDBRANCH   1   7
BRANCH   4  10
ATOM     10  C   UNL     1      13.329  12.528  -2.836  1.00  0.00     0.260 C 
ATOM     11  O   UNL     1      14.306  11.732  -2.820  1.00  0.00    -0.298 OA
ENDBRANCH   4  10
TORSDOF 2
ENDMDL
MODEL 8
REMARK VINA RESULT:    -3.209     10.890     12.719
REMARK INTER + INTRA:          -3.776
REMARK INTER:                  -3.586
REMARK INTRA:                  -0.190
REMARK UNBOUND:                -0.192
REMARK SMILES CC(C)c1ccc(C=O)cc1
REMARK SMILES IDX 4 1 5 2 6 3 7 4 10 5 11 6 2 7 1 8 3 9 8 10 9 11
REMARK H PARENT
REMARK Flexibility Score: inf
ROOT
ATOM      1  C   UNL     1      13.859  14.379  -1.967  1.00  0.00    -0.045 A 
ATOM      2  C   UNL     1      12.575  14.282  -1.399  1.00  0.00     0.005 A 
ATOM      3  C   UNL     1      12.130  15.239  -0.483  1.00  0.00     0.012 A 
ATOM      4  C   UNL     1      12.959  16.311  -0.116  1.00  0.00     0.014 A 
ATOM      5  C   UNL     1      14.239  16.411  -0.681  1.00  0.00     0.012 A 
ATOM      6  C   UNL     1      14.686  15.454  -1.597  1.00  0.00     0.005 A 
ENDROOT
BRANCH   1   7
ATOM      7  C   UNL     1      14.356  13.348  -2.963  1.00  0.00     0.013 C 
ATOM      8  C   UNL     1      15.844  13.048  -2.751  1.00  0.00     0.012 C 
ATOM      9  C   UNL     1      13.519  12.065  -2.893  1.00  0.00     0.012 C 
ENDBRANCH   1   7
BRANCH   4  10
ATOM     10  C   UNL     1      12.507  17.331   0.848  1.00  0.00     0.260 C 
ATOM     11  O   UNL     1      12.796  17.243   2.071  1.00  0.00    -0.298 OA
ENDBRANCH   4  10
TORSDOF 2
ENDMDL
