MODEL 1
REMARK VINA RESULT:    -3.090      0.000      0.000
REMARK INTER + INTRA:          -4.089
REMARK INTER:                  -3.903
REMARK INTRA:                  -0.186
REMARK UNBOUND:                -0.186
REMARK SMILES CCCCC[C@H](C)O
REMARK SMILES IDX 4 1 3 2 2 3 1 4 5 5 6 6 7 7 8 8
REMARK H PARENT 8 9
REMARK Flexibility Score: inf
ROOT
ATOM      1  C   UNL     1     166.833 160.716 166.621  1.00  0.00     0.003 C 
ENDROOT
BRANCH   1   2
ATOM      2  C   UNL     1     166.391 162.183 166.694  1.00  0.00    -0.000 C 
BRANCH   2   3
ATOM      3  C   UNL     1     166.393 162.685 168.142  1.00  0.00    -0.003 C 
ATOM      4  C   UNL     1     166.356 164.210 168.196  1.00  0.00     0.004 C 
ENDBRANCH   2   3
ENDBRANCH   1   2
BRANCH   1   5
ATOM      5  C   UNL     1     166.816 160.066 168.012  1.00  0.00     0.031 C 
BRANCH   5   6
ATOM      6  C   UNL     1     166.520 158.557 167.939  1.00  0.00     0.111 C 
ATOM      7  C   UNL     1     165.735 158.230 166.669  1.00  0.00     0.038 C 
BRANCH   6   8
ATOM      8  O   UNL     1     165.762 158.157 169.052  1.00  0.00    -0.393 OA
ATOM      9  H   UNL     1     165.829 158.882 169.726  1.00  0.00     0.210 HD
ENDBRANCH   6   8
ENDBRANCH   5   6
ENDBRANCH   1   5
TORSDOF 5
ENDMDL
MODEL 2
REMARK VINA RESULT:    -3.085      6.679      7.814
REMARK INTER + INTRA:          -4.083
REMARK INTER:                  -3.894
REMARK INTRA:                  -0.189
REMARK UNBOUND:                -0.186
REMARK SMILES CCCCC[C@H](C)O
REMARK SMILES IDX 4 1 3 2 2 3 1 4 5 5 6 6 7 7 8 8
REMARK H PARENT 8 9
REMARK Flexibility Score: inf
ROOT
ATOM      1  C   UNL     1     170.522 166.818 166.703  1.00  0.00     0.003 C 
ENDROOT
BRANCH   1   2
ATOM      2  C   UNL     1     169.044 166.427 166.821  1.00  0.00    -0.000 C 
BRANCH   2   3
ATOM      3  C   UNL     1     168.581 166.465 168.283  1.00  0.00    -0.003 C 
ATOM      4  C   UNL     1     167.063 166.345 168.383  1.00  0.00     0.004 C 
ENDBRANCH   2   3
ENDBRANCH   1   2
BRANCH   1   5
ATOM      5  C   UNL     1     171.181 166.907 168.087  1.00  0.00     0.031 C 
BRANCH   5   6
ATOM      6  C   UNL     1     172.679 166.557 168.034  1.00  0.00     0.111 C 
ATOM      7  C   UNL     1     172.996 165.762 166.768  1.00  0.00     0.038 C 
BRANCH   6   8
ATOM      8  O   UNL     1     173.036 165.784 169.152  1.00  0.00    -0.393 OA
ATOM      9  H   UNL     1     172.860 164.835 168.919  1.00  0.00     0.210 HD
ENDBRANCH   6   8
ENDBRANCH   5   6
ENDBRANCH   1   5
TORSDOF 5
ENDMDL
MODEL 3
REMARK VINA RESULT:    -3.032      6.765      7.978
REMARK INTER + INTRA:          -4.016
REMARK INTER:                  -3.868
REMARK INTRA:                  -0.148
REMARK UNBOUND:                -0.186
REMARK SMILES CCCCC[C@H](C)O
REMARK SMILES IDX 4 1 3 2 2 3 1 4 5 5 6 6 7 7 8 8
REMARK H PARENT 8 9
REMARK Flexibility Score: inf
ROOT
ATOM      1  C   UNL     1     160.534 164.105 168.933  1.00  0.00     0.003 C 
ENDROOT
BRANCH   1   2
ATOM      2  C   UNL     1     162.017 164.477 169.054  1.00  0.00    -0.000 C 
BRANCH   2   3
ATOM      3  C   UNL     1     162.609 164.823 167.682  1.00  0.00    -0.003 C 
ATOM      4  C   UNL     1     164.078 165.222 167.801  1.00  0.00     0.004 C 
ENDBRANCH   2   3
ENDBRANCH   1   2
BRANCH   1   5
ATOM      5  C   UNL     1     159.972 164.519 167.566  1.00  0.00     0.031 C 
BRANCH   5   6
ATOM      6  C   UNL     1     158.458 164.794 167.626  1.00  0.00     0.111 C 
ATOM      7  C   UNL     1     158.019 165.624 166.420  1.00  0.00     0.038 C 
BRANCH   6   8
ATOM      8  O   UNL     1     158.140 165.500 168.798  1.00  0.00    -0.393 OA
ATOM      9  H   UNL     1     158.695 166.323 168.802  1.00  0.00     0.210 HD
ENDBRANCH   6   8
ENDBRANCH   5   6
ENDBRANCH   1   5
TORSDOF 5
ENDMDL
MODEL 4
REMARK VINA RESULT:    -3.030     10.072     11.999
REMARK INTER + INTRA:          -4.013
REMARK INTER:                  -3.609
REMARK INTRA:                  -0.404
REMARK UNBOUND:                -0.186
REMARK SMILES CCCCC[C@H](C)O
REMARK SMILES IDX 4 1 3 2 2 3 1 4 5 5 6 6 7 7 8 8
REMARK H PARENT 8 9
REMARK Flexibility Score: inf
ROOT
ATOM      1  C   UNL     1     164.545 172.222 168.896  1.00  0.00     0.003 C 
ENDROOT
BRANCH   1   2
ATOM      2  C   UNL     1     164.891 172.235 167.402  1.00  0.00    -0.000 C 
BRANCH   2   3
ATOM      3  C   UNL     1     164.519 170.903 166.740  1.00  0.00    -0.003 C 
ATOM      4  C   UNL     1     164.500 169.768 167.761  1.00  0.00     0.004 C 
ENDBRANCH   2   3
ENDBRANCH   1   2
BRANCH   1   5
ATOM      5  C   UNL     1     163.358 173.150 169.194  1.00  0.00     0.031 C 
BRANCH   5   6
ATOM      6  C   UNL     1     162.112 172.363 169.639  1.00  0.00     0.111 C 
ATOM      7  C   UNL     1     162.514 171.186 170.529  1.00  0.00     0.038 C 
BRANCH   6   8
ATOM      8  O   UNL     1     161.426 171.865 168.519  1.00  0.00    -0.393 OA
ATOM      9  H   UNL     1     161.803 170.968 168.321  1.00  0.00     0.210 HD
ENDBRANCH   6   8
ENDBRANCH   5   6
ENDBRANCH   1   5
TORSDOF 5
ENDMDL
MODEL 5
REMARK VINA RESULT:    -3.027      8.002      9.678
REMARK INTER + INTRA:          -4.010
REMARK INTER:                  -3.596
REMARK INTRA:                  -0.414
REMARK UNBOUND:                -0.186
REMARK SMILES CCCCC[C@H](C)O
REMARK SMILES IDX 4 1 3 2 2 3 1 4 5 5 6 6 7 7 8 8
REMARK H PARENT 8 9
REMARK Flexibility Score: inf
ROOT
ATOM      1  C   UNL     1     172.275 166.591 168.920  1.00  0.00     0.003 C 
ENDROOT
BRANCH   1   2
ATOM      2  C   UNL     1     172.162 166.186 167.445  1.00  0.00    -0.000 C 
BRANCH   2   3
ATOM      3  C   UNL     1     170.874 166.737 166.821  1.00  0.00    -0.003 C 
ATOM      4  C   UNL     1     169.717 166.690 167.815  1.00  0.00     0.004 C 
ENDBRANCH   2   3
ENDBRANCH   1   2
BRANCH   1   5
ATOM      5  C   UNL     1     173.183 167.818 169.085  1.00  0.00     0.031 C 
BRANCH   5   6
ATOM      6  C   UNL     1     172.413 169.033 169.633  1.00  0.00     0.111 C 
ATOM      7  C   UNL     1     171.295 168.577 170.570  1.00  0.00     0.038 C 
BRANCH   6   8
ATOM      8  O   UNL     1     171.843 169.763 168.576  1.00  0.00    -0.393 OA
ATOM      9  H   UNL     1     172.131 170.707 168.686  1.00  0.00     0.210 HD
ENDBRANCH   6   8
ENDBRANCH   5   6
ENDBRANCH   1   5
TORSDOF 5
ENDMDL
MODEL 6
REMARK VINA RESULT:    -3.027      7.090      7.863
REMARK INTER + INTRA:          -4.009
REMARK INTER:                  -3.605
REMARK INTRA:                  -0.404
REMARK UNBOUND:                -0.186
REMARK SMILES CCCCC[C@H](C)O
REMARK SMILES IDX 4 1 3 2 2 3 1 4 5 5 6 6 7 7 8 8
REMARK H PARENT 8 9
REMARK Flexibility Score: inf
ROOT
ATOM      1  C   UNL     1     159.001 164.594 168.885  1.00  0.00     0.003 C 
ENDROOT
BRANCH   1   2
ATOM      2  C   UNL     1     158.970 164.960 167.396  1.00  0.00    -0.000 C 
BRANCH   2   3
ATOM      3  C   UNL     1     160.274 164.547 166.702  1.00  0.00    -0.003 C 
ATOM      4  C   UNL     1     161.433 164.498 167.693  1.00  0.00     0.004 C 
ENDBRANCH   2   3
ENDBRANCH   1   2
BRANCH   1   5
ATOM      5  C   UNL     1     158.076 163.404 169.178  1.00  0.00     0.031 C 
BRANCH   5   6
ATOM      6  C   UNL     1     158.861 162.171 169.660  1.00  0.00     0.111 C 
ATOM      7  C   UNL     1     160.034 162.597 170.542  1.00  0.00     0.038 C 
BRANCH   6   8
ATOM      8  O   UNL     1     159.362 161.454 168.561  1.00  0.00    -0.393 OA
ATOM      9  H   UNL     1     160.217 161.884 168.298  1.00  0.00     0.210 HD
ENDBRANCH   6   8
ENDBRANCH   5   6
ENDBRANCH   1   5
TORSDOF 5
ENDMDL
MODEL 7
REMARK VINA RESULT:    -3.022      6.897      7.869
REMARK INTER + INTRA:          -4.003
REMARK INTER:                  -3.847
REMARK INTRA:                  -0.156
REMARK UNBOUND:                -0.186
REMARK SMILES CCCCC[C@H](C)O
REMARK SMILES IDX 4 1 3 2 2 3 1 4 5 5 6 6 7 7 8 8
REMARK H PARENT 8 9
REMARK Flexibility Score: inf
ROOT
ATOM      1  C   UNL     1     160.437 164.507 166.916  1.00  0.00     0.003 C 
ENDROOT
BRANCH   1   2
ATOM      2  C   UNL     1     161.384 164.426 168.120  1.00  0.00    -0.000 C 
BRANCH   2   3
ATOM      3  C   UNL     1     162.804 164.858 167.732  1.00  0.00    -0.003 C 
ATOM      4  C   UNL     1     163.698 164.978 168.963  1.00  0.00     0.004 C 
ENDBRANCH   2   3
ENDBRANCH   1   2
BRANCH   1   5
ATOM      5  C   UNL     1     158.991 164.753 167.369  1.00  0.00     0.031 C 
BRANCH   5   6
ATOM      6  C   UNL     1     158.796 164.442 168.864  1.00  0.00     0.111 C 
ATOM      7  C   UNL     1     157.950 163.181 169.040  1.00  0.00     0.038 C 
BRANCH   6   8
ATOM      8  O   UNL     1     158.147 165.512 169.502  1.00  0.00    -0.393 OA
ATOM      9  H   UNL     1     158.545 166.349 169.145  1.00  0.00     0.210 HD
ENDBRANCH   6   8
ENDBRANCH   5   6
ENDBRANCH   1   5
TORSDOF 5
ENDMDL
MODEL 8
REMARK VINA RESULT:    -2.999      8.463     11.225
REMARK INTER + INTRA:          -3.974
REMARK INTER:                  -3.827
REMARK INTRA:                  -0.148
REMARK UNBOUND:                -0.186
REMARK SMILES CCCCC[C@H](C)O
REMARK SMILES IDX 4 1 3 2 2 3 1 4 5 5 6 6 7 7 8 8
REMARK H PARENT 8 9
REMARK Flexibility Score: inf
ROOT
ATOM      1  C   UNL     1     164.429 170.620 166.889  1.00  0.00     0.003 C 
ENDROOT
BRANCH   1   2
ATOM      2  C   UNL     1     164.457 169.677 168.099  1.00  0.00    -0.000 C 
BRANCH   2   3
ATOM      3  C   UNL     1     164.882 168.263 167.683  1.00  0.00    -0.003 C 
ATOM      4  C   UNL     1     165.199 167.403 168.903  1.00  0.00     0.004 C 
ENDBRANCH   2   3
ENDBRANCH   1   2
BRANCH   1   5
ATOM      5  C   UNL     1     164.799 172.052 167.299  1.00  0.00     0.031 C 
BRANCH   5   6
ATOM      6  C   UNL     1     164.531 172.310 168.793  1.00  0.00     0.111 C 
ATOM      7  C   UNL     1     163.212 173.060 168.977  1.00  0.00     0.038 C 
BRANCH   6   8
ATOM      8  O   UNL     1     165.567 173.080 169.346  1.00  0.00    -0.393 OA
ATOM      9  H   UNL     1     166.365 172.492 169.411  1.00  0.00     0.210 HD
ENDBRANCH   6   8
ENDBRANCH   5   6
ENDBRANCH   1   5
TORSDOF 5
ENDMDL
MODEL 9
REMARK VINA RESULT:    -2.973      2.507      3.658
REMARK INTER + INTRA:          -3.942
REMARK INTER:                  -3.519
REMARK INTRA:                  -0.423
REMARK UNBOUND:                -0.186
REMARK SMILES CCCCC[C@H](C)O
REMARK SMILES IDX 4 1 3 2 2 3 1 4 5 5 6 6 7 7 8 8
REMARK H PARENT 8 9
REMARK Flexibility Score: inf
ROOT
ATOM      1  C   UNL     1     166.867 158.689 169.171  1.00  0.00     0.003 C 
ENDROOT
BRANCH   1   2
ATOM      2  C   UNL     1     166.284 158.795 167.756  1.00  0.00    -0.000 C 
BRANCH   2   3
ATOM      3  C   UNL     1     166.773 160.068 167.056  1.00  0.00    -0.003 C 
ATOM      4  C   UNL     1     166.809 161.249 168.022  1.00  0.00     0.004 C 
ENDBRANCH   2   3
ENDBRANCH   1   2
BRANCH   1   5
ATOM      5  C   UNL     1     168.139 157.827 169.179  1.00  0.00     0.031 C 
BRANCH   5   6
ATOM      6  C   UNL     1     169.377 158.636 169.606  1.00  0.00     0.111 C 
ATOM      7  C   UNL     1     168.992 159.700 170.634  1.00  0.00     0.038 C 
BRANCH   6   8
ATOM      8  O   UNL     1     169.947 159.274 168.491  1.00  0.00    -0.393 OA
ATOM      9  H   UNL     1     169.496 160.154 168.397  1.00  0.00     0.210 HD
ENDBRANCH   6   8
ENDBRANCH   5   6
ENDBRANCH   1   5
TORSDOF 5
ENDMDL
