MODEL 1
REMARK VINA RESULT:    -5.739      0.000      0.000
REMARK INTER + INTRA:         -11.700
REMARK INTER:                 -10.436
REMARK INTRA:                  -1.264
REMARK UNBOUND:                -1.264
REMARK SMILES CCCCCCCCCCCCCCCC(=O)[O-]
REMARK SMILES IDX 9 1 10 2 11 3 12 4 13 5 14 6 15 7 16 8 17 9 18 10 8 11 7 12
REMARK SMILES IDX 6 13 5 14 4 15 3 16 2 17 1 18
REMARK H PARENT
REMARK Flexibility Score: inf
ROOT
ATOM      1  C   UNL     1     -12.517  12.643   8.783  1.00  0.00     0.000 C 
ENDROOT
BRANCH   1   2
ATOM      2  C   UNL     1     -13.042  11.636   7.747  1.00  0.00     0.000 C 
BRANCH   2   3
ATOM      3  C   UNL     1     -11.938  10.704   7.215  1.00  0.00     0.000 C 
BRANCH   3   4
ATOM      4  C   UNL     1     -11.912  10.636   5.679  1.00  0.00     0.000 C 
BRANCH   4   5
ATOM      5  C   UNL     1     -10.842  11.548   5.061  1.00  0.00     0.000 C 
BRANCH   5   6
ATOM      6  C   UNL     1     -10.670  11.254   3.564  1.00  0.00     0.006 C 
BRANCH   6   7
ATOM      7  C   UNL     1      -9.266  11.612   3.057  1.00  0.00     0.053 C 
BRANCH   7   8
ATOM      8  C   UNL     1      -8.944  13.057   3.285  1.00  0.00     0.041 C 
ATOM      9  O   UNL     1      -7.952  13.380   3.991  1.00  0.00    -0.550 OA
ATOM     10  O   UNL     1      -9.761  14.046   2.753  1.00  0.00    -0.550 OA
ENDBRANCH   7   8
ENDBRANCH   6   7
ENDBRANCH   5   6
ENDBRANCH   4   5
ENDBRANCH   3   4
ENDBRANCH   2   3
ENDBRANCH   1   2
BRANCH   1  11
ATOM     11  C   UNL     1     -10.986  12.583   8.939  1.00  0.00     0.000 C 
BRANCH  11  12
ATOM     12  C   UNL     1     -10.383  13.932   9.365  1.00  0.00    -0.000 C 
BRANCH  12  13
ATOM     13  C   UNL     1      -9.173  14.336   8.504  1.00  0.00    -0.000 C 
BRANCH  13  14
ATOM     14  C   UNL     1      -7.899  14.551   9.339  1.00  0.00    -0.000 C 
BRANCH  14  15
ATOM     15  C   UNL     1      -8.182  15.222  10.695  1.00  0.00    -0.000 C 
BRANCH  15  16
ATOM     16  C   UNL     1      -7.424  14.538  11.853  1.00  0.00    -0.000 C 
BRANCH  16  17
ATOM     17  C   UNL     1      -7.344  13.008  11.716  1.00  0.00    -0.003 C 
ATOM     18  C   UNL     1      -8.621  12.299  12.163  1.00  0.00     0.004 C 
ENDBRANCH  16  17
ENDBRANCH  15  16
ENDBRANCH  14  15
ENDBRANCH  13  14
ENDBRANCH  12  13
ENDBRANCH  11  12
ENDBRANCH   1  11
TORSDOF 14
ENDMDL
MODEL 2
REMARK VINA RESULT:    -5.401      3.135      7.219
REMARK INTER + INTRA:         -11.086
REMARK INTER:                 -10.065
REMARK INTRA:                  -1.021
REMARK UNBOUND:                -1.264
REMARK SMILES CCCCCCCCCCCCCCCC(=O)[O-]
REMARK SMILES IDX 9 1 10 2 11 3 12 4 13 5 14 6 15 7 16 8 17 9 18 10 8 11 7 12
REMARK SMILES IDX 6 13 5 14 4 15 3 16 2 17 1 18
REMARK H PARENT
REMARK Flexibility Score: inf
ROOT
ATOM      1  C   UNL     1     -10.877  12.127   7.799  1.00  0.00     0.000 C 
ENDROOT
BRANCH   1   2
ATOM      2  C   UNL     1     -11.007  12.647   9.240  1.00  0.00     0.000 C 
BRANCH   2   3
ATOM      3  C   UNL     1     -10.398  14.049   9.420  1.00  0.00     0.000 C 
BRANCH   3   4
ATOM      4  C   UNL     1      -9.042  14.200   8.711  1.00  0.00     0.000 C 
BRANCH   4   5
ATOM      5  C   UNL     1      -7.987  14.890   9.587  1.00  0.00     0.000 C 
BRANCH   5   6
ATOM      6  C   UNL     1      -8.252  14.625  11.076  1.00  0.00     0.006 C 
BRANCH   6   7
ATOM      7  C   UNL     1      -7.508  13.384  11.589  1.00  0.00     0.053 C 
BRANCH   7   8
ATOM      8  C   UNL     1      -8.369  12.550  12.487  1.00  0.00     0.041 C 
ATOM      9  O   UNL     1      -9.175  11.717  11.996  1.00  0.00    -0.550 OA
ATOM     10  O   UNL     1      -8.310  12.720  13.864  1.00  0.00    -0.550 OA
ENDBRANCH   7   8
ENDBRANCH   6   7
ENDBRANCH   5   6
ENDBRANCH   4   5
ENDBRANCH   3   4
ENDBRANCH   2   3
ENDBRANCH   1   2
BRANCH   1  11
ATOM     11  C   UNL     1     -11.909  11.031   7.473  1.00  0.00     0.000 C 
BRANCH  11  12
ATOM     12  C   UNL     1     -11.932  10.666   5.980  1.00  0.00    -0.000 C 
BRANCH  12  13
ATOM     13  C   UNL     1     -10.995  11.552   5.140  1.00  0.00    -0.000 C 
BRANCH  13  14
ATOM     14  C   UNL     1     -10.884  11.077   3.681  1.00  0.00    -0.000 C 
BRANCH  14  15
ATOM     15  C   UNL     1      -9.526  11.422   3.044  1.00  0.00    -0.000 C 
BRANCH  15  16
ATOM     16  C   UNL     1      -9.188  12.923   3.169  1.00  0.00    -0.000 C 
BRANCH  16  17
ATOM     17  C   UNL     1      -7.849  13.195   3.874  1.00  0.00    -0.003 C 
ATOM     18  C   UNL     1      -6.701  12.348   3.330  1.00  0.00     0.004 C 
ENDBRANCH  16  17
ENDBRANCH  15  16
ENDBRANCH  14  15
ENDBRANCH  13  14
ENDBRANCH  12  13
ENDBRANCH  11  12
ENDBRANCH   1  11
TORSDOF 14
ENDMDL
MODEL 3
REMARK VINA RESULT:    -5.392      3.787      4.800
REMARK INTER + INTRA:         -11.069
REMARK INTER:                  -9.914
REMARK INTRA:                  -1.155
REMARK UNBOUND:                -1.264
REMARK SMILES CCCCCCCCCCCCCCCC(=O)[O-]
REMARK SMILES IDX 9 1 10 2 11 3 12 4 13 5 14 6 15 7 16 8 17 9 18 10 8 11 7 12
REMARK SMILES IDX 6 13 5 14 4 15 3 16 2 17 1 18
REMARK H PARENT
REMARK Flexibility Score: inf
ROOT
ATOM      1  C   UNL     1     -10.575  14.037   9.255  1.00  0.00     0.000 C 
ENDROOT
BRANCH   1   2
ATOM      2  C   UNL     1     -10.670  12.505   9.338  1.00  0.00     0.000 C 
BRANCH   2   3
ATOM      3  C   UNL     1     -11.782  11.931   8.440  1.00  0.00     0.000 C 
BRANCH   3   4
ATOM      4  C   UNL     1     -11.269  11.532   7.048  1.00  0.00     0.000 C 
BRANCH   4   5
ATOM      5  C   UNL     1     -12.116  10.430   6.395  1.00  0.00     0.000 C 
BRANCH   5   6
ATOM      6  C   UNL     1     -12.780   9.546   7.461  1.00  0.00     0.006 C 
BRANCH   6   7
ATOM      7  C   UNL     1     -13.531   8.356   6.845  1.00  0.00     0.053 C 
BRANCH   7   8
ATOM      8  C   UNL     1     -13.879   7.325   7.873  1.00  0.00     0.041 C 
ATOM      9  O   UNL     1     -13.077   6.387   8.126  1.00  0.00    -0.550 OA
ATOM     10  O   UNL     1     -15.105   7.375   8.524  1.00  0.00    -0.550 OA
ENDBRANCH   7   8
ENDBRANCH   6   7
ENDBRANCH   5   6
ENDBRANCH   4   5
ENDBRANCH   3   4
ENDBRANCH   2   3
ENDBRANCH   1   2
BRANCH   1  11
ATOM     11  C   UNL     1      -9.162  14.557   9.572  1.00  0.00     0.000 C 
BRANCH  11  12
ATOM     12  C   UNL     1      -9.177  15.944  10.235  1.00  0.00    -0.000 C 
BRANCH  12  13
ATOM     13  C   UNL     1      -7.890  16.234  11.029  1.00  0.00    -0.000 C 
BRANCH  13  14
ATOM     14  C   UNL     1      -8.110  16.184  12.550  1.00  0.00    -0.000 C 
BRANCH  14  15
ATOM     15  C   UNL     1      -7.809  14.799  13.150  1.00  0.00    -0.000 C 
BRANCH  15  16
ATOM     16  C   UNL     1      -6.809  13.997  12.290  1.00  0.00    -0.000 C 
BRANCH  16  17
ATOM     17  C   UNL     1      -7.103  12.487  12.252  1.00  0.00    -0.003 C 
ATOM     18  C   UNL     1      -8.591  12.164  12.362  1.00  0.00     0.004 C 
ENDBRANCH  16  17
ENDBRANCH  15  16
ENDBRANCH  14  15
ENDBRANCH  13  14
ENDBRANCH  12  13
ENDBRANCH  11  12
ENDBRANCH   1  11
TORSDOF 14
ENDMDL
MODEL 4
REMARK VINA RESULT:    -5.361      2.944      6.524
REMARK INTER + INTRA:         -11.013
REMARK INTER:                 -10.028
REMARK INTRA:                  -0.985
REMARK UNBOUND:                -1.264
REMARK SMILES CCCCCCCCCCCCCCCC(=O)[O-]
REMARK SMILES IDX 9 1 10 2 11 3 12 4 13 5 14 6 15 7 16 8 17 9 18 10 8 11 7 12
REMARK SMILES IDX 6 13 5 14 4 15 3 16 2 17 1 18
REMARK H PARENT
REMARK Flexibility Score: inf
ROOT
ATOM      1  C   UNL     1     -12.022  10.391   5.990  1.00  0.00     0.000 C 
ENDROOT
BRANCH   1   2
ATOM      2  C   UNL     1     -12.011  10.455   7.526  1.00  0.00     0.000 C 
BRANCH   2   3
ATOM      3  C   UNL     1     -13.155  11.315   8.091  1.00  0.00     0.000 C 
BRANCH   3   4
ATOM      4  C   UNL     1     -12.659  12.647   8.677  1.00  0.00     0.000 C 
BRANCH   4   5
ATOM      5  C   UNL     1     -11.158  12.634   8.997  1.00  0.00     0.000 C 
BRANCH   5   6
ATOM      6  C   UNL     1     -10.665  14.039   9.374  1.00  0.00     0.006 C 
BRANCH   6   7
ATOM      7  C   UNL     1      -9.134  14.118   9.455  1.00  0.00     0.053 C 
BRANCH   7   8
ATOM      8  C   UNL     1      -8.650  14.098  10.871  1.00  0.00     0.041 C 
ATOM      9  O   UNL     1      -8.351  15.174  11.453  1.00  0.00    -0.550 OA
ATOM     10  O   UNL     1      -8.489  12.889  11.537  1.00  0.00    -0.550 OA
ENDBRANCH   7   8
ENDBRANCH   6   7
ENDBRANCH   5   6
ENDBRANCH   4   5
ENDBRANCH   3   4
ENDBRANCH   2   3
ENDBRANCH   1   2
BRANCH   1  11
ATOM     11  C   UNL     1     -11.251  11.557   5.346  1.00  0.00     0.000 C 
BRANCH  11  12
ATOM     12  C   UNL     1     -10.631  11.180   3.990  1.00  0.00    -0.000 C 
BRANCH  12  13
ATOM     13  C   UNL     1     -10.923  12.221   2.896  1.00  0.00    -0.000 C 
BRANCH  13  14
ATOM     14  C   UNL     1      -9.676  13.030   2.502  1.00  0.00    -0.000 C 
BRANCH  14  15
ATOM     15  C   UNL     1      -8.981  13.681   3.712  1.00  0.00    -0.000 C 
BRANCH  15  16
ATOM     16  C   UNL     1      -7.572  13.100   3.956  1.00  0.00    -0.000 C 
BRANCH  16  17
ATOM     17  C   UNL     1      -7.139  12.070   2.898  1.00  0.00    -0.003 C 
ATOM     18  C   UNL     1      -5.644  11.767   2.935  1.00  0.00     0.004 C 
ENDBRANCH  16  17
ENDBRANCH  15  16
ENDBRANCH  14  15
ENDBRANCH  13  14
ENDBRANCH  12  13
ENDBRANCH  11  12
ENDBRANCH   1  11
TORSDOF 14
ENDMDL
MODEL 5
REMARK VINA RESULT:    -5.279      1.641      3.056
REMARK INTER + INTRA:         -10.863
REMARK INTER:                 -10.016
REMARK INTRA:                  -0.847
REMARK UNBOUND:                -1.264
REMARK SMILES CCCCCCCCCCCCCCCC(=O)[O-]
REMARK SMILES IDX 9 1 10 2 11 3 12 4 13 5 14 6 15 7 16 8 17 9 18 10 8 11 7 12
REMARK SMILES IDX 6 13 5 14 4 15 3 16 2 17 1 18
REMARK H PARENT
REMARK Flexibility Score: inf
ROOT
ATOM      1  C   UNL     1     -11.987  10.505   5.781  1.00  0.00     0.000 C 
ENDROOT
BRANCH   1   2
ATOM      2  C   UNL     1     -11.254  11.580   4.962  1.00  0.00     0.000 C 
BRANCH   2   3
ATOM      3  C   UNL     1     -10.905  11.105   3.541  1.00  0.00     0.000 C 
BRANCH   3   4
ATOM      4  C   UNL     1      -9.826  11.975   2.875  1.00  0.00     0.000 C 
BRANCH   4   5
ATOM      5  C   UNL     1      -9.447  13.201   3.718  1.00  0.00     0.000 C 
BRANCH   5   6
ATOM      6  C   UNL     1      -7.928  13.264   3.941  1.00  0.00     0.006 C 
BRANCH   6   7
ATOM      7  C   UNL     1      -7.153  13.428   2.626  1.00  0.00     0.053 C 
BRANCH   7   8
ATOM      8  C   UNL     1      -6.259  12.258   2.356  1.00  0.00     0.041 C 
ATOM      9  O   UNL     1      -5.666  11.682   3.306  1.00  0.00    -0.550 OA
ATOM     10  O   UNL     1      -6.049  11.826   1.052  1.00  0.00    -0.550 OA
ENDBRANCH   7   8
ENDBRANCH   6   7
ENDBRANCH   5   6
ENDBRANCH   4   5
ENDBRANCH   3   4
ENDBRANCH   2   3
ENDBRANCH   1   2
BRANCH   1  11
ATOM     11  C   UNL     1     -11.976  10.805   7.291  1.00  0.00     0.000 C 
BRANCH  11  12
ATOM     12  C   UNL     1     -10.961  11.897   7.670  1.00  0.00    -0.000 C 
BRANCH  12  13
ATOM     13  C   UNL     1     -11.370  12.671   8.936  1.00  0.00    -0.000 C 
BRANCH  13  14
ATOM     14  C   UNL     1     -10.163  13.255   9.687  1.00  0.00    -0.000 C 
BRANCH  14  15
ATOM     15  C   UNL     1     -10.056  14.784   9.546  1.00  0.00    -0.000 C 
BRANCH  15  16
ATOM     16  C   UNL     1      -8.667  15.312   9.967  1.00  0.00    -0.000 C 
BRANCH  16  17
ATOM     17  C   UNL     1      -7.698  14.205  10.417  1.00  0.00    -0.003 C 
ATOM     18  C   UNL     1      -7.171  14.410  11.834  1.00  0.00     0.004 C 
ENDBRANCH  16  17
ENDBRANCH  15  16
ENDBRANCH  14  15
ENDBRANCH  13  14
ENDBRANCH  12  13
ENDBRANCH  11  12
ENDBRANCH   1  11
TORSDOF 14
ENDMDL
MODEL 6
REMARK VINA RESULT:    -5.239      5.211      7.891
REMARK INTER + INTRA:         -10.791
REMARK INTER:                  -9.567
REMARK INTRA:                  -1.224
REMARK UNBOUND:                -1.264
REMARK SMILES CCCCCCCCCCCCCCCC(=O)[O-]
REMARK SMILES IDX 9 1 10 2 11 3 12 4 13 5 14 6 15 7 16 8 17 9 18 10 8 11 7 12
REMARK SMILES IDX 6 13 5 14 4 15 3 16 2 17 1 18
REMARK H PARENT
REMARK Flexibility Score: inf
ROOT
ATOM      1  C   UNL     1      -6.284  11.439   3.025  1.00  0.00     0.000 C 
ENDROOT
BRANCH   1   2
ATOM      2  C   UNL     1      -7.037  10.125   2.762  1.00  0.00     0.000 C 
BRANCH   2   3
ATOM      3  C   UNL     1      -6.109   8.897   2.782  1.00  0.00     0.000 C 
BRANCH   3   4
ATOM      4  C   UNL     1      -5.102   8.937   3.942  1.00  0.00     0.000 C 
BRANCH   4   5
ATOM      5  C   UNL     1      -5.150   7.675   4.815  1.00  0.00     0.000 C 
BRANCH   5   6
ATOM      6  C   UNL     1      -4.847   8.012   6.283  1.00  0.00     0.006 C 
BRANCH   6   7
ATOM      7  C   UNL     1      -5.674   7.162   7.258  1.00  0.00     0.053 C 
BRANCH   7   8
ATOM      8  C   UNL     1      -5.020   5.845   7.541  1.00  0.00     0.041 C 
ATOM      9  O   UNL     1      -5.710   4.863   7.923  1.00  0.00    -0.550 OA
ATOM     10  O   UNL     1      -3.642   5.710   7.420  1.00  0.00    -0.550 OA
ENDBRANCH   7   8
ENDBRANCH   6   7
ENDBRANCH   5   6
ENDBRANCH   4   5
ENDBRANCH   3   4
ENDBRANCH   2   3
ENDBRANCH   1   2
BRANCH   1  11
ATOM     11  C   UNL     1      -7.168  12.680   2.804  1.00  0.00     0.000 C 
BRANCH  11  12
ATOM     12  C   UNL     1      -7.575  13.359   4.123  1.00  0.00    -0.000 C 
BRANCH  12  13
ATOM     13  C   UNL     1      -9.101  13.389   4.325  1.00  0.00    -0.000 C 
BRANCH  13  14
ATOM     14  C   UNL     1      -9.875  13.265   3.002  1.00  0.00    -0.000 C 
BRANCH  14  15
ATOM     15  C   UNL     1     -10.928  12.143   3.032  1.00  0.00    -0.000 C 
BRANCH  15  16
ATOM     16  C   UNL     1     -10.612  11.075   4.100  1.00  0.00    -0.000 C 
BRANCH  16  17
ATOM     17  C   UNL     1     -11.748  10.867   5.117  1.00  0.00    -0.003 C 
ATOM     18  C   UNL     1     -11.395  11.358   6.518  1.00  0.00     0.004 C 
ENDBRANCH  16  17
ENDBRANCH  15  16
ENDBRANCH  14  15
ENDBRANCH  13  14
ENDBRANCH  12  13
ENDBRANCH  11  12
ENDBRANCH   1  11
TORSDOF 14
ENDMDL
MODEL 7
REMARK VINA RESULT:    -5.225      2.017      4.154
REMARK INTER + INTRA:         -10.765
REMARK INTER:                  -9.885
REMARK INTRA:                  -0.880
REMARK UNBOUND:                -1.264
REMARK SMILES CCCCCCCCCCCCCCCC(=O)[O-]
REMARK SMILES IDX 9 1 10 2 11 3 12 4 13 5 14 6 15 7 16 8 17 9 18 10 8 11 7 12
REMARK SMILES IDX 6 13 5 14 4 15 3 16 2 17 1 18
REMARK H PARENT
REMARK Flexibility Score: inf
ROOT
ATOM      1  C   UNL     1     -11.203  11.465   5.482  1.00  0.00     0.000 C 
ENDROOT
BRANCH   1   2
ATOM      2  C   UNL     1     -10.966  11.102   4.007  1.00  0.00     0.000 C 
BRANCH   2   3
ATOM      3  C   UNL     1     -10.257  12.224   3.228  1.00  0.00     0.000 C 
BRANCH   3   4
ATOM      4  C   UNL     1      -8.920  11.768   2.621  1.00  0.00     0.000 C 
BRANCH   4   5
ATOM      5  C   UNL     1      -7.705  12.399   3.316  1.00  0.00     0.000 C 
BRANCH   5   6
ATOM      6  C   UNL     1      -6.755  13.034   2.290  1.00  0.00     0.006 C 
BRANCH   6   7
ATOM      7  C   UNL     1      -7.467  13.381   0.974  1.00  0.00     0.053 C 
BRANCH   7   8
ATOM      8  C   UNL     1      -7.752  14.847   0.865  1.00  0.00     0.041 C 
ATOM      9  O   UNL     1      -8.309  15.456   1.817  1.00  0.00    -0.550 OA
ATOM     10  O   UNL     1      -7.441  15.533  -0.301  1.00  0.00    -0.550 OA
ENDBRANCH   7   8
ENDBRANCH   6   7
ENDBRANCH   5   6
ENDBRANCH   4   5
ENDBRANCH   3   4
ENDBRANCH   2   3
ENDBRANCH   1   2
BRANCH   1  11
ATOM     11  C   UNL     1     -12.027  10.398   6.226  1.00  0.00     0.000 C 
BRANCH  11  12
ATOM     12  C   UNL     1     -12.069  10.636   7.744  1.00  0.00    -0.000 C 
BRANCH  12  13
ATOM     13  C   UNL     1     -13.079  11.726   8.144  1.00  0.00    -0.000 C 
BRANCH  13  14
ATOM     14  C   UNL     1     -12.417  12.904   8.879  1.00  0.00    -0.000 C 
BRANCH  14  15
ATOM     15  C   UNL     1     -10.881  12.805   8.902  1.00  0.00    -0.000 C 
BRANCH  15  16
ATOM     16  C   UNL     1     -10.226  14.056   9.525  1.00  0.00    -0.000 C 
BRANCH  16  17
ATOM     17  C   UNL     1     -11.001  15.356   9.253  1.00  0.00    -0.003 C 
ATOM     18  C   UNL     1     -10.354  16.583   9.891  1.00  0.00     0.004 C 
ENDBRANCH  16  17
ENDBRANCH  15  16
ENDBRANCH  14  15
ENDBRANCH  13  14
ENDBRANCH  12  13
ENDBRANCH  11  12
ENDBRANCH   1  11
TORSDOF 14
ENDMDL
MODEL 8
REMARK VINA RESULT:    -5.209      1.569      1.859
REMARK INTER + INTRA:         -10.736
REMARK INTER:                  -9.651
REMARK INTRA:                  -1.085
REMARK UNBOUND:                -1.264
REMARK SMILES CCCCCCCCCCCCCCCC(=O)[O-]
REMARK SMILES IDX 9 1 10 2 11 3 12 4 13 5 14 6 15 7 16 8 17 9 18 10 8 11 7 12
REMARK SMILES IDX 6 13 5 14 4 15 3 16 2 17 1 18
REMARK H PARENT
REMARK Flexibility Score: inf
ROOT
ATOM      1  C   UNL     1     -10.784  12.539   8.160  1.00  0.00     0.000 C 
ENDROOT
BRANCH   1   2
ATOM      2  C   UNL     1     -11.570  11.262   8.496  1.00  0.00     0.000 C 
BRANCH   2   3
ATOM      3  C   UNL     1     -12.004  10.486   7.239  1.00  0.00     0.000 C 
BRANCH   3   4
ATOM      4  C   UNL     1     -12.176  11.397   6.013  1.00  0.00     0.000 C 
BRANCH   4   5
ATOM      5  C   UNL     1     -11.244  11.018   4.853  1.00  0.00     0.000 C 
BRANCH   5   6
ATOM      6  C   UNL     1     -10.404  12.224   4.409  1.00  0.00     0.006 C 
BRANCH   6   7
ATOM      7  C   UNL     1     -10.523  12.494   2.902  1.00  0.00     0.053 C 
BRANCH   7   8
ATOM      8  C   UNL     1     -10.306  11.251   2.095  1.00  0.00     0.041 C 
ATOM      9  O   UNL     1      -9.156  10.744   2.011  1.00  0.00    -0.550 OA
ATOM     10  O   UNL     1     -11.363  10.675   1.402  1.00  0.00    -0.550 OA
ENDBRANCH   7   8
ENDBRANCH   6   7
ENDBRANCH   5   6
ENDBRANCH   4   5
ENDBRANCH   3   4
ENDBRANCH   2   3
ENDBRANCH   1   2
BRANCH   1  11
ATOM     11  C   UNL     1     -10.477  13.387   9.408  1.00  0.00     0.000 C 
BRANCH  11  12
ATOM     12  C   UNL     1      -9.443  14.492   9.133  1.00  0.00    -0.000 C 
BRANCH  12  13
ATOM     13  C   UNL     1      -9.234  15.420  10.342  1.00  0.00    -0.000 C 
BRANCH  13  14
ATOM     14  C   UNL     1      -7.747  15.667  10.647  1.00  0.00    -0.000 C 
BRANCH  14  15
ATOM     15  C   UNL     1      -7.124  14.556  11.511  1.00  0.00    -0.000 C 
BRANCH  15  16
ATOM     16  C   UNL     1      -8.178  13.825  12.369  1.00  0.00    -0.000 C 
BRANCH  16  17
ATOM     17  C   UNL     1      -7.931  12.311  12.489  1.00  0.00    -0.003 C 
ATOM     18  C   UNL     1      -9.184  11.478  12.234  1.00  0.00     0.004 C 
ENDBRANCH  16  17
ENDBRANCH  15  16
ENDBRANCH  14  15
ENDBRANCH  13  14
ENDBRANCH  12  13
ENDBRANCH  11  12
ENDBRANCH   1  11
TORSDOF 14
ENDMDL
MODEL 9
REMARK VINA RESULT:    -5.147      4.481      6.963
REMARK INTER + INTRA:         -10.624
REMARK INTER:                  -9.429
REMARK INTRA:                  -1.196
REMARK UNBOUND:                -1.264
REMARK SMILES CCCCCCCCCCCCCCCC(=O)[O-]
REMARK SMILES IDX 9 1 10 2 11 3 12 4 13 5 14 6 15 7 16 8 17 9 18 10 8 11 7 12
REMARK SMILES IDX 6 13 5 14 4 15 3 16 2 17 1 18
REMARK H PARENT
REMARK Flexibility Score: inf
ROOT
ATOM      1  C   UNL     1      -6.290  12.116   2.631  1.00  0.00     0.000 C 
ENDROOT
BRANCH   1   2
ATOM      2  C   UNL     1      -7.425  13.143   2.762  1.00  0.00     0.000 C 
BRANCH   2   3
ATOM      3  C   UNL     1      -7.879  13.341   4.220  1.00  0.00     0.000 C 
BRANCH   3   4
ATOM      4  C   UNL     1      -9.387  13.108   4.406  1.00  0.00     0.000 C 
BRANCH   4   5
ATOM      5  C   UNL     1      -9.965  12.112   3.390  1.00  0.00     0.000 C 
BRANCH   5   6
ATOM      6  C   UNL     1     -10.954  11.152   4.067  1.00  0.00     0.006 C 
BRANCH   6   7
ATOM      7  C   UNL     1     -11.139  11.462   5.560  1.00  0.00     0.053 C 
BRANCH   7   8
ATOM      8  C   UNL     1     -12.035  10.467   6.229  1.00  0.00     0.041 C 
ATOM      9  O   UNL     1     -12.783   9.724   5.540  1.00  0.00    -0.550 OA
ATOM     10  O   UNL     1     -12.075  10.386   7.616  1.00  0.00    -0.550 OA
ENDBRANCH   7   8
ENDBRANCH   6   7
ENDBRANCH   5   6
ENDBRANCH   4   5
ENDBRANCH   3   4
ENDBRANCH   2   3
ENDBRANCH   1   2
BRANCH   1  11
ATOM     11  C   UNL     1      -6.668  10.932   1.723  1.00  0.00     0.000 C 
BRANCH  11  12
ATOM     12  C   UNL     1      -6.893   9.630   2.510  1.00  0.00    -0.000 C 
BRANCH  12  13
ATOM     13  C   UNL     1      -5.894   9.460   3.669  1.00  0.00    -0.000 C 
BRANCH  13  14
ATOM     14  C   UNL     1      -5.750   7.996   4.114  1.00  0.00    -0.000 C 
BRANCH  14  15
ATOM     15  C   UNL     1      -4.811   7.830   5.323  1.00  0.00    -0.000 C 
BRANCH  15  16
ATOM     16  C   UNL     1      -5.336   6.783   6.328  1.00  0.00    -0.000 C 
BRANCH  16  17
ATOM     17  C   UNL     1      -5.548   7.344   7.745  1.00  0.00    -0.003 C 
ATOM     18  C   UNL     1      -4.808   8.657   7.987  1.00  0.00     0.004 C 
ENDBRANCH  16  17
ENDBRANCH  15  16
ENDBRANCH  14  15
ENDBRANCH  13  14
ENDBRANCH  12  13
ENDBRANCH  11  12
ENDBRANCH   1  11
TORSDOF 14
ENDMDL
