MODEL 1
REMARK VINA RESULT:    -3.356      0.000      0.000
REMARK INTER + INTRA:          -4.546
REMARK INTER:                  -4.337
REMARK INTRA:                  -0.209
REMARK UNBOUND:                -0.209
REMARK SMILES C=CC(=O)CCCCC
REMARK SMILES IDX 6 1 7 2 8 3 9 4 5 5 3 6 4 7 2 8 1 9
REMARK H PARENT
REMARK Flexibility Score: inf
ROOT
ATOM      1  C   UNL     1      -5.044   8.037   2.996  1.00  0.00     0.008 C 
ENDROOT
BRANCH   1   2
ATOM      2  C   UNL     1      -4.668   9.362   2.316  1.00  0.00     0.000 C 
BRANCH   2   3
ATOM      3  C   UNL     1      -4.962   9.356   0.809  1.00  0.00    -0.003 C 
ATOM      4  C   UNL     1      -5.631   8.051   0.385  1.00  0.00     0.004 C 
ENDBRANCH   2   3
ENDBRANCH   1   2
BRANCH   1   5
ATOM      5  C   UNL     1      -5.418   8.217   4.474  1.00  0.00     0.080 C 
BRANCH   5   6
ATOM      6  C   UNL     1      -4.184   8.282   5.324  1.00  0.00     0.155 C 
ATOM      7  O   UNL     1      -3.160   7.633   4.978  1.00  0.00    -0.295 OA
BRANCH   6   8
ATOM      8  C   UNL     1      -4.189   9.065   6.575  1.00  0.00     0.039 C 
ATOM      9  C   UNL     1      -5.208   9.036   7.433  1.00  0.00     0.012 C 
ENDBRANCH   6   8
ENDBRANCH   5   6
ENDBRANCH   1   5
TORSDOF 5
ENDMDL
MODEL 2
REMARK VINA RESULT:    -3.263     17.891     18.573
REMARK INTER + INTRA:          -4.426
REMARK INTER:                  -4.213
REMARK INTRA:                  -0.212
REMARK UNBOUND:                -0.209
REMARK SMILES C=CC(=O)CCCCC
REMARK SMILES IDX 6 1 7 2 8 3 9 4 5 5 3 6 4 7 2 8 1 9
REMARK H PARENT
REMARK Flexibility Score: inf
ROOT
ATOM      1  C   UNL     1       4.455  -6.757  -1.556  1.00  0.00     0.008 C 
ENDROOT
BRANCH   1   2
ATOM      2  C   UNL     1       3.641  -6.271  -2.766  1.00  0.00     0.000 C 
BRANCH   2   3
ATOM      3  C   UNL     1       4.527  -5.918  -3.970  1.00  0.00    -0.003 C 
ATOM      4  C   UNL     1       4.945  -4.451  -3.933  1.00  0.00     0.004 C 
ENDBRANCH   2   3
ENDBRANCH   1   2
BRANCH   1   5
ATOM      5  C   UNL     1       4.037  -6.070  -0.249  1.00  0.00     0.080 C 
BRANCH   5   6
ATOM      6  C   UNL     1       4.430  -6.907   0.932  1.00  0.00     0.155 C 
ATOM      7  O   UNL     1       3.912  -6.671   2.058  1.00  0.00    -0.295 OA
BRANCH   6   8
ATOM      8  C   UNL     1       5.446  -7.966   0.781  1.00  0.00     0.039 C 
ATOM      9  C   UNL     1       5.199  -9.242   1.074  1.00  0.00     0.012 C 
ENDBRANCH   6   8
ENDBRANCH   5   6
ENDBRANCH   1   5
TORSDOF 5
ENDMDL
MODEL 3
REMARK VINA RESULT:    -3.140     15.642     17.312
REMARK INTER + INTRA:          -4.267
REMARK INTER:                  -3.974
REMARK INTRA:                  -0.293
REMARK UNBOUND:                -0.209
REMARK SMILES C=CC(=O)CCCCC
REMARK SMILES IDX 6 1 7 2 8 3 9 4 5 5 3 6 4 7 2 8 1 9
REMARK H PARENT
REMARK Flexibility Score: inf
ROOT
ATOM      1  C   UNL     1       5.715   1.085  -5.959  1.00  0.00     0.008 C 
ENDROOT
BRANCH   1   2
ATOM      2  C   UNL     1       5.867   2.110  -7.094  1.00  0.00     0.000 C 
BRANCH   2   3
ATOM      3  C   UNL     1       4.963   3.337  -6.906  1.00  0.00    -0.003 C 
ATOM      4  C   UNL     1       4.088   3.190  -5.664  1.00  0.00     0.004 C 
ENDBRANCH   2   3
ENDBRANCH   1   2
BRANCH   1   5
ATOM      5  C   UNL     1       6.892   0.103  -5.888  1.00  0.00     0.080 C 
BRANCH   5   6
ATOM      6  C   UNL     1       6.411  -1.306  -6.070  1.00  0.00     0.155 C 
ATOM      7  O   UNL     1       6.746  -2.187  -5.232  1.00  0.00    -0.295 OA
BRANCH   6   8
ATOM      8  C   UNL     1       5.591  -1.661  -7.245  1.00  0.00     0.039 C 
ATOM      9  C   UNL     1       6.051  -1.572  -8.491  1.00  0.00     0.012 C 
ENDBRANCH   6   8
ENDBRANCH   5   6
ENDBRANCH   1   5
TORSDOF 5
ENDMDL
MODEL 4
REMARK VINA RESULT:    -3.125     15.374     16.925
REMARK INTER + INTRA:          -4.248
REMARK INTER:                  -3.860
REMARK INTRA:                  -0.388
REMARK UNBOUND:                -0.209
REMARK SMILES C=CC(=O)CCCCC
REMARK SMILES IDX 6 1 7 2 8 3 9 4 5 5 3 6 4 7 2 8 1 9
REMARK H PARENT
REMARK Flexibility Score: inf
ROOT
ATOM      1  C   UNL     1       6.721   2.258  -7.178  1.00  0.00     0.008 C 
ENDROOT
BRANCH   1   2
ATOM      2  C   UNL     1       5.971   3.594  -7.290  1.00  0.00     0.000 C 
BRANCH   2   3
ATOM      3  C   UNL     1       4.467   3.453  -7.017  1.00  0.00    -0.003 C 
ATOM      4  C   UNL     1       4.204   3.125  -5.549  1.00  0.00     0.004 C 
ENDBRANCH   2   3
ENDBRANCH   1   2
BRANCH   1   5
ATOM      5  C   UNL     1       6.019   1.121  -7.935  1.00  0.00     0.080 C 
BRANCH   5   6
ATOM      6  C   UNL     1       5.913  -0.099  -7.069  1.00  0.00     0.155 C 
ATOM      7  O   UNL     1       5.383  -1.144  -7.535  1.00  0.00    -0.295 OA
BRANCH   6   8
ATOM      8  C   UNL     1       6.384  -0.056  -5.671  1.00  0.00     0.039 C 
ATOM      9  C   UNL     1       7.086  -1.046  -5.122  1.00  0.00     0.012 C 
ENDBRANCH   6   8
ENDBRANCH   5   6
ENDBRANCH   1   5
TORSDOF 5
ENDMDL
MODEL 5
REMARK VINA RESULT:    -3.091     17.205     18.376
REMARK INTER + INTRA:          -4.203
REMARK INTER:                  -3.805
REMARK INTRA:                  -0.399
REMARK UNBOUND:                -0.209
REMARK SMILES C=CC(=O)CCCCC
REMARK SMILES IDX 6 1 7 2 8 3 9 4 5 5 3 6 4 7 2 8 1 9
REMARK H PARENT
REMARK Flexibility Score: inf
ROOT
ATOM      1  C   UNL     1       6.631  -0.804  -8.691  1.00  0.00     0.008 C 
ENDROOT
BRANCH   1   2
ATOM      2  C   UNL     1       6.017  -2.099  -9.244  1.00  0.00     0.000 C 
BRANCH   2   3
ATOM      3  C   UNL     1       4.565  -2.306  -8.787  1.00  0.00    -0.003 C 
ATOM      4  C   UNL     1       3.656  -2.619  -9.973  1.00  0.00     0.004 C 
ENDBRANCH   2   3
ENDBRANCH   1   2
BRANCH   1   5
ATOM      5  C   UNL     1       5.615   0.048  -7.917  1.00  0.00     0.080 C 
BRANCH   5   6
ATOM      6  C   UNL     1       6.035   0.193  -6.484  1.00  0.00     0.155 C 
ATOM      7  O   UNL     1       5.507   1.090  -5.773  1.00  0.00    -0.295 OA
BRANCH   6   8
ATOM      8  C   UNL     1       7.089  -0.680  -5.932  1.00  0.00     0.039 C 
ATOM      9  C   UNL     1       6.815  -1.734  -5.164  1.00  0.00     0.012 C 
ENDBRANCH   6   8
ENDBRANCH   5   6
ENDBRANCH   1   5
TORSDOF 5
ENDMDL
MODEL 6
REMARK VINA RESULT:    -3.058     15.363     17.006
REMARK INTER + INTRA:          -4.161
REMARK INTER:                  -3.836
REMARK INTRA:                  -0.325
REMARK UNBOUND:                -0.209
REMARK SMILES C=CC(=O)CCCCC
REMARK SMILES IDX 6 1 7 2 8 3 9 4 5 5 3 6 4 7 2 8 1 9
REMARK H PARENT
REMARK Flexibility Score: inf
ROOT
ATOM      1  C   UNL     1       6.711   0.853  -7.604  1.00  0.00     0.008 C 
ENDROOT
BRANCH   1   2
ATOM      2  C   UNL     1       6.033   0.027  -6.501  1.00  0.00     0.000 C 
BRANCH   2   3
ATOM      3  C   UNL     1       7.034  -0.521  -5.474  1.00  0.00    -0.003 C 
ATOM      4  C   UNL     1       6.779  -2.000  -5.193  1.00  0.00     0.004 C 
ENDBRANCH   2   3
ENDBRANCH   1   2
BRANCH   1   5
ATOM      5  C   UNL     1       6.508   2.364  -7.419  1.00  0.00     0.080 C 
BRANCH   5   6
ATOM      6  C   UNL     1       5.092   2.745  -7.732  1.00  0.00     0.155 C 
ATOM      7  O   UNL     1       4.611   2.463  -8.863  1.00  0.00    -0.295 OA
BRANCH   6   8
ATOM      8  C   UNL     1       4.289   3.484  -6.738  1.00  0.00     0.039 C 
ATOM      9  C   UNL     1       4.220   3.117  -5.460  1.00  0.00     0.012 C 
ENDBRANCH   6   8
ENDBRANCH   5   6
ENDBRANCH   1   5
TORSDOF 5
ENDMDL
MODEL 7
REMARK VINA RESULT:    -2.999     13.253     13.803
REMARK INTER + INTRA:          -4.084
REMARK INTER:                  -3.842
REMARK INTRA:                  -0.242
REMARK UNBOUND:                -0.209
REMARK SMILES C=CC(=O)CCCCC
REMARK SMILES IDX 6 1 7 2 8 3 9 4 5 5 3 6 4 7 2 8 1 9
REMARK H PARENT
REMARK Flexibility Score: inf
ROOT
ATOM      1  C   UNL     1      -8.240  -4.762   7.171  1.00  0.00     0.008 C 
ENDROOT
BRANCH   1   2
ATOM      2  C   UNL     1      -9.564  -4.073   6.807  1.00  0.00     0.000 C 
BRANCH   2   3
ATOM      3  C   UNL     1      -9.817  -4.042   5.292  1.00  0.00    -0.003 C 
ATOM      4  C   UNL     1      -8.817  -4.925   4.551  1.00  0.00     0.004 C 
ENDBRANCH   2   3
ENDBRANCH   1   2
BRANCH   1   5
ATOM      5  C   UNL     1      -7.159  -3.766   7.614  1.00  0.00     0.080 C 
BRANCH   5   6
ATOM      6  C   UNL     1      -5.820  -4.170   7.070  1.00  0.00     0.155 C 
ATOM      7  O   UNL     1      -5.545  -3.931   5.863  1.00  0.00    -0.295 OA
BRANCH   6   8
ATOM      8  C   UNL     1      -4.856  -4.879   7.933  1.00  0.00     0.039 C 
ATOM      9  C   UNL     1      -4.174  -5.945   7.518  1.00  0.00     0.012 C 
ENDBRANCH   6   8
ENDBRANCH   5   6
ENDBRANCH   1   5
TORSDOF 5
ENDMDL
MODEL 8
REMARK VINA RESULT:    -2.988     17.404     18.638
REMARK INTER + INTRA:          -4.070
REMARK INTER:                  -3.544
REMARK INTRA:                  -0.526
REMARK UNBOUND:                -0.209
REMARK SMILES C=CC(=O)CCCCC
REMARK SMILES IDX 6 1 7 2 8 3 9 4 5 5 3 6 4 7 2 8 1 9
REMARK H PARENT
REMARK Flexibility Score: inf
ROOT
ATOM      1  C   UNL     1       6.496   1.332  -7.237  1.00  0.00     0.008 C 
ENDROOT
BRANCH   1   2
ATOM      2  C   UNL     1       6.088   0.394  -6.091  1.00  0.00     0.000 C 
BRANCH   2   3
ATOM      3  C   UNL     1       7.246  -0.493  -5.613  1.00  0.00    -0.003 C 
ATOM      4  C   UNL     1       6.765  -1.909  -5.310  1.00  0.00     0.004 C 
ENDBRANCH   2   3
ENDBRANCH   1   2
BRANCH   1   5
ATOM      5  C   UNL     1       5.660   1.113  -8.506  1.00  0.00     0.080 C 
BRANCH   5   6
ATOM      6  C   UNL     1       5.829  -0.290  -9.010  1.00  0.00     0.155 C 
ATOM      7  O   UNL     1       6.979  -0.697  -9.330  1.00  0.00    -0.295 OA
BRANCH   6   8
ATOM      8  C   UNL     1       4.652  -1.164  -9.170  1.00  0.00     0.039 C 
ATOM      9  C   UNL     1       4.496  -2.290  -8.475  1.00  0.00     0.012 C 
ENDBRANCH   6   8
ENDBRANCH   5   6
ENDBRANCH   1   5
TORSDOF 5
ENDMDL
MODEL 9
REMARK VINA RESULT:    -2.916     11.467     12.748
REMARK INTER + INTRA:          -3.977
REMARK INTER:                  -3.423
REMARK INTRA:                  -0.555
REMARK UNBOUND:                -0.209
REMARK SMILES C=CC(=O)CCCCC
REMARK SMILES IDX 6 1 7 2 8 3 9 4 5 5 3 6 4 7 2 8 1 9
REMARK H PARENT
REMARK Flexibility Score: inf
ROOT
ATOM      1  C   UNL     1       4.893   9.758  -0.543  1.00  0.00     0.008 C 
ENDROOT
BRANCH   1   2
ATOM      2  C   UNL     1       5.687   9.506   0.749  1.00  0.00     0.000 C 
BRANCH   2   3
ATOM      3  C   UNL     1       7.094   8.954   0.479  1.00  0.00    -0.003 C 
ATOM      4  C   UNL     1       7.156   7.452   0.743  1.00  0.00     0.004 C 
ENDBRANCH   2   3
ENDBRANCH   1   2
BRANCH   1   5
ATOM      5  C   UNL     1       5.801   9.948  -1.766  1.00  0.00     0.080 C 
BRANCH   5   6
ATOM      6  C   UNL     1       5.396   9.017  -2.870  1.00  0.00     0.155 C 
ATOM      7  O   UNL     1       4.505   9.377  -3.687  1.00  0.00    -0.295 OA
BRANCH   6   8
ATOM      8  C   UNL     1       6.004   7.676  -2.966  1.00  0.00     0.039 C 
ATOM      9  C   UNL     1       7.323   7.489  -2.989  1.00  0.00     0.012 C 
ENDBRANCH   6   8
ENDBRANCH   5   6
ENDBRANCH   1   5
TORSDOF 5
ENDMDL
