MODEL 1
REMARK VINA RESULT:    -1.201      0.000      0.000
REMARK INTER + INTRA:          -1.375
REMARK INTER:                  -1.341
REMARK INTRA:                  -0.034
REMARK UNBOUND:                -0.034
REMARK SMILES CCCC(=O)[O-]
REMARK SMILES IDX 3 1 4 2 5 3 6 4 2 5 1 6
REMARK H PARENT
REMARK Flexibility Score: inf
ROOT
ATOM      1  C   UNL     1      29.569 -11.125  17.555  1.00  0.00     0.052 C 
ENDROOT
BRANCH   1   2
ATOM      2  C   UNL     1      29.831 -10.129  18.643  1.00  0.00     0.041 C 
ATOM      3  O   UNL     1      28.878  -9.677  19.332  1.00  0.00    -0.550 OA
ATOM      4  O   UNL     1      31.124  -9.675  18.874  1.00  0.00    -0.550 OA
ENDBRANCH   1   2
BRANCH   1   5
ATOM      5  C   UNL     1      30.685 -11.125  16.504  1.00  0.00     0.003 C 
ATOM      6  C   UNL     1      30.270 -10.416  15.215  1.00  0.00     0.004 C 
ENDBRANCH   1   5
TORSDOF 2
ENDMDL
MODEL 2
REMARK VINA RESULT:    -1.171      1.982      2.710
REMARK INTER + INTRA:          -1.342
REMARK INTER:                  -1.304
REMARK INTRA:                  -0.038
REMARK UNBOUND:                -0.034
REMARK SMILES CCCC(=O)[O-]
REMARK SMILES IDX 3 1 4 2 5 3 6 4 2 5 1 6
REMARK H PARENT
REMARK Flexibility Score: inf
ROOT
ATOM      1  C   UNL     1      31.040 -10.891  14.969  1.00  0.00     0.052 C 
ENDROOT
BRANCH   1   2
ATOM      2  C   UNL     1      30.514 -10.215  16.197  1.00  0.00     0.041 C 
ATOM      3  O   UNL     1      29.846  -9.152  16.100  1.00  0.00    -0.550 OA
ATOM      4  O   UNL     1      30.790 -10.741  17.454  1.00  0.00    -0.550 OA
ENDBRANCH   1   2
BRANCH   1   5
ATOM      5  C   UNL     1      29.935 -11.125  13.931  1.00  0.00     0.003 C 
ATOM      6  C   UNL     1      30.163 -10.325  12.649  1.00  0.00     0.004 C 
ENDBRANCH   1   5
TORSDOF 2
ENDMDL
MODEL 3
REMARK VINA RESULT:    -1.090      1.372      1.598
REMARK INTER + INTRA:          -1.251
REMARK INTER:                  -1.213
REMARK INTRA:                  -0.037
REMARK UNBOUND:                -0.034
REMARK SMILES CCCC(=O)[O-]
REMARK SMILES IDX 3 1 4 2 5 3 6 4 2 5 1 6
REMARK H PARENT
REMARK Flexibility Score: inf
ROOT
ATOM      1  C   UNL     1      30.047  -9.331  16.326  1.00  0.00     0.052 C 
ENDROOT
BRANCH   1   2
ATOM      2  C   UNL     1      30.205 -10.027  17.643  1.00  0.00     0.041 C 
ATOM      3  O   UNL     1      29.625 -11.125  17.853  1.00  0.00    -0.550 OA
ATOM      4  O   UNL     1      30.967  -9.447  18.650  1.00  0.00    -0.550 OA
ENDBRANCH   1   2
BRANCH   1   5
ATOM      5  C   UNL     1      31.010  -9.888  15.270  1.00  0.00     0.003 C 
ATOM      6  C   UNL     1      30.298 -10.762  14.238  1.00  0.00     0.004 C 
ENDBRANCH   1   5
TORSDOF 2
ENDMDL
MODEL 4
REMARK VINA RESULT:    -1.084      2.911      3.562
REMARK INTER + INTRA:          -1.244
REMARK INTER:                  -1.185
REMARK INTRA:                  -0.059
REMARK UNBOUND:                -0.034
REMARK SMILES CCCC(=O)[O-]
REMARK SMILES IDX 3 1 4 2 5 3 6 4 2 5 1 6
REMARK H PARENT
REMARK Flexibility Score: inf
ROOT
ATOM      1  C   UNL     1      29.306 -10.339  16.023  1.00  0.00     0.052 C 
ENDROOT
BRANCH   1   2
ATOM      2  C   UNL     1      30.370 -10.154  14.985  1.00  0.00     0.041 C 
ATOM      3  O   UNL     1      31.118 -11.115  14.664  1.00  0.00    -0.550 OA
ATOM      4  O   UNL     1      30.558  -8.910  14.394  1.00  0.00    -0.550 OA
ENDBRANCH   1   2
BRANCH   1   5
ATOM      5  C   UNL     1      29.873 -10.937  17.317  1.00  0.00     0.003 C 
ATOM      6  C   UNL     1      30.897 -10.018  17.982  1.00  0.00     0.004 C 
ENDBRANCH   1   5
TORSDOF 2
ENDMDL
MODEL 5
REMARK VINA RESULT:    -1.075      3.645      4.613
REMARK INTER + INTRA:          -1.234
REMARK INTER:                  -1.211
REMARK INTRA:                  -0.023
REMARK UNBOUND:                -0.034
REMARK SMILES CCCC(=O)[O-]
REMARK SMILES IDX 3 1 4 2 5 3 6 4 2 5 1 6
REMARK H PARENT
REMARK Flexibility Score: inf
ROOT
ATOM      1  C   UNL     1      30.196 -11.125  14.481  1.00  0.00     0.052 C 
ENDROOT
BRANCH   1   2
ATOM      2  C   UNL     1      30.648 -10.174  13.416  1.00  0.00     0.041 C 
ATOM      3  O   UNL     1      31.115  -9.047  13.728  1.00  0.00    -0.550 OA
ATOM      4  O   UNL     1      30.523 -10.520  12.075  1.00  0.00    -0.550 OA
ENDBRANCH   1   2
BRANCH   1   5
ATOM      5  C   UNL     1      29.759 -10.387  15.753  1.00  0.00     0.003 C 
ATOM      6  C   UNL     1      30.210 -11.105  17.025  1.00  0.00     0.004 C 
ENDBRANCH   1   5
TORSDOF 2
ENDMDL
MODEL 6
REMARK VINA RESULT:    -1.045      2.167      3.245
REMARK INTER + INTRA:          -1.201
REMARK INTER:                  -1.195
REMARK INTRA:                  -0.006
REMARK UNBOUND:                -0.034
REMARK SMILES CCCC(=O)[O-]
REMARK SMILES IDX 3 1 4 2 5 3 6 4 2 5 1 6
REMARK H PARENT
REMARK Flexibility Score: inf
ROOT
ATOM      1  C   UNL     1      29.188 -10.751  17.891  1.00  0.00     0.052 C 
ENDROOT
BRANCH   1   2
ATOM      2  C   UNL     1      29.761 -10.728  16.507  1.00  0.00     0.041 C 
ATOM      3  O   UNL     1      29.047 -10.379  15.530  1.00  0.00    -0.550 OA
ATOM      4  O   UNL     1      31.075 -11.125  16.291  1.00  0.00    -0.550 OA
ENDBRANCH   1   2
BRANCH   1   5
ATOM      5  C   UNL     1      30.029  -9.918  18.867  1.00  0.00     0.003 C 
ATOM      6  C   UNL     1      29.518 -10.018  20.304  1.00  0.00     0.004 C 
ENDBRANCH   1   5
TORSDOF 2
ENDMDL
MODEL 7
REMARK VINA RESULT:    -1.033      2.001      3.608
REMARK INTER + INTRA:          -1.188
REMARK INTER:                  -1.135
REMARK INTRA:                  -0.053
REMARK UNBOUND:                -0.034
REMARK SMILES CCCC(=O)[O-]
REMARK SMILES IDX 3 1 4 2 5 3 6 4 2 5 1 6
REMARK H PARENT
REMARK Flexibility Score: inf
ROOT
ATOM      1  C   UNL     1      29.369  -9.256  19.690  1.00  0.00     0.052 C 
ENDROOT
BRANCH   1   2
ATOM      2  C   UNL     1      29.869 -10.154  18.600  1.00  0.00     0.041 C 
ATOM      3  O   UNL     1      29.169 -11.124  18.205  1.00  0.00    -0.550 OA
ATOM      4  O   UNL     1      31.125  -9.940  18.044  1.00  0.00    -0.550 OA
ENDBRANCH   1   2
BRANCH   1   5
ATOM      5  C   UNL     1      29.476  -9.921  21.068  1.00  0.00     0.003 C 
ATOM      6  C   UNL     1      30.888  -9.837  21.645  1.00  0.00     0.004 C 
ENDBRANCH   1   5
TORSDOF 2
ENDMDL
MODEL 8
REMARK VINA RESULT:    -1.013      1.917      2.638
REMARK INTER + INTRA:          -1.165
REMARK INTER:                  -1.159
REMARK INTRA:                  -0.007
REMARK UNBOUND:                -0.034
REMARK SMILES CCCC(=O)[O-]
REMARK SMILES IDX 3 1 4 2 5 3 6 4 2 5 1 6
REMARK H PARENT
REMARK Flexibility Score: inf
ROOT
ATOM      1  C   UNL     1      29.536  -9.900  19.648  1.00  0.00     0.052 C 
ENDROOT
BRANCH   1   2
ATOM      2  C   UNL     1      30.327  -9.622  20.889  1.00  0.00     0.041 C 
ATOM      3  O   UNL     1      31.125  -8.649  20.928  1.00  0.00    -0.550 OA
ATOM      4  O   UNL     1      30.208 -10.459  21.992  1.00  0.00    -0.550 OA
ENDBRANCH   1   2
BRANCH   1   5
ATOM      5  C   UNL     1      30.436  -9.999  18.410  1.00  0.00     0.003 C 
ATOM      6  C   UNL     1      29.987 -11.100  17.451  1.00  0.00     0.004 C 
ENDBRANCH   1   5
TORSDOF 2
ENDMDL
MODEL 9
REMARK VINA RESULT:    -0.995      4.387      5.978
REMARK INTER + INTRA:          -1.145
REMARK INTER:                  -1.125
REMARK INTRA:                  -0.019
REMARK UNBOUND:                -0.034
REMARK SMILES CCCC(=O)[O-]
REMARK SMILES IDX 3 1 4 2 5 3 6 4 2 5 1 6
REMARK H PARENT
REMARK Flexibility Score: inf
ROOT
ATOM      1  C   UNL     1      30.001 -10.712  22.996  1.00  0.00     0.052 C 
ENDROOT
BRANCH   1   2
ATOM      2  C   UNL     1      29.752  -9.863  21.788  1.00  0.00     0.041 C 
ATOM      3  O   UNL     1      29.988  -8.626  21.822  1.00  0.00    -0.550 OA
ATOM      4  O   UNL     1      29.226 -10.431  20.634  1.00  0.00    -0.550 OA
ENDBRANCH   1   2
BRANCH   1   5
ATOM      5  C   UNL     1      31.125 -10.142  23.870  1.00  0.00     0.003 C 
ATOM      6  C   UNL     1      30.885 -10.388  25.359  1.00  0.00     0.004 C 
ENDBRANCH   1   5
TORSDOF 2
ENDMDL
