MODEL 1
REMARK VINA RESULT:    -4.357      0.000      0.000
REMARK INTER + INTRA:          -9.446
REMARK INTER:                  -7.923
REMARK INTRA:                  -1.523
REMARK UNBOUND:                -1.523
REMARK SMILES CCCCCCCCCCCCCCCC(=O)[O-]
REMARK SMILES IDX 9 1 10 2 11 3 12 4 13 5 14 6 15 7 16 8 17 9 18 10 8 11 7 12
REMARK SMILES IDX 6 13 5 14 4 15 3 16 2 17 1 18
REMARK H PARENT
REMARK Flexibility Score: inf
ROOT
ATOM      1  C   UNL     1      12.929 -12.718  13.122  1.00  0.00     0.000 C 
ENDROOT
BRANCH   1   2
ATOM      2  C   UNL     1      12.143 -11.405  12.961  1.00  0.00     0.000 C 
BRANCH   2   3
ATOM      3  C   UNL     1      12.944 -10.329  12.197  1.00  0.00     0.000 C 
BRANCH   3   4
ATOM      4  C   UNL     1      13.071  -8.995  12.958  1.00  0.00     0.000 C 
BRANCH   4   5
ATOM      5  C   UNL     1      14.361  -8.203  12.671  1.00  0.00     0.000 C 
BRANCH   5   6
ATOM      6  C   UNL     1      14.201  -6.668  12.680  1.00  0.00     0.006 C 
BRANCH   6   7
ATOM      7  C   UNL     1      14.605  -5.992  13.998  1.00  0.00     0.053 C 
BRANCH   7   8
ATOM      8  C   UNL     1      13.829  -4.734  14.247  1.00  0.00     0.041 C 
ATOM      9  O   UNL     1      13.621  -3.922  13.307  1.00  0.00    -0.550 OA
ATOM     10  O   UNL     1      13.306  -4.477  15.508  1.00  0.00    -0.550 OA
ENDBRANCH   7   8
ENDBRANCH   6   7
ENDBRANCH   5   6
ENDBRANCH   4   5
ENDBRANCH   3   4
ENDBRANCH   2   3
ENDBRANCH   1   2
BRANCH   1  11
ATOM     11  C   UNL     1      13.892 -12.977  11.952  1.00  0.00     0.000 C 
BRANCH  11  12
ATOM     12  C   UNL     1      15.361 -13.033  12.398  1.00  0.00    -0.000 C 
BRANCH  12  13
ATOM     13  C   UNL     1      16.139 -11.817  11.880  1.00  0.00    -0.000 C 
BRANCH  13  14
ATOM     14  C   UNL     1      16.798 -11.053  13.038  1.00  0.00    -0.000 C 
BRANCH  14  15
ATOM     15  C   UNL     1      17.546  -9.795  12.567  1.00  0.00    -0.000 C 
BRANCH  15  16
ATOM     16  C   UNL     1      18.228  -9.046  13.722  1.00  0.00    -0.000 C 
BRANCH  16  17
ATOM     17  C   UNL     1      17.918  -7.545  13.659  1.00  0.00    -0.003 C 
ATOM     18  C   UNL     1      18.527  -6.907  12.414  1.00  0.00     0.004 C 
ENDBRANCH  16  17
ENDBRANCH  15  16
ENDBRANCH  14  15
ENDBRANCH  13  14
ENDBRANCH  12  13
ENDBRANCH  11  12
ENDBRANCH   1  11
TORSDOF 14
ENDMDL
MODEL 2
REMARK VINA RESULT:    -4.311      1.914      4.344
REMARK INTER + INTRA:          -9.363
REMARK INTER:                  -8.124
REMARK INTRA:                  -1.239
REMARK UNBOUND:                -1.523
REMARK SMILES CCCCCCCCCCCCCCCC(=O)[O-]
REMARK SMILES IDX 9 1 10 2 11 3 12 4 13 5 14 6 15 7 16 8 17 9 18 10 8 11 7 12
REMARK SMILES IDX 6 13 5 14 4 15 3 16 2 17 1 18
REMARK H PARENT
REMARK Flexibility Score: inf
ROOT
ATOM      1  C   UNL     1      16.136 -11.054  12.611  1.00  0.00     0.000 C 
ENDROOT
BRANCH   1   2
ATOM      2  C   UNL     1      17.471 -10.446  13.073  1.00  0.00     0.000 C 
BRANCH   2   3
ATOM      3  C   UNL     1      17.650  -8.988  12.595  1.00  0.00     0.000 C 
BRANCH   3   4
ATOM      4  C   UNL     1      18.080  -8.019  13.714  1.00  0.00     0.000 C 
BRANCH   4   5
ATOM      5  C   UNL     1      17.505  -6.594  13.597  1.00  0.00     0.000 C 
BRANCH   5   6
ATOM      6  C   UNL     1      16.671  -6.126  14.807  1.00  0.00     0.006 C 
BRANCH   6   7
ATOM      7  C   UNL     1      17.273  -6.485  16.174  1.00  0.00     0.053 C 
BRANCH   7   8
ATOM      8  C   UNL     1      16.585  -5.771  17.298  1.00  0.00     0.041 C 
ATOM      9  O   UNL     1      15.393  -5.389  17.169  1.00  0.00    -0.550 OA
ATOM     10  O   UNL     1      17.250  -5.560  18.499  1.00  0.00    -0.550 OA
ENDBRANCH   7   8
ENDBRANCH   6   7
ENDBRANCH   5   6
ENDBRANCH   4   5
ENDBRANCH   3   4
ENDBRANCH   2   3
ENDBRANCH   1   2
BRANCH   1  11
ATOM     11  C   UNL     1      16.258 -12.543  12.250  1.00  0.00     0.000 C 
BRANCH  11  12
ATOM     12  C   UNL     1      15.018 -13.354  12.658  1.00  0.00    -0.000 C 
BRANCH  12  13
ATOM     13  C   UNL     1      13.754 -12.799  11.990  1.00  0.00    -0.000 C 
BRANCH  13  14
ATOM     14  C   UNL     1      12.609 -12.668  13.005  1.00  0.00    -0.000 C 
BRANCH  14  15
ATOM     15  C   UNL     1      12.052 -11.237  13.088  1.00  0.00    -0.000 C 
BRANCH  15  16
ATOM     16  C   UNL     1      12.898 -10.226  12.301  1.00  0.00    -0.000 C 
BRANCH  16  17
ATOM     17  C   UNL     1      12.868  -8.848  12.972  1.00  0.00    -0.003 C 
ATOM     18  C   UNL     1      14.067  -8.002  12.552  1.00  0.00     0.004 C 
ENDBRANCH  16  17
ENDBRANCH  15  16
ENDBRANCH  14  15
ENDBRANCH  13  14
ENDBRANCH  12  13
ENDBRANCH  11  12
ENDBRANCH   1  11
TORSDOF 14
ENDMDL
MODEL 3
REMARK VINA RESULT:    -4.184      0.929      4.056
REMARK INTER + INTRA:          -9.131
REMARK INTER:                  -7.508
REMARK INTRA:                  -1.624
REMARK UNBOUND:                -1.523
REMARK SMILES CCCCCCCCCCCCCCCC(=O)[O-]
REMARK SMILES IDX 9 1 10 2 11 3 12 4 13 5 14 6 15 7 16 8 17 9 18 10 8 11 7 12
REMARK SMILES IDX 6 13 5 14 4 15 3 16 2 17 1 18
REMARK H PARENT
REMARK Flexibility Score: inf
ROOT
ATOM      1  C   UNL     1      16.549 -10.560  12.991  1.00  0.00     0.000 C 
ENDROOT
BRANCH   1   2
ATOM      2  C   UNL     1      17.634  -9.597  12.479  1.00  0.00     0.000 C 
BRANCH   2   3
ATOM      3  C   UNL     1      17.421  -8.150  12.977  1.00  0.00     0.000 C 
BRANCH   3   4
ATOM      4  C   UNL     1      17.832  -7.935  14.446  1.00  0.00     0.000 C 
BRANCH   4   5
ATOM      5  C   UNL     1      17.282  -6.649  15.093  1.00  0.00     0.000 C 
BRANCH   5   6
ATOM      6  C   UNL     1      16.041  -6.049  14.401  1.00  0.00     0.006 C 
BRANCH   6   7
ATOM      7  C   UNL     1      14.894  -5.682  15.354  1.00  0.00     0.053 C 
BRANCH   7   8
ATOM      8  C   UNL     1      13.831  -4.875  14.673  1.00  0.00     0.041 C 
ATOM      9  O   UNL     1      13.040  -4.168  15.350  1.00  0.00    -0.550 OA
ATOM     10  O   UNL     1      13.738  -4.877  13.286  1.00  0.00    -0.550 OA
ENDBRANCH   7   8
ENDBRANCH   6   7
ENDBRANCH   5   6
ENDBRANCH   4   5
ENDBRANCH   3   4
ENDBRANCH   2   3
ENDBRANCH   1   2
BRANCH   1  11
ATOM     11  C   UNL     1      16.120 -11.585  11.929  1.00  0.00     0.000 C 
BRANCH  11  12
ATOM     12  C   UNL     1      15.657 -12.914  12.545  1.00  0.00    -0.000 C 
BRANCH  12  13
ATOM     13  C   UNL     1      14.247 -13.280  12.066  1.00  0.00    -0.000 C 
BRANCH  13  14
ATOM     14  C   UNL     1      13.192 -12.886  13.110  1.00  0.00    -0.000 C 
BRANCH  14  15
ATOM     15  C   UNL     1      12.140 -11.914  12.552  1.00  0.00    -0.000 C 
BRANCH  15  16
ATOM     16  C   UNL     1      12.303 -10.488  13.100  1.00  0.00    -0.000 C 
BRANCH  16  17
ATOM     17  C   UNL     1      12.975  -9.578  12.065  1.00  0.00    -0.003 C 
ATOM     18  C   UNL     1      13.643  -8.380  12.734  1.00  0.00     0.004 C 
ENDBRANCH  16  17
ENDBRANCH  15  16
ENDBRANCH  14  15
ENDBRANCH  13  14
ENDBRANCH  12  13
ENDBRANCH  11  12
ENDBRANCH   1  11
TORSDOF 14
ENDMDL
MODEL 4
REMARK VINA RESULT:    -4.174      2.172      4.551
REMARK INTER + INTRA:          -9.113
REMARK INTER:                  -7.199
REMARK INTRA:                  -1.915
REMARK UNBOUND:                -1.523
REMARK SMILES CCCCCCCCCCCCCCCC(=O)[O-]
REMARK SMILES IDX 9 1 10 2 11 3 12 4 13 5 14 6 15 7 16 8 17 9 18 10 8 11 7 12
REMARK SMILES IDX 6 13 5 14 4 15 3 16 2 17 1 18
REMARK H PARENT
REMARK Flexibility Score: inf
ROOT
ATOM      1  C   UNL     1      16.539 -10.867  12.936  1.00  0.00     0.000 C 
ENDROOT
BRANCH   1   2
ATOM      2  C   UNL     1      17.713  -9.945  12.564  1.00  0.00     0.000 C 
BRANCH   2   3
ATOM      3  C   UNL     1      17.912  -8.804  13.586  1.00  0.00     0.000 C 
BRANCH   3   4
ATOM      4  C   UNL     1      17.821  -7.396  12.967  1.00  0.00     0.000 C 
BRANCH   4   5
ATOM      5  C   UNL     1      17.635  -6.251  13.980  1.00  0.00     0.000 C 
BRANCH   5   6
ATOM      6  C   UNL     1      17.299  -6.699  15.418  1.00  0.00     0.006 C 
BRANCH   6   7
ATOM      7  C   UNL     1      16.306  -5.787  16.155  1.00  0.00     0.053 C 
BRANCH   7   8
ATOM      8  C   UNL     1      16.488  -5.842  17.641  1.00  0.00     0.041 C 
ATOM      9  O   UNL     1      16.950  -4.848  18.260  1.00  0.00    -0.550 OA
ATOM     10  O   UNL     1      16.114  -6.979  18.346  1.00  0.00    -0.550 OA
ENDBRANCH   7   8
ENDBRANCH   6   7
ENDBRANCH   5   6
ENDBRANCH   4   5
ENDBRANCH   3   4
ENDBRANCH   2   3
ENDBRANCH   1   2
BRANCH   1  11
ATOM     11  C   UNL     1      15.355 -10.737  11.964  1.00  0.00     0.000 C 
BRANCH  11  12
ATOM     12  C   UNL     1      13.995 -10.862  12.669  1.00  0.00    -0.000 C 
BRANCH  12  13
ATOM     13  C   UNL     1      13.286  -9.504  12.741  1.00  0.00    -0.000 C 
BRANCH  13  14
ATOM     14  C   UNL     1      14.233  -8.367  12.330  1.00  0.00    -0.000 C 
BRANCH  14  15
ATOM     15  C   UNL     1      14.021  -7.090  13.159  1.00  0.00    -0.000 C 
BRANCH  15  16
ATOM     16  C   UNL     1      14.308  -5.811  12.359  1.00  0.00    -0.000 C 
BRANCH  16  17
ATOM     17  C   UNL     1      14.246  -4.575  13.264  1.00  0.00    -0.003 C 
ATOM     18  C   UNL     1      13.192  -4.740  14.355  1.00  0.00     0.004 C 
ENDBRANCH  16  17
ENDBRANCH  15  16
ENDBRANCH  14  15
ENDBRANCH  13  14
ENDBRANCH  12  13
ENDBRANCH  11  12
ENDBRANCH   1  11
TORSDOF 14
ENDMDL
MODEL 5
REMARK VINA RESULT:    -3.866      1.981      5.206
REMARK INTER + INTRA:          -8.553
REMARK INTER:                  -7.131
REMARK INTRA:                  -1.422
REMARK UNBOUND:                -1.523
REMARK SMILES CCCCCCCCCCCCCCCC(=O)[O-]
REMARK SMILES IDX 9 1 10 2 11 3 12 4 13 5 14 6 15 7 16 8 17 9 18 10 8 11 7 12
REMARK SMILES IDX 6 13 5 14 4 15 3 16 2 17 1 18
REMARK H PARENT
REMARK Flexibility Score: inf
ROOT
ATOM      1  C   UNL     1      17.295  -9.393  12.707  1.00  0.00     0.000 C 
ENDROOT
BRANCH   1   2
ATOM      2  C   UNL     1      17.764  -8.186  11.876  1.00  0.00     0.000 C 
BRANCH   2   3
ATOM      3  C   UNL     1      18.537  -7.152  12.724  1.00  0.00     0.000 C 
BRANCH   3   4
ATOM      4  C   UNL     1      17.834  -5.784  12.824  1.00  0.00     0.000 C 
BRANCH   4   5
ATOM      5  C   UNL     1      17.404  -5.377  14.247  1.00  0.00     0.000 C 
BRANCH   5   6
ATOM      6  C   UNL     1      16.930  -6.539  15.144  1.00  0.00     0.006 C 
BRANCH   6   7
ATOM      7  C   UNL     1      17.309  -6.397  16.626  1.00  0.00     0.053 C 
BRANCH   7   8
ATOM      8  C   UNL     1      16.193  -5.820  17.440  1.00  0.00     0.041 C 
ATOM      9  O   UNL     1      15.221  -5.256  16.872  1.00  0.00    -0.550 OA
ATOM     10  O   UNL     1      16.208  -5.935  18.824  1.00  0.00    -0.550 OA
ENDBRANCH   7   8
ENDBRANCH   6   7
ENDBRANCH   5   6
ENDBRANCH   4   5
ENDBRANCH   3   4
ENDBRANCH   2   3
ENDBRANCH   1   2
BRANCH   1  11
ATOM     11  C   UNL     1      15.837  -9.782  12.414  1.00  0.00     0.000 C 
BRANCH  11  12
ATOM     12  C   UNL     1      14.885  -8.577  12.455  1.00  0.00    -0.000 C 
BRANCH  12  13
ATOM     13  C   UNL     1      13.463  -9.013  12.831  1.00  0.00    -0.000 C 
BRANCH  13  14
ATOM     14  C   UNL     1      13.082 -10.319  12.117  1.00  0.00    -0.000 C 
BRANCH  14  15
ATOM     15  C   UNL     1      12.281 -11.274  13.017  1.00  0.00    -0.000 C 
BRANCH  15  16
ATOM     16  C   UNL     1      12.844 -12.703  13.012  1.00  0.00    -0.000 C 
BRANCH  16  17
ATOM     17  C   UNL     1      13.948 -12.852  11.959  1.00  0.00    -0.003 C 
ATOM     18  C   UNL     1      15.267 -13.279  12.598  1.00  0.00     0.004 C 
ENDBRANCH  16  17
ENDBRANCH  15  16
ENDBRANCH  14  15
ENDBRANCH  13  14
ENDBRANCH  12  13
ENDBRANCH  11  12
ENDBRANCH   1  11
TORSDOF 14
ENDMDL
MODEL 6
REMARK VINA RESULT:    -3.781      3.356      5.885
REMARK INTER + INTRA:          -8.399
REMARK INTER:                  -6.918
REMARK INTRA:                  -1.481
REMARK UNBOUND:                -1.523
REMARK SMILES CCCCCCCCCCCCCCCC(=O)[O-]
REMARK SMILES IDX 9 1 10 2 11 3 12 4 13 5 14 6 15 7 16 8 17 9 18 10 8 11 7 12
REMARK SMILES IDX 6 13 5 14 4 15 3 16 2 17 1 18
REMARK H PARENT
REMARK Flexibility Score: inf
ROOT
ATOM      1  C   UNL     1      14.820  -5.684  14.575  1.00  0.00     0.000 C 
ENDROOT
BRANCH   1   2
ATOM      2  C   UNL     1      13.977  -5.607  13.291  1.00  0.00     0.000 C 
BRANCH   2   3
ATOM      3  C   UNL     1      14.165  -6.847  12.388  1.00  0.00     0.000 C 
BRANCH   3   4
ATOM      4  C   UNL     1      13.490  -8.119  12.936  1.00  0.00     0.000 C 
BRANCH   4   5
ATOM      5  C   UNL     1      13.168  -9.191  11.877  1.00  0.00     0.000 C 
BRANCH   5   6
ATOM      6  C   UNL     1      14.079 -10.436  11.911  1.00  0.00     0.006 C 
BRANCH   6   7
ATOM      7  C   UNL     1      13.517 -11.616  12.717  1.00  0.00     0.053 C 
BRANCH   7   8
ATOM      8  C   UNL     1      14.373 -12.840  12.596  1.00  0.00     0.041 C 
ATOM      9  O   UNL     1      13.880 -13.981  12.797  1.00  0.00    -0.550 OA
ATOM     10  O   UNL     1      15.707 -12.722  12.227  1.00  0.00    -0.550 OA
ENDBRANCH   7   8
ENDBRANCH   6   7
ENDBRANCH   5   6
ENDBRANCH   4   5
ENDBRANCH   3   4
ENDBRANCH   2   3
ENDBRANCH   1   2
BRANCH   1  11
ATOM     11  C   UNL     1      16.087  -6.537  14.402  1.00  0.00     0.000 C 
BRANCH  11  12
ATOM     12  C   UNL     1      17.374  -5.750  14.691  1.00  0.00    -0.000 C 
BRANCH  12  13
ATOM     13  C   UNL     1      18.149  -5.469  13.398  1.00  0.00    -0.000 C 
BRANCH  13  14
ATOM     14  C   UNL     1      17.623  -6.334  12.243  1.00  0.00    -0.000 C 
BRANCH  14  15
ATOM     15  C   UNL     1      18.302  -7.712  12.178  1.00  0.00    -0.000 C 
BRANCH  15  16
ATOM     16  C   UNL     1      17.291  -8.867  12.133  1.00  0.00    -0.000 C 
BRANCH  16  17
ATOM     17  C   UNL     1      17.664  -9.960  13.142  1.00  0.00    -0.003 C 
ATOM     18  C   UNL     1      18.327  -9.364  14.381  1.00  0.00     0.004 C 
ENDBRANCH  16  17
ENDBRANCH  15  16
ENDBRANCH  14  15
ENDBRANCH  13  14
ENDBRANCH  12  13
ENDBRANCH  11  12
ENDBRANCH   1  11
TORSDOF 14
ENDMDL
MODEL 7
REMARK VINA RESULT:    -3.649      2.260      4.627
REMARK INTER + INTRA:          -8.158
REMARK INTER:                  -6.869
REMARK INTRA:                  -1.289
REMARK UNBOUND:                -1.523
REMARK SMILES CCCCCCCCCCCCCCCC(=O)[O-]
REMARK SMILES IDX 9 1 10 2 11 3 12 4 13 5 14 6 15 7 16 8 17 9 18 10 8 11 7 12
REMARK SMILES IDX 6 13 5 14 4 15 3 16 2 17 1 18
REMARK H PARENT
REMARK Flexibility Score: inf
ROOT
ATOM      1  C   UNL     1      14.238  -8.917  12.968  1.00  0.00     0.000 C 
ENDROOT
BRANCH   1   2
ATOM      2  C   UNL     1      13.838  -7.432  12.943  1.00  0.00     0.000 C 
BRANCH   2   3
ATOM      3  C   UNL     1      14.876  -6.554  12.210  1.00  0.00     0.000 C 
BRANCH   3   4
ATOM      4  C   UNL     1      15.634  -5.585  13.138  1.00  0.00     0.000 C 
BRANCH   4   5
ATOM      5  C   UNL     1      16.283  -6.241  14.372  1.00  0.00     0.000 C 
BRANCH   5   6
ATOM      6  C   UNL     1      15.754  -5.740  15.732  1.00  0.00     0.006 C 
BRANCH   6   7
ATOM      7  C   UNL     1      16.639  -6.103  16.934  1.00  0.00     0.053 C 
BRANCH   7   8
ATOM      8  C   UNL     1      16.400  -5.196  18.103  1.00  0.00     0.041 C 
ATOM      9  O   UNL     1      15.295  -4.607  18.232  1.00  0.00    -0.550 OA
ATOM     10  O   UNL     1      17.386  -5.030  19.068  1.00  0.00    -0.550 OA
ENDBRANCH   7   8
ENDBRANCH   6   7
ENDBRANCH   5   6
ENDBRANCH   4   5
ENDBRANCH   3   4
ENDBRANCH   2   3
ENDBRANCH   1   2
BRANCH   1  11
ATOM     11  C   UNL     1      15.259  -9.272  11.875  1.00  0.00     0.000 C 
BRANCH  11  12
ATOM     12  C   UNL     1      16.692  -9.384  12.419  1.00  0.00    -0.000 C 
BRANCH  12  13
ATOM     13  C   UNL     1      16.989 -10.810  12.897  1.00  0.00    -0.000 C 
BRANCH  13  14
ATOM     14  C   UNL     1      16.243 -11.843  12.040  1.00  0.00    -0.000 C 
BRANCH  14  15
ATOM     15  C   UNL     1      15.845 -13.097  12.836  1.00  0.00    -0.000 C 
BRANCH  15  16
ATOM     16  C   UNL     1      14.435 -13.596  12.488  1.00  0.00    -0.000 C 
BRANCH  16  17
ATOM     17  C   UNL     1      13.511 -12.424  12.136  1.00  0.00    -0.003 C 
ATOM     18  C   UNL     1      12.340 -12.332  13.111  1.00  0.00     0.004 C 
ENDBRANCH  16  17
ENDBRANCH  15  16
ENDBRANCH  14  15
ENDBRANCH  13  14
ENDBRANCH  12  13
ENDBRANCH  11  12
ENDBRANCH   1  11
TORSDOF 14
ENDMDL
MODEL 8
REMARK VINA RESULT:    -3.621      1.188      2.168
REMARK INTER + INTRA:          -8.107
REMARK INTER:                  -6.752
REMARK INTRA:                  -1.355
REMARK UNBOUND:                -1.523
REMARK SMILES CCCCCCCCCCCCCCCC(=O)[O-]
REMARK SMILES IDX 9 1 10 2 11 3 12 4 13 5 14 6 15 7 16 8 17 9 18 10 8 11 7 12
REMARK SMILES IDX 6 13 5 14 4 15 3 16 2 17 1 18
REMARK H PARENT
REMARK Flexibility Score: inf
ROOT
ATOM      1  C   UNL     1      14.916 -13.118  12.841  1.00  0.00     0.000 C 
ENDROOT
BRANCH   1   2
ATOM      2  C   UNL     1      13.392 -13.301  12.742  1.00  0.00     0.000 C 
BRANCH   2   3
ATOM      3  C   UNL     1      12.723 -12.212  11.875  1.00  0.00     0.000 C 
BRANCH   3   4
ATOM      4  C   UNL     1      12.354 -10.937  12.659  1.00  0.00     0.000 C 
BRANCH   4   5
ATOM      5  C   UNL     1      12.846  -9.621  12.028  1.00  0.00     0.000 C 
BRANCH   5   6
ATOM      6  C   UNL     1      13.529  -8.643  13.007  1.00  0.00     0.006 C 
BRANCH   6   7
ATOM      7  C   UNL     1      14.247  -7.464  12.334  1.00  0.00     0.053 C 
BRANCH   7   8
ATOM      8  C   UNL     1      13.949  -6.162  13.012  1.00  0.00     0.041 C 
ATOM      9  O   UNL     1      13.710  -5.132  12.328  1.00  0.00    -0.550 OA
ATOM     10  O   UNL     1      13.899  -6.093  14.398  1.00  0.00    -0.550 OA
ENDBRANCH   7   8
ENDBRANCH   6   7
ENDBRANCH   5   6
ENDBRANCH   4   5
ENDBRANCH   3   4
ENDBRANCH   2   3
ENDBRANCH   1   2
BRANCH   1  11
ATOM     11  C   UNL     1      15.446 -12.042  11.879  1.00  0.00     0.000 C 
BRANCH  11  12
ATOM     12  C   UNL     1      16.844 -11.538  12.268  1.00  0.00    -0.000 C 
BRANCH  12  13
ATOM     13  C   UNL     1      16.752 -10.365  13.251  1.00  0.00    -0.000 C 
BRANCH  13  14
ATOM     14  C   UNL     1      18.128  -9.717  13.464  1.00  0.00    -0.000 C 
BRANCH  14  15
ATOM     15  C   UNL     1      18.068  -8.487  14.384  1.00  0.00    -0.000 C 
BRANCH  15  16
ATOM     16  C   UNL     1      17.778  -7.188  13.618  1.00  0.00    -0.000 C 
BRANCH  16  17
ATOM     17  C   UNL     1      17.194  -6.121  14.551  1.00  0.00    -0.003 C 
ATOM     18  C   UNL     1      17.303  -6.545  16.013  1.00  0.00     0.004 C 
ENDBRANCH  16  17
ENDBRANCH  15  16
ENDBRANCH  14  15
ENDBRANCH  13  14
ENDBRANCH  12  13
ENDBRANCH  11  12
ENDBRANCH   1  11
TORSDOF 14
ENDMDL
MODEL 9
REMARK VINA RESULT:    -3.540      2.923      5.716
REMARK INTER + INTRA:          -7.960
REMARK INTER:                  -6.176
REMARK INTRA:                  -1.784
REMARK UNBOUND:                -1.523
REMARK SMILES CCCCCCCCCCCCCCCC(=O)[O-]
REMARK SMILES IDX 9 1 10 2 11 3 12 4 13 5 14 6 15 7 16 8 17 9 18 10 8 11 7 12
REMARK SMILES IDX 6 13 5 14 4 15 3 16 2 17 1 18
REMARK H PARENT
REMARK Flexibility Score: inf
ROOT
ATOM      1  C   UNL     1      14.020  -4.602  15.389  1.00  0.00     0.000 C 
ENDROOT
BRANCH   1   2
ATOM      2  C   UNL     1      13.245  -5.027  14.130  1.00  0.00     0.000 C 
BRANCH   2   3
ATOM      3  C   UNL     1      14.106  -4.943  12.851  1.00  0.00     0.000 C 
BRANCH   3   4
ATOM      4  C   UNL     1      14.361  -6.309  12.185  1.00  0.00     0.000 C 
BRANCH   4   5
ATOM      5  C   UNL     1      13.975  -7.531  13.041  1.00  0.00     0.000 C 
BRANCH   5   6
ATOM      6  C   UNL     1      13.745  -8.835  12.249  1.00  0.00     0.006 C 
BRANCH   6   7
ATOM      7  C   UNL     1      12.544  -9.667  12.725  1.00  0.00     0.053 C 
BRANCH   7   8
ATOM      8  C   UNL     1      12.833 -11.137  12.703  1.00  0.00     0.041 C 
ATOM      9  O   UNL     1      14.022 -11.549  12.710  1.00  0.00    -0.550 OA
ATOM     10  O   UNL     1      11.787 -12.052  12.710  1.00  0.00    -0.550 OA
ENDBRANCH   7   8
ENDBRANCH   6   7
ENDBRANCH   5   6
ENDBRANCH   4   5
ENDBRANCH   3   4
ENDBRANCH   2   3
ENDBRANCH   1   2
BRANCH   1  11
ATOM     11  C   UNL     1      14.797  -5.765  16.025  1.00  0.00     0.000 C 
BRANCH  11  12
ATOM     12  C   UNL     1      16.320  -5.578  15.935  1.00  0.00    -0.000 C 
BRANCH  12  13
ATOM     13  C   UNL     1      16.927  -6.513  14.882  1.00  0.00    -0.000 C 
BRANCH  13  14
ATOM     14  C   UNL     1      17.781  -5.727  13.876  1.00  0.00    -0.000 C 
BRANCH  14  15
ATOM     15  C   UNL     1      18.416  -6.629  12.806  1.00  0.00    -0.000 C 
BRANCH  15  16
ATOM     16  C   UNL     1      17.555  -7.859  12.481  1.00  0.00    -0.000 C 
BRANCH  16  17
ATOM     17  C   UNL     1      18.093  -9.107  13.190  1.00  0.00    -0.003 C 
ATOM     18  C   UNL     1      17.313 -10.354  12.780  1.00  0.00     0.004 C 
ENDBRANCH  16  17
ENDBRANCH  15  16
ENDBRANCH  14  15
ENDBRANCH  13  14
ENDBRANCH  12  13
ENDBRANCH  11  12
ENDBRANCH   1  11
TORSDOF 14
ENDMDL
