MODEL 1
REMARK VINA RESULT:    -3.567      0.000      0.000
REMARK INTER + INTRA:          -4.603
REMARK INTER:                  -4.297
REMARK INTRA:                  -0.306
REMARK UNBOUND:                -0.306
REMARK SMILES O=c1c(O)c(-c2ccc(O)c(O)c2)oc2cc(O)cc(O)c12
REMARK SMILES IDX 5 1 3 2 2 3 1 4 22 5 20 6 19 7 17 8 16 9 15 10 14 11 6 12
REMARK SMILES IDX 7 13 8 14 9 15 13 16 11 17 10 18 12 20 4 22 21 24 18 26
REMARK H PARENT 10 19 12 21 4 23 21 25 18 27
REMARK Flexibility Score: inf
ROOT
ATOM      1  C   UNL     1     -44.802 -24.951  44.897  1.00  0.00     0.180 A 
ATOM      2  C   UNL     1     -45.225 -26.284  44.752  1.00  0.00     0.208 A 
ATOM      3  C   UNL     1     -45.772 -26.696  43.526  1.00  0.00     0.238 A 
ATOM      4  O   UNL     1     -46.099 -27.903  43.384  1.00  0.00    -0.285 OA
ATOM      5  C   UNL     1     -45.905 -25.766  42.466  1.00  0.00     0.111 A 
ATOM      6  C   UNL     1     -46.482 -26.063  41.195  1.00  0.00     0.134 A 
ATOM      7  C   UNL     1     -46.443 -25.102  40.177  1.00  0.00     0.093 A 
ATOM      8  C   UNL     1     -45.906 -23.833  40.406  1.00  0.00     0.123 A 
ATOM      9  C   UNL     1     -45.394 -23.513  41.661  1.00  0.00     0.094 A 
ATOM     10  C   UNL     1     -45.386 -24.463  42.686  1.00  0.00     0.146 A 
ATOM     11  O   UNL     1     -44.880 -24.121  43.864  1.00  0.00    -0.452 OA
ENDROOT
BRANCH   1  12
ATOM     12  C   UNL     1     -44.238 -24.438  46.167  1.00  0.00     0.025 A 
ATOM     13  C   UNL     1     -42.850 -24.382  46.381  1.00  0.00     0.016 A 
ATOM     14  C   UNL     1     -42.342 -23.917  47.597  1.00  0.00     0.051 A 
ATOM     15  C   UNL     1     -43.211 -23.514  48.619  1.00  0.00     0.157 A 
ATOM     16  C   UNL     1     -45.106 -24.053  47.202  1.00  0.00     0.062 A 
ATOM     17  C   UNL     1     -44.596 -23.585  48.422  1.00  0.00     0.158 A 
BRANCH  15  18
ATOM     18  O   UNL     1     -42.708 -23.048  49.832  1.00  0.00    -0.504 OA
ATOM     19  H   UNL     1     -43.142 -23.294  50.715  1.00  0.00     0.293 HD
ENDBRANCH  15  18
BRANCH  17  20
ATOM     20  O   UNL     1     -45.458 -23.191  49.443  1.00  0.00    -0.504 OA
ATOM     21  H   UNL     1     -45.846 -22.255  49.478  1.00  0.00     0.293 HD
ENDBRANCH  17  20
ENDBRANCH   1  12
BRANCH   2  22
ATOM     22  O   UNL     1     -45.065 -27.192  45.803  1.00  0.00    -0.502 OA
ATOM     23  H   UNL     1     -45.468 -28.120  45.787  1.00  0.00     0.293 HD
ENDBRANCH   2  22
BRANCH   6  24
ATOM     24  O   UNL     1     -47.125 -27.267  40.893  1.00  0.00    -0.507 OA
ATOM     25  H   UNL     1     -46.662 -28.159  40.802  1.00  0.00     0.293 HD
ENDBRANCH   6  24
BRANCH   8  26
ATOM     26  O   UNL     1     -45.885 -22.877  39.393  1.00  0.00    -0.508 OA
ATOM     27  H   UNL     1     -46.093 -23.120  38.431  1.00  0.00     0.293 HD
ENDBRANCH   8  26
TORSDOF 6
ENDMDL
MODEL 2
REMARK VINA RESULT:    -3.510      1.563      7.065
REMARK INTER + INTRA:          -4.535
REMARK INTER:                  -4.219
REMARK INTRA:                  -0.316
REMARK UNBOUND:                -0.306
REMARK SMILES O=c1c(O)c(-c2ccc(O)c(O)c2)oc2cc(O)cc(O)c12
REMARK SMILES IDX 5 1 3 2 2 3 1 4 22 5 20 6 19 7 17 8 16 9 15 10 14 11 6 12
REMARK SMILES IDX 7 13 8 14 9 15 13 16 11 17 10 18 12 20 4 22 21 24 18 26
REMARK H PARENT 10 19 12 21 4 23 21 25 18 27
REMARK Flexibility Score: inf
ROOT
ATOM      1  C   UNL     1     -44.064 -24.012  44.489  1.00  0.00     0.180 A 
ATOM      2  C   UNL     1     -42.718 -24.369  44.679  1.00  0.00     0.208 A 
ATOM      3  C   UNL     1     -42.173 -24.311  45.972  1.00  0.00     0.238 A 
ATOM      4  O   UNL     1     -40.983 -24.683  46.144  1.00  0.00    -0.285 OA
ATOM      5  C   UNL     1     -42.976 -23.881  47.056  1.00  0.00     0.111 A 
ATOM      6  C   UNL     1     -42.517 -23.745  48.400  1.00  0.00     0.134 A 
ATOM      7  C   UNL     1     -43.432 -23.437  49.415  1.00  0.00     0.093 A 
ATOM      8  C   UNL     1     -44.777 -23.196  49.122  1.00  0.00     0.123 A 
ATOM      9  C   UNL     1     -45.222 -23.268  47.805  1.00  0.00     0.094 A 
ATOM     10  C   UNL     1     -44.340 -23.609  46.776  1.00  0.00     0.146 A 
ATOM     11  O   UNL     1     -44.809 -23.676  45.536  1.00  0.00    -0.452 OA
ENDROOT
BRANCH   1  12
ATOM     12  C   UNL     1     -44.702 -24.025  43.152  1.00  0.00     0.025 A 
ATOM     13  C   UNL     1     -44.533 -22.959  42.251  1.00  0.00     0.016 A 
ATOM     14  C   UNL     1     -45.165 -22.982  41.005  1.00  0.00     0.051 A 
ATOM     15  C   UNL     1     -45.983 -24.061  40.647  1.00  0.00     0.157 A 
ATOM     16  C   UNL     1     -45.540 -25.095  42.797  1.00  0.00     0.062 A 
ATOM     17  C   UNL     1     -46.173 -25.118  41.546  1.00  0.00     0.158 A 
BRANCH  15  18
ATOM     18  O   UNL     1     -46.613 -24.088  39.405  1.00  0.00    -0.504 OA
ATOM     19  H   UNL     1     -47.265 -24.825  39.158  1.00  0.00     0.293 HD
ENDBRANCH  15  18
BRANCH  17  20
ATOM     20  O   UNL     1     -46.992 -26.187  41.190  1.00  0.00    -0.504 OA
ATOM     21  H   UNL     1     -46.647 -27.140  41.180  1.00  0.00     0.293 HD
ENDBRANCH  17  20
ENDBRANCH   1  12
BRANCH   2  22
ATOM     22  O   UNL     1     -41.948 -24.812  43.599  1.00  0.00    -0.502 OA
ATOM     23  H   UNL     1     -40.968 -25.051  43.690  1.00  0.00     0.293 HD
ENDBRANCH   2  22
BRANCH   6  24
ATOM     24  O   UNL     1     -41.179 -23.874  48.785  1.00  0.00    -0.507 OA
ATOM     25  H   UNL     1     -40.469 -23.172  48.639  1.00  0.00     0.293 HD
ENDBRANCH   6  24
BRANCH   8  26
ATOM     26  O   UNL     1     -45.678 -22.875  50.135  1.00  0.00    -0.508 OA
ATOM     27  H   UNL     1     -45.714 -21.946  50.538  1.00  0.00     0.293 HD
ENDBRANCH   8  26
TORSDOF 6
ENDMDL
MODEL 3
REMARK VINA RESULT:    -3.480     14.639     16.445
REMARK INTER + INTRA:          -4.498
REMARK INTER:                  -4.190
REMARK INTRA:                  -0.307
REMARK UNBOUND:                -0.306
REMARK SMILES O=c1c(O)c(-c2ccc(O)c(O)c2)oc2cc(O)cc(O)c12
REMARK SMILES IDX 5 1 3 2 2 3 1 4 22 5 20 6 19 7 17 8 16 9 15 10 14 11 6 12
REMARK SMILES IDX 7 13 8 14 9 15 13 16 11 17 10 18 12 20 4 22 21 24 18 26
REMARK H PARENT 10 19 12 21 4 23 21 25 18 27
REMARK Flexibility Score: inf
ROOT
ATOM      1  C   UNL     1     -28.956 -25.239  44.990  1.00  0.00     0.180 A 
ATOM      2  C   UNL     1     -30.283 -24.797  44.848  1.00  0.00     0.208 A 
ATOM      3  C   UNL     1     -30.688 -24.242  43.623  1.00  0.00     0.238 A 
ATOM      4  O   UNL     1     -31.891 -23.897  43.484  1.00  0.00    -0.285 OA
ATOM      5  C   UNL     1     -29.759 -24.121  42.562  1.00  0.00     0.111 A 
ATOM      6  C   UNL     1     -30.050 -23.538  41.292  1.00  0.00     0.134 A 
ATOM      7  C   UNL     1     -29.091 -23.590  40.273  1.00  0.00     0.093 A 
ATOM      8  C   UNL     1     -27.830 -24.146  40.499  1.00  0.00     0.123 A 
ATOM      9  C   UNL     1     -27.515 -24.664  41.752  1.00  0.00     0.094 A 
ATOM     10  C   UNL     1     -28.464 -24.659  42.778  1.00  0.00     0.146 A 
ATOM     11  O   UNL     1     -28.127 -25.172  43.955  1.00  0.00    -0.452 OA
ENDROOT
BRANCH   1  12
ATOM     12  C   UNL     1     -28.449 -25.812  46.258  1.00  0.00     0.025 A 
ATOM     13  C   UNL     1     -28.414 -27.202  46.471  1.00  0.00     0.016 A 
ATOM     14  C   UNL     1     -27.955 -27.718  47.686  1.00  0.00     0.051 A 
ATOM     15  C   UNL     1     -27.536 -26.857  48.707  1.00  0.00     0.157 A 
ATOM     16  C   UNL     1     -28.048 -24.952  47.294  1.00  0.00     0.062 A 
ATOM     17  C   UNL     1     -27.585 -25.470  48.512  1.00  0.00     0.158 A 
BRANCH  15  18
ATOM     18  O   UNL     1     -27.075 -27.368  49.918  1.00  0.00    -0.504 OA
ATOM     19  H   UNL     1     -26.084 -27.475  50.105  1.00  0.00     0.293 HD
ENDBRANCH  15  18
BRANCH  17  20
ATOM     20  O   UNL     1     -27.175 -24.615  49.532  1.00  0.00    -0.504 OA
ATOM     21  H   UNL     1     -26.459 -23.914  49.381  1.00  0.00     0.293 HD
ENDBRANCH  17  20
ENDBRANCH   1  12
BRANCH   2  22
ATOM     22  O   UNL     1     -31.191 -24.945  45.901  1.00  0.00    -0.502 OA
ATOM     23  H   UNL     1     -30.942 -25.390  46.776  1.00  0.00     0.293 HD
ENDBRANCH   2  22
BRANCH   6  24
ATOM     24  O   UNL     1     -31.244 -22.877  40.993  1.00  0.00    -0.507 OA
ATOM     25  H   UNL     1     -32.160 -23.185  41.282  1.00  0.00     0.293 HD
ENDBRANCH   6  24
BRANCH   8  26
ATOM     26  O   UNL     1     -26.876 -24.180  39.483  1.00  0.00    -0.508 OA
ATOM     27  H   UNL     1     -27.073 -23.816  38.558  1.00  0.00     0.293 HD
ENDBRANCH   8  26
TORSDOF 6
ENDMDL
MODEL 4
REMARK VINA RESULT:    -3.400     15.921     18.412
REMARK INTER + INTRA:          -4.402
REMARK INTER:                  -4.077
REMARK INTRA:                  -0.325
REMARK UNBOUND:                -0.306
REMARK SMILES O=c1c(O)c(-c2ccc(O)c(O)c2)oc2cc(O)cc(O)c12
REMARK SMILES IDX 5 1 3 2 2 3 1 4 22 5 20 6 19 7 17 8 16 9 15 10 14 11 6 12
REMARK SMILES IDX 7 13 8 14 9 15 13 16 11 17 10 18 12 20 4 22 21 24 18 26
REMARK H PARENT 10 19 12 21 4 23 21 25 18 27
REMARK Flexibility Score: inf
ROOT
ATOM      1  C   UNL     1     -27.951 -26.313  46.194  1.00  0.00     0.180 A 
ATOM      2  C   UNL     1     -28.226 -27.691  46.229  1.00  0.00     0.208 A 
ATOM      3  C   UNL     1     -28.127 -28.375  47.451  1.00  0.00     0.238 A 
ATOM      4  O   UNL     1     -28.426 -29.598  47.486  1.00  0.00    -0.285 OA
ATOM      5  C   UNL     1     -27.738 -27.677  48.620  1.00  0.00     0.111 A 
ATOM      6  C   UNL     1     -27.566 -28.278  49.903  1.00  0.00     0.134 A 
ATOM      7  C   UNL     1     -27.306 -27.467  51.015  1.00  0.00     0.093 A 
ATOM      8  C   UNL     1     -27.148 -26.086  50.878  1.00  0.00     0.123 A 
ATOM      9  C   UNL     1     -27.255 -25.498  49.620  1.00  0.00     0.094 A 
ATOM     10  C   UNL     1     -27.550 -26.276  48.498  1.00  0.00     0.146 A 
ATOM     11  O   UNL     1     -27.653 -25.674  47.319  1.00  0.00    -0.452 OA
ENDROOT
BRANCH   1  12
ATOM     12  C   UNL     1     -28.011 -25.529  44.939  1.00  0.00     0.025 A 
ATOM     13  C   UNL     1     -26.925 -25.492  44.046  1.00  0.00     0.016 A 
ATOM     14  C   UNL     1     -26.995 -24.726  42.880  1.00  0.00     0.051 A 
ATOM     15  C   UNL     1     -28.144 -23.975  42.595  1.00  0.00     0.157 A 
ATOM     16  C   UNL     1     -29.152 -24.758  44.659  1.00  0.00     0.062 A 
ATOM     17  C   UNL     1     -29.223 -23.989  43.488  1.00  0.00     0.158 A 
BRANCH  15  18
ATOM     18  O   UNL     1     -28.218 -23.211  41.433  1.00  0.00    -0.504 OA
ATOM     19  H   UNL     1     -27.667 -22.368  41.318  1.00  0.00     0.293 HD
ENDBRANCH  15  18
BRANCH  17  20
ATOM     20  O   UNL     1     -30.361 -23.237  43.206  1.00  0.00    -0.504 OA
ATOM     21  H   UNL     1     -31.292 -23.603  43.367  1.00  0.00     0.293 HD
ENDBRANCH  17  20
ENDBRANCH   1  12
BRANCH   2  22
ATOM     22  O   UNL     1     -28.630 -28.358  45.067  1.00  0.00    -0.502 OA
ATOM     23  H   UNL     1     -27.979 -28.621  44.337  1.00  0.00     0.293 HD
ENDBRANCH   2  22
BRANCH   6  24
ATOM     24  O   UNL     1     -27.612 -29.656  50.132  1.00  0.00    -0.507 OA
ATOM     25  H   UNL     1     -28.216 -30.300  49.643  1.00  0.00     0.293 HD
ENDBRANCH   6  24
BRANCH   8  26
ATOM     26  O   UNL     1     -26.875 -25.289  51.988  1.00  0.00    -0.508 OA
ATOM     27  H   UNL     1     -26.184 -24.549  51.952  1.00  0.00     0.293 HD
ENDBRANCH   8  26
TORSDOF 6
ENDMDL
MODEL 5
REMARK VINA RESULT:    -3.355     15.372     18.472
REMARK INTER + INTRA:          -4.347
REMARK INTER:                  -4.054
REMARK INTRA:                  -0.293
REMARK UNBOUND:                -0.306
REMARK SMILES O=c1c(O)c(-c2ccc(O)c(O)c2)oc2cc(O)cc(O)c12
REMARK SMILES IDX 5 1 3 2 2 3 1 4 22 5 20 6 19 7 17 8 16 9 15 10 14 11 6 12
REMARK SMILES IDX 7 13 8 14 9 15 13 16 11 17 10 18 12 20 4 22 21 24 18 26
REMARK H PARENT 10 19 12 21 4 23 21 25 18 27
REMARK Flexibility Score: inf
ROOT
ATOM      1  C   UNL     1     -28.045 -26.497  47.318  1.00  0.00     0.180 A 
ATOM      2  C   UNL     1     -27.566 -25.815  48.450  1.00  0.00     0.208 A 
ATOM      3  C   UNL     1     -27.357 -26.531  49.639  1.00  0.00     0.238 A 
ATOM      4  O   UNL     1     -26.878 -25.925  50.633  1.00  0.00    -0.285 OA
ATOM      5  C   UNL     1     -27.645 -27.916  49.687  1.00  0.00     0.111 A 
ATOM      6  C   UNL     1     -27.508 -28.732  50.850  1.00  0.00     0.134 A 
ATOM      7  C   UNL     1     -27.696 -30.116  50.749  1.00  0.00     0.093 A 
ATOM      8  C   UNL     1     -28.079 -30.703  49.541  1.00  0.00     0.123 A 
ATOM      9  C   UNL     1     -28.272 -29.908  48.414  1.00  0.00     0.094 A 
ATOM     10  C   UNL     1     -28.057 -28.529  48.476  1.00  0.00     0.146 A 
ATOM     11  O   UNL     1     -28.242 -27.809  47.376  1.00  0.00    -0.452 OA
ENDROOT
BRANCH   1  12
ATOM     12  C   UNL     1     -28.313 -25.806  46.035  1.00  0.00     0.025 A 
ATOM     13  C   UNL     1     -27.379 -25.825  44.984  1.00  0.00     0.016 A 
ATOM     14  C   UNL     1     -27.643 -25.144  43.793  1.00  0.00     0.051 A 
ATOM     15  C   UNL     1     -28.835 -24.425  43.639  1.00  0.00     0.157 A 
ATOM     16  C   UNL     1     -29.497 -25.065  45.884  1.00  0.00     0.062 A 
ATOM     17  C   UNL     1     -29.763 -24.382  44.688  1.00  0.00     0.158 A 
BRANCH  15  18
ATOM     18  O   UNL     1     -29.103 -23.746  42.452  1.00  0.00    -0.504 OA
ATOM     19  H   UNL     1     -29.716 -22.939  42.430  1.00  0.00     0.293 HD
ENDBRANCH  15  18
BRANCH  17  20
ATOM     20  O   UNL     1     -30.944 -23.660  44.535  1.00  0.00    -0.504 OA
ATOM     21  H   UNL     1     -30.955 -22.750  44.090  1.00  0.00     0.293 HD
ENDBRANCH  17  20
ENDBRANCH   1  12
BRANCH   2  22
ATOM     22  O   UNL     1     -27.268 -24.450  48.375  1.00  0.00    -0.502 OA
ATOM     23  H   UNL     1     -27.901 -23.736  48.711  1.00  0.00     0.293 HD
ENDBRANCH   2  22
BRANCH   6  24
ATOM     24  O   UNL     1     -27.220 -28.233  52.124  1.00  0.00    -0.507 OA
ATOM     25  H   UNL     1     -26.322 -28.300  52.578  1.00  0.00     0.293 HD
ENDBRANCH   6  24
BRANCH   8  26
ATOM     26  O   UNL     1     -28.278 -32.080  49.452  1.00  0.00    -0.508 OA
ATOM     27  H   UNL     1     -29.161 -32.505  49.711  1.00  0.00     0.293 HD
ENDBRANCH   8  26
TORSDOF 6
ENDMDL
MODEL 6
REMARK VINA RESULT:    -3.318     13.238     16.082
REMARK INTER + INTRA:          -4.303
REMARK INTER:                  -4.020
REMARK INTRA:                  -0.283
REMARK UNBOUND:                -0.306
REMARK SMILES O=c1c(O)c(-c2ccc(O)c(O)c2)oc2cc(O)cc(O)c12
REMARK SMILES IDX 5 1 3 2 2 3 1 4 22 5 20 6 19 7 17 8 16 9 15 10 14 11 6 12
REMARK SMILES IDX 7 13 8 14 9 15 13 16 11 17 10 18 12 20 4 22 21 24 18 26
REMARK H PARENT 10 19 12 21 4 23 21 25 18 27
REMARK Flexibility Score: inf
ROOT
ATOM      1  C   UNL     1     -45.999 -39.679  47.164  1.00  0.00     0.180 A 
ATOM      2  C   UNL     1     -46.456 -40.278  48.351  1.00  0.00     0.208 A 
ATOM      3  C   UNL     1     -46.665 -39.474  49.483  1.00  0.00     0.238 A 
ATOM      4  O   UNL     1     -47.125 -40.007  50.527  1.00  0.00    -0.285 OA
ATOM      5  C   UNL     1     -46.398 -38.085  49.420  1.00  0.00     0.111 A 
ATOM      6  C   UNL     1     -46.536 -37.183  50.517  1.00  0.00     0.134 A 
ATOM      7  C   UNL     1     -46.370 -35.809  50.306  1.00  0.00     0.093 A 
ATOM      8  C   UNL     1     -46.009 -35.312  49.052  1.00  0.00     0.123 A 
ATOM      9  C   UNL     1     -45.814 -36.190  47.989  1.00  0.00     0.094 A 
ATOM     10  C   UNL     1     -46.007 -37.563  48.160  1.00  0.00     0.146 A 
ATOM     11  O   UNL     1     -45.821 -38.364  47.118  1.00  0.00    -0.452 OA
ENDROOT
BRANCH   1  12
ATOM     12  C   UNL     1     -45.733 -40.464  45.936  1.00  0.00     0.025 A 
ATOM     13  C   UNL     1     -46.658 -40.503  44.877  1.00  0.00     0.016 A 
ATOM     14  C   UNL     1     -46.396 -41.271  43.740  1.00  0.00     0.051 A 
ATOM     15  C   UNL     1     -45.216 -42.021  43.649  1.00  0.00     0.157 A 
ATOM     16  C   UNL     1     -44.562 -41.235  45.850  1.00  0.00     0.062 A 
ATOM     17  C   UNL     1     -44.299 -42.005  44.708  1.00  0.00     0.158 A 
BRANCH  15  18
ATOM     18  O   UNL     1     -44.951 -42.786  42.516  1.00  0.00    -0.504 OA
ATOM     19  H   UNL     1     -44.584 -42.369  41.668  1.00  0.00     0.293 HD
ENDBRANCH  15  18
BRANCH  17  20
ATOM     20  O   UNL     1     -43.130 -42.757  44.618  1.00  0.00    -0.504 OA
ATOM     21  H   UNL     1     -42.653 -43.097  45.445  1.00  0.00     0.293 HD
ENDBRANCH  17  20
ENDBRANCH   1  12
BRANCH   2  22
ATOM     22  O   UNL     1     -46.734 -41.648  48.385  1.00  0.00    -0.502 OA
ATOM     23  H   UNL     1     -46.230 -42.320  47.820  1.00  0.00     0.293 HD
ENDBRANCH   2  22
BRANCH   6  24
ATOM     24  O   UNL     1     -46.804 -37.586  51.829  1.00  0.00    -0.507 OA
ATOM     25  H   UNL     1     -47.042 -38.526  52.104  1.00  0.00     0.293 HD
ENDBRANCH   6  24
BRANCH   8  26
ATOM     26  O   UNL     1     -45.831 -33.944  48.854  1.00  0.00    -0.508 OA
ATOM     27  H   UNL     1     -44.996 -33.466  49.172  1.00  0.00     0.293 HD
ENDBRANCH   8  26
TORSDOF 6
ENDMDL
MODEL 7
REMARK VINA RESULT:    -3.309     16.115     18.127
REMARK INTER + INTRA:          -4.292
REMARK INTER:                  -3.965
REMARK INTRA:                  -0.327
REMARK UNBOUND:                -0.306
REMARK SMILES O=c1c(O)c(-c2ccc(O)c(O)c2)oc2cc(O)cc(O)c12
REMARK SMILES IDX 5 1 3 2 2 3 1 4 22 5 20 6 19 7 17 8 16 9 15 10 14 11 6 12
REMARK SMILES IDX 7 13 8 14 9 15 13 16 11 17 10 18 12 20 4 22 21 24 18 26
REMARK H PARENT 10 19 12 21 4 23 21 25 18 27
REMARK Flexibility Score: inf
ROOT
ATOM      1  C   UNL     1     -28.076 -26.143  44.110  1.00  0.00     0.180 A 
ATOM      2  C   UNL     1     -28.358 -27.517  44.206  1.00  0.00     0.208 A 
ATOM      3  C   UNL     1     -28.331 -28.132  45.467  1.00  0.00     0.238 A 
ATOM      4  O   UNL     1     -28.637 -29.350  45.554  1.00  0.00    -0.285 OA
ATOM      5  C   UNL     1     -28.006 -27.370  46.616  1.00  0.00     0.111 A 
ATOM      6  C   UNL     1     -27.909 -27.898  47.938  1.00  0.00     0.134 A 
ATOM      7  C   UNL     1     -27.709 -27.027  49.016  1.00  0.00     0.093 A 
ATOM      8  C   UNL     1     -27.537 -25.656  48.812  1.00  0.00     0.123 A 
ATOM      9  C   UNL     1     -27.571 -25.139  47.519  1.00  0.00     0.094 A 
ATOM     10  C   UNL     1     -27.805 -25.978  46.427  1.00  0.00     0.146 A 
ATOM     11  O   UNL     1     -27.839 -25.443  45.213  1.00  0.00    -0.452 OA
ENDROOT
BRANCH   1  12
ATOM     12  C   UNL     1     -28.061 -25.431  42.811  1.00  0.00     0.025 A 
ATOM     13  C   UNL     1     -26.875 -25.283  42.071  1.00  0.00     0.016 A 
ATOM     14  C   UNL     1     -26.881 -24.585  40.861  1.00  0.00     0.051 A 
ATOM     15  C   UNL     1     -28.066 -24.014  40.379  1.00  0.00     0.157 A 
ATOM     16  C   UNL     1     -29.242 -24.838  42.336  1.00  0.00     0.062 A 
ATOM     17  C   UNL     1     -29.249 -24.138  41.120  1.00  0.00     0.158 A 
BRANCH  15  18
ATOM     18  O   UNL     1     -28.076 -23.319  39.172  1.00  0.00    -0.504 OA
ATOM     19  H   UNL     1     -28.699 -23.580  38.416  1.00  0.00     0.293 HD
ENDBRANCH  15  18
BRANCH  17  20
ATOM     20  O   UNL     1     -30.424 -23.563  40.643  1.00  0.00    -0.504 OA
ATOM     21  H   UNL     1     -30.793 -23.791  39.727  1.00  0.00     0.293 HD
ENDBRANCH  17  20
ENDBRANCH   1  12
BRANCH   2  22
ATOM     22  O   UNL     1     -28.699 -28.247  43.062  1.00  0.00    -0.502 OA
ATOM     23  H   UNL     1     -28.893 -27.805  42.172  1.00  0.00     0.293 HD
ENDBRANCH   2  22
BRANCH   6  24
ATOM     24  O   UNL     1     -27.975 -29.262  48.240  1.00  0.00    -0.507 OA
ATOM     25  H   UNL     1     -28.774 -29.722  48.648  1.00  0.00     0.293 HD
ENDBRANCH   6  24
BRANCH   8  26
ATOM     26  O   UNL     1     -27.323 -24.799  49.889  1.00  0.00    -0.508 OA
ATOM     27  H   UNL     1     -26.605 -24.984  50.579  1.00  0.00     0.293 HD
ENDBRANCH   8  26
TORSDOF 6
ENDMDL
MODEL 8
REMARK VINA RESULT:    -3.300     13.917     17.189
REMARK INTER + INTRA:          -4.281
REMARK INTER:                  -3.966
REMARK INTRA:                  -0.314
REMARK UNBOUND:                -0.306
REMARK SMILES O=c1c(O)c(-c2ccc(O)c(O)c2)oc2cc(O)cc(O)c12
REMARK SMILES IDX 5 1 3 2 2 3 1 4 22 5 20 6 19 7 17 8 16 9 15 10 14 11 6 12
REMARK SMILES IDX 7 13 8 14 9 15 13 16 11 17 10 18 12 20 4 22 21 24 18 26
REMARK H PARENT 10 19 12 21 4 23 21 25 18 27
REMARK Flexibility Score: inf
ROOT
ATOM      1  C   UNL     1     -45.920 -40.324  44.532  1.00  0.00     0.180 A 
ATOM      2  C   UNL     1     -45.497 -38.989  44.652  1.00  0.00     0.208 A 
ATOM      3  C   UNL     1     -45.526 -38.376  45.915  1.00  0.00     0.238 A 
ATOM      4  O   UNL     1     -45.096 -37.198  46.025  1.00  0.00    -0.285 OA
ATOM      5  C   UNL     1     -45.993 -39.099  47.039  1.00  0.00     0.111 A 
ATOM      6  C   UNL     1     -46.104 -38.565  48.357  1.00  0.00     0.134 A 
ATOM      7  C   UNL     1     -46.455 -39.410  49.418  1.00  0.00     0.093 A 
ATOM      8  C   UNL     1     -46.761 -40.755  49.195  1.00  0.00     0.123 A 
ATOM      9  C   UNL     1     -46.714 -41.271  47.903  1.00  0.00     0.094 A 
ATOM     10  C   UNL     1     -46.332 -40.461  46.830  1.00  0.00     0.146 A 
ATOM     11  O   UNL     1     -46.290 -40.996  45.616  1.00  0.00    -0.452 OA
ENDROOT
BRANCH   1  12
ATOM     12  C   UNL     1     -45.941 -41.030  43.230  1.00  0.00     0.025 A 
ATOM     13  C   UNL     1     -47.118 -41.121  42.465  1.00  0.00     0.016 A 
ATOM     14  C   UNL     1     -47.119 -41.814  41.252  1.00  0.00     0.051 A 
ATOM     15  C   UNL     1     -45.951 -42.435  40.791  1.00  0.00     0.157 A 
ATOM     16  C   UNL     1     -44.778 -41.673  42.774  1.00  0.00     0.062 A 
ATOM     17  C   UNL     1     -44.779 -42.367  41.555  1.00  0.00     0.158 A 
BRANCH  15  18
ATOM     18  O   UNL     1     -45.949 -43.125  39.581  1.00  0.00    -0.504 OA
ATOM     19  H   UNL     1     -45.293 -42.896  38.842  1.00  0.00     0.293 HD
ENDBRANCH  15  18
BRANCH  17  20
ATOM     20  O   UNL     1     -43.621 -42.993  41.098  1.00  0.00    -0.504 OA
ATOM     21  H   UNL     1     -42.750 -42.936  41.612  1.00  0.00     0.293 HD
ENDBRANCH  17  20
ENDBRANCH   1  12
BRANCH   2  22
ATOM     22  O   UNL     1     -45.019 -38.299  43.533  1.00  0.00    -0.502 OA
ATOM     23  H   UNL     1     -45.604 -38.084  42.736  1.00  0.00     0.293 HD
ENDBRANCH   2  22
BRANCH   6  24
ATOM     24  O   UNL     1     -45.909 -37.217  48.672  1.00  0.00    -0.507 OA
ATOM     25  H   UNL     1     -45.153 -36.648  48.321  1.00  0.00     0.293 HD
ENDBRANCH   6  24
BRANCH   8  26
ATOM     26  O   UNL     1     -47.124 -41.585  50.253  1.00  0.00    -0.508 OA
ATOM     27  H   UNL     1     -46.929 -42.579  50.238  1.00  0.00     0.293 HD
ENDBRANCH   8  26
TORSDOF 6
ENDMDL
