MODEL 1
REMARK VINA RESULT:    -1.842      0.000      0.000
REMARK INTER + INTRA:          -1.842
REMARK INTER:                  -1.842
REMARK INTRA:                   0.000
REMARK UNBOUND:                 0.000
REMARK SMILES CC(=O)[O-]
REMARK SMILES IDX 1 1 2 2 3 3 4 4
REMARK H PARENT
REMARK Flexibility Score: inf
ROOT
ATOM      1  C   UNL     1       0.885 -50.330   9.829  1.00  0.00     0.063 C 
ATOM      2  C   UNL     1       2.375 -50.309   9.776  1.00  0.00     0.038 C 
ATOM      3  O   UNL     1       3.034 -49.820  10.731  1.00  0.00    -0.550 OA
ATOM      4  O   UNL     1       3.038 -50.780   8.650  1.00  0.00    -0.550 OA
ENDROOT
TORSDOF 0
ENDMDL
MODEL 2
REMARK VINA RESULT:    -1.824      1.416      2.035
REMARK INTER + INTRA:          -1.824
REMARK INTER:                  -1.824
REMARK INTRA:                   0.000
REMARK UNBOUND:                 0.000
REMARK SMILES CC(=O)[O-]
REMARK SMILES IDX 1 1 2 2 3 3 4 4
REMARK H PARENT
REMARK Flexibility Score: inf
ROOT
ATOM      1  C   UNL     1       2.961 -49.870  11.033  1.00  0.00     0.063 C 
ATOM      2  C   UNL     1       2.266 -50.288   9.782  1.00  0.00     0.038 C 
ATOM      3  O   UNL     1       2.933 -50.684   8.791  1.00  0.00    -0.550 OA
ATOM      4  O   UNL     1       0.883 -50.191   9.687  1.00  0.00    -0.550 OA
ENDROOT
TORSDOF 0
ENDMDL
MODEL 3
REMARK VINA RESULT:    -1.803      6.111      6.568
REMARK INTER + INTRA:          -1.803
REMARK INTER:                  -1.803
REMARK INTRA:                   0.000
REMARK UNBOUND:                 0.000
REMARK SMILES CC(=O)[O-]
REMARK SMILES IDX 1 1 2 2 3 3 4 4
REMARK H PARENT
REMARK Flexibility Score: inf
ROOT
ATOM      1  C   UNL     1       8.633 -52.131  10.895  1.00  0.00     0.063 C 
ATOM      2  C   UNL     1       7.831 -53.337  10.540  1.00  0.00     0.038 C 
ATOM      3  O   UNL     1       8.132 -54.459  11.022  1.00  0.00    -0.550 OA
ATOM      4  O   UNL     1       6.784 -53.235   9.633  1.00  0.00    -0.550 OA
ENDROOT
TORSDOF 0
ENDMDL
MODEL 4
REMARK VINA RESULT:    -1.718      1.544      1.832
REMARK INTER + INTRA:          -1.718
REMARK INTER:                  -1.718
REMARK INTRA:                   0.000
REMARK UNBOUND:                 0.000
REMARK SMILES CC(=O)[O-]
REMARK SMILES IDX 1 1 2 2 3 3 4 4
REMARK H PARENT
REMARK Flexibility Score: inf
ROOT
ATOM      1  C   UNL     1       2.904 -50.654   8.958  1.00  0.00     0.063 C 
ATOM      2  C   UNL     1       1.908 -50.233   9.986  1.00  0.00     0.038 C 
ATOM      3  O   UNL     1       2.297 -49.727  11.071  1.00  0.00    -0.550 OA
ATOM      4  O   UNL     1       0.553 -50.447   9.771  1.00  0.00    -0.550 OA
ENDROOT
TORSDOF 0
ENDMDL
MODEL 5
REMARK VINA RESULT:    -1.703      1.360      2.052
REMARK INTER + INTRA:          -1.703
REMARK INTER:                  -1.703
REMARK INTRA:                   0.000
REMARK UNBOUND:                 0.000
REMARK SMILES CC(=O)[O-]
REMARK SMILES IDX 1 1 2 2 3 3 4 4
REMARK H PARENT
REMARK Flexibility Score: inf
ROOT
ATOM      1  C   UNL     1       2.963 -50.720   8.426  1.00  0.00     0.063 C 
ATOM      2  C   UNL     1       2.304 -50.267   9.685  1.00  0.00     0.038 C 
ATOM      3  O   UNL     1       1.049 -50.254   9.771  1.00  0.00    -0.550 OA
ATOM      4  O   UNL     1       3.073 -49.807  10.747  1.00  0.00    -0.550 OA
ENDROOT
TORSDOF 0
ENDMDL
MODEL 6
REMARK VINA RESULT:    -1.605      2.574      2.824
REMARK INTER + INTRA:          -1.605
REMARK INTER:                  -1.605
REMARK INTRA:                   0.000
REMARK UNBOUND:                 0.000
REMARK SMILES CC(=O)[O-]
REMARK SMILES IDX 1 1 2 2 3 3 4 4
REMARK H PARENT
REMARK Flexibility Score: inf
ROOT
ATOM      1  C   UNL     1      -1.125 -49.503   9.247  1.00  0.00     0.063 C 
ATOM      2  C   UNL     1      -0.132 -50.515   9.711  1.00  0.00     0.038 C 
ATOM      3  O   UNL     1      -0.524 -51.586  10.242  1.00  0.00    -0.550 OA
ATOM      4  O   UNL     1       1.228 -50.253   9.610  1.00  0.00    -0.550 OA
ENDROOT
TORSDOF 0
ENDMDL
MODEL 7
REMARK VINA RESULT:    -1.504      5.690      6.104
REMARK INTER + INTRA:          -1.504
REMARK INTER:                  -1.504
REMARK INTRA:                   0.000
REMARK UNBOUND:                 0.000
REMARK SMILES CC(=O)[O-]
REMARK SMILES IDX 1 1 2 2 3 3 4 4
REMARK H PARENT
REMARK Flexibility Score: inf
ROOT
ATOM      1  C   UNL     1       8.269 -54.330  10.728  1.00  0.00     0.063 C 
ATOM      2  C   UNL     1       7.386 -53.145  10.531  1.00  0.00     0.038 C 
ATOM      3  O   UNL     1       7.638 -52.064  11.125  1.00  0.00    -0.550 OA
ATOM      4  O   UNL     1       6.252 -53.245   9.735  1.00  0.00    -0.550 OA
ENDROOT
TORSDOF 0
ENDMDL
MODEL 8
REMARK VINA RESULT:    -1.451      3.994      4.429
REMARK INTER + INTRA:          -1.451
REMARK INTER:                  -1.451
REMARK INTRA:                   0.000
REMARK UNBOUND:                 0.000
REMARK SMILES CC(=O)[O-]
REMARK SMILES IDX 1 1 2 2 3 3 4 4
REMARK H PARENT
REMARK Flexibility Score: inf
ROOT
ATOM      1  C   UNL     1       6.209 -53.234  10.347  1.00  0.00     0.063 C 
ATOM      2  C   UNL     1       4.727 -53.259  10.512  1.00  0.00     0.038 C 
ATOM      3  O   UNL     1       4.050 -52.221  10.295  1.00  0.00    -0.550 OA
ATOM      4  O   UNL     1       4.095 -54.413  10.958  1.00  0.00    -0.550 OA
ENDROOT
TORSDOF 0
ENDMDL
MODEL 9
REMARK VINA RESULT:    -1.091     24.221     24.801
REMARK INTER + INTRA:          -1.091
REMARK INTER:                  -1.091
REMARK INTRA:                   0.000
REMARK UNBOUND:                 0.000
REMARK SMILES CC(=O)[O-]
REMARK SMILES IDX 1 1 2 2 3 3 4 4
REMARK H PARENT
REMARK Flexibility Score: inf
ROOT
ATOM      1  C   UNL     1      16.878 -44.074  -8.325  1.00  0.00     0.063 C 
ATOM      2  C   UNL     1      18.343 -44.342  -8.234  1.00  0.00     0.038 C 
ATOM      3  O   UNL     1      19.120 -43.911  -9.125  1.00  0.00    -0.550 OA
ATOM      4  O   UNL     1      18.845 -45.114  -7.195  1.00  0.00    -0.550 OA
ENDROOT
TORSDOF 0
ENDMDL
