MODEL 1
REMARK VINA RESULT:    -7.734      0.000      0.000
REMARK INTER + INTRA:         -12.342
REMARK INTER:                 -11.351
REMARK INTRA:                  -0.991
REMARK UNBOUND:                -0.991
REMARK SMILES Cc1cc2c(C(C)C)c(O)c(O)c(C=O)c2c(O)c1-c1c(C)cc2c(C(C)C)c(O)c(O)c(C=O)c2c1O
REMARK SMILES IDX 1 1 2 2 3 3 4 4 16 5 13 6 11 7 9 8 5 9 17 10 19 11 20 12
REMARK SMILES IDX 37 13 21 14 36 15 23 16 22 17 24 18 33 19 25 20 31 21 29 22
REMARK SMILES IDX 38 23 34 25 35 26 26 27 27 28 28 29 32 30 30 32 18 34 6 36
REMARK SMILES IDX 7 37 8 38 14 39 15 40 10 41 12 43
REMARK H PARENT 38 24 32 31 30 33 18 35 10 42 12 44
REMARK Flexibility Score: inf
ROOT
ATOM      1  C   UNL     1      28.158  42.239  74.889  1.00  0.00     0.045 C 
ATOM      2  C   UNL     1      27.699  42.175  76.325  1.00  0.00    -0.039 A 
ATOM      3  C   UNL     1      28.571  42.567  77.342  1.00  0.00     0.013 A 
ATOM      4  C   UNL     1      28.203  42.505  78.704  1.00  0.00    -0.006 A 
ATOM      5  C   UNL     1      26.859  42.171  79.032  1.00  0.00     0.039 A 
ATOM      6  C   UNL     1      26.413  42.340  80.374  1.00  0.00     0.072 A 
ATOM      7  C   UNL     1      27.309  42.779  81.366  1.00  0.00     0.169 A 
ATOM      8  C   UNL     1      28.664  43.012  81.053  1.00  0.00     0.162 A 
ATOM      9  C   UNL     1      29.142  42.793  79.739  1.00  0.00     0.008 A 
ATOM     10  C   UNL     1      26.013  41.651  78.007  1.00  0.00     0.132 A 
ATOM     11  C   UNL     1      26.430  41.674  76.659  1.00  0.00     0.031 A 
ENDROOT
BRANCH  11  12
ATOM     12  C   UNL     1      25.533  41.160  75.592  1.00  0.00     0.031 A 
ATOM     13  C   UNL     1      24.697  42.057  74.910  1.00  0.00     0.132 A 
ATOM     14  C   UNL     1      25.508  39.793  75.272  1.00  0.00    -0.039 A 
ATOM     15  C   UNL     1      23.909  41.606  73.815  1.00  0.00     0.039 A 
ATOM     16  C   UNL     1      24.570  39.325  74.344  1.00  0.00     0.013 A 
ATOM     17  C   UNL     1      26.442  38.821  75.945  1.00  0.00     0.045 C 
ATOM     18  C   UNL     1      23.706  40.209  73.657  1.00  0.00    -0.006 A 
ATOM     19  C   UNL     1      23.337  42.494  72.866  1.00  0.00     0.072 A 
ATOM     20  C   UNL     1      22.673  39.735  72.794  1.00  0.00     0.008 A 
ATOM     21  C   UNL     1      22.401  42.017  71.931  1.00  0.00     0.169 A 
ATOM     22  C   UNL     1      22.056  40.648  71.903  1.00  0.00     0.162 A 
BRANCH  13  23
ATOM     23  O   UNL     1      24.622  43.370  75.391  1.00  0.00    -0.507 OA
ATOM     24  H   UNL     1      24.104  44.098  74.916  1.00  0.00     0.293 HD
ENDBRANCH  13  23
BRANCH  19  25
ATOM     25  C   UNL     1      23.836  43.878  72.668  1.00  0.00     0.264 C 
ATOM     26  O   UNL     1      24.995  44.092  72.226  1.00  0.00    -0.298 OA
ENDBRANCH  19  25
BRANCH  20  27
ATOM     27  C   UNL     1      22.223  38.262  72.823  1.00  0.00     0.017 C 
ATOM     28  C   UNL     1      21.369  37.976  74.062  1.00  0.00     0.012 C 
ATOM     29  C   UNL     1      23.384  37.258  72.693  1.00  0.00     0.012 C 
ENDBRANCH  20  27
BRANCH  21  30
ATOM     30  O   UNL     1      21.854  42.933  71.022  1.00  0.00    -0.504 OA
ATOM     31  H   UNL     1      22.300  43.252  70.177  1.00  0.00     0.293 HD
ENDBRANCH  21  30
BRANCH  22  32
ATOM     32  O   UNL     1      21.128  40.158  70.979  1.00  0.00    -0.504 OA
ATOM     33  H   UNL     1      20.149  40.395  70.953  1.00  0.00     0.293 HD
ENDBRANCH  22  32
ENDBRANCH  11  12
BRANCH  10  34
ATOM     34  O   UNL     1      24.778  41.079  78.333  1.00  0.00    -0.507 OA
ATOM     35  H   UNL     1      24.347  41.148  79.246  1.00  0.00     0.293 HD
ENDBRANCH  10  34
BRANCH   9  36
ATOM     36  C   UNL     1      30.655  42.867  79.454  1.00  0.00     0.017 C 
ATOM     37  C   UNL     1      31.199  41.504  79.015  1.00  0.00     0.012 C 
ATOM     38  C   UNL     1      31.043  43.977  78.458  1.00  0.00     0.012 C 
ENDBRANCH   9  36
BRANCH   6  39
ATOM     39  C   UNL     1      24.986  42.200  80.753  1.00  0.00     0.264 C 
ATOM     40  O   UNL     1      24.586  41.204  81.410  1.00  0.00    -0.298 OA
ENDBRANCH   6  39
BRANCH   8  41
ATOM     41  O   UNL     1      29.557  43.486  82.017  1.00  0.00    -0.504 OA
ATOM     42  H   UNL     1      30.208  42.922  82.541  1.00  0.00     0.293 HD
ENDBRANCH   8  41
BRANCH   7  43
ATOM     43  O   UNL     1      26.807  42.992  82.658  1.00  0.00    -0.504 OA
ATOM     44  H   UNL     1      25.889  42.721  82.979  1.00  0.00     0.293 HD
ENDBRANCH   7  43
TORSDOF 11
ENDMDL
MODEL 2
REMARK VINA RESULT:    -7.512      1.657      8.923
REMARK INTER + INTRA:         -12.015
REMARK INTER:                 -10.906
REMARK INTRA:                  -1.109
REMARK UNBOUND:                -0.991
REMARK SMILES Cc1cc2c(C(C)C)c(O)c(O)c(C=O)c2c(O)c1-c1c(C)cc2c(C(C)C)c(O)c(O)c(C=O)c2c1O
REMARK SMILES IDX 1 1 2 2 3 3 4 4 16 5 13 6 11 7 9 8 5 9 17 10 19 11 20 12
REMARK SMILES IDX 37 13 21 14 36 15 23 16 22 17 24 18 33 19 25 20 31 21 29 22
REMARK SMILES IDX 38 23 34 25 35 26 26 27 27 28 28 29 32 30 30 32 18 34 6 36
REMARK SMILES IDX 7 37 8 38 14 39 15 40 10 41 12 43
REMARK H PARENT 38 24 32 31 30 33 18 35 10 42 12 44
REMARK Flexibility Score: inf
ROOT
ATOM      1  C   UNL     1      23.771  39.018  77.533  1.00  0.00     0.045 C 
ATOM      2  C   UNL     1      23.629  39.845  76.278  1.00  0.00    -0.039 A 
ATOM      3  C   UNL     1      22.929  39.322  75.188  1.00  0.00     0.013 A 
ATOM      4  C   UNL     1      22.785  40.041  73.981  1.00  0.00    -0.006 A 
ATOM      5  C   UNL     1      23.244  41.388  73.932  1.00  0.00     0.039 A 
ATOM      6  C   UNL     1      22.890  42.197  72.814  1.00  0.00     0.072 A 
ATOM      7  C   UNL     1      22.146  41.650  71.753  1.00  0.00     0.169 A 
ATOM      8  C   UNL     1      21.783  40.287  71.763  1.00  0.00     0.162 A 
ATOM      9  C   UNL     1      22.174  39.451  72.835  1.00  0.00     0.008 A 
ATOM     10  C   UNL     1      24.064  41.872  74.995  1.00  0.00     0.132 A 
ATOM     11  C   UNL     1      24.236  41.106  76.168  1.00  0.00     0.031 A 
ENDROOT
BRANCH  11  12
ATOM     12  C   UNL     1      25.066  41.627  77.283  1.00  0.00     0.031 A 
ATOM     13  C   UNL     1      26.462  41.491  77.220  1.00  0.00     0.132 A 
ATOM     14  C   UNL     1      24.469  42.242  78.396  1.00  0.00    -0.039 A 
ATOM     15  C   UNL     1      27.281  42.076  78.225  1.00  0.00     0.039 A 
ATOM     16  C   UNL     1      25.270  42.618  79.481  1.00  0.00     0.013 A 
ATOM     17  C   UNL     1      22.979  42.458  78.456  1.00  0.00     0.045 C 
ATOM     18  C   UNL     1      26.676  42.473  79.447  1.00  0.00    -0.006 A 
ATOM     19  C   UNL     1      28.673  42.296  78.046  1.00  0.00     0.072 A 
ATOM     20  C   UNL     1      27.491  42.748  80.586  1.00  0.00     0.008 A 
ATOM     21  C   UNL     1      29.471  42.680  79.138  1.00  0.00     0.169 A 
ATOM     22  C   UNL     1      28.889  42.891  80.407  1.00  0.00     0.162 A 
BRANCH  13  23
ATOM     23  O   UNL     1      26.993  40.709  76.187  1.00  0.00    -0.507 OA
ATOM     24  H   UNL     1      26.413  40.197  75.536  1.00  0.00     0.293 HD
ENDBRANCH  13  23
BRANCH  19  25
ATOM     25  C   UNL     1      29.305  42.345  76.703  1.00  0.00     0.264 C 
ATOM     26  O   UNL     1      29.913  43.375  76.311  1.00  0.00    -0.298 OA
ENDBRANCH  19  25
BRANCH  20  27
ATOM     27  C   UNL     1      26.876  42.885  81.992  1.00  0.00     0.017 C 
ATOM     28  C   UNL     1      26.143  41.601  82.395  1.00  0.00     0.012 C 
ATOM     29  C   UNL     1      25.975  44.124  82.155  1.00  0.00     0.012 C 
ENDBRANCH  20  27
BRANCH  21  30
ATOM     30  O   UNL     1      30.841  42.874  78.915  1.00  0.00    -0.504 OA
ATOM     31  H   UNL     1      31.250  43.674  78.459  1.00  0.00     0.293 HD
ENDBRANCH  21  30
BRANCH  22  32
ATOM     32  O   UNL     1      29.668  43.275  81.502  1.00  0.00    -0.504 OA
ATOM     33  H   UNL     1      30.363  42.702  81.954  1.00  0.00     0.293 HD
ENDBRANCH  22  32
ENDBRANCH  11  12
BRANCH  10  34
ATOM     34  O   UNL     1      24.738  43.092  74.868  1.00  0.00    -0.507 OA
ATOM     35  H   UNL     1      25.177  43.578  75.639  1.00  0.00     0.293 HD
ENDBRANCH  10  34
BRANCH   9  36
ATOM     36  C   UNL     1      21.937  37.931  72.745  1.00  0.00     0.017 C 
ATOM     37  C   UNL     1      23.233  37.155  73.000  1.00  0.00     0.012 C 
ATOM     38  C   UNL     1      20.792  37.428  73.646  1.00  0.00     0.012 C 
ENDBRANCH   9  36
BRANCH   6  39
ATOM     39  C   UNL     1      23.162  43.655  72.781  1.00  0.00     0.264 C 
ATOM     40  O   UNL     1      24.098  44.122  72.080  1.00  0.00    -0.298 OA
ENDBRANCH   6  39
BRANCH   8  41
ATOM     41  O   UNL     1      21.010  39.738  70.736  1.00  0.00    -0.504 OA
ATOM     42  H   UNL     1      21.370  39.332  69.886  1.00  0.00     0.293 HD
ENDBRANCH   8  41
BRANCH   7  43
ATOM     43  O   UNL     1      21.769  42.502  70.706  1.00  0.00    -0.504 OA
ATOM     44  H   UNL     1      21.741  42.251  69.729  1.00  0.00     0.293 HD
ENDBRANCH   7  43
TORSDOF 11
ENDMDL
MODEL 3
REMARK VINA RESULT:    -7.484      8.174     12.487
REMARK INTER + INTRA:         -11.975
REMARK INTER:                 -10.861
REMARK INTRA:                  -1.114
REMARK UNBOUND:                -0.991
REMARK SMILES Cc1cc2c(C(C)C)c(O)c(O)c(C=O)c2c(O)c1-c1c(C)cc2c(C(C)C)c(O)c(O)c(C=O)c2c1O
REMARK SMILES IDX 1 1 2 2 3 3 4 4 16 5 13 6 11 7 9 8 5 9 17 10 19 11 20 12
REMARK SMILES IDX 37 13 21 14 36 15 23 16 22 17 24 18 33 19 25 20 31 21 29 22
REMARK SMILES IDX 38 23 34 25 35 26 26 27 27 28 28 29 32 30 30 32 18 34 6 36
REMARK SMILES IDX 7 37 8 38 14 39 15 40 10 41 12 43
REMARK H PARENT 38 24 32 31 30 33 18 35 10 42 12 44
REMARK Flexibility Score: inf
ROOT
ATOM      1  C   UNL     1      36.592  38.882  81.542  1.00  0.00     0.045 C 
ATOM      2  C   UNL     1      36.864  39.689  82.787  1.00  0.00    -0.039 A 
ATOM      3  C   UNL     1      37.471  39.074  83.885  1.00  0.00     0.013 A 
ATOM      4  C   UNL     1      37.727  39.776  85.083  1.00  0.00    -0.006 A 
ATOM      5  C   UNL     1      37.491  41.179  85.115  1.00  0.00     0.039 A 
ATOM      6  C   UNL     1      37.969  41.934  86.225  1.00  0.00     0.072 A 
ATOM      7  C   UNL     1      38.615  41.287  87.295  1.00  0.00     0.169 A 
ATOM      8  C   UNL     1      38.754  39.884  87.301  1.00  0.00     0.162 A 
ATOM      9  C   UNL     1      38.235  39.108  86.238  1.00  0.00     0.008 A 
ATOM     10  C   UNL     1      36.759  41.775  84.045  1.00  0.00     0.132 A 
ATOM     11  C   UNL     1      36.467  41.033  82.881  1.00  0.00     0.031 A 
ENDROOT
BRANCH  11  12
ATOM     12  C   UNL     1      35.732  41.667  81.758  1.00  0.00     0.031 A 
ATOM     13  C   UNL     1      34.341  41.827  81.852  1.00  0.00     0.132 A 
ATOM     14  C   UNL     1      36.412  42.096  80.606  1.00  0.00    -0.039 A 
ATOM     15  C   UNL     1      33.633  42.526  80.837  1.00  0.00     0.039 A 
ATOM     16  C   UNL     1      35.677  42.583  79.519  1.00  0.00     0.013 A 
ATOM     17  C   UNL     1      37.913  41.995  80.508  1.00  0.00     0.045 C 
ATOM     18  C   UNL     1      34.273  42.736  79.586  1.00  0.00    -0.006 A 
ATOM     19  C   UNL     1      32.322  43.038  81.031  1.00  0.00     0.072 A 
ATOM     20  C   UNL     1      33.501  43.126  78.450  1.00  0.00     0.008 A 
ATOM     21  C   UNL     1      31.591  43.533  79.936  1.00  0.00     0.169 A 
ATOM     22  C   UNL     1      32.169  43.563  78.648  1.00  0.00     0.162 A 
BRANCH  13  23
ATOM     23  O   UNL     1      33.689  41.218  82.931  1.00  0.00    -0.507 OA
ATOM     24  H   UNL     1      32.857  41.605  83.356  1.00  0.00     0.293 HD
ENDBRANCH  13  23
BRANCH  19  25
ATOM     25  C   UNL     1      31.752  43.275  82.380  1.00  0.00     0.264 C 
ATOM     26  O   UNL     1      30.764  42.613  82.792  1.00  0.00    -0.298 OA
ENDBRANCH  19  25
BRANCH  20  27
ATOM     27  C   UNL     1      34.092  43.071  77.029  1.00  0.00     0.017 C 
ATOM     28  C   UNL     1      34.578  41.658  76.693  1.00  0.00     0.012 C 
ATOM     29  C   UNL     1      35.190  44.121  76.774  1.00  0.00     0.012 C 
ENDBRANCH  20  27
BRANCH  21  30
ATOM     30  O   UNL     1      30.297  44.017  80.175  1.00  0.00    -0.504 OA
ATOM     31  H   UNL     1      29.583  43.537  80.698  1.00  0.00     0.293 HD
ENDBRANCH  21  30
BRANCH  22  32
ATOM     32  O   UNL     1      31.455  44.054  77.551  1.00  0.00    -0.504 OA
ATOM     33  H   UNL     1      31.845  44.594  76.794  1.00  0.00     0.293 HD
ENDBRANCH  22  32
ENDBRANCH  11  12
BRANCH  10  34
ATOM     34  O   UNL     1      36.290  43.089  84.157  1.00  0.00    -0.507 OA
ATOM     35  H   UNL     1      35.939  43.493  85.016  1.00  0.00     0.293 HD
ENDBRANCH  10  34
BRANCH   9  36
ATOM     36  C   UNL     1      38.225  37.571  86.347  1.00  0.00     0.017 C 
ATOM     37  C   UNL     1      36.817  37.013  86.124  1.00  0.00     0.012 C 
ATOM     38  C   UNL     1      39.257  36.879  85.435  1.00  0.00     0.012 C 
ENDBRANCH   9  36
BRANCH   6  39
ATOM     39  C   UNL     1      37.935  43.417  86.241  1.00  0.00     0.264 C 
ATOM     40  O   UNL     1      37.094  44.036  86.943  1.00  0.00    -0.298 OA
ENDBRANCH   6  39
BRANCH   8  41
ATOM     41  O   UNL     1      39.428  39.230  88.336  1.00  0.00    -0.504 OA
ATOM     42  H   UNL     1      39.449  39.526  89.300  1.00  0.00     0.293 HD
ENDBRANCH   8  41
BRANCH   7  43
ATOM     43  O   UNL     1      39.123  42.081  88.332  1.00  0.00    -0.504 OA
ATOM     44  H   UNL     1      38.782  42.089  89.282  1.00  0.00     0.293 HD
ENDBRANCH   7  43
TORSDOF 11
ENDMDL
MODEL 4
REMARK VINA RESULT:    -7.416      1.184      8.987
REMARK INTER + INTRA:         -11.875
REMARK INTER:                 -10.790
REMARK INTRA:                  -1.085
REMARK UNBOUND:                -0.991
REMARK SMILES Cc1cc2c(C(C)C)c(O)c(O)c(C=O)c2c(O)c1-c1c(C)cc2c(C(C)C)c(O)c(O)c(C=O)c2c1O
REMARK SMILES IDX 1 1 2 2 3 3 4 4 16 5 13 6 11 7 9 8 5 9 17 10 19 11 20 12
REMARK SMILES IDX 37 13 21 14 36 15 23 16 22 17 24 18 33 19 25 20 31 21 29 22
REMARK SMILES IDX 38 23 34 25 35 26 26 27 27 28 28 29 32 30 30 32 18 34 6 36
REMARK SMILES IDX 7 37 8 38 14 39 15 40 10 41 12 43
REMARK H PARENT 38 24 32 31 30 33 18 35 10 42 12 44
REMARK Flexibility Score: inf
ROOT
ATOM      1  C   UNL     1      23.762  39.168  77.798  1.00  0.00     0.045 C 
ATOM      2  C   UNL     1      23.649  40.030  76.564  1.00  0.00    -0.039 A 
ATOM      3  C   UNL     1      22.670  39.739  75.612  1.00  0.00     0.013 A 
ATOM      4  C   UNL     1      22.535  40.497  74.427  1.00  0.00    -0.006 A 
ATOM      5  C   UNL     1      23.326  41.671  74.276  1.00  0.00     0.039 A 
ATOM      6  C   UNL     1      23.030  42.570  73.211  1.00  0.00     0.072 A 
ATOM      7  C   UNL     1      22.007  42.266  72.294  1.00  0.00     0.169 A 
ATOM      8  C   UNL     1      21.296  41.052  72.392  1.00  0.00     0.162 A 
ATOM      9  C   UNL     1      21.613  40.117  73.406  1.00  0.00     0.008 A 
ATOM     10  C   UNL     1      24.404  41.892  75.184  1.00  0.00     0.132 A 
ATOM     11  C   UNL     1      24.549  41.083  76.331  1.00  0.00     0.031 A 
ENDROOT
BRANCH  11  12
ATOM     12  C   UNL     1      25.655  41.337  77.288  1.00  0.00     0.031 A 
ATOM     13  C   UNL     1      25.390  42.049  78.468  1.00  0.00     0.132 A 
ATOM     14  C   UNL     1      26.956  40.882  77.018  1.00  0.00    -0.039 A 
ATOM     15  C   UNL     1      26.408  42.212  79.447  1.00  0.00     0.039 A 
ATOM     16  C   UNL     1      27.997  41.237  77.884  1.00  0.00     0.013 A 
ATOM     17  C   UNL     1      27.252  40.060  75.791  1.00  0.00     0.045 C 
ATOM     18  C   UNL     1      27.756  41.970  79.069  1.00  0.00    -0.006 A 
ATOM     19  C   UNL     1      26.129  42.586  80.788  1.00  0.00     0.072 A 
ATOM     20  C   UNL     1      28.820  42.432  79.900  1.00  0.00     0.008 A 
ATOM     21  C   UNL     1      27.180  42.935  81.655  1.00  0.00     0.169 A 
ATOM     22  C   UNL     1      28.519  42.875  81.211  1.00  0.00     0.162 A 
BRANCH  13  23
ATOM     23  O   UNL     1      24.128  42.640  78.601  1.00  0.00    -0.507 OA
ATOM     24  H   UNL     1      23.687  43.161  77.854  1.00  0.00     0.293 HD
ENDBRANCH  13  23
BRANCH  19  25
ATOM     25  C   UNL     1      24.784  42.426  81.396  1.00  0.00     0.264 C 
ATOM     26  O   UNL     1      24.026  43.417  81.562  1.00  0.00    -0.298 OA
ENDBRANCH  19  25
BRANCH  20  27
ATOM     27  C   UNL     1      30.274  42.461  79.391  1.00  0.00     0.017 C 
ATOM     28  C   UNL     1      30.372  43.210  78.058  1.00  0.00     0.012 C 
ATOM     29  C   UNL     1      30.927  41.068  79.306  1.00  0.00     0.012 C 
ENDBRANCH  20  27
BRANCH  21  30
ATOM     30  O   UNL     1      26.854  43.308  82.966  1.00  0.00    -0.504 OA
ATOM     31  H   UNL     1      26.049  42.988  83.480  1.00  0.00     0.293 HD
ENDBRANCH  21  30
BRANCH  22  32
ATOM     32  O   UNL     1      29.575  43.217  82.062  1.00  0.00    -0.504 OA
ATOM     33  H   UNL     1      29.510  43.318  83.062  1.00  0.00     0.293 HD
ENDBRANCH  22  32
ENDBRANCH  11  12
BRANCH  10  34
ATOM     34  O   UNL     1      25.352  42.889  74.924  1.00  0.00    -0.507 OA
ATOM     35  H   UNL     1      25.146  43.750  74.434  1.00  0.00     0.293 HD
ENDBRANCH  10  34
BRANCH   9  36
ATOM     36  C   UNL     1      20.964  38.720  73.389  1.00  0.00     0.017 C 
ATOM     37  C   UNL     1      21.916  37.679  72.793  1.00  0.00     0.012 C 
ATOM     38  C   UNL     1      20.424  38.271  74.760  1.00  0.00     0.012 C 
ENDBRANCH   9  36
BRANCH   6  39
ATOM     39  C   UNL     1      23.675  43.901  73.103  1.00  0.00     0.264 C 
ATOM     40  O   UNL     1      24.550  44.125  72.227  1.00  0.00    -0.298 OA
ENDBRANCH   6  39
BRANCH   8  41
ATOM     41  O   UNL     1      20.251  40.753  71.514  1.00  0.00    -0.504 OA
ATOM     42  H   UNL     1      19.268  40.833  71.725  1.00  0.00     0.293 HD
ENDBRANCH   8  41
BRANCH   7  43
ATOM     43  O   UNL     1      21.711  43.211  71.302  1.00  0.00    -0.504 OA
ATOM     44  H   UNL     1      20.785  43.443  70.973  1.00  0.00     0.293 HD
ENDBRANCH   7  43
TORSDOF 11
ENDMDL
MODEL 5
REMARK VINA RESULT:    -6.915      7.647     12.395
REMARK INTER + INTRA:         -11.139
REMARK INTER:                 -10.120
REMARK INTRA:                  -1.019
REMARK UNBOUND:                -0.991
REMARK SMILES Cc1cc2c(C(C)C)c(O)c(O)c(C=O)c2c(O)c1-c1c(C)cc2c(C(C)C)c(O)c(O)c(C=O)c2c1O
REMARK SMILES IDX 1 1 2 2 3 3 4 4 16 5 13 6 11 7 9 8 5 9 17 10 19 11 20 12
REMARK SMILES IDX 37 13 21 14 36 15 23 16 22 17 24 18 33 19 25 20 31 21 29 22
REMARK SMILES IDX 38 23 34 25 35 26 26 27 27 28 28 29 32 30 30 32 18 34 6 36
REMARK SMILES IDX 7 37 8 38 14 39 15 40 10 41 12 43
REMARK H PARENT 38 24 32 31 30 33 18 35 10 42 12 44
REMARK Flexibility Score: inf
ROOT
ATOM      1  C   UNL     1      36.816  38.518  81.991  1.00  0.00     0.045 C 
ATOM      2  C   UNL     1      36.959  39.486  83.140  1.00  0.00    -0.039 A 
ATOM      3  C   UNL     1      37.817  39.173  84.197  1.00  0.00     0.013 A 
ATOM      4  C   UNL     1      37.971  40.030  85.309  1.00  0.00    -0.006 A 
ATOM      5  C   UNL     1      37.345  41.308  85.276  1.00  0.00     0.039 A 
ATOM      6  C   UNL     1      37.687  42.270  86.270  1.00  0.00     0.072 A 
ATOM      7  C   UNL     1      38.589  41.934  87.297  1.00  0.00     0.169 A 
ATOM      8  C   UNL     1      39.127  40.634  87.379  1.00  0.00     0.162 A 
ATOM      9  C   UNL     1      38.756  39.645  86.437  1.00  0.00     0.008 A 
ATOM     10  C   UNL     1      36.376  41.571  84.262  1.00  0.00     0.132 A 
ATOM     11  C   UNL     1      36.202  40.668  83.191  1.00  0.00     0.031 A 
ENDROOT
BRANCH  11  12
ATOM     12  C   UNL     1      35.215  40.961  82.122  1.00  0.00     0.031 A 
ATOM     13  C   UNL     1      35.664  41.477  80.897  1.00  0.00     0.132 A 
ATOM     14  C   UNL     1      33.844  40.736  82.330  1.00  0.00    -0.039 A 
ATOM     15  C   UNL     1      34.750  41.665  79.824  1.00  0.00     0.039 A 
ATOM     16  C   UNL     1      32.929  41.129  81.347  1.00  0.00     0.013 A 
ATOM     17  C   UNL     1      33.344  40.121  83.612  1.00  0.00     0.045 C 
ATOM     18  C   UNL     1      33.359  41.669  80.112  1.00  0.00    -0.006 A 
ATOM     19  C   UNL     1      35.172  41.828  78.478  1.00  0.00     0.072 A 
ATOM     20  C   UNL     1      32.436  42.176  79.148  1.00  0.00     0.008 A 
ATOM     21  C   UNL     1      34.247  42.217  77.493  1.00  0.00     0.169 A 
ATOM     22  C   UNL     1      32.888  42.407  77.826  1.00  0.00     0.162 A 
BRANCH  13  23
ATOM     23  O   UNL     1      37.008  41.859  80.806  1.00  0.00    -0.507 OA
ATOM     24  H   UNL     1      37.757  41.327  81.230  1.00  0.00     0.293 HD
ENDBRANCH  13  23
BRANCH  19  25
ATOM     25  C   UNL     1      36.513  41.402  78.007  1.00  0.00     0.264 C 
ATOM     26  O   UNL     1      37.448  42.235  77.872  1.00  0.00    -0.298 OA
ENDBRANCH  19  25
BRANCH  20  27
ATOM     27  C   UNL     1      30.973  42.477  79.527  1.00  0.00     0.017 C 
ATOM     28  C   UNL     1      30.903  43.354  80.782  1.00  0.00     0.012 C 
ATOM     29  C   UNL     1      30.099  41.217  79.669  1.00  0.00     0.012 C 
ENDBRANCH  20  27
BRANCH  21  30
ATOM     30  O   UNL     1      34.712  42.377  76.180  1.00  0.00    -0.504 OA
ATOM     31  H   UNL     1      35.320  41.736  75.696  1.00  0.00     0.293 HD
ENDBRANCH  21  30
BRANCH  22  32
ATOM     32  O   UNL     1      31.956  42.792  76.857  1.00  0.00    -0.504 OA
ATOM     33  H   UNL     1      32.044  43.589  76.247  1.00  0.00     0.293 HD
ENDBRANCH  22  32
ENDBRANCH  11  12
BRANCH  10  34
ATOM     34  O   UNL     1      35.561  42.706  84.341  1.00  0.00    -0.507 OA
ATOM     35  H   UNL     1      35.665  43.517  83.745  1.00  0.00     0.293 HD
ENDBRANCH  10  34
BRANCH   9  36
ATOM     36  C   UNL     1      39.199  38.184  86.647  1.00  0.00     0.017 C 
ATOM     37  C   UNL     1      38.067  37.347  87.252  1.00  0.00     0.012 C 
ATOM     38  C   UNL     1      39.773  37.524  85.379  1.00  0.00     0.012 C 
ENDBRANCH   9  36
BRANCH   6  39
ATOM     39  C   UNL     1      37.230  43.678  86.192  1.00  0.00     0.264 C 
ATOM     40  O   UNL     1      36.332  44.109  86.962  1.00  0.00    -0.298 OA
ENDBRANCH   6  39
BRANCH   8  41
ATOM     41  O   UNL     1      40.054  40.296  88.369  1.00  0.00    -0.504 OA
ATOM     42  H   UNL     1      39.931  39.579  89.067  1.00  0.00     0.293 HD
ENDBRANCH   8  41
BRANCH   7  43
ATOM     43  O   UNL     1      38.942  42.934  88.213  1.00  0.00    -0.504 OA
ATOM     44  H   UNL     1      39.765  43.517  88.154  1.00  0.00     0.293 HD
ENDBRANCH   7  43
TORSDOF 11
ENDMDL
MODEL 6
REMARK VINA RESULT:    -6.473     15.543     18.177
REMARK INTER + INTRA:         -10.491
REMARK INTER:                  -9.724
REMARK INTRA:                  -0.767
REMARK UNBOUND:                -0.991
REMARK SMILES Cc1cc2c(C(C)C)c(O)c(O)c(C=O)c2c(O)c1-c1c(C)cc2c(C(C)C)c(O)c(O)c(C=O)c2c1O
REMARK SMILES IDX 1 1 2 2 3 3 4 4 16 5 13 6 11 7 9 8 5 9 17 10 19 11 20 12
REMARK SMILES IDX 37 13 21 14 36 15 23 16 22 17 24 18 33 19 25 20 31 21 29 22
REMARK SMILES IDX 38 23 34 25 35 26 26 27 27 28 28 29 32 30 30 32 18 34 6 36
REMARK SMILES IDX 7 37 8 38 14 39 15 40 10 41 12 43
REMARK H PARENT 38 24 32 31 30 33 18 35 10 42 12 44
REMARK Flexibility Score: inf
ROOT
ATOM      1  C   UNL     1      33.339  26.242  81.829  1.00  0.00     0.045 C 
ATOM      2  C   UNL     1      33.753  26.037  80.393  1.00  0.00    -0.039 A 
ATOM      3  C   UNL     1      35.090  25.765  80.097  1.00  0.00     0.013 A 
ATOM      4  C   UNL     1      35.537  25.588  78.769  1.00  0.00    -0.006 A 
ATOM      5  C   UNL     1      34.571  25.544  77.724  1.00  0.00     0.039 A 
ATOM      6  C   UNL     1      34.978  25.127  76.424  1.00  0.00     0.072 A 
ATOM      7  C   UNL     1      36.327  24.819  76.171  1.00  0.00     0.169 A 
ATOM      8  C   UNL     1      37.295  24.963  77.186  1.00  0.00     0.162 A 
ATOM      9  C   UNL     1      36.924  25.432  78.468  1.00  0.00     0.008 A 
ATOM     10  C   UNL     1      33.232  25.945  78.013  1.00  0.00     0.132 A 
ATOM     11  C   UNL     1      32.826  26.170  79.345  1.00  0.00     0.031 A 
ENDROOT
BRANCH  11  12
ATOM     12  C   UNL     1      31.424  26.557  79.643  1.00  0.00     0.031 A 
ATOM     13  C   UNL     1      30.523  25.578  80.089  1.00  0.00     0.132 A 
ATOM     14  C   UNL     1      30.994  27.884  79.472  1.00  0.00    -0.039 A 
ATOM     15  C   UNL     1      29.207  25.946  80.480  1.00  0.00     0.039 A 
ATOM     16  C   UNL     1      29.640  28.191  79.650  1.00  0.00     0.013 A 
ATOM     17  C   UNL     1      31.958  28.965  79.057  1.00  0.00     0.045 C 
ATOM     18  C   UNL     1      28.711  27.216  80.082  1.00  0.00    -0.006 A 
ATOM     19  C   UNL     1      28.378  25.103  81.268  1.00  0.00     0.072 A 
ATOM     20  C   UNL     1      27.313  27.490  80.160  1.00  0.00     0.008 A 
ATOM     21  C   UNL     1      27.020  25.422  81.449  1.00  0.00     0.169 A 
ATOM     22  C   UNL     1      26.483  26.600  80.886  1.00  0.00     0.162 A 
BRANCH  13  23
ATOM     23  O   UNL     1      30.948  24.244  80.063  1.00  0.00    -0.507 OA
ATOM     24  H   UNL     1      30.410  23.508  79.626  1.00  0.00     0.293 HD
ENDBRANCH  13  23
BRANCH  19  25
ATOM     25  C   UNL     1      28.924  23.999  82.096  1.00  0.00     0.264 C 
ATOM     26  O   UNL     1      28.622  23.891  83.313  1.00  0.00    -0.298 OA
ENDBRANCH  19  25
BRANCH  20  27
ATOM     27  C   UNL     1      26.701  28.722  79.467  1.00  0.00     0.017 C 
ATOM     28  C   UNL     1      25.887  29.559  80.460  1.00  0.00     0.012 C 
ATOM     29  C   UNL     1      25.881  28.382  78.209  1.00  0.00     0.012 C 
ENDBRANCH  20  27
BRANCH  21  30
ATOM     30  O   UNL     1      26.239  24.554  82.225  1.00  0.00    -0.504 OA
ATOM     31  H   UNL     1      25.250  24.402  82.112  1.00  0.00     0.293 HD
ENDBRANCH  21  30
BRANCH  22  32
ATOM     32  O   UNL     1      25.136  26.931  81.058  1.00  0.00    -0.504 OA
ATOM     33  H   UNL     1      24.698  27.158  81.937  1.00  0.00     0.293 HD
ENDBRANCH  22  32
ENDBRANCH  11  12
BRANCH  10  34
ATOM     34  O   UNL     1      32.319  26.156  76.973  1.00  0.00    -0.507 OA
ATOM     35  H   UNL     1      31.856  27.039  76.799  1.00  0.00     0.293 HD
ENDBRANCH  10  34
BRANCH   9  36
ATOM     36  C   UNL     1      38.013  25.764  79.506  1.00  0.00     0.017 C 
ATOM     37  C   UNL     1      38.429  24.514  80.287  1.00  0.00     0.012 C 
ATOM     38  C   UNL     1      39.235  26.490  78.911  1.00  0.00     0.012 C 
ENDBRANCH   9  36
BRANCH   6  39
ATOM     39  C   UNL     1      34.000  24.869  75.339  1.00  0.00     0.264 C 
ATOM     40  O   UNL     1      33.761  25.742  74.464  1.00  0.00    -0.298 OA
ENDBRANCH   6  39
BRANCH   8  41
ATOM     41  O   UNL     1      38.632  24.623  76.963  1.00  0.00    -0.504 OA
ATOM     42  H   UNL     1      39.147  23.913  77.461  1.00  0.00     0.293 HD
ENDBRANCH   8  41
BRANCH   7  43
ATOM     43  O   UNL     1      36.666  24.352  74.894  1.00  0.00    -0.504 OA
ATOM     44  H   UNL     1      36.013  24.171  74.146  1.00  0.00     0.293 HD
ENDBRANCH   7  43
TORSDOF 11
ENDMDL
MODEL 7
REMARK VINA RESULT:    -6.311      1.636      8.908
REMARK INTER + INTRA:         -10.254
REMARK INTER:                  -9.536
REMARK INTRA:                  -0.718
REMARK UNBOUND:                -0.991
REMARK SMILES Cc1cc2c(C(C)C)c(O)c(O)c(C=O)c2c(O)c1-c1c(C)cc2c(C(C)C)c(O)c(O)c(C=O)c2c1O
REMARK SMILES IDX 1 1 2 2 3 3 4 4 16 5 13 6 11 7 9 8 5 9 17 10 19 11 20 12
REMARK SMILES IDX 37 13 21 14 36 15 23 16 22 17 24 18 33 19 25 20 31 21 29 22
REMARK SMILES IDX 38 23 34 25 35 26 26 27 27 28 28 29 32 30 30 32 18 34 6 36
REMARK SMILES IDX 7 37 8 38 14 39 15 40 10 41 12 43
REMARK H PARENT 38 24 32 31 30 33 18 35 10 42 12 44
REMARK Flexibility Score: inf
ROOT
ATOM      1  C   UNL     1      25.474  44.125  75.025  1.00  0.00     0.045 C 
ATOM      2  C   UNL     1      24.727  42.857  74.692  1.00  0.00    -0.039 A 
ATOM      3  C   UNL     1      23.772  42.871  73.673  1.00  0.00     0.013 A 
ATOM      4  C   UNL     1      23.026  41.720  73.336  1.00  0.00    -0.006 A 
ATOM      5  C   UNL     1      23.365  40.483  73.955  1.00  0.00     0.039 A 
ATOM      6  C   UNL     1      22.792  39.280  73.451  1.00  0.00     0.072 A 
ATOM      7  C   UNL     1      21.864  39.327  72.394  1.00  0.00     0.169 A 
ATOM      8  C   UNL     1      21.458  40.565  71.855  1.00  0.00     0.162 A 
ATOM      9  C   UNL     1      21.969  41.776  72.378  1.00  0.00     0.008 A 
ATOM     10  C   UNL     1      24.247  40.497  75.076  1.00  0.00     0.132 A 
ATOM     11  C   UNL     1      24.937  41.678  75.426  1.00  0.00     0.031 A 
ENDROOT
BRANCH  11  12
ATOM     12  C   UNL     1      25.877  41.679  76.575  1.00  0.00     0.031 A 
ATOM     13  C   UNL     1      25.382  41.921  77.865  1.00  0.00     0.132 A 
ATOM     14  C   UNL     1      27.250  41.452  76.380  1.00  0.00    -0.039 A 
ATOM     15  C   UNL     1      26.245  41.822  78.991  1.00  0.00     0.039 A 
ATOM     16  C   UNL     1      28.124  41.574  77.466  1.00  0.00     0.013 A 
ATOM     17  C   UNL     1      27.795  41.126  75.013  1.00  0.00     0.045 C 
ATOM     18  C   UNL     1      27.648  41.835  78.771  1.00  0.00    -0.006 A 
ATOM     19  C   UNL     1      25.760  41.691  80.320  1.00  0.00     0.072 A 
ATOM     20  C   UNL     1      28.536  42.072  79.864  1.00  0.00     0.008 A 
ATOM     21  C   UNL     1      26.645  41.808  81.406  1.00  0.00     0.169 A 
ATOM     22  C   UNL     1      28.024  42.013  81.184  1.00  0.00     0.162 A 
BRANCH  13  23
ATOM     23  O   UNL     1      24.046  42.325  77.984  1.00  0.00    -0.507 OA
ATOM     24  H   UNL     1      23.579  42.881  77.280  1.00  0.00     0.293 HD
ENDBRANCH  13  23
BRANCH  19  25
ATOM     25  C   UNL     1      24.384  41.223  80.622  1.00  0.00     0.264 C 
ATOM     26  O   UNL     1      24.008  40.065  80.302  1.00  0.00    -0.298 OA
ENDBRANCH  19  25
BRANCH  20  27
ATOM     27  C   UNL     1      30.024  42.391  79.628  1.00  0.00     0.017 C 
ATOM     28  C   UNL     1      30.869  41.113  79.660  1.00  0.00     0.012 C 
ATOM     29  C   UNL     1      30.586  43.464  80.580  1.00  0.00     0.012 C 
ENDBRANCH  20  27
BRANCH  21  30
ATOM     30  O   UNL     1      26.118  41.683  82.699  1.00  0.00    -0.504 OA
ATOM     31  H   UNL     1      25.597  40.892  83.042  1.00  0.00     0.293 HD
ENDBRANCH  21  30
BRANCH  22  32
ATOM     32  O   UNL     1      28.916  42.129  82.254  1.00  0.00    -0.504 OA
ATOM     33  H   UNL     1      28.826  41.662  83.142  1.00  0.00     0.293 HD
ENDBRANCH  22  32
ENDBRANCH  11  12
BRANCH  10  34
ATOM     34  O   UNL     1      24.407  39.351  75.863  1.00  0.00    -0.507 OA
ATOM     35  H   UNL     1      24.087  38.430  75.591  1.00  0.00     0.293 HD
ENDBRANCH  10  34
BRANCH   9  36
ATOM     36  C   UNL     1      21.379  43.120  71.912  1.00  0.00     0.017 C 
ATOM     37  C   UNL     1      20.744  43.879  73.082  1.00  0.00     0.012 C 
ATOM     38  C   UNL     1      22.381  44.004  71.145  1.00  0.00     0.012 C 
ENDBRANCH   9  36
BRANCH   6  39
ATOM     39  C   UNL     1      23.240  37.943  73.911  1.00  0.00     0.264 C 
ATOM     40  O   UNL     1      23.614  37.068  73.086  1.00  0.00    -0.298 OA
ENDBRANCH   6  39
BRANCH   8  41
ATOM     41  O   UNL     1      20.568  40.627  70.779  1.00  0.00    -0.504 OA
ATOM     42  H   UNL     1      20.466  41.407  70.148  1.00  0.00     0.293 HD
ENDBRANCH   8  41
BRANCH   7  43
ATOM     43  O   UNL     1      21.378  38.112  71.892  1.00  0.00    -0.504 OA
ATOM     44  H   UNL     1      21.341  37.242  72.402  1.00  0.00     0.293 HD
ENDBRANCH   7  43
TORSDOF 11
ENDMDL
MODEL 8
REMARK VINA RESULT:    -6.298      3.574     10.271
REMARK INTER + INTRA:         -10.233
REMARK INTER:                  -9.280
REMARK INTRA:                  -0.954
REMARK UNBOUND:                -0.991
REMARK SMILES Cc1cc2c(C(C)C)c(O)c(O)c(C=O)c2c(O)c1-c1c(C)cc2c(C(C)C)c(O)c(O)c(C=O)c2c1O
REMARK SMILES IDX 1 1 2 2 3 3 4 4 16 5 13 6 11 7 9 8 5 9 17 10 19 11 20 12
REMARK SMILES IDX 37 13 21 14 36 15 23 16 22 17 24 18 33 19 25 20 31 21 29 22
REMARK SMILES IDX 38 23 34 25 35 26 26 27 27 28 28 29 32 30 30 32 18 34 6 36
REMARK SMILES IDX 7 37 8 38 14 39 15 40 10 41 12 43
REMARK H PARENT 38 24 32 31 30 33 18 35 10 42 12 44
REMARK Flexibility Score: inf
ROOT
ATOM      1  C   UNL     1      31.105  43.000  77.151  1.00  0.00     0.045 C 
ATOM      2  C   UNL     1      29.793  42.409  77.603  1.00  0.00    -0.039 A 
ATOM      3  C   UNL     1      28.711  42.385  76.719  1.00  0.00     0.013 A 
ATOM      4  C   UNL     1      27.453  41.866  77.096  1.00  0.00    -0.006 A 
ATOM      5  C   UNL     1      27.333  41.221  78.359  1.00  0.00     0.039 A 
ATOM      6  C   UNL     1      26.147  40.486  78.649  1.00  0.00     0.072 A 
ATOM      7  C   UNL     1      25.094  40.448  77.717  1.00  0.00     0.169 A 
ATOM      8  C   UNL     1      25.181  41.173  76.510  1.00  0.00     0.162 A 
ATOM      9  C   UNL     1      26.323  41.958  76.228  1.00  0.00     0.008 A 
ATOM     10  C   UNL     1      28.395  41.358  79.302  1.00  0.00     0.132 A 
ATOM     11  C   UNL     1      29.624  41.933  78.913  1.00  0.00     0.031 A 
ENDROOT
BRANCH  11  12
ATOM     12  C   UNL     1      30.736  42.045  79.890  1.00  0.00     0.031 A 
ATOM     13  C   UNL     1      31.780  41.107  79.850  1.00  0.00     0.132 A 
ATOM     14  C   UNL     1      30.747  43.068  80.852  1.00  0.00    -0.039 A 
ATOM     15  C   UNL     1      32.906  41.257  80.705  1.00  0.00     0.039 A 
ATOM     16  C   UNL     1      31.749  43.077  81.829  1.00  0.00     0.013 A 
ATOM     17  C   UNL     1      29.673  44.125  80.873  1.00  0.00     0.045 C 
ATOM     18  C   UNL     1      32.800  42.131  81.819  1.00  0.00    -0.006 A 
ATOM     19  C   UNL     1      34.136  40.583  80.476  1.00  0.00     0.072 A 
ATOM     20  C   UNL     1      33.762  42.061  82.871  1.00  0.00     0.008 A 
ATOM     21  C   UNL     1      35.141  40.602  81.459  1.00  0.00     0.169 A 
ATOM     22  C   UNL     1      34.953  41.323  82.659  1.00  0.00     0.162 A 
BRANCH  13  23
ATOM     23  O   UNL     1      31.629  40.003  79.002  1.00  0.00    -0.507 OA
ATOM     24  H   UNL     1      31.451  40.096  78.010  1.00  0.00     0.293 HD
ENDBRANCH  13  23
BRANCH  19  25
ATOM     25  C   UNL     1      34.504  40.027  79.150  1.00  0.00     0.264 C 
ATOM     26  O   UNL     1      35.437  40.532  78.472  1.00  0.00    -0.298 OA
ENDBRANCH  19  25
BRANCH  20  27
ATOM     27  C   UNL     1      33.522  42.766  84.219  1.00  0.00     0.017 C 
ATOM     28  C   UNL     1      34.230  44.125  84.259  1.00  0.00     0.012 C 
ATOM     29  C   UNL     1      33.887  41.904  85.442  1.00  0.00     0.012 C 
ENDBRANCH  20  27
BRANCH  21  30
ATOM     30  O   UNL     1      36.333  39.914  81.193  1.00  0.00    -0.504 OA
ATOM     31  H   UNL     1      36.831  39.927  80.318  1.00  0.00     0.293 HD
ENDBRANCH  21  30
BRANCH  22  32
ATOM     32  O   UNL     1      35.944  41.353  83.644  1.00  0.00    -0.504 OA
ATOM     33  H   UNL     1      36.447  42.173  83.942  1.00  0.00     0.293 HD
ENDBRANCH  22  32
ENDBRANCH  11  12
BRANCH  10  34
ATOM     34  O   UNL     1      28.215  40.959  80.632  1.00  0.00    -0.507 OA
ATOM     35  H   UNL     1      28.902  40.441  81.164  1.00  0.00     0.293 HD
ENDBRANCH  10  34
BRANCH   9  36
ATOM     36  C   UNL     1      26.326  42.891  75.002  1.00  0.00     0.017 C 
ATOM     37  C   UNL     1      26.422  42.089  73.700  1.00  0.00     0.012 C 
ATOM     38  C   UNL     1      25.143  43.877  74.971  1.00  0.00     0.012 C 
ENDBRANCH   9  36
BRANCH   6  39
ATOM     39  C   UNL     1      26.027  39.631  79.854  1.00  0.00     0.264 C 
ATOM     40  O   UNL     1      25.336  39.998  80.841  1.00  0.00    -0.298 OA
ENDBRANCH   6  39
BRANCH   8  41
ATOM     41  O   UNL     1      24.161  41.114  75.557  1.00  0.00    -0.504 OA
ATOM     42  H   UNL     1      24.291  41.143  74.557  1.00  0.00     0.293 HD
ENDBRANCH   8  41
BRANCH   7  43
ATOM     43  O   UNL     1      23.976  39.658  78.020  1.00  0.00    -0.504 OA
ATOM     44  H   UNL     1      23.964  38.892  78.676  1.00  0.00     0.293 HD
ENDBRANCH   7  43
TORSDOF 11
ENDMDL
MODEL 9
REMARK VINA RESULT:    -6.284      3.505      6.801
REMARK INTER + INTRA:         -10.213
REMARK INTER:                  -9.184
REMARK INTRA:                  -1.029
REMARK UNBOUND:                -0.991
REMARK SMILES Cc1cc2c(C(C)C)c(O)c(O)c(C=O)c2c(O)c1-c1c(C)cc2c(C(C)C)c(O)c(O)c(C=O)c2c1O
REMARK SMILES IDX 1 1 2 2 3 3 4 4 16 5 13 6 11 7 9 8 5 9 17 10 19 11 20 12
REMARK SMILES IDX 37 13 21 14 36 15 23 16 22 17 24 18 33 19 25 20 31 21 29 22
REMARK SMILES IDX 38 23 34 25 35 26 26 27 27 28 28 29 32 30 30 32 18 34 6 36
REMARK SMILES IDX 7 37 8 38 14 39 15 40 10 41 12 43
REMARK H PARENT 38 24 32 31 30 33 18 35 10 42 12 44
REMARK Flexibility Score: inf
ROOT
ATOM      1  C   UNL     1      28.934  43.021  81.865  1.00  0.00     0.045 C 
ATOM      2  C   UNL     1      30.253  42.487  81.363  1.00  0.00    -0.039 A 
ATOM      3  C   UNL     1      31.366  42.506  82.206  1.00  0.00     0.013 A 
ATOM      4  C   UNL     1      32.631  42.041  81.781  1.00  0.00    -0.006 A 
ATOM      5  C   UNL     1      32.731  41.406  80.511  1.00  0.00     0.039 A 
ATOM      6  C   UNL     1      33.934  40.721  80.176  1.00  0.00     0.072 A 
ATOM      7  C   UNL     1      35.022  40.725  81.069  1.00  0.00     0.169 A 
ATOM      8  C   UNL     1      34.949  41.442  82.280  1.00  0.00     0.162 A 
ATOM      9  C   UNL     1      33.786  42.178  82.608  1.00  0.00     0.008 A 
ATOM     10  C   UNL     1      31.630  41.501  79.609  1.00  0.00     0.132 A 
ATOM     11  C   UNL     1      30.394  42.023  80.045  1.00  0.00     0.031 A 
ENDROOT
BRANCH  11  12
ATOM     12  C   UNL     1      29.242  42.091  79.110  1.00  0.00     0.031 A 
ATOM     13  C   UNL     1      28.203  41.156  79.234  1.00  0.00     0.132 A 
ATOM     14  C   UNL     1      29.190  43.070  78.104  1.00  0.00    -0.039 A 
ATOM     15  C   UNL     1      27.042  41.267  78.420  1.00  0.00     0.039 A 
ATOM     16  C   UNL     1      28.150  43.035  77.169  1.00  0.00     0.013 A 
ATOM     17  C   UNL     1      30.261  44.124  77.993  1.00  0.00     0.045 C 
ATOM     18  C   UNL     1      27.102  42.090  77.264  1.00  0.00    -0.006 A 
ATOM     19  C   UNL     1      25.824  40.605  78.728  1.00  0.00     0.072 A 
ATOM     20  C   UNL     1      26.098  41.974  76.257  1.00  0.00     0.008 A 
ATOM     21  C   UNL     1      24.780  40.580  77.787  1.00  0.00     0.169 A 
ATOM     22  C   UNL     1      24.918  41.246  76.550  1.00  0.00     0.162 A 
BRANCH  13  23
ATOM     23  O   UNL     1      28.389  40.091  80.124  1.00  0.00    -0.507 OA
ATOM     24  H   UNL     1      27.631  39.497  80.433  1.00  0.00     0.293 HD
ENDBRANCH  13  23
BRANCH  19  25
ATOM     25  C   UNL     1      25.511  40.108  80.092  1.00  0.00     0.264 C 
ATOM     26  O   UNL     1      25.485  38.875  80.342  1.00  0.00    -0.298 OA
ENDBRANCH  19  25
BRANCH  20  27
ATOM     27  C   UNL     1      26.282  42.618  74.870  1.00  0.00     0.017 C 
ATOM     28  C   UNL     1      25.226  43.701  74.625  1.00  0.00     0.012 C 
ATOM     29  C   UNL     1      26.324  41.599  73.715  1.00  0.00     0.012 C 
ENDBRANCH  20  27
BRANCH  21  30
ATOM     30  O   UNL     1      23.600  39.904  78.132  1.00  0.00    -0.504 OA
ATOM     31  H   UNL     1      23.461  38.908  78.072  1.00  0.00     0.293 HD
ENDBRANCH  21  30
BRANCH  22  32
ATOM     32  O   UNL     1      23.888  41.231  75.605  1.00  0.00    -0.504 OA
ATOM     33  H   UNL     1      23.732  41.935  74.900  1.00  0.00     0.293 HD
ENDBRANCH  22  32
ENDBRANCH  11  12
BRANCH  10  34
ATOM     34  O   UNL     1      31.778  41.113  78.272  1.00  0.00    -0.507 OA
ATOM     35  H   UNL     1      32.595  40.640  77.908  1.00  0.00     0.293 HD
ENDBRANCH  10  34
BRANCH   9  36
ATOM     36  C   UNL     1      33.789  43.106  83.837  1.00  0.00     0.017 C 
ATOM     37  C   UNL     1      33.751  42.297  85.138  1.00  0.00     0.012 C 
ATOM     38  C   UNL     1      34.945  44.125  83.841  1.00  0.00     0.012 C 
ENDBRANCH   9  36
BRANCH   6  39
ATOM     39  C   UNL     1      34.046  39.875  78.963  1.00  0.00     0.264 C 
ATOM     40  O   UNL     1      34.728  40.252  77.973  1.00  0.00    -0.298 OA
ENDBRANCH   6  39
BRANCH   8  41
ATOM     41  O   UNL     1      36.006  41.422  83.196  1.00  0.00    -0.504 OA
ATOM     42  H   UNL     1      36.399  42.231  83.653  1.00  0.00     0.293 HD
ENDBRANCH   8  41
BRANCH   7  43
ATOM     43  O   UNL     1      36.160  39.983  80.721  1.00  0.00    -0.504 OA
ATOM     44  H   UNL     1      36.451  39.121  81.157  1.00  0.00     0.293 HD
ENDBRANCH   7  43
TORSDOF 11
ENDMDL
