MODEL 1
REMARK VINA RESULT:    25.899      0.000      0.000
REMARK INTER + INTRA:          29.377
REMARK INTER:                  29.684
REMARK INTRA:                  -0.307
REMARK UNBOUND:                -0.307
REMARK SMILES O=C1C[C@@H](c2ccc(O)cc2)Oc2cc(O)cc(O)c21
REMARK SMILES IDX 3 1 4 2 12 3 13 4 14 5 15 6 17 7 18 8 20 9 2 10 1 11 5 12
REMARK SMILES IDX 6 13 11 14 7 15 10 16 8 17 9 18 19 20 16 22
REMARK H PARENT 9 19 19 21 16 23
REMARK Flexibility Score: inf
ROOT
ATOM      1  C   UNL     1      18.138   2.593  14.185  1.00  0.00     0.131 C 
ATOM      2  C   UNL     1      17.950   3.686  13.125  1.00  0.00     0.211 C 
ATOM      3  O   UNL     1      16.566   3.819  12.800  1.00  0.00    -0.484 OA
ATOM      4  C   UNL     1      15.586   3.889  13.795  1.00  0.00     0.138 A 
ATOM      5  C   UNL     1      14.319   4.374  13.463  1.00  0.00     0.093 A 
ATOM      6  C   UNL     1      13.334   4.496  14.442  1.00  0.00     0.123 A 
ATOM      7  C   UNL     1      13.620   4.139  15.763  1.00  0.00     0.093 A 
ATOM      8  C   UNL     1      14.886   3.654  16.120  1.00  0.00     0.133 A 
ATOM      9  C   UNL     1      15.877   3.473  15.114  1.00  0.00     0.102 A 
ATOM     10  C   UNL     1      17.186   2.793  15.334  1.00  0.00     0.174 C 
ATOM     11  O   UNL     1      17.472   2.255  16.436  1.00  0.00    -0.294 OA
ENDROOT
BRANCH   2  12
ATOM     12  C   UNL     1      18.742   3.389  11.876  1.00  0.00    -0.007 A 
ATOM     13  C   UNL     1      18.419   4.024  10.663  1.00  0.00     0.011 A 
ATOM     14  C   UNL     1      19.808   2.472  11.906  1.00  0.00     0.011 A 
ATOM     15  C   UNL     1      19.142   3.739   9.502  1.00  0.00     0.046 A 
ATOM     16  C   UNL     1      20.531   2.189  10.744  1.00  0.00     0.046 A 
ATOM     17  C   UNL     1      20.201   2.820   9.539  1.00  0.00     0.115 A 
BRANCH  17  18
ATOM     18  O   UNL     1      20.930   2.529   8.388  1.00  0.00    -0.508 OA
ATOM     19  H   UNL     1      21.645   3.160   8.042  1.00  0.00     0.293 HD
ENDBRANCH  17  18
ENDBRANCH   2  12
BRANCH   8  20
ATOM     20  O   UNL     1      15.107   3.392  17.473  1.00  0.00    -0.507 OA
ATOM     21  H   UNL     1      15.995   3.511  17.937  1.00  0.00     0.293 HD
ENDBRANCH   8  20
BRANCH   6  22
ATOM     22  O   UNL     1      12.082   4.996  14.095  1.00  0.00    -0.508 OA
ATOM     23  H   UNL     1      11.569   5.617  14.712  1.00  0.00     0.293 HD
ENDBRANCH   6  22
TORSDOF 4
ENDMDL
MODEL 2
REMARK VINA RESULT:    27.470      5.376      8.002
REMARK INTER + INTRA:          31.178
REMARK INTER:                  31.486
REMARK INTRA:                  -0.308
REMARK UNBOUND:                -0.307
REMARK SMILES O=C1C[C@@H](c2ccc(O)cc2)Oc2cc(O)cc(O)c21
REMARK SMILES IDX 3 1 4 2 12 3 13 4 14 5 15 6 17 7 18 8 20 9 2 10 1 11 5 12
REMARK SMILES IDX 6 13 11 14 7 15 10 16 8 17 9 18 19 20 16 22
REMARK H PARENT 9 19 19 21 16 23
REMARK Flexibility Score: inf
ROOT
ATOM      1  C   UNL     1      14.745   8.979  15.554  1.00  0.00     0.131 C 
ATOM      2  C   UNL     1      16.068   8.598  16.233  1.00  0.00     0.211 C 
ATOM      3  O   UNL     1      15.873   7.468  17.083  1.00  0.00    -0.484 OA
ATOM      4  C   UNL     1      15.172   6.339  16.647  1.00  0.00     0.138 A 
ATOM      5  C   UNL     1      15.312   5.142  17.351  1.00  0.00     0.093 A 
ATOM      6  C   UNL     1      14.660   3.990  16.917  1.00  0.00     0.123 A 
ATOM      7  C   UNL     1      13.868   4.032  15.765  1.00  0.00     0.093 A 
ATOM      8  C   UNL     1      13.716   5.222  15.040  1.00  0.00     0.133 A 
ATOM      9  C   UNL     1      14.334   6.414  15.511  1.00  0.00     0.102 A 
ATOM     10  C   UNL     1      14.093   7.770  14.938  1.00  0.00     0.174 C 
ATOM     11  O   UNL     1      13.249   7.959  14.024  1.00  0.00    -0.294 OA
ENDROOT
BRANCH   2  12
ATOM     12  C   UNL     1      16.632   9.748  17.033  1.00  0.00    -0.007 A 
ATOM     13  C   UNL     1      17.552   9.506  18.069  1.00  0.00     0.011 A 
ATOM     14  C   UNL     1      16.242  11.070  16.756  1.00  0.00     0.011 A 
ATOM     15  C   UNL     1      18.063  10.568  18.820  1.00  0.00     0.046 A 
ATOM     16  C   UNL     1      16.757  12.131  17.507  1.00  0.00     0.046 A 
ATOM     17  C   UNL     1      17.667  11.884  18.541  1.00  0.00     0.115 A 
BRANCH  17  18
ATOM     18  O   UNL     1      18.172  12.951  19.282  1.00  0.00    -0.508 OA
ATOM     19  H   UNL     1      18.462  13.814  18.835  1.00  0.00     0.293 HD
ENDBRANCH  17  18
ENDBRANCH   2  12
BRANCH   8  20
ATOM     20  O   UNL     1      12.969   5.156  13.862  1.00  0.00    -0.507 OA
ATOM     21  H   UNL     1      12.934   4.349  13.257  1.00  0.00     0.293 HD
ENDBRANCH   8  20
BRANCH   6  22
ATOM     22  O   UNL     1      14.824   2.801  17.624  1.00  0.00    -0.508 OA
ATOM     23  H   UNL     1      15.328   2.014  17.229  1.00  0.00     0.293 HD
ENDBRANCH   6  22
TORSDOF 4
ENDMDL
MODEL 3
REMARK VINA RESULT:    27.902      3.454      5.350
REMARK INTER + INTRA:          31.673
REMARK INTER:                  31.951
REMARK INTRA:                  -0.279
REMARK UNBOUND:                -0.307
REMARK SMILES O=C1C[C@@H](c2ccc(O)cc2)Oc2cc(O)cc(O)c21
REMARK SMILES IDX 3 1 4 2 12 3 13 4 14 5 15 6 17 7 18 8 20 9 2 10 1 11 5 12
REMARK SMILES IDX 6 13 11 14 7 15 10 16 8 17 9 18 19 20 16 22
REMARK H PARENT 9 19 19 21 16 23
REMARK Flexibility Score: inf
ROOT
ATOM      1  C   UNL     1      14.351   3.872  14.245  1.00  0.00     0.131 C 
ATOM      2  C   UNL     1      15.053   4.006  15.603  1.00  0.00     0.211 C 
ATOM      3  O   UNL     1      15.566   5.329  15.759  1.00  0.00    -0.484 OA
ATOM      4  C   UNL     1      14.789   6.454  15.464  1.00  0.00     0.138 A 
ATOM      5  C   UNL     1      15.182   7.698  15.962  1.00  0.00     0.093 A 
ATOM      6  C   UNL     1      14.406   8.829  15.722  1.00  0.00     0.123 A 
ATOM      7  C   UNL     1      13.223   8.716  14.985  1.00  0.00     0.093 A 
ATOM      8  C   UNL     1      12.805   7.476  14.480  1.00  0.00     0.133 A 
ATOM      9  C   UNL     1      13.624   6.329  14.673  1.00  0.00     0.102 A 
ATOM     10  C   UNL     1      13.385   5.006  14.027  1.00  0.00     0.174 C 
ATOM     11  O   UNL     1      12.462   4.839  13.188  1.00  0.00    -0.294 OA
ENDROOT
BRANCH   2  12
ATOM     12  C   UNL     1      16.170   3.003  15.751  1.00  0.00    -0.007 A 
ATOM     13  C   UNL     1      17.187   2.925  14.782  1.00  0.00     0.011 A 
ATOM     14  C   UNL     1      16.208   2.133  16.855  1.00  0.00     0.011 A 
ATOM     15  C   UNL     1      18.215   1.987  14.910  1.00  0.00     0.046 A 
ATOM     16  C   UNL     1      17.238   1.196  16.983  1.00  0.00     0.046 A 
ATOM     17  C   UNL     1      18.243   1.119  16.011  1.00  0.00     0.115 A 
BRANCH  17  18
ATOM     18  O   UNL     1      19.263   0.181  16.151  1.00  0.00    -0.508 OA
ATOM     19  H   UNL     1      19.139  -0.782  15.857  1.00  0.00     0.293 HD
ENDBRANCH  17  18
ENDBRANCH   2  12
BRANCH   8  20
ATOM     20  O   UNL     1      11.575   7.442  13.821  1.00  0.00    -0.507 OA
ATOM     21  H   UNL     1      11.346   8.007  13.016  1.00  0.00     0.293 HD
ENDBRANCH   8  20
BRANCH   6  22
ATOM     22  O   UNL     1      14.806  10.058  16.239  1.00  0.00    -0.508 OA
ATOM     23  H   UNL     1      14.468  10.932  15.852  1.00  0.00     0.293 HD
ENDBRANCH   6  22
TORSDOF 4
ENDMDL
