MODEL 1
REMARK VINA RESULT:    -4.991      0.000      0.000
REMARK INTER + INTRA:         -14.033
REMARK INTER:                 -10.827
REMARK INTRA:                  -3.206
REMARK UNBOUND:                -3.206
REMARK SMILES CCCCCCCCCCCCCCCCCCCCCC(=O)[O-]
REMARK SMILES IDX 12 1 11 2 10 3 9 4 8 5 7 6 6 7 5 8 4 9 3 10 2 11 1 12 13 13
REMARK SMILES IDX 14 14 15 15 16 16 17 17 18 18 19 19 20 20 21 21 22 22 23 23
REMARK SMILES IDX 24 24
REMARK H PARENT
REMARK Flexibility Score: inf
ROOT
ATOM      1  C   UNL     1      13.794  15.381  67.826  1.00  0.00     0.000 C 
ENDROOT
BRANCH   1   2
ATOM      2  C   UNL     1      13.865  14.744  69.231  1.00  0.00     0.000 C 
BRANCH   2   3
ATOM      3  C   UNL     1      14.280  15.758  70.312  1.00  0.00     0.000 C 
BRANCH   3   4
ATOM      4  C   UNL     1      13.122  16.667  70.760  1.00  0.00    -0.000 C 
BRANCH   4   5
ATOM      5  C   UNL     1      12.427  16.236  72.063  1.00  0.00    -0.000 C 
BRANCH   5   6
ATOM      6  C   UNL     1      11.109  15.483  71.823  1.00  0.00    -0.000 C 
BRANCH   6   7
ATOM      7  C   UNL     1      11.253  13.998  72.177  1.00  0.00    -0.000 C 
BRANCH   7   8
ATOM      8  C   UNL     1      11.172  13.119  70.920  1.00  0.00    -0.000 C 
BRANCH   8   9
ATOM      9  C   UNL     1      10.488  13.833  69.739  1.00  0.00    -0.000 C 
BRANCH   9  10
ATOM     10  C   UNL     1       9.553  12.943  68.893  1.00  0.00    -0.000 C 
BRANCH  10  11
ATOM     11  C   UNL     1      10.187  11.635  68.386  1.00  0.00    -0.003 C 
ATOM     12  C   UNL     1       9.227  10.447  68.441  1.00  0.00     0.004 C 
ENDBRANCH  10  11
ENDBRANCH   9  10
ENDBRANCH   8   9
ENDBRANCH   7   8
ENDBRANCH   6   7
ENDBRANCH   5   6
ENDBRANCH   4   5
ENDBRANCH   3   4
ENDBRANCH   2   3
ENDBRANCH   1   2
BRANCH   1  13
ATOM     13  C   UNL     1      12.375  15.407  67.222  1.00  0.00     0.000 C 
BRANCH  13  14
ATOM     14  C   UNL     1      11.660  16.766  67.303  1.00  0.00     0.000 C 
BRANCH  14  15
ATOM     15  C   UNL     1      10.137  16.631  67.448  1.00  0.00     0.000 C 
BRANCH  15  16
ATOM     16  C   UNL     1       9.694  16.965  68.881  1.00  0.00     0.000 C 
BRANCH  16  17
ATOM     17  C   UNL     1      10.290  18.286  69.396  1.00  0.00     0.000 C 
BRANCH  17  18
ATOM     18  C   UNL     1       9.669  18.811  70.704  1.00  0.00     0.000 C 
BRANCH  18  19
ATOM     19  C   UNL     1       8.712  17.808  71.385  1.00  0.00     0.000 C 
BRANCH  19  20
ATOM     20  C   UNL     1       8.279  18.271  72.787  1.00  0.00     0.006 C 
BRANCH  20  21
ATOM     21  C   UNL     1       8.448  17.169  73.841  1.00  0.00     0.053 C 
BRANCH  21  22
ATOM     22  C   UNL     1       7.129  16.727  74.400  1.00  0.00     0.041 C 
ATOM     23  O   UNL     1       7.017  16.471  75.628  1.00  0.00    -0.550 OA
ATOM     24  O   UNL     1       6.031  16.578  73.562  1.00  0.00    -0.550 OA
ENDBRANCH  21  22
ENDBRANCH  20  21
ENDBRANCH  19  20
ENDBRANCH  18  19
ENDBRANCH  17  18
ENDBRANCH  16  17
ENDBRANCH  15  16
ENDBRANCH  14  15
ENDBRANCH  13  14
ENDBRANCH   1  13
TORSDOF 20
ENDMDL
MODEL 2
REMARK VINA RESULT:    -4.928      3.244      6.565
REMARK INTER + INTRA:         -13.896
REMARK INTER:                 -11.611
REMARK INTRA:                  -2.284
REMARK UNBOUND:                -3.206
REMARK SMILES CCCCCCCCCCCCCCCCCCCCCC(=O)[O-]
REMARK SMILES IDX 12 1 11 2 10 3 9 4 8 5 7 6 6 7 5 8 4 9 3 10 2 11 1 12 13 13
REMARK SMILES IDX 14 14 15 15 16 16 17 17 18 18 19 19 20 20 21 21 22 22 23 23
REMARK SMILES IDX 24 24
REMARK H PARENT
REMARK Flexibility Score: inf
ROOT
ATOM      1  C   UNL     1      10.001  17.294  70.161  1.00  0.00     0.000 C 
ENDROOT
BRANCH   1   2
ATOM      2  C   UNL     1      10.473  18.611  69.506  1.00  0.00     0.000 C 
BRANCH   2   3
ATOM      3  C   UNL     1      11.074  18.385  68.108  1.00  0.00     0.000 C 
BRANCH   3   4
ATOM      4  C   UNL     1      11.198  16.896  67.740  1.00  0.00    -0.000 C 
BRANCH   4   5
ATOM      5  C   UNL     1      12.455  16.531  66.932  1.00  0.00    -0.000 C 
BRANCH   5   6
ATOM      6  C   UNL     1      13.181  15.289  67.472  1.00  0.00    -0.000 C 
BRANCH   6   7
ATOM      7  C   UNL     1      13.471  15.433  68.971  1.00  0.00    -0.000 C 
BRANCH   7   8
ATOM      8  C   UNL     1      14.030  14.127  69.554  1.00  0.00    -0.000 C 
BRANCH   8   9
ATOM      9  C   UNL     1      15.302  14.347  70.395  1.00  0.00    -0.000 C 
BRANCH   9  10
ATOM     10  C   UNL     1      16.509  14.910  69.617  1.00  0.00    -0.000 C 
BRANCH  10  11
ATOM     11  C   UNL     1      17.782  14.047  69.683  1.00  0.00    -0.003 C 
ATOM     12  C   UNL     1      19.065  14.878  69.704  1.00  0.00     0.004 C 
ENDBRANCH  10  11
ENDBRANCH   9  10
ENDBRANCH   8   9
ENDBRANCH   7   8
ENDBRANCH   6   7
ENDBRANCH   5   6
ENDBRANCH   4   5
ENDBRANCH   3   4
ENDBRANCH   2   3
ENDBRANCH   1   2
BRANCH   1  13
ATOM     13  C   UNL     1       9.736  17.409  71.676  1.00  0.00     0.000 C 
BRANCH  13  14
ATOM     14  C   UNL     1      10.475  16.378  72.544  1.00  0.00     0.000 C 
BRANCH  14  15
ATOM     15  C   UNL     1      11.488  15.543  71.747  1.00  0.00     0.000 C 
BRANCH  15  16
ATOM     16  C   UNL     1      11.302  14.045  72.031  1.00  0.00     0.000 C 
BRANCH  16  17
ATOM     17  C   UNL     1      10.879  13.251  70.784  1.00  0.00     0.000 C 
BRANCH  17  18
ATOM     18  C   UNL     1      10.288  14.101  69.643  1.00  0.00     0.000 C 
BRANCH  18  19
ATOM     19  C   UNL     1      10.275  13.385  68.275  1.00  0.00     0.000 C 
BRANCH  19  20
ATOM     20  C   UNL     1      10.460  11.863  68.409  1.00  0.00     0.006 C 
BRANCH  20  21
ATOM     21  C   UNL     1       9.173  11.158  68.858  1.00  0.00     0.053 C 
BRANCH  21  22
ATOM     22  C   UNL     1       9.045   9.793  68.253  1.00  0.00     0.041 C 
ATOM     23  O   UNL     1      10.067   9.190  67.832  1.00  0.00    -0.550 OA
ATOM     24  O   UNL     1       7.796   9.197  68.136  1.00  0.00    -0.550 OA
ENDBRANCH  21  22
ENDBRANCH  20  21
ENDBRANCH  19  20
ENDBRANCH  18  19
ENDBRANCH  17  18
ENDBRANCH  16  17
ENDBRANCH  15  16
ENDBRANCH  14  15
ENDBRANCH  13  14
ENDBRANCH   1  13
TORSDOF 20
ENDMDL
MODEL 3
REMARK VINA RESULT:    -4.925      1.132      3.436
REMARK INTER + INTRA:         -13.889
REMARK INTER:                 -10.870
REMARK INTRA:                  -3.019
REMARK UNBOUND:                -3.206
REMARK SMILES CCCCCCCCCCCCCCCCCCCCCC(=O)[O-]
REMARK SMILES IDX 12 1 11 2 10 3 9 4 8 5 7 6 6 7 5 8 4 9 3 10 2 11 1 12 13 13
REMARK SMILES IDX 14 14 15 15 16 16 17 17 18 18 19 19 20 20 21 21 22 22 23 23
REMARK SMILES IDX 24 24
REMARK H PARENT
REMARK Flexibility Score: inf
ROOT
ATOM      1  C   UNL     1      11.926  14.618  67.929  1.00  0.00     0.000 C 
ENDROOT
BRANCH   1   2
ATOM      2  C   UNL     1      10.556  13.908  68.002  1.00  0.00     0.000 C 
BRANCH   2   3
ATOM      3  C   UNL     1      10.256  13.362  69.410  1.00  0.00     0.000 C 
BRANCH   3   4
ATOM      4  C   UNL     1      11.478  13.404  70.344  1.00  0.00    -0.000 C 
BRANCH   4   5
ATOM      5  C   UNL     1      11.191  13.921  71.764  1.00  0.00    -0.000 C 
BRANCH   5   6
ATOM      6  C   UNL     1      11.084  15.452  71.837  1.00  0.00    -0.000 C 
BRANCH   6   7
ATOM      7  C   UNL     1      12.460  16.089  72.064  1.00  0.00    -0.000 C 
BRANCH   7   8
ATOM      8  C   UNL     1      12.927  16.856  70.818  1.00  0.00    -0.000 C 
BRANCH   8   9
ATOM      9  C   UNL     1      14.351  16.466  70.379  1.00  0.00    -0.000 C 
BRANCH   9  10
ATOM     10  C   UNL     1      14.492  15.035  69.822  1.00  0.00    -0.000 C 
BRANCH  10  11
ATOM     11  C   UNL     1      15.704  14.249  70.355  1.00  0.00    -0.003 C 
ATOM     12  C   UNL     1      17.020  14.667  69.699  1.00  0.00     0.004 C 
ENDBRANCH  10  11
ENDBRANCH   9  10
ENDBRANCH   8   9
ENDBRANCH   7   8
ENDBRANCH   6   7
ENDBRANCH   5   6
ENDBRANCH   4   5
ENDBRANCH   3   4
ENDBRANCH   2   3
ENDBRANCH   1   2
BRANCH   1  13
ATOM     13  C   UNL     1      11.865  16.031  67.314  1.00  0.00     0.000 C 
BRANCH  13  14
ATOM     14  C   UNL     1      10.746  16.930  67.865  1.00  0.00     0.000 C 
BRANCH  14  15
ATOM     15  C   UNL     1      11.132  18.417  67.889  1.00  0.00     0.000 C 
BRANCH  15  16
ATOM     16  C   UNL     1      10.624  19.091  69.172  1.00  0.00     0.000 C 
BRANCH  16  17
ATOM     17  C   UNL     1       9.735  18.165  70.019  1.00  0.00     0.000 C 
BRANCH  17  18
ATOM     18  C   UNL     1       9.076  18.836  71.239  1.00  0.00     0.000 C 
BRANCH  18  19
ATOM     19  C   UNL     1       8.118  17.909  72.019  1.00  0.00     0.000 C 
BRANCH  19  20
ATOM     20  C   UNL     1       8.337  17.985  73.539  1.00  0.00     0.006 C 
BRANCH  20  21
ATOM     21  C   UNL     1       8.351  16.598  74.195  1.00  0.00     0.053 C 
BRANCH  21  22
ATOM     22  C   UNL     1       7.049  16.289  74.871  1.00  0.00     0.041 C 
ATOM     23  O   UNL     1       5.998  16.160  74.190  1.00  0.00    -0.550 OA
ATOM     24  O   UNL     1       6.994  16.164  76.253  1.00  0.00    -0.550 OA
ENDBRANCH  21  22
ENDBRANCH  20  21
ENDBRANCH  19  20
ENDBRANCH  18  19
ENDBRANCH  17  18
ENDBRANCH  16  17
ENDBRANCH  15  16
ENDBRANCH  14  15
ENDBRANCH  13  14
ENDBRANCH   1  13
TORSDOF 20
ENDMDL
MODEL 4
REMARK VINA RESULT:    -4.892      3.205      6.270
REMARK INTER + INTRA:         -13.819
REMARK INTER:                 -10.653
REMARK INTRA:                  -3.166
REMARK UNBOUND:                -3.206
REMARK SMILES CCCCCCCCCCCCCCCCCCCCCC(=O)[O-]
REMARK SMILES IDX 12 1 11 2 10 3 9 4 8 5 7 6 6 7 5 8 4 9 3 10 2 11 1 12 13 13
REMARK SMILES IDX 14 14 15 15 16 16 17 17 18 18 19 19 20 20 21 21 22 22 23 23
REMARK SMILES IDX 24 24
REMARK H PARENT
REMARK Flexibility Score: inf
ROOT
ATOM      1  C   UNL     1      11.621  13.490  70.436  1.00  0.00     0.000 C 
ENDROOT
BRANCH   1   2
ATOM      2  C   UNL     1      11.227  13.419  71.928  1.00  0.00     0.000 C 
BRANCH   2   3
ATOM      3  C   UNL     1      11.017  14.814  72.544  1.00  0.00     0.000 C 
BRANCH   3   4
ATOM      4  C   UNL     1      11.904  15.895  71.900  1.00  0.00    -0.000 C 
BRANCH   4   5
ATOM      5  C   UNL     1      11.143  17.116  71.353  1.00  0.00    -0.000 C 
BRANCH   5   6
ATOM      6  C   UNL     1       9.726  17.251  71.930  1.00  0.00    -0.000 C 
BRANCH   6   7
ATOM      7  C   UNL     1       8.973  18.411  71.268  1.00  0.00    -0.000 C 
BRANCH   7   8
ATOM      8  C   UNL     1       7.931  19.010  72.224  1.00  0.00    -0.000 C 
BRANCH   8   9
ATOM      9  C   UNL     1       8.232  18.702  73.702  1.00  0.00    -0.000 C 
BRANCH   9  10
ATOM     10  C   UNL     1       7.126  17.922  74.444  1.00  0.00    -0.000 C 
BRANCH  10  11
ATOM     11  C   UNL     1       7.476  16.460  74.777  1.00  0.00    -0.003 C 
ATOM     12  C   UNL     1       6.992  16.033  76.162  1.00  0.00     0.004 C 
ENDBRANCH  10  11
ENDBRANCH   9  10
ENDBRANCH   8   9
ENDBRANCH   7   8
ENDBRANCH   6   7
ENDBRANCH   5   6
ENDBRANCH   4   5
ENDBRANCH   3   4
ENDBRANCH   2   3
ENDBRANCH   1   2
BRANCH   1  13
ATOM     13  C   UNL     1      10.616  12.799  69.492  1.00  0.00     0.000 C 
BRANCH  13  14
ATOM     14  C   UNL     1       9.966  13.721  68.448  1.00  0.00     0.000 C 
BRANCH  14  15
ATOM     15  C   UNL     1       9.141  14.851  69.081  1.00  0.00     0.000 C 
BRANCH  15  16
ATOM     16  C   UNL     1       9.367  16.175  68.335  1.00  0.00     0.000 C 
BRANCH  16  17
ATOM     17  C   UNL     1      10.466  16.075  67.264  1.00  0.00     0.000 C 
BRANCH  17  18
ATOM     18  C   UNL     1      11.848  16.595  67.703  1.00  0.00     0.000 C 
BRANCH  18  19
ATOM     19  C   UNL     1      13.030  15.783  67.129  1.00  0.00     0.000 C 
BRANCH  19  20
ATOM     20  C   UNL     1      13.663  14.850  68.176  1.00  0.00     0.006 C 
BRANCH  20  21
ATOM     21  C   UNL     1      14.287  15.626  69.344  1.00  0.00     0.053 C 
BRANCH  21  22
ATOM     22  C   UNL     1      15.373  14.841  70.016  1.00  0.00     0.041 C 
ATOM     23  O   UNL     1      16.555  14.903  69.588  1.00  0.00    -0.550 OA
ATOM     24  O   UNL     1      15.075  14.028  71.102  1.00  0.00    -0.550 OA
ENDBRANCH  21  22
ENDBRANCH  20  21
ENDBRANCH  19  20
ENDBRANCH  18  19
ENDBRANCH  17  18
ENDBRANCH  16  17
ENDBRANCH  15  16
ENDBRANCH  14  15
ENDBRANCH  13  14
ENDBRANCH   1  13
TORSDOF 20
ENDMDL
MODEL 5
REMARK VINA RESULT:    -4.867      1.345      4.357
REMARK INTER + INTRA:         -13.764
REMARK INTER:                 -11.006
REMARK INTRA:                  -2.758
REMARK UNBOUND:                -3.206
REMARK SMILES CCCCCCCCCCCCCCCCCCCCCC(=O)[O-]
REMARK SMILES IDX 12 1 11 2 10 3 9 4 8 5 7 6 6 7 5 8 4 9 3 10 2 11 1 12 13 13
REMARK SMILES IDX 14 14 15 15 16 16 17 17 18 18 19 19 20 20 21 21 22 22 23 23
REMARK SMILES IDX 24 24
REMARK H PARENT
REMARK Flexibility Score: inf
ROOT
ATOM      1  C   UNL     1      11.561  13.449  70.243  1.00  0.00     0.000 C 
ENDROOT
BRANCH   1   2
ATOM      2  C   UNL     1      10.397  12.753  69.504  1.00  0.00     0.000 C 
BRANCH   2   3
ATOM      3  C   UNL     1       9.800  13.636  68.394  1.00  0.00     0.000 C 
BRANCH   3   4
ATOM      4  C   UNL     1       9.496  15.069  68.864  1.00  0.00    -0.000 C 
BRANCH   4   5
ATOM      5  C   UNL     1       9.862  16.173  67.856  1.00  0.00    -0.000 C 
BRANCH   5   6
ATOM      6  C   UNL     1      11.312  16.661  67.996  1.00  0.00    -0.000 C 
BRANCH   6   7
ATOM      7  C   UNL     1      12.264  15.800  67.158  1.00  0.00    -0.000 C 
BRANCH   7   8
ATOM      8  C   UNL     1      13.485  15.363  67.981  1.00  0.00    -0.000 C 
BRANCH   8   9
ATOM      9  C   UNL     1      13.522  16.010  69.378  1.00  0.00    -0.000 C 
BRANCH   9  10
ATOM     10  C   UNL     1      14.795  15.716  70.198  1.00  0.00    -0.000 C 
BRANCH  10  11
ATOM     11  C   UNL     1      15.483  14.378  69.870  1.00  0.00    -0.003 C 
ATOM     12  C   UNL     1      17.005  14.497  69.781  1.00  0.00     0.004 C 
ENDBRANCH  10  11
ENDBRANCH   9  10
ENDBRANCH   8   9
ENDBRANCH   7   8
ENDBRANCH   6   7
ENDBRANCH   5   6
ENDBRANCH   4   5
ENDBRANCH   3   4
ENDBRANCH   2   3
ENDBRANCH   1   2
BRANCH   1  13
ATOM     13  C   UNL     1      11.260  13.770  71.722  1.00  0.00     0.000 C 
BRANCH  13  14
ATOM     14  C   UNL     1      11.697  15.169  72.184  1.00  0.00     0.000 C 
BRANCH  14  15
ATOM     15  C   UNL     1      10.512  16.074  72.552  1.00  0.00     0.000 C 
BRANCH  15  16
ATOM     16  C   UNL     1      10.383  17.236  71.555  1.00  0.00     0.000 C 
BRANCH  16  17
ATOM     17  C   UNL     1       8.930  17.703  71.369  1.00  0.00     0.000 C 
BRANCH  17  18
ATOM     18  C   UNL     1       8.553  18.975  72.153  1.00  0.00     0.000 C 
BRANCH  18  19
ATOM     19  C   UNL     1       7.274  18.824  73.006  1.00  0.00     0.000 C 
BRANCH  19  20
ATOM     20  C   UNL     1       6.597  17.456  72.810  1.00  0.00     0.006 C 
BRANCH  20  21
ATOM     21  C   UNL     1       5.954  16.936  74.102  1.00  0.00     0.053 C 
BRANCH  21  22
ATOM     22  C   UNL     1       6.980  16.422  75.067  1.00  0.00     0.041 C 
ATOM     23  O   UNL     1       8.116  16.070  74.653  1.00  0.00    -0.550 OA
ATOM     24  O   UNL     1       6.674  16.313  76.417  1.00  0.00    -0.550 OA
ENDBRANCH  21  22
ENDBRANCH  20  21
ENDBRANCH  19  20
ENDBRANCH  18  19
ENDBRANCH  17  18
ENDBRANCH  16  17
ENDBRANCH  15  16
ENDBRANCH  14  15
ENDBRANCH  13  14
ENDBRANCH   1  13
TORSDOF 20
ENDMDL
MODEL 6
REMARK VINA RESULT:    -4.865      1.305      3.016
REMARK INTER + INTRA:         -13.761
REMARK INTER:                 -11.089
REMARK INTRA:                  -2.672
REMARK UNBOUND:                -3.206
REMARK SMILES CCCCCCCCCCCCCCCCCCCCCC(=O)[O-]
REMARK SMILES IDX 12 1 11 2 10 3 9 4 8 5 7 6 6 7 5 8 4 9 3 10 2 11 1 12 13 13
REMARK SMILES IDX 14 14 15 15 16 16 17 17 18 18 19 19 20 20 21 21 22 22 23 23
REMARK SMILES IDX 24 24
REMARK H PARENT
REMARK Flexibility Score: inf
ROOT
ATOM      1  C   UNL     1      12.455  14.195  70.756  1.00  0.00     0.000 C 
ENDROOT
BRANCH   1   2
ATOM      2  C   UNL     1      13.525  13.887  69.685  1.00  0.00     0.000 C 
BRANCH   2   3
ATOM      3  C   UNL     1      13.953  15.145  68.908  1.00  0.00     0.000 C 
BRANCH   3   4
ATOM      4  C   UNL     1      13.119  15.379  67.636  1.00  0.00    -0.000 C 
BRANCH   4   5
ATOM      5  C   UNL     1      12.013  16.439  67.772  1.00  0.00    -0.000 C 
BRANCH   5   6
ATOM      6  C   UNL     1      10.654  15.966  67.231  1.00  0.00    -0.000 C 
BRANCH   6   7
ATOM      7  C   UNL     1       9.641  15.795  68.369  1.00  0.00    -0.000 C 
BRANCH   7   8
ATOM      8  C   UNL     1       9.575  14.334  68.836  1.00  0.00    -0.000 C 
BRANCH   8   9
ATOM      9  C   UNL     1      10.218  13.359  67.832  1.00  0.00    -0.000 C 
BRANCH   9  10
ATOM     10  C   UNL     1      10.505  11.948  68.386  1.00  0.00    -0.000 C 
BRANCH  10  11
ATOM     11  C   UNL     1       9.260  11.159  68.828  1.00  0.00    -0.003 C 
ATOM     12  C   UNL     1       9.178   9.770  68.195  1.00  0.00     0.004 C 
ENDBRANCH  10  11
ENDBRANCH   9  10
ENDBRANCH   8   9
ENDBRANCH   7   8
ENDBRANCH   6   7
ENDBRANCH   5   6
ENDBRANCH   4   5
ENDBRANCH   3   4
ENDBRANCH   2   3
ENDBRANCH   1   2
BRANCH   1  13
ATOM     13  C   UNL     1      12.455  15.660  71.236  1.00  0.00     0.000 C 
BRANCH  13  14
ATOM     14  C   UNL     1      11.741  15.904  72.575  1.00  0.00     0.000 C 
BRANCH  14  15
ATOM     15  C   UNL     1      10.319  16.459  72.400  1.00  0.00     0.000 C 
BRANCH  15  16
ATOM     16  C   UNL     1      10.262  17.454  71.231  1.00  0.00     0.000 C 
BRANCH  16  17
ATOM     17  C   UNL     1       9.067  18.417  71.326  1.00  0.00     0.000 C 
BRANCH  17  18
ATOM     18  C   UNL     1       7.931  17.951  72.256  1.00  0.00     0.000 C 
BRANCH  18  19
ATOM     19  C   UNL     1       7.792  18.795  73.541  1.00  0.00     0.000 C 
BRANCH  19  20
ATOM     20  C   UNL     1       6.581  18.375  74.391  1.00  0.00     0.006 C 
BRANCH  20  21
ATOM     21  C   UNL     1       6.352  16.857  74.365  1.00  0.00     0.053 C 
BRANCH  21  22
ATOM     22  C   UNL     1       7.163  16.154  75.411  1.00  0.00     0.041 C 
ATOM     23  O   UNL     1       6.754  16.105  76.601  1.00  0.00    -0.550 OA
ATOM     24  O   UNL     1       8.379  15.572  75.076  1.00  0.00    -0.550 OA
ENDBRANCH  21  22
ENDBRANCH  20  21
ENDBRANCH  19  20
ENDBRANCH  18  19
ENDBRANCH  17  18
ENDBRANCH  16  17
ENDBRANCH  15  16
ENDBRANCH  14  15
ENDBRANCH  13  14
ENDBRANCH   1  13
TORSDOF 20
ENDMDL
MODEL 7
REMARK VINA RESULT:    -4.732      3.244      6.161
REMARK INTER + INTRA:         -13.472
REMARK INTER:                 -10.474
REMARK INTRA:                  -2.998
REMARK UNBOUND:                -3.206
REMARK SMILES CCCCCCCCCCCCCCCCCCCCCC(=O)[O-]
REMARK SMILES IDX 12 1 11 2 10 3 9 4 8 5 7 6 6 7 5 8 4 9 3 10 2 11 1 12 13 13
REMARK SMILES IDX 14 14 15 15 16 16 17 17 18 18 19 19 20 20 21 21 22 22 23 23
REMARK SMILES IDX 24 24
REMARK H PARENT
REMARK Flexibility Score: inf
ROOT
ATOM      1  C   UNL     1      13.858  16.221  70.393  1.00  0.00     0.000 C 
ENDROOT
BRANCH   1   2
ATOM      2  C   UNL     1      12.910  16.955  71.368  1.00  0.00     0.000 C 
BRANCH   2   3
ATOM      3  C   UNL     1      11.910  15.999  72.042  1.00  0.00     0.000 C 
BRANCH   3   4
ATOM      4  C   UNL     1      10.478  16.561  72.088  1.00  0.00    -0.000 C 
BRANCH   4   5
ATOM      5  C   UNL     1      10.198  17.702  71.096  1.00  0.00    -0.000 C 
BRANCH   5   6
ATOM      6  C   UNL     1       9.032  18.605  71.529  1.00  0.00    -0.000 C 
BRANCH   6   7
ATOM      7  C   UNL     1       7.743  17.793  71.697  1.00  0.00    -0.000 C 
BRANCH   7   8
ATOM      8  C   UNL     1       6.691  18.583  72.488  1.00  0.00    -0.000 C 
BRANCH   8   9
ATOM      9  C   UNL     1       5.437  17.748  72.810  1.00  0.00    -0.000 C 
BRANCH   9  10
ATOM     10  C   UNL     1       5.659  16.602  73.819  1.00  0.00    -0.000 C 
BRANCH  10  11
ATOM     11  C   UNL     1       6.604  16.940  74.986  1.00  0.00    -0.003 C 
ATOM     12  C   UNL     1       7.815  16.009  75.061  1.00  0.00     0.004 C 
ENDBRANCH  10  11
ENDBRANCH   9  10
ENDBRANCH   8   9
ENDBRANCH   7   8
ENDBRANCH   6   7
ENDBRANCH   5   6
ENDBRANCH   4   5
ENDBRANCH   3   4
ENDBRANCH   2   3
ENDBRANCH   1   2
BRANCH   1  13
ATOM     13  C   UNL     1      13.971  14.706  70.656  1.00  0.00     0.000 C 
BRANCH  13  14
ATOM     14  C   UNL     1      13.581  13.810  69.469  1.00  0.00     0.000 C 
BRANCH  14  15
ATOM     15  C   UNL     1      12.258  13.062  69.696  1.00  0.00     0.000 C 
BRANCH  15  16
ATOM     16  C   UNL     1      11.566  12.763  68.357  1.00  0.00     0.000 C 
BRANCH  16  17
ATOM     17  C   UNL     1      10.097  13.217  68.332  1.00  0.00     0.000 C 
BRANCH  17  18
ATOM     18  C   UNL     1       9.794  14.477  69.163  1.00  0.00     0.000 C 
BRANCH  18  19
ATOM     19  C   UNL     1       8.939  15.525  68.417  1.00  0.00     0.000 C 
BRANCH  19  20
ATOM     20  C   UNL     1       9.798  16.525  67.624  1.00  0.00     0.006 C 
BRANCH  20  21
ATOM     21  C   UNL     1      11.269  16.503  68.062  1.00  0.00     0.053 C 
BRANCH  21  22
ATOM     22  C   UNL     1      12.198  16.707  66.903  1.00  0.00     0.041 C 
ATOM     23  O   UNL     1      12.073  17.718  66.164  1.00  0.00    -0.550 OA
ATOM     24  O   UNL     1      13.187  15.770  66.629  1.00  0.00    -0.550 OA
ENDBRANCH  21  22
ENDBRANCH  20  21
ENDBRANCH  19  20
ENDBRANCH  18  19
ENDBRANCH  17  18
ENDBRANCH  16  17
ENDBRANCH  15  16
ENDBRANCH  14  15
ENDBRANCH  13  14
ENDBRANCH   1  13
TORSDOF 20
ENDMDL
MODEL 8
REMARK VINA RESULT:    -4.543      3.243      6.310
REMARK INTER + INTRA:         -13.062
REMARK INTER:                  -9.954
REMARK INTRA:                  -3.108
REMARK UNBOUND:                -3.206
REMARK SMILES CCCCCCCCCCCCCCCCCCCCCC(=O)[O-]
REMARK SMILES IDX 12 1 11 2 10 3 9 4 8 5 7 6 6 7 5 8 4 9 3 10 2 11 1 12 13 13
REMARK SMILES IDX 14 14 15 15 16 16 17 17 18 18 19 19 20 20 21 21 22 22 23 23
REMARK SMILES IDX 24 24
REMARK H PARENT
REMARK Flexibility Score: inf
ROOT
ATOM      1  C   UNL     1       9.896  15.041  68.428  1.00  0.00     0.000 C 
ENDROOT
BRANCH   1   2
ATOM      2  C   UNL     1       9.729  16.500  67.948  1.00  0.00     0.000 C 
BRANCH   2   3
ATOM      3  C   UNL     1      11.080  17.181  67.670  1.00  0.00     0.000 C 
BRANCH   3   4
ATOM      4  C   UNL     1      11.205  18.563  68.336  1.00  0.00    -0.000 C 
BRANCH   4   5
ATOM      5  C   UNL     1       9.955  19.028  69.104  1.00  0.00    -0.000 C 
BRANCH   5   6
ATOM      6  C   UNL     1      10.100  18.898  70.628  1.00  0.00    -0.000 C 
BRANCH   6   7
ATOM      7  C   UNL     1       8.983  18.027  71.213  1.00  0.00    -0.000 C 
BRANCH   7   8
ATOM      8  C   UNL     1       8.260  18.750  72.358  1.00  0.00    -0.000 C 
BRANCH   8   9
ATOM      9  C   UNL     1       6.757  18.418  72.417  1.00  0.00    -0.000 C 
BRANCH   9  10
ATOM     10  C   UNL     1       6.292  17.723  73.713  1.00  0.00    -0.000 C 
BRANCH  10  11
ATOM     11  C   UNL     1       7.405  17.468  74.746  1.00  0.00    -0.003 C 
ATOM     12  C   UNL     1       7.419  16.030  75.264  1.00  0.00     0.004 C 
ENDBRANCH  10  11
ENDBRANCH   9  10
ENDBRANCH   8   9
ENDBRANCH   7   8
ENDBRANCH   6   7
ENDBRANCH   5   6
ENDBRANCH   4   5
ENDBRANCH   3   4
ENDBRANCH   2   3
ENDBRANCH   1   2
BRANCH   1  13
ATOM     13  C   UNL     1      11.214  14.381  67.973  1.00  0.00     0.000 C 
BRANCH  13  14
ATOM     14  C   UNL     1      11.752  13.291  68.914  1.00  0.00     0.000 C 
BRANCH  14  15
ATOM     15  C   UNL     1      10.876  13.091  70.159  1.00  0.00     0.000 C 
BRANCH  15  16
ATOM     16  C   UNL     1      11.643  13.477  71.433  1.00  0.00     0.000 C 
BRANCH  16  17
ATOM     17  C   UNL     1      11.031  14.689  72.153  1.00  0.00     0.000 C 
BRANCH  17  18
ATOM     18  C   UNL     1      11.958  15.914  72.264  1.00  0.00     0.000 C 
BRANCH  18  19
ATOM     19  C   UNL     1      12.333  16.538  70.902  1.00  0.00     0.000 C 
BRANCH  19  20
ATOM     20  C   UNL     1      13.855  16.609  70.689  1.00  0.00     0.006 C 
BRANCH  20  21
ATOM     21  C   UNL     1      14.341  15.610  69.630  1.00  0.00     0.053 C 
BRANCH  21  22
ATOM     22  C   UNL     1      15.416  14.712  70.163  1.00  0.00     0.041 C 
ATOM     23  O   UNL     1      15.175  13.941  71.129  1.00  0.00    -0.550 OA
ATOM     24  O   UNL     1      16.689  14.742  69.607  1.00  0.00    -0.550 OA
ENDBRANCH  21  22
ENDBRANCH  20  21
ENDBRANCH  19  20
ENDBRANCH  18  19
ENDBRANCH  17  18
ENDBRANCH  16  17
ENDBRANCH  15  16
ENDBRANCH  14  15
ENDBRANCH  13  14
ENDBRANCH   1  13
TORSDOF 20
ENDMDL
MODEL 9
REMARK VINA RESULT:    -4.539      2.728      5.863
REMARK INTER + INTRA:         -13.052
REMARK INTER:                 -10.073
REMARK INTRA:                  -2.978
REMARK UNBOUND:                -3.206
REMARK SMILES CCCCCCCCCCCCCCCCCCCCCC(=O)[O-]
REMARK SMILES IDX 12 1 11 2 10 3 9 4 8 5 7 6 6 7 5 8 4 9 3 10 2 11 1 12 13 13
REMARK SMILES IDX 14 14 15 15 16 16 17 17 18 18 19 19 20 20 21 21 22 22 23 23
REMARK SMILES IDX 24 24
REMARK H PARENT
REMARK Flexibility Score: inf
ROOT
ATOM      1  C   UNL     1      12.695  15.757  67.234  1.00  0.00     0.000 C 
ENDROOT
BRANCH   1   2
ATOM      2  C   UNL     1      11.163  15.949  67.298  1.00  0.00     0.000 C 
BRANCH   2   3
ATOM      3  C   UNL     1      10.762  17.434  67.348  1.00  0.00     0.000 C 
BRANCH   3   4
ATOM      4  C   UNL     1      11.417  18.194  68.515  1.00  0.00    -0.000 C 
BRANCH   4   5
ATOM      5  C   UNL     1      10.430  18.814  69.520  1.00  0.00    -0.000 C 
BRANCH   5   6
ATOM      6  C   UNL     1       9.473  17.783  70.139  1.00  0.00    -0.000 C 
BRANCH   6   7
ATOM      7  C   UNL     1       9.340  17.997  71.651  1.00  0.00    -0.000 C 
BRANCH   7   8
ATOM      8  C   UNL     1       8.092  18.827  71.984  1.00  0.00    -0.000 C 
BRANCH   8   9
ATOM      9  C   UNL     1       6.878  17.955  72.354  1.00  0.00    -0.000 C 
BRANCH   9  10
ATOM     10  C   UNL     1       6.545  17.906  73.859  1.00  0.00    -0.000 C 
BRANCH  10  11
ATOM     11  C   UNL     1       6.282  16.496  74.419  1.00  0.00    -0.003 C 
ATOM     12  C   UNL     1       7.134  16.174  75.647  1.00  0.00     0.004 C 
ENDBRANCH  10  11
ENDBRANCH   9  10
ENDBRANCH   8   9
ENDBRANCH   7   8
ENDBRANCH   6   7
ENDBRANCH   5   6
ENDBRANCH   4   5
ENDBRANCH   3   4
ENDBRANCH   2   3
ENDBRANCH   1   2
BRANCH   1  13
ATOM     13  C   UNL     1      13.237  14.721  68.240  1.00  0.00     0.000 C 
BRANCH  13  14
ATOM     14  C   UNL     1      14.630  15.035  68.808  1.00  0.00     0.000 C 
BRANCH  14  15
ATOM     15  C   UNL     1      14.606  15.340  70.313  1.00  0.00     0.000 C 
BRANCH  15  16
ATOM     16  C   UNL     1      13.881  16.666  70.590  1.00  0.00     0.000 C 
BRANCH  16  17
ATOM     17  C   UNL     1      12.699  16.507  71.561  1.00  0.00     0.000 C 
BRANCH  17  18
ATOM     18  C   UNL     1      12.214  15.059  71.761  1.00  0.00     0.000 C 
BRANCH  18  19
ATOM     19  C   UNL     1      10.862  14.755  71.081  1.00  0.00     0.000 C 
BRANCH  19  20
ATOM     20  C   UNL     1      10.868  13.407  70.340  1.00  0.00     0.006 C 
BRANCH  20  21
ATOM     21  C   UNL     1       9.822  13.355  69.218  1.00  0.00     0.053 C 
BRANCH  21  22
ATOM     22  C   UNL     1      10.039  12.184  68.309  1.00  0.00     0.041 C 
ATOM     23  O   UNL     1      10.609  12.343  67.197  1.00  0.00    -0.550 OA
ATOM     24  O   UNL     1       9.595  10.921  68.680  1.00  0.00    -0.550 OA
ENDBRANCH  21  22
ENDBRANCH  20  21
ENDBRANCH  19  20
ENDBRANCH  18  19
ENDBRANCH  17  18
ENDBRANCH  16  17
ENDBRANCH  15  16
ENDBRANCH  14  15
ENDBRANCH  13  14
ENDBRANCH   1  13
TORSDOF 20
ENDMDL
