MODEL 1
REMARK VINA RESULT:    -2.625      0.000      0.000
REMARK INTER + INTRA:          -3.117
REMARK INTER:                  -3.086
REMARK INTRA:                  -0.032
REMARK UNBOUND:                -0.032
REMARK SMILES CCCCC(=O)[O-]
REMARK SMILES IDX 4 1 5 2 6 3 7 4 3 5 2 6 1 7
REMARK H PARENT
REMARK Flexibility Score: inf
ROOT
ATOM      1  C   UNL     1      19.388  23.364  45.645  1.00  0.00     0.053 C 
ENDROOT
BRANCH   1   2
ATOM      2  C   UNL     1      18.001  23.907  45.506  1.00  0.00     0.041 C 
ATOM      3  O   UNL     1      17.517  24.125  44.364  1.00  0.00    -0.550 OA
ATOM      4  O   UNL     1      17.224  24.125  46.636  1.00  0.00    -0.550 OA
ENDBRANCH   1   2
BRANCH   1   5
ATOM      5  C   UNL     1      19.545  22.632  46.984  1.00  0.00     0.006 C 
BRANCH   5   6
ATOM      6  C   UNL     1      20.860  21.843  47.073  1.00  0.00    -0.003 C 
ATOM      7  C   UNL     1      21.871  22.257  46.005  1.00  0.00     0.004 C 
ENDBRANCH   5   6
ENDBRANCH   1   5
TORSDOF 3
ENDMDL
MODEL 2
REMARK VINA RESULT:    -0.428     18.744     19.439
REMARK INTER + INTRA:          -0.534
REMARK INTER:                  -0.486
REMARK INTRA:                  -0.048
REMARK UNBOUND:                -0.032
REMARK SMILES CCCCC(=O)[O-]
REMARK SMILES IDX 4 1 5 2 6 3 7 4 3 5 2 6 1 7
REMARK H PARENT
REMARK Flexibility Score: inf
ROOT
ATOM      1  C   UNL     1      34.019  12.194  40.411  1.00  0.00     0.053 C 
ENDROOT
BRANCH   1   2
ATOM      2  C   UNL     1      33.255  10.957  40.767  1.00  0.00     0.041 C 
ATOM      3  O   UNL     1      32.465  10.961  41.747  1.00  0.00    -0.550 OA
ATOM      4  O   UNL     1      33.378   9.816  39.985  1.00  0.00    -0.550 OA
ENDBRANCH   1   2
BRANCH   1   5
ATOM      5  C   UNL     1      35.150  12.434  41.419  1.00  0.00     0.006 C 
BRANCH   5   6
ATOM      6  C   UNL     1      34.874  13.634  42.338  1.00  0.00    -0.003 C 
ATOM      7  C   UNL     1      36.081  14.011  43.196  1.00  0.00     0.004 C 
ENDBRANCH   5   6
ENDBRANCH   1   5
TORSDOF 3
ENDMDL
MODEL 3
REMARK VINA RESULT:     0.286     19.399     19.881
REMARK INTER + INTRA:           0.305
REMARK INTER:                   0.344
REMARK INTRA:                  -0.039
REMARK UNBOUND:                -0.032
REMARK SMILES CCCCC(=O)[O-]
REMARK SMILES IDX 4 1 5 2 6 3 7 4 3 5 2 6 1 7
REMARK H PARENT
REMARK Flexibility Score: inf
ROOT
ATOM      1  C   UNL     1      33.358  11.615  40.385  1.00  0.00     0.053 C 
ENDROOT
BRANCH   1   2
ATOM      2  C   UNL     1      33.382  10.140  40.133  1.00  0.00     0.041 C 
ATOM      3  O   UNL     1      32.304   9.496  40.040  1.00  0.00    -0.550 OA
ATOM      4  O   UNL     1      34.593   9.486  39.951  1.00  0.00    -0.550 OA
ENDBRANCH   1   2
BRANCH   1   5
ATOM      5  C   UNL     1      34.081  11.946  41.697  1.00  0.00     0.006 C 
BRANCH   5   6
ATOM      6  C   UNL     1      35.197  12.985  41.508  1.00  0.00    -0.003 C 
ATOM      7  C   UNL     1      35.552  13.713  42.804  1.00  0.00     0.004 C 
ENDBRANCH   5   6
ENDBRANCH   1   5
TORSDOF 3
ENDMDL
MODEL 4
REMARK VINA RESULT:     0.316     19.124     19.773
REMARK INTER + INTRA:           0.339
REMARK INTER:                   0.394
REMARK INTRA:                  -0.054
REMARK UNBOUND:                -0.032
REMARK SMILES CCCCC(=O)[O-]
REMARK SMILES IDX 4 1 5 2 6 3 7 4 3 5 2 6 1 7
REMARK H PARENT
REMARK Flexibility Score: inf
ROOT
ATOM      1  C   UNL     1      34.002  11.150  41.798  1.00  0.00     0.053 C 
ENDROOT
BRANCH   1   2
ATOM      2  C   UNL     1      34.632  12.456  41.428  1.00  0.00     0.041 C 
ATOM      3  O   UNL     1      34.554  12.885  40.247  1.00  0.00    -0.550 OA
ATOM      4  O   UNL     1      35.261  13.224  42.399  1.00  0.00    -0.550 OA
ENDBRANCH   1   2
BRANCH   1   5
ATOM      5  C   UNL     1      32.687  10.955  41.032  1.00  0.00     0.006 C 
BRANCH   5   6
ATOM      6  C   UNL     1      32.799   9.886  39.934  1.00  0.00    -0.003 C 
ATOM      7  C   UNL     1      34.197   9.275  39.844  1.00  0.00     0.004 C 
ENDBRANCH   5   6
ENDBRANCH   1   5
TORSDOF 3
ENDMDL
