MODEL 1
REMARK VINA RESULT:    -3.889      0.000      0.000
REMARK INTER + INTRA:          -5.298
REMARK INTER:                  -5.026
REMARK INTRA:                  -0.272
REMARK UNBOUND:                -0.272
REMARK SMILES CCCCCCC(=O)[O-]
REMARK SMILES IDX 5 1 6 2 7 3 8 4 9 5 4 6 3 7 2 8 1 9
REMARK H PARENT
REMARK Flexibility Score: inf
ROOT
ATOM      1  C   UNL     1      -1.650 -47.708  17.650  1.00  0.00     0.006 C 
ENDROOT
BRANCH   1   2
ATOM      2  C   UNL     1      -2.433 -48.943  18.112  1.00  0.00     0.053 C 
BRANCH   2   3
ATOM      3  C   UNL     1      -3.892 -48.644  18.276  1.00  0.00     0.041 C 
ATOM      4  O   UNL     1      -4.455 -48.818  19.389  1.00  0.00    -0.550 OA
ATOM      5  O   UNL     1      -4.638 -48.205  17.189  1.00  0.00    -0.550 OA
ENDBRANCH   2   3
ENDBRANCH   1   2
BRANCH   1   6
ATOM      6  C   UNL     1      -1.919 -46.483  18.541  1.00  0.00     0.000 C 
BRANCH   6   7
ATOM      7  C   UNL     1      -2.319 -45.239  17.733  1.00  0.00    -0.000 C 
BRANCH   7   8
ATOM      8  C   UNL     1      -1.711 -45.231  16.323  1.00  0.00    -0.003 C 
ATOM      9  C   UNL     1      -2.508 -44.328  15.386  1.00  0.00     0.004 C 
ENDBRANCH   7   8
ENDBRANCH   6   7
ENDBRANCH   1   6
TORSDOF 5
ENDMDL
MODEL 2
REMARK VINA RESULT:    -3.848      2.291      4.026
REMARK INTER + INTRA:          -5.244
REMARK INTER:                  -4.842
REMARK INTRA:                  -0.402
REMARK UNBOUND:                -0.272
REMARK SMILES CCCCCCC(=O)[O-]
REMARK SMILES IDX 5 1 6 2 7 3 8 4 9 5 4 6 3 7 2 8 1 9
REMARK H PARENT
REMARK Flexibility Score: inf
ROOT
ATOM      1  C   UNL     1      -1.650 -47.586  17.259  1.00  0.00     0.006 C 
ENDROOT
BRANCH   1   2
ATOM      2  C   UNL     1      -1.638 -46.707  18.516  1.00  0.00     0.053 C 
BRANCH   2   3
ATOM      3  C   UNL     1      -2.513 -45.502  18.356  1.00  0.00     0.041 C 
ATOM      4  O   UNL     1      -3.091 -45.278  17.260  1.00  0.00    -0.550 OA
ATOM      5  O   UNL     1      -2.664 -44.607  19.408  1.00  0.00    -0.550 OA
ENDBRANCH   2   3
ENDBRANCH   1   2
BRANCH   1   6
ATOM      6  C   UNL     1      -2.351 -48.935  17.500  1.00  0.00     0.000 C 
BRANCH   6   7
ATOM      7  C   UNL     1      -3.755 -48.992  16.879  1.00  0.00    -0.000 C 
BRANCH   7   8
ATOM      8  C   UNL     1      -4.851 -48.542  17.856  1.00  0.00    -0.003 C 
ATOM      9  C   UNL     1      -4.487 -48.902  19.293  1.00  0.00     0.004 C 
ENDBRANCH   7   8
ENDBRANCH   6   7
ENDBRANCH   1   6
TORSDOF 5
ENDMDL
MODEL 3
REMARK VINA RESULT:    -3.834      2.001      3.040
REMARK INTER + INTRA:          -5.226
REMARK INTER:                  -4.906
REMARK INTRA:                  -0.320
REMARK UNBOUND:                -0.272
REMARK SMILES CCCCCCC(=O)[O-]
REMARK SMILES IDX 5 1 6 2 7 3 8 4 9 5 4 6 3 7 2 8 1 9
REMARK H PARENT
REMARK Flexibility Score: inf
ROOT
ATOM      1  C   UNL     1      -4.909 -48.898  17.795  1.00  0.00     0.006 C 
ENDROOT
BRANCH   1   2
ATOM      2  C   UNL     1      -4.558 -48.607  19.259  1.00  0.00     0.053 C 
BRANCH   2   3
ATOM      3  C   UNL     1      -4.901 -47.200  19.641  1.00  0.00     0.041 C 
ATOM      4  O   UNL     1      -4.726 -46.803  20.823  1.00  0.00    -0.550 OA
ATOM      5  O   UNL     1      -5.445 -46.336  18.699  1.00  0.00    -0.550 OA
ENDBRANCH   2   3
ENDBRANCH   1   2
BRANCH   1   6
ATOM      6  C   UNL     1      -3.656 -49.003  16.907  1.00  0.00     0.000 C 
BRANCH   6   7
ATOM      7  C   UNL     1      -2.352 -48.982  17.720  1.00  0.00    -0.000 C 
BRANCH   7   8
ATOM      8  C   UNL     1      -1.428 -47.821  17.323  1.00  0.00    -0.003 C 
ATOM      9  C   UNL     1      -1.679 -46.596  18.196  1.00  0.00     0.004 C 
ENDBRANCH   7   8
ENDBRANCH   6   7
ENDBRANCH   1   6
TORSDOF 5
ENDMDL
MODEL 4
REMARK VINA RESULT:    -3.778      2.012      3.817
REMARK INTER + INTRA:          -5.154
REMARK INTER:                  -4.761
REMARK INTRA:                  -0.393
REMARK UNBOUND:                -0.272
REMARK SMILES CCCCCCC(=O)[O-]
REMARK SMILES IDX 5 1 6 2 7 3 8 4 9 5 4 6 3 7 2 8 1 9
REMARK H PARENT
REMARK Flexibility Score: inf
ROOT
ATOM      1  C   UNL     1      -1.969 -46.733  16.808  1.00  0.00     0.006 C 
ENDROOT
BRANCH   1   2
ATOM      2  C   UNL     1      -1.972 -45.250  17.200  1.00  0.00     0.053 C 
BRANCH   2   3
ATOM      3  C   UNL     1      -3.011 -44.953  18.238  1.00  0.00     0.041 C 
ATOM      4  O   UNL     1      -2.670 -44.534  19.375  1.00  0.00    -0.550 OA
ATOM      5  O   UNL     1      -4.354 -45.173  17.959  1.00  0.00    -0.550 OA
ENDBRANCH   2   3
ENDBRANCH   1   2
BRANCH   1   6
ATOM      6  C   UNL     1      -1.661 -47.649  18.006  1.00  0.00     0.000 C 
BRANCH   6   7
ATOM      7  C   UNL     1      -2.562 -48.893  18.047  1.00  0.00    -0.000 C 
BRANCH   7   8
ATOM      8  C   UNL     1      -3.922 -48.615  18.704  1.00  0.00    -0.003 C 
ATOM      9  C   UNL     1      -5.060 -48.774  17.701  1.00  0.00     0.004 C 
ENDBRANCH   7   8
ENDBRANCH   6   7
ENDBRANCH   1   6
TORSDOF 5
ENDMDL
MODEL 5
REMARK VINA RESULT:    -3.742      1.630      2.730
REMARK INTER + INTRA:          -5.108
REMARK INTER:                  -4.664
REMARK INTRA:                  -0.444
REMARK UNBOUND:                -0.272
REMARK SMILES CCCCCCC(=O)[O-]
REMARK SMILES IDX 5 1 6 2 7 3 8 4 9 5 4 6 3 7 2 8 1 9
REMARK H PARENT
REMARK Flexibility Score: inf
ROOT
ATOM      1  C   UNL     1      -3.757 -48.629  18.652  1.00  0.00     0.006 C 
ENDROOT
BRANCH   1   2
ATOM      2  C   UNL     1      -4.986 -48.580  17.735  1.00  0.00     0.053 C 
BRANCH   2   3
ATOM      3  C   UNL     1      -5.343 -47.173  17.364  1.00  0.00     0.041 C 
ATOM      4  O   UNL     1      -4.938 -46.681  16.278  1.00  0.00    -0.550 OA
ATOM      5  O   UNL     1      -6.095 -46.395  18.233  1.00  0.00    -0.550 OA
ENDBRANCH   2   3
ENDBRANCH   1   2
BRANCH   1   6
ATOM      6  C   UNL     1      -2.464 -48.929  17.875  1.00  0.00     0.000 C 
BRANCH   6   7
ATOM      7  C   UNL     1      -1.615 -47.672  17.631  1.00  0.00    -0.000 C 
BRANCH   7   8
ATOM      8  C   UNL     1      -1.897 -46.562  18.654  1.00  0.00    -0.003 C 
ATOM      9  C   UNL     1      -2.196 -45.237  17.958  1.00  0.00     0.004 C 
ENDBRANCH   7   8
ENDBRANCH   6   7
ENDBRANCH   1   6
TORSDOF 5
ENDMDL
MODEL 6
REMARK VINA RESULT:    -3.711      2.274      4.074
REMARK INTER + INTRA:          -5.067
REMARK INTER:                  -4.705
REMARK INTRA:                  -0.362
REMARK UNBOUND:                -0.272
REMARK SMILES CCCCCCC(=O)[O-]
REMARK SMILES IDX 5 1 6 2 7 3 8 4 9 5 4 6 3 7 2 8 1 9
REMARK H PARENT
REMARK Flexibility Score: inf
ROOT
ATOM      1  C   UNL     1      -2.415 -49.013  17.406  1.00  0.00     0.006 C 
ENDROOT
BRANCH   1   2
ATOM      2  C   UNL     1      -1.475 -48.020  16.711  1.00  0.00     0.053 C 
BRANCH   2   3
ATOM      3  C   UNL     1      -1.711 -46.615  17.177  1.00  0.00     0.041 C 
ATOM      4  O   UNL     1      -1.826 -45.680  16.342  1.00  0.00    -0.550 OA
ATOM      5  O   UNL     1      -1.769 -46.335  18.536  1.00  0.00    -0.550 OA
ENDBRANCH   2   3
ENDBRANCH   1   2
BRANCH   1   6
ATOM      6  C   UNL     1      -3.809 -49.045  16.757  1.00  0.00     0.000 C 
BRANCH   6   7
ATOM      7  C   UNL     1      -4.936 -48.746  17.759  1.00  0.00    -0.000 C 
BRANCH   7   8
ATOM      8  C   UNL     1      -4.433 -48.675  19.208  1.00  0.00    -0.003 C 
ATOM      9  C   UNL     1      -4.727 -47.312  19.826  1.00  0.00     0.004 C 
ENDBRANCH   7   8
ENDBRANCH   6   7
ENDBRANCH   1   6
TORSDOF 5
ENDMDL
MODEL 7
REMARK VINA RESULT:    -3.644      2.523      3.573
REMARK INTER + INTRA:          -4.981
REMARK INTER:                  -4.555
REMARK INTRA:                  -0.426
REMARK UNBOUND:                -0.272
REMARK SMILES CCCCCCC(=O)[O-]
REMARK SMILES IDX 5 1 6 2 7 3 8 4 9 5 4 6 3 7 2 8 1 9
REMARK H PARENT
REMARK Flexibility Score: inf
ROOT
ATOM      1  C   UNL     1      -4.322 -48.431  19.256  1.00  0.00     0.006 C 
ENDROOT
BRANCH   1   2
ATOM      2  C   UNL     1      -4.631 -47.024  19.784  1.00  0.00     0.053 C 
BRANCH   2   3
ATOM      3  C   UNL     1      -3.659 -46.011  19.261  1.00  0.00     0.041 C 
ATOM      4  O   UNL     1      -2.592 -45.775  19.886  1.00  0.00    -0.550 OA
ATOM      5  O   UNL     1      -3.949 -45.303  18.102  1.00  0.00    -0.550 OA
ENDBRANCH   2   3
ENDBRANCH   1   2
BRANCH   1   6
ATOM      6  C   UNL     1      -4.812 -48.629  17.811  1.00  0.00     0.000 C 
BRANCH   6   7
ATOM      7  C   UNL     1      -3.675 -48.998  16.845  1.00  0.00    -0.000 C 
BRANCH   7   8
ATOM      8  C   UNL     1      -2.299 -48.998  17.527  1.00  0.00    -0.003 C 
ATOM      9  C   UNL     1      -1.404 -47.901  16.958  1.00  0.00     0.004 C 
ENDBRANCH   7   8
ENDBRANCH   6   7
ENDBRANCH   1   6
TORSDOF 5
ENDMDL
MODEL 8
REMARK VINA RESULT:    -3.609      2.729      3.891
REMARK INTER + INTRA:          -4.936
REMARK INTER:                  -4.590
REMARK INTRA:                  -0.346
REMARK UNBOUND:                -0.272
REMARK SMILES CCCCCCC(=O)[O-]
REMARK SMILES IDX 5 1 6 2 7 3 8 4 9 5 4 6 3 7 2 8 1 9
REMARK H PARENT
REMARK Flexibility Score: inf
ROOT
ATOM      1  C   UNL     1      -3.796 -49.038  16.835  1.00  0.00     0.006 C 
ENDROOT
BRANCH   1   2
ATOM      2  C   UNL     1      -2.435 -49.086  17.542  1.00  0.00     0.053 C 
BRANCH   2   3
ATOM      3  C   UNL     1      -1.537 -47.976  17.089  1.00  0.00     0.041 C 
ATOM      4  O   UNL     1      -0.655 -48.189  16.217  1.00  0.00    -0.550 OA
ATOM      5  O   UNL     1      -1.654 -46.713  17.655  1.00  0.00    -0.550 OA
ENDBRANCH   2   3
ENDBRANCH   1   2
BRANCH   1   6
ATOM      6  C   UNL     1      -4.945 -48.723  17.809  1.00  0.00     0.000 C 
BRANCH   6   7
ATOM      7  C   UNL     1      -4.484 -48.683  19.275  1.00  0.00    -0.000 C 
BRANCH   7   8
ATOM      8  C   UNL     1      -4.597 -47.280  19.890  1.00  0.00    -0.003 C 
ATOM      9  C   UNL     1      -5.478 -46.375  19.036  1.00  0.00     0.004 C 
ENDBRANCH   7   8
ENDBRANCH   6   7
ENDBRANCH   1   6
TORSDOF 5
ENDMDL
MODEL 9
REMARK VINA RESULT:    -3.555      1.910      2.848
REMARK INTER + INTRA:          -4.865
REMARK INTER:                  -4.450
REMARK INTRA:                  -0.415
REMARK UNBOUND:                -0.272
REMARK SMILES CCCCCCC(=O)[O-]
REMARK SMILES IDX 5 1 6 2 7 3 8 4 9 5 4 6 3 7 2 8 1 9
REMARK H PARENT
REMARK Flexibility Score: inf
ROOT
ATOM      1  C   UNL     1      -4.401 -48.653  19.213  1.00  0.00     0.006 C 
ENDROOT
BRANCH   1   2
ATOM      2  C   UNL     1      -4.773 -48.703  17.725  1.00  0.00     0.053 C 
BRANCH   2   3
ATOM      3  C   UNL     1      -3.613 -49.132  16.879  1.00  0.00     0.041 C 
ATOM      4  O   UNL     1      -3.786 -49.421  15.666  1.00  0.00    -0.550 OA
ATOM      5  O   UNL     1      -2.348 -49.244  17.440  1.00  0.00    -0.550 OA
ENDBRANCH   2   3
ENDBRANCH   1   2
BRANCH   1   6
ATOM      6  C   UNL     1      -4.694 -47.279  19.838  1.00  0.00     0.000 C 
BRANCH   6   7
ATOM      7  C   UNL     1      -4.119 -46.117  19.012  1.00  0.00    -0.000 C 
BRANCH   7   8
ATOM      8  C   UNL     1      -2.592 -46.007  19.135  1.00  0.00    -0.003 C 
ATOM      9  C   UNL     1      -1.946 -45.783  17.770  1.00  0.00     0.004 C 
ENDBRANCH   7   8
ENDBRANCH   6   7
ENDBRANCH   1   6
TORSDOF 5
ENDMDL
