MODEL 1
REMARK VINA RESULT:    -4.925      0.000      0.000
REMARK INTER + INTRA:         -11.581
REMARK INTER:                  -9.531
REMARK INTRA:                  -2.049
REMARK UNBOUND:                -2.049
REMARK SMILES CCCCCCCCCCCCCCCCCC(=O)[O-]
REMARK SMILES IDX 10 1 11 2 12 3 13 4 14 5 15 6 16 7 17 8 18 9 19 10 20 11
REMARK SMILES IDX 9 12 8 13 7 14 6 15 5 16 4 17 3 18 2 19 1 20
REMARK H PARENT
REMARK Flexibility Score: inf
ROOT
ATOM      1  C   UNL     1      45.767  21.107  21.252  1.00  0.00     0.000 C 
ENDROOT
BRANCH   1   2
ATOM      2  C   UNL     1      44.395  20.836  21.892  1.00  0.00     0.000 C 
BRANCH   2   3
ATOM      3  C   UNL     1      43.218  21.252  20.988  1.00  0.00     0.000 C 
BRANCH   3   4
ATOM      4  C   UNL     1      42.730  22.701  21.170  1.00  0.00     0.000 C 
BRANCH   4   5
ATOM      5  C   UNL     1      41.719  23.133  20.098  1.00  0.00     0.000 C 
BRANCH   5   6
ATOM      6  C   UNL     1      42.256  22.849  18.690  1.00  0.00     0.000 C 
BRANCH   6   7
ATOM      7  C   UNL     1      41.113  22.494  17.727  1.00  0.00     0.006 C 
BRANCH   7   8
ATOM      8  C   UNL     1      40.036  23.585  17.677  1.00  0.00     0.053 C 
BRANCH   8   9
ATOM      9  C   UNL     1      38.659  23.002  17.590  1.00  0.00     0.041 C 
ATOM     10  O   UNL     1      38.070  22.926  16.479  1.00  0.00    -0.550 OA
ATOM     11  O   UNL     1      38.035  22.520  18.733  1.00  0.00    -0.550 OA
ENDBRANCH   8   9
ENDBRANCH   7   8
ENDBRANCH   6   7
ENDBRANCH   5   6
ENDBRANCH   4   5
ENDBRANCH   3   4
ENDBRANCH   2   3
ENDBRANCH   1   2
BRANCH   1  12
ATOM     12  C   UNL     1      46.634  22.058  22.093  1.00  0.00     0.000 C 
BRANCH  12  13
ATOM     13  C   UNL     1      46.492  23.529  21.663  1.00  0.00    -0.000 C 
BRANCH  13  14
ATOM     14  C   UNL     1      47.156  23.810  20.304  1.00  0.00    -0.000 C 
BRANCH  14  15
ATOM     15  C   UNL     1      46.129  23.970  19.169  1.00  0.00    -0.000 C 
BRANCH  15  16
ATOM     16  C   UNL     1      44.989  24.933  19.539  1.00  0.00    -0.000 C 
BRANCH  16  17
ATOM     17  C   UNL     1      45.434  26.407  19.546  1.00  0.00    -0.000 C 
BRANCH  17  18
ATOM     18  C   UNL     1      44.234  27.376  19.599  1.00  0.00    -0.000 C 
BRANCH  18  19
ATOM     19  C   UNL     1      42.891  26.677  19.871  1.00  0.00    -0.003 C 
ATOM     20  C   UNL     1      42.284  27.052  21.220  1.00  0.00     0.004 C 
ENDBRANCH  18  19
ENDBRANCH  17  18
ENDBRANCH  16  17
ENDBRANCH  15  16
ENDBRANCH  14  15
ENDBRANCH  13  14
ENDBRANCH  12  13
ENDBRANCH   1  12
TORSDOF 16
ENDMDL
MODEL 2
REMARK VINA RESULT:    -4.839      9.413     12.219
REMARK INTER + INTRA:         -11.414
REMARK INTER:                  -8.733
REMARK INTRA:                  -2.681
REMARK UNBOUND:                -2.049
REMARK SMILES CCCCCCCCCCCCCCCCCC(=O)[O-]
REMARK SMILES IDX 10 1 11 2 12 3 13 4 14 5 15 6 16 7 17 8 18 9 19 10 20 11
REMARK SMILES IDX 9 12 8 13 7 14 6 15 5 16 4 17 3 18 2 19 1 20
REMARK H PARENT
REMARK Flexibility Score: inf
ROOT
ATOM      1  C   UNL     1      46.739  31.874  13.705  1.00  0.00     0.000 C 
ENDROOT
BRANCH   1   2
ATOM      2  C   UNL     1      47.401  32.906  14.633  1.00  0.00     0.000 C 
BRANCH   2   3
ATOM      3  C   UNL     1      46.567  34.191  14.795  1.00  0.00     0.000 C 
BRANCH   3   4
ATOM      4  C   UNL     1      46.099  34.493  16.231  1.00  0.00     0.000 C 
BRANCH   4   5
ATOM      5  C   UNL     1      45.050  33.495  16.742  1.00  0.00     0.000 C 
BRANCH   5   6
ATOM      6  C   UNL     1      43.965  33.250  15.687  1.00  0.00     0.000 C 
BRANCH   6   7
ATOM      7  C   UNL     1      43.454  31.802  15.750  1.00  0.00     0.006 C 
BRANCH   7   8
ATOM      8  C   UNL     1      42.875  31.332  14.410  1.00  0.00     0.053 C 
BRANCH   8   9
ATOM      9  C   UNL     1      43.207  29.897  14.134  1.00  0.00     0.041 C 
ATOM     10  O   UNL     1      44.402  29.502  14.180  1.00  0.00    -0.550 OA
ATOM     11  O   UNL     1      42.194  28.991  13.850  1.00  0.00    -0.550 OA
ENDBRANCH   8   9
ENDBRANCH   7   8
ENDBRANCH   6   7
ENDBRANCH   5   6
ENDBRANCH   4   5
ENDBRANCH   3   4
ENDBRANCH   2   3
ENDBRANCH   1   2
BRANCH   1  12
ATOM     12  C   UNL     1      45.864  32.529  12.623  1.00  0.00     0.000 C 
BRANCH  12  13
ATOM     13  C   UNL     1      46.097  31.928  11.226  1.00  0.00    -0.000 C 
BRANCH  13  14
ATOM     14  C   UNL     1      47.051  32.781  10.371  1.00  0.00    -0.000 C 
BRANCH  14  15
ATOM     15  C   UNL     1      48.520  32.344  10.515  1.00  0.00    -0.000 C 
BRANCH  15  16
ATOM     16  C   UNL     1      49.342  33.321  11.370  1.00  0.00    -0.000 C 
BRANCH  16  17
ATOM     17  C   UNL     1      49.058  34.795  11.029  1.00  0.00    -0.000 C 
BRANCH  17  18
ATOM     18  C   UNL     1      48.299  35.517  12.162  1.00  0.00    -0.000 C 
BRANCH  18  19
ATOM     19  C   UNL     1      47.332  36.603  11.660  1.00  0.00    -0.003 C 
ATOM     20  C   UNL     1      45.927  36.072  11.383  1.00  0.00     0.004 C 
ENDBRANCH  18  19
ENDBRANCH  17  18
ENDBRANCH  16  17
ENDBRANCH  15  16
ENDBRANCH  14  15
ENDBRANCH  13  14
ENDBRANCH  12  13
ENDBRANCH   1  12
TORSDOF 16
ENDMDL
MODEL 3
REMARK VINA RESULT:    -4.769      8.489     11.436
REMARK INTER + INTRA:         -11.278
REMARK INTER:                  -9.125
REMARK INTRA:                  -2.153
REMARK UNBOUND:                -2.049
REMARK SMILES CCCCCCCCCCCCCCCCCC(=O)[O-]
REMARK SMILES IDX 10 1 11 2 12 3 13 4 14 5 15 6 16 7 17 8 18 9 19 10 20 11
REMARK SMILES IDX 9 12 8 13 7 14 6 15 5 16 4 17 3 18 2 19 1 20
REMARK H PARENT
REMARK Flexibility Score: inf
ROOT
ATOM      1  C   UNL     1      46.225  34.528  16.484  1.00  0.00     0.000 C 
ENDROOT
BRANCH   1   2
ATOM      2  C   UNL     1      45.367  33.756  17.501  1.00  0.00     0.000 C 
BRANCH   2   3
ATOM      3  C   UNL     1      43.977  33.382  16.953  1.00  0.00     0.000 C 
BRANCH   3   4
ATOM      4  C   UNL     1      43.530  31.934  17.229  1.00  0.00     0.000 C 
BRANCH   4   5
ATOM      5  C   UNL     1      44.681  31.029  17.692  1.00  0.00     0.000 C 
BRANCH   5   6
ATOM      6  C   UNL     1      44.888  29.862  16.718  1.00  0.00     0.000 C 
BRANCH   6   7
ATOM      7  C   UNL     1      45.180  30.376  15.299  1.00  0.00     0.006 C 
BRANCH   7   8
ATOM      8  C   UNL     1      44.489  29.530  14.222  1.00  0.00     0.053 C 
BRANCH   8   9
ATOM      9  C   UNL     1      43.040  29.883  14.085  1.00  0.00     0.041 C 
ATOM     10  O   UNL     1      42.174  28.976  13.969  1.00  0.00    -0.550 OA
ATOM     11  O   UNL     1      42.642  31.213  14.110  1.00  0.00    -0.550 OA
ENDBRANCH   8   9
ENDBRANCH   7   8
ENDBRANCH   6   7
ENDBRANCH   5   6
ENDBRANCH   4   5
ENDBRANCH   3   4
ENDBRANCH   2   3
ENDBRANCH   1   2
BRANCH   1  12
ATOM     12  C   UNL     1      45.868  34.185  15.029  1.00  0.00     0.000 C 
BRANCH  12  13
ATOM     13  C   UNL     1      46.861  34.782  14.016  1.00  0.00    -0.000 C 
BRANCH  13  14
ATOM     14  C   UNL     1      46.170  35.258  12.727  1.00  0.00    -0.000 C 
BRANCH  14  15
ATOM     15  C   UNL     1      47.134  35.316  11.529  1.00  0.00    -0.000 C 
BRANCH  15  16
ATOM     16  C   UNL     1      48.321  34.352  11.683  1.00  0.00    -0.000 C 
BRANCH  16  17
ATOM     17  C   UNL     1      48.425  33.347  10.522  1.00  0.00    -0.000 C 
BRANCH  17  18
ATOM     18  C   UNL     1      47.092  32.610  10.270  1.00  0.00    -0.000 C 
BRANCH  18  19
ATOM     19  C   UNL     1      46.622  31.764  11.465  1.00  0.00    -0.003 C 
ATOM     20  C   UNL     1      45.134  31.929  11.766  1.00  0.00     0.004 C 
ENDBRANCH  18  19
ENDBRANCH  17  18
ENDBRANCH  16  17
ENDBRANCH  15  16
ENDBRANCH  14  15
ENDBRANCH  13  14
ENDBRANCH  12  13
ENDBRANCH   1  12
TORSDOF 16
ENDMDL
MODEL 4
REMARK VINA RESULT:    -4.693      9.374     12.790
REMARK INTER + INTRA:         -11.132
REMARK INTER:                  -8.617
REMARK INTRA:                  -2.514
REMARK UNBOUND:                -2.049
REMARK SMILES CCCCCCCCCCCCCCCCCC(=O)[O-]
REMARK SMILES IDX 10 1 11 2 12 3 13 4 14 5 15 6 16 7 17 8 18 9 19 10 20 11
REMARK SMILES IDX 9 12 8 13 7 14 6 15 5 16 4 17 3 18 2 19 1 20
REMARK H PARENT
REMARK Flexibility Score: inf
ROOT
ATOM      1  C   UNL     1      47.168  33.614  14.890  1.00  0.00     0.000 C 
ENDROOT
BRANCH   1   2
ATOM      2  C   UNL     1      47.840  34.882  15.444  1.00  0.00     0.000 C 
BRANCH   2   3
ATOM      3  C   UNL     1      47.888  36.033  14.421  1.00  0.00     0.000 C 
BRANCH   3   4
ATOM      4  C   UNL     1      48.960  35.891  13.325  1.00  0.00     0.000 C 
BRANCH   4   5
ATOM      5  C   UNL     1      48.401  36.096  11.909  1.00  0.00     0.000 C 
BRANCH   5   6
ATOM      6  C   UNL     1      46.868  36.046  11.911  1.00  0.00     0.000 C 
BRANCH   6   7
ATOM      7  C   UNL     1      46.351  34.998  10.913  1.00  0.00     0.006 C 
BRANCH   7   8
ATOM      8  C   UNL     1      47.274  33.777  10.824  1.00  0.00     0.053 C 
BRANCH   8   9
ATOM      9  C   UNL     1      46.522  32.497  11.026  1.00  0.00     0.041 C 
ATOM     10  O   UNL     1      47.052  31.395  10.725  1.00  0.00    -0.550 OA
ATOM     11  O   UNL     1      45.245  32.520  11.571  1.00  0.00    -0.550 OA
ENDBRANCH   8   9
ENDBRANCH   7   8
ENDBRANCH   6   7
ENDBRANCH   5   6
ENDBRANCH   4   5
ENDBRANCH   3   4
ENDBRANCH   2   3
ENDBRANCH   1   2
BRANCH   1  12
ATOM     12  C   UNL     1      45.644  33.766  14.750  1.00  0.00     0.000 C 
BRANCH  12  13
ATOM     13  C   UNL     1      44.923  33.797  16.109  1.00  0.00    -0.000 C 
BRANCH  13  14
ATOM     14  C   UNL     1      43.574  33.059  16.075  1.00  0.00    -0.000 C 
BRANCH  14  15
ATOM     15  C   UNL     1      43.480  31.957  17.146  1.00  0.00    -0.000 C 
BRANCH  15  16
ATOM     16  C   UNL     1      44.789  31.163  17.290  1.00  0.00    -0.000 C 
BRANCH  16  17
ATOM     17  C   UNL     1      44.807  29.886  16.431  1.00  0.00    -0.000 C 
BRANCH  17  18
ATOM     18  C   UNL     1      45.621  30.070  15.132  1.00  0.00    -0.000 C 
BRANCH  18  19
ATOM     19  C   UNL     1      44.767  29.992  13.855  1.00  0.00    -0.003 C 
ATOM     20  C   UNL     1      43.311  29.627  14.130  1.00  0.00     0.004 C 
ENDBRANCH  18  19
ENDBRANCH  17  18
ENDBRANCH  16  17
ENDBRANCH  15  16
ENDBRANCH  14  15
ENDBRANCH  13  14
ENDBRANCH  12  13
ENDBRANCH   1  12
TORSDOF 16
ENDMDL
MODEL 5
REMARK VINA RESULT:    -4.691      8.646     11.779
REMARK INTER + INTRA:         -11.127
REMARK INTER:                  -8.260
REMARK INTRA:                  -2.867
REMARK UNBOUND:                -2.049
REMARK SMILES CCCCCCCCCCCCCCCCCC(=O)[O-]
REMARK SMILES IDX 10 1 11 2 12 3 13 4 14 5 15 6 16 7 17 8 18 9 19 10 20 11
REMARK SMILES IDX 9 12 8 13 7 14 6 15 5 16 4 17 3 18 2 19 1 20
REMARK H PARENT
REMARK Flexibility Score: inf
ROOT
ATOM      1  C   UNL     1      44.541  29.615  13.872  1.00  0.00     0.000 C 
ENDROOT
BRANCH   1   2
ATOM      2  C   UNL     1      45.299  30.789  13.229  1.00  0.00     0.000 C 
BRANCH   2   3
ATOM      3  C   UNL     1      46.444  31.320  14.112  1.00  0.00     0.000 C 
BRANCH   3   4
ATOM      4  C   UNL     1      46.845  32.785  13.857  1.00  0.00     0.000 C 
BRANCH   4   5
ATOM      5  C   UNL     1      46.022  33.446  12.741  1.00  0.00     0.000 C 
BRANCH   5   6
ATOM      6  C   UNL     1      46.927  34.226  11.780  1.00  0.00     0.000 C 
BRANCH   6   7
ATOM      7  C   UNL     1      47.145  33.446  10.475  1.00  0.00     0.006 C 
BRANCH   7   8
ATOM      8  C   UNL     1      48.555  32.848  10.385  1.00  0.00     0.053 C 
BRANCH   8   9
ATOM      9  C   UNL     1      48.557  31.383  10.701  1.00  0.00     0.041 C 
ATOM     10  O   UNL     1      47.499  30.708  10.593  1.00  0.00    -0.550 OA
ATOM     11  O   UNL     1      49.735  30.758  11.091  1.00  0.00    -0.550 OA
ENDBRANCH   8   9
ENDBRANCH   7   8
ENDBRANCH   6   7
ENDBRANCH   5   6
ENDBRANCH   4   5
ENDBRANCH   3   4
ENDBRANCH   2   3
ENDBRANCH   1   2
BRANCH   1  12
ATOM     12  C   UNL     1      43.278  30.069  14.623  1.00  0.00     0.000 C 
BRANCH  12  13
ATOM     13  C   UNL     1      42.842  31.495  14.246  1.00  0.00    -0.000 C 
BRANCH  13  14
ATOM     14  C   UNL     1      42.584  32.376  15.480  1.00  0.00    -0.000 C 
BRANCH  14  15
ATOM     15  C   UNL     1      43.741  33.353  15.759  1.00  0.00    -0.000 C 
BRANCH  15  16
ATOM     16  C   UNL     1      44.186  33.332  17.230  1.00  0.00    -0.000 C 
BRANCH  16  17
ATOM     17  C   UNL     1      45.633  32.837  17.407  1.00  0.00    -0.000 C 
BRANCH  17  18
ATOM     18  C   UNL     1      45.718  31.617  18.349  1.00  0.00    -0.000 C 
BRANCH  18  19
ATOM     19  C   UNL     1      44.690  30.519  18.029  1.00  0.00    -0.003 C 
ATOM     20  C   UNL     1      45.333  29.217  17.557  1.00  0.00     0.004 C 
ENDBRANCH  18  19
ENDBRANCH  17  18
ENDBRANCH  16  17
ENDBRANCH  15  16
ENDBRANCH  14  15
ENDBRANCH  13  14
ENDBRANCH  12  13
ENDBRANCH   1  12
TORSDOF 16
ENDMDL
MODEL 6
REMARK VINA RESULT:    -4.654      9.143     12.462
REMARK INTER + INTRA:         -11.057
REMARK INTER:                  -8.495
REMARK INTRA:                  -2.563
REMARK UNBOUND:                -2.049
REMARK SMILES CCCCCCCCCCCCCCCCCC(=O)[O-]
REMARK SMILES IDX 10 1 11 2 12 3 13 4 14 5 15 6 16 7 17 8 18 9 19 10 20 11
REMARK SMILES IDX 9 12 8 13 7 14 6 15 5 16 4 17 3 18 2 19 1 20
REMARK H PARENT
REMARK Flexibility Score: inf
ROOT
ATOM      1  C   UNL     1      46.616  34.994  16.682  1.00  0.00     0.000 C 
ENDROOT
BRANCH   1   2
ATOM      2  C   UNL     1      46.850  33.961  15.568  1.00  0.00     0.000 C 
BRANCH   2   3
ATOM      3  C   UNL     1      46.418  34.467  14.178  1.00  0.00     0.000 C 
BRANCH   3   4
ATOM      4  C   UNL     1      47.302  35.577  13.580  1.00  0.00     0.000 C 
BRANCH   4   5
ATOM      5  C   UNL     1      47.785  35.258  12.157  1.00  0.00     0.000 C 
BRANCH   5   6
ATOM      6  C   UNL     1      46.602  34.936  11.235  1.00  0.00     0.000 C 
BRANCH   6   7
ATOM      7  C   UNL     1      46.888  33.684  10.391  1.00  0.00     0.006 C 
BRANCH   7   8
ATOM      8  C   UNL     1      46.412  32.399  11.079  1.00  0.00     0.053 C 
BRANCH   8   9
ATOM      9  C   UNL     1      47.562  31.527  11.483  1.00  0.00     0.041 C 
ATOM     10  O   UNL     1      48.047  30.698  10.669  1.00  0.00    -0.550 OA
ATOM     11  O   UNL     1      48.113  31.648  12.752  1.00  0.00    -0.550 OA
ENDBRANCH   8   9
ENDBRANCH   7   8
ENDBRANCH   6   7
ENDBRANCH   5   6
ENDBRANCH   4   5
ENDBRANCH   3   4
ENDBRANCH   2   3
ENDBRANCH   1   2
BRANCH   1  12
ATOM     12  C   UNL     1      45.651  34.486  17.766  1.00  0.00     0.000 C 
BRANCH  12  13
ATOM     13  C   UNL     1      45.086  33.090  17.451  1.00  0.00    -0.000 C 
BRANCH  13  14
ATOM     14  C   UNL     1      43.577  33.122  17.155  1.00  0.00    -0.000 C 
BRANCH  14  15
ATOM     15  C   UNL     1      43.274  33.196  15.647  1.00  0.00    -0.000 C 
BRANCH  15  16
ATOM     16  C   UNL     1      43.069  31.807  15.020  1.00  0.00    -0.000 C 
BRANCH  16  17
ATOM     17  C   UNL     1      44.066  31.515  13.884  1.00  0.00    -0.000 C 
BRANCH  17  18
ATOM     18  C   UNL     1      44.832  30.194  14.110  1.00  0.00    -0.000 C 
BRANCH  18  19
ATOM     19  C   UNL     1      45.890  30.280  15.223  1.00  0.00    -0.003 C 
ATOM     20  C   UNL     1      45.455  29.595  16.516  1.00  0.00     0.004 C 
ENDBRANCH  18  19
ENDBRANCH  17  18
ENDBRANCH  16  17
ENDBRANCH  15  16
ENDBRANCH  14  15
ENDBRANCH  13  14
ENDBRANCH  12  13
ENDBRANCH   1  12
TORSDOF 16
ENDMDL
MODEL 7
REMARK VINA RESULT:    -4.644      8.187     11.548
REMARK INTER + INTRA:         -11.037
REMARK INTER:                  -8.394
REMARK INTRA:                  -2.642
REMARK UNBOUND:                -2.049
REMARK SMILES CCCCCCCCCCCCCCCCCC(=O)[O-]
REMARK SMILES IDX 10 1 11 2 12 3 13 4 14 5 15 6 16 7 17 8 18 9 19 10 20 11
REMARK SMILES IDX 9 12 8 13 7 14 6 15 5 16 4 17 3 18 2 19 1 20
REMARK H PARENT
REMARK Flexibility Score: inf
ROOT
ATOM      1  C   UNL     1      43.448  32.512  17.088  1.00  0.00     0.000 C 
ENDROOT
BRANCH   1   2
ATOM      2  C   UNL     1      44.576  33.443  17.562  1.00  0.00     0.000 C 
BRANCH   2   3
ATOM      3  C   UNL     1      45.764  33.495  16.583  1.00  0.00     0.000 C 
BRANCH   3   4
ATOM      4  C   UNL     1      46.497  34.848  16.512  1.00  0.00     0.000 C 
BRANCH   4   5
ATOM      5  C   UNL     1      46.995  35.187  15.099  1.00  0.00     0.000 C 
BRANCH   5   6
ATOM      6  C   UNL     1      46.129  34.504  14.033  1.00  0.00     0.000 C 
BRANCH   6   7
ATOM      7  C   UNL     1      46.997  33.697  13.056  1.00  0.00     0.006 C 
BRANCH   7   8
ATOM      8  C   UNL     1      46.379  33.625  11.654  1.00  0.00     0.053 C 
BRANCH   8   9
ATOM      9  C   UNL     1      46.938  32.486  10.858  1.00  0.00     0.041 C 
ATOM     10  O   UNL     1      48.020  32.622  10.227  1.00  0.00    -0.550 OA
ATOM     11  O   UNL     1      46.277  31.265  10.833  1.00  0.00    -0.550 OA
ENDBRANCH   8   9
ENDBRANCH   7   8
ENDBRANCH   6   7
ENDBRANCH   5   6
ENDBRANCH   4   5
ENDBRANCH   3   4
ENDBRANCH   2   3
ENDBRANCH   1   2
BRANCH   1  12
ATOM     12  C   UNL     1      42.906  32.899  15.702  1.00  0.00     0.000 C 
BRANCH  12  13
ATOM     13  C   UNL     1      42.794  31.696  14.749  1.00  0.00    -0.000 C 
BRANCH  13  14
ATOM     14  C   UNL     1      43.979  31.608  13.773  1.00  0.00    -0.000 C 
BRANCH  14  15
ATOM     15  C   UNL     1      44.632  30.215  13.763  1.00  0.00    -0.000 C 
BRANCH  15  16
ATOM     16  C   UNL     1      44.884  29.674  15.180  1.00  0.00    -0.000 C 
BRANCH  16  17
ATOM     17  C   UNL     1      46.294  30.005  15.701  1.00  0.00    -0.000 C 
BRANCH  17  18
ATOM     18  C   UNL     1      46.362  29.989  17.243  1.00  0.00    -0.000 C 
BRANCH  18  19
ATOM     19  C   UNL     1      45.149  29.313  17.905  1.00  0.00    -0.003 C 
ATOM     20  C   UNL     1      45.531  28.124  18.782  1.00  0.00     0.004 C 
ENDBRANCH  18  19
ENDBRANCH  17  18
ENDBRANCH  16  17
ENDBRANCH  15  16
ENDBRANCH  14  15
ENDBRANCH  13  14
ENDBRANCH  12  13
ENDBRANCH   1  12
TORSDOF 16
ENDMDL
MODEL 8
REMARK VINA RESULT:    -4.641      7.878     11.057
REMARK INTER + INTRA:         -11.031
REMARK INTER:                  -8.282
REMARK INTRA:                  -2.749
REMARK UNBOUND:                -2.049
REMARK SMILES CCCCCCCCCCCCCCCCCC(=O)[O-]
REMARK SMILES IDX 10 1 11 2 12 3 13 4 14 5 15 6 16 7 17 8 18 9 19 10 20 11
REMARK SMILES IDX 9 12 8 13 7 14 6 15 5 16 4 17 3 18 2 19 1 20
REMARK H PARENT
REMARK Flexibility Score: inf
ROOT
ATOM      1  C   UNL     1      42.748  32.502  15.945  1.00  0.00     0.000 C 
ENDROOT
BRANCH   1   2
ATOM      2  C   UNL     1      43.924  33.366  16.432  1.00  0.00     0.000 C 
BRANCH   2   3
ATOM      3  C   UNL     1      44.966  33.638  15.330  1.00  0.00     0.000 C 
BRANCH   3   4
ATOM      4  C   UNL     1      46.366  33.051  15.593  1.00  0.00     0.000 C 
BRANCH   4   5
ATOM      5  C   UNL     1      46.392  32.066  16.771  1.00  0.00     0.000 C 
BRANCH   5   6
ATOM      6  C   UNL     1      46.705  30.644  16.291  1.00  0.00     0.000 C 
BRANCH   6   7
ATOM      7  C   UNL     1      46.037  29.598  17.197  1.00  0.00     0.006 C 
BRANCH   7   8
ATOM      8  C   UNL     1      44.758  30.133  17.854  1.00  0.00     0.053 C 
BRANCH   8   9
ATOM      9  C   UNL     1      44.720  29.831  19.321  1.00  0.00     0.041 C 
ATOM     10  O   UNL     1      45.402  30.516  20.129  1.00  0.00    -0.550 OA
ATOM     11  O   UNL     1      43.913  28.808  19.799  1.00  0.00    -0.550 OA
ENDBRANCH   8   9
ENDBRANCH   7   8
ENDBRANCH   6   7
ENDBRANCH   5   6
ENDBRANCH   4   5
ENDBRANCH   3   4
ENDBRANCH   2   3
ENDBRANCH   1   2
BRANCH   1  12
ATOM     12  C   UNL     1      42.961  31.964  14.520  1.00  0.00     0.000 C 
BRANCH  12  13
ATOM     13  C   UNL     1      43.262  30.455  14.494  1.00  0.00    -0.000 C 
BRANCH  13  14
ATOM     14  C   UNL     1      44.446  30.108  13.576  1.00  0.00    -0.000 C 
BRANCH  14  15
ATOM     15  C   UNL     1      44.641  31.140  12.451  1.00  0.00    -0.000 C 
BRANCH  15  16
ATOM     16  C   UNL     1      46.107  31.578  12.302  1.00  0.00    -0.000 C 
BRANCH  16  17
ATOM     17  C   UNL     1      46.487  31.897  10.844  1.00  0.00    -0.000 C 
BRANCH  17  18
ATOM     18  C   UNL     1      46.847  33.386  10.651  1.00  0.00    -0.000 C 
BRANCH  18  19
ATOM     19  C   UNL     1      46.151  34.322  11.653  1.00  0.00    -0.003 C 
ATOM     20  C   UNL     1      46.172  35.786  11.219  1.00  0.00     0.004 C 
ENDBRANCH  18  19
ENDBRANCH  17  18
ENDBRANCH  16  17
ENDBRANCH  15  16
ENDBRANCH  14  15
ENDBRANCH  13  14
ENDBRANCH  12  13
ENDBRANCH   1  12
TORSDOF 16
ENDMDL
MODEL 9
REMARK VINA RESULT:    -4.607      9.132     12.308
REMARK INTER + INTRA:         -10.965
REMARK INTER:                  -8.457
REMARK INTRA:                  -2.509
REMARK UNBOUND:                -2.049
REMARK SMILES CCCCCCCCCCCCCCCCCC(=O)[O-]
REMARK SMILES IDX 10 1 11 2 12 3 13 4 14 5 15 6 16 7 17 8 18 9 19 10 20 11
REMARK SMILES IDX 9 12 8 13 7 14 6 15 5 16 4 17 3 18 2 19 1 20
REMARK H PARENT
REMARK Flexibility Score: inf
ROOT
ATOM      1  C   UNL     1      47.195  35.146  14.804  1.00  0.00     0.000 C 
ENDROOT
BRANCH   1   2
ATOM      2  C   UNL     1      47.383  35.210  16.329  1.00  0.00     0.000 C 
BRANCH   2   3
ATOM      3  C   UNL     1      46.092  34.892  17.107  1.00  0.00     0.000 C 
BRANCH   3   4
ATOM      4  C   UNL     1      45.590  33.441  16.981  1.00  0.00     0.000 C 
BRANCH   4   5
ATOM      5  C   UNL     1      44.160  33.253  17.507  1.00  0.00     0.000 C 
BRANCH   5   6
ATOM      6  C   UNL     1      43.161  33.129  16.349  1.00  0.00     0.000 C 
BRANCH   6   7
ATOM      7  C   UNL     1      43.862  32.653  15.068  1.00  0.00     0.006 C 
BRANCH   7   8
ATOM      8  C   UNL     1      43.279  31.335  14.544  1.00  0.00     0.053 C 
BRANCH   8   9
ATOM      9  C   UNL     1      44.191  30.177  14.816  1.00  0.00     0.041 C 
ATOM     10  O   UNL     1      44.603  29.956  15.986  1.00  0.00    -0.550 OA
ATOM     11  O   UNL     1      44.566  29.330  13.783  1.00  0.00    -0.550 OA
ENDBRANCH   8   9
ENDBRANCH   7   8
ENDBRANCH   6   7
ENDBRANCH   5   6
ENDBRANCH   4   5
ENDBRANCH   3   4
ENDBRANCH   2   3
ENDBRANCH   1   2
BRANCH   1  12
ATOM     12  C   UNL     1      48.080  36.157  14.056  1.00  0.00     0.000 C 
BRANCH  12  13
ATOM     13  C   UNL     1      48.201  35.844  12.554  1.00  0.00    -0.000 C 
BRANCH  13  14
ATOM     14  C   UNL     1      46.971  36.307  11.757  1.00  0.00    -0.000 C 
BRANCH  14  15
ATOM     15  C   UNL     1      46.184  35.131  11.152  1.00  0.00    -0.000 C 
BRANCH  15  16
ATOM     16  C   UNL     1      47.104  34.029  10.603  1.00  0.00    -0.000 C 
BRANCH  16  17
ATOM     17  C   UNL     1      46.594  32.612  10.926  1.00  0.00    -0.000 C 
BRANCH  17  18
ATOM     18  C   UNL     1      46.458  32.377  12.445  1.00  0.00    -0.000 C 
BRANCH  18  19
ATOM     19  C   UNL     1      47.734  31.817  13.097  1.00  0.00    -0.003 C 
ATOM     20  C   UNL     1      47.564  31.516  14.584  1.00  0.00     0.004 C 
ENDBRANCH  18  19
ENDBRANCH  17  18
ENDBRANCH  16  17
ENDBRANCH  15  16
ENDBRANCH  14  15
ENDBRANCH  13  14
ENDBRANCH  12  13
ENDBRANCH   1  12
TORSDOF 16
ENDMDL
