MODEL 1
REMARK VINA RESULT:    15.230      0.000      0.000
REMARK INTER + INTRA:          26.936
REMARK INTER:                  27.694
REMARK INTRA:                  -0.758
REMARK UNBOUND:                -0.758
REMARK SMILES CCCCCCCCCCCCCC[C@@H](C)C(=O)[O-]
REMARK SMILES IDX 9 1 10 2 11 3 12 4 13 5 14 6 15 7 16 8 17 9 18 10 19 11 8 12
REMARK SMILES IDX 7 13 6 14 5 15 4 16 3 17 2 18 1 19
REMARK H PARENT
REMARK Flexibility Score: inf
ROOT
ATOM      1  C   UNL     1      -6.441 -11.227  23.836  1.00  0.00     0.000 C 
ENDROOT
BRANCH   1   2
ATOM      2  C   UNL     1      -6.286 -12.732  24.117  1.00  0.00     0.000 C 
BRANCH   2   3
ATOM      3  C   UNL     1      -6.317 -13.083  25.620  1.00  0.00     0.000 C 
BRANCH   3   4
ATOM      4  C   UNL     1      -5.070 -13.879  26.088  1.00  0.00     0.000 C 
BRANCH   4   5
ATOM      5  C   UNL     1      -5.317 -15.395  26.145  1.00  0.00     0.001 C 
BRANCH   5   6
ATOM      6  C   UNL     1      -4.293 -16.188  25.312  1.00  0.00     0.009 C 
BRANCH   6   7
ATOM      7  C   UNL     1      -4.677 -17.678  25.191  1.00  0.00     0.032 C 
ATOM      8  C   UNL     1      -5.732 -18.057  26.238  1.00  0.00     0.014 C 
BRANCH   7   9
ATOM      9  C   UNL     1      -5.171 -18.003  23.808  1.00  0.00     0.044 C 
ATOM     10  O   UNL     1      -4.536 -17.618  22.791  1.00  0.00    -0.550 OA
ATOM     11  O   UNL     1      -6.317 -18.766  23.646  1.00  0.00    -0.550 OA
ENDBRANCH   7   9
ENDBRANCH   6   7
ENDBRANCH   5   6
ENDBRANCH   4   5
ENDBRANCH   3   4
ENDBRANCH   2   3
ENDBRANCH   1   2
BRANCH   1  12
ATOM     12  C   UNL     1      -6.022 -10.349  25.023  1.00  0.00     0.000 C 
BRANCH  12  13
ATOM     13  C   UNL     1      -5.412  -9.009  24.581  1.00  0.00    -0.000 C 
BRANCH  13  14
ATOM     14  C   UNL     1      -3.971  -8.811  25.076  1.00  0.00    -0.000 C 
BRANCH  14  15
ATOM     15  C   UNL     1      -3.130  -8.075  24.024  1.00  0.00    -0.000 C 
BRANCH  15  16
ATOM     16  C   UNL     1      -1.649  -8.496  24.037  1.00  0.00    -0.000 C 
BRANCH  16  17
ATOM     17  C   UNL     1      -1.150  -9.065  25.377  1.00  0.00    -0.000 C 
BRANCH  17  18
ATOM     18  C   UNL     1      -0.044  -8.212  26.012  1.00  0.00    -0.003 C 
ATOM     19  C   UNL     1       0.683  -8.981  27.111  1.00  0.00     0.004 C 
ENDBRANCH  17  18
ENDBRANCH  16  17
ENDBRANCH  15  16
ENDBRANCH  14  15
ENDBRANCH  13  14
ENDBRANCH  12  13
ENDBRANCH   1  12
TORSDOF 14
ENDMDL
MODEL 2
REMARK VINA RESULT:    15.466      3.722      8.450
REMARK INTER + INTRA:          27.366
REMARK INTER:                  28.170
REMARK INTRA:                  -0.804
REMARK UNBOUND:                -0.758
REMARK SMILES CCCCCCCCCCCCCC[C@@H](C)C(=O)[O-]
REMARK SMILES IDX 9 1 10 2 11 3 12 4 13 5 14 6 15 7 16 8 17 9 18 10 19 11 8 12
REMARK SMILES IDX 7 13 6 14 5 15 4 16 3 17 2 18 1 19
REMARK H PARENT
REMARK Flexibility Score: inf
ROOT
ATOM      1  C   UNL     1      -6.564 -11.478  23.923  1.00  0.00     0.000 C 
ENDROOT
BRANCH   1   2
ATOM      2  C   UNL     1      -6.019 -10.571  25.040  1.00  0.00     0.000 C 
BRANCH   2   3
ATOM      3  C   UNL     1      -5.607  -9.168  24.547  1.00  0.00     0.000 C 
BRANCH   3   4
ATOM      4  C   UNL     1      -4.175  -8.761  24.984  1.00  0.00     0.000 C 
BRANCH   4   5
ATOM      5  C   UNL     1      -3.383  -8.069  23.864  1.00  0.00     0.001 C 
BRANCH   5   6
ATOM      6  C   UNL     1      -1.921  -7.796  24.263  1.00  0.00     0.009 C 
BRANCH   6   7
ATOM      7  C   UNL     1      -1.327  -8.946  25.104  1.00  0.00     0.032 C 
ATOM      8  C   UNL     1      -0.896 -10.113  24.206  1.00  0.00     0.014 C 
BRANCH   7   9
ATOM      9  C   UNL     1      -0.168  -8.470  25.937  1.00  0.00     0.044 C 
ATOM     10  O   UNL     1       0.344  -9.217  26.813  1.00  0.00    -0.550 OA
ATOM     11  O   UNL     1       0.368  -7.211  25.718  1.00  0.00    -0.550 OA
ENDBRANCH   7   9
ENDBRANCH   6   7
ENDBRANCH   5   6
ENDBRANCH   4   5
ENDBRANCH   3   4
ENDBRANCH   2   3
ENDBRANCH   1   2
BRANCH   1  12
ATOM     12  C   UNL     1      -6.104 -12.937  24.057  1.00  0.00     0.000 C 
BRANCH  12  13
ATOM     13  C   UNL     1      -5.985 -13.389  25.521  1.00  0.00    -0.000 C 
BRANCH  13  14
ATOM     14  C   UNL     1      -4.812 -14.352  25.760  1.00  0.00    -0.000 C 
BRANCH  14  15
ATOM     15  C   UNL     1      -5.301 -15.653  26.412  1.00  0.00    -0.000 C 
BRANCH  15  16
ATOM     16  C   UNL     1      -4.550 -16.897  25.905  1.00  0.00    -0.000 C 
BRANCH  16  17
ATOM     17  C   UNL     1      -5.409 -18.169  25.789  1.00  0.00    -0.000 C 
BRANCH  17  18
ATOM     18  C   UNL     1      -5.728 -18.542  24.335  1.00  0.00    -0.003 C 
ATOM     19  C   UNL     1      -5.008 -17.618  23.358  1.00  0.00     0.004 C 
ENDBRANCH  17  18
ENDBRANCH  16  17
ENDBRANCH  15  16
ENDBRANCH  14  15
ENDBRANCH  13  14
ENDBRANCH  12  13
ENDBRANCH   1  12
TORSDOF 14
ENDMDL
MODEL 3
REMARK VINA RESULT:    17.204      1.564      2.832
REMARK INTER + INTRA:          30.527
REMARK INTER:                  31.265
REMARK INTRA:                  -0.738
REMARK UNBOUND:                -0.758
REMARK SMILES CCCCCCCCCCCCCC[C@@H](C)C(=O)[O-]
REMARK SMILES IDX 9 1 10 2 11 3 12 4 13 5 14 6 15 7 16 8 17 9 18 10 19 11 8 12
REMARK SMILES IDX 7 13 6 14 5 15 4 16 3 17 2 18 1 19
REMARK H PARENT
REMARK Flexibility Score: inf
ROOT
ATOM      1  C   UNL     1      -6.026 -11.101  24.025  1.00  0.00     0.000 C 
ENDROOT
BRANCH   1   2
ATOM      2  C   UNL     1      -6.696 -12.275  24.761  1.00  0.00     0.000 C 
BRANCH   2   3
ATOM      3  C   UNL     1      -5.777 -13.505  24.921  1.00  0.00     0.000 C 
BRANCH   3   4
ATOM      4  C   UNL     1      -5.562 -13.919  26.400  1.00  0.00     0.000 C 
BRANCH   4   5
ATOM      5  C   UNL     1      -5.096 -15.376  26.551  1.00  0.00     0.001 C 
BRANCH   5   6
ATOM      6  C   UNL     1      -4.588 -15.969  25.224  1.00  0.00     0.009 C 
BRANCH   6   7
ATOM      7  C   UNL     1      -4.667 -17.510  25.212  1.00  0.00     0.032 C 
ATOM      8  C   UNL     1      -5.548 -18.021  26.359  1.00  0.00     0.014 C 
BRANCH   7   9
ATOM      9  C   UNL     1      -5.179 -18.019  23.892  1.00  0.00     0.044 C 
ATOM     10  O   UNL     1      -6.207 -18.744  23.837  1.00  0.00    -0.550 OA
ATOM     11  O   UNL     1      -4.536 -17.659  22.717  1.00  0.00    -0.550 OA
ENDBRANCH   7   9
ENDBRANCH   6   7
ENDBRANCH   5   6
ENDBRANCH   4   5
ENDBRANCH   3   4
ENDBRANCH   2   3
ENDBRANCH   1   2
BRANCH   1  12
ATOM     12  C   UNL     1      -6.124  -9.776  24.794  1.00  0.00     0.000 C 
BRANCH  12  13
ATOM     13  C   UNL     1      -4.758  -9.282  25.297  1.00  0.00    -0.000 C 
BRANCH  13  14
ATOM     14  C   UNL     1      -4.120  -8.234  24.372  1.00  0.00    -0.000 C 
BRANCH  14  15
ATOM     15  C   UNL     1      -2.643  -8.566  24.110  1.00  0.00    -0.000 C 
BRANCH  15  16
ATOM     16  C   UNL     1      -2.017  -7.687  23.013  1.00  0.00    -0.000 C 
BRANCH  16  17
ATOM     17  C   UNL     1      -3.017  -7.110  21.995  1.00  0.00    -0.000 C 
BRANCH  17  18
ATOM     18  C   UNL     1      -2.505  -7.181  20.550  1.00  0.00    -0.003 C 
ATOM     19  C   UNL     1      -3.662  -7.245  19.558  1.00  0.00     0.004 C 
ENDBRANCH  17  18
ENDBRANCH  16  17
ENDBRANCH  15  16
ENDBRANCH  14  15
ENDBRANCH  13  14
ENDBRANCH  12  13
ENDBRANCH   1  12
TORSDOF 14
ENDMDL
