MODEL 1
REMARK VINA RESULT:    -5.335      0.000      0.000
REMARK INTER + INTRA:          -5.705
REMARK INTER:                  -5.647
REMARK INTRA:                  -0.058
REMARK UNBOUND:                -0.058
REMARK SMILES CC1=C[C@@H]2C(=C(C)CC[C@@H]2C(C)C)CC1
REMARK SMILES IDX 1 1 2 2 3 3 4 4 10 5 9 6 8 7 6 8 5 9 14 10 15 11 7 12 11 13
REMARK SMILES IDX 12 14 13 15
REMARK H PARENT
REMARK Flexibility Score: inf
ROOT
ATOM      1  C   UNL     1       1.261   6.372  15.202  1.00  0.00     0.039 C 
ATOM      2  C   UNL     1       0.496   5.683  14.105  1.00  0.00    -0.076 C 
ATOM      3  C   UNL     1       0.886   4.460  13.697  1.00  0.00    -0.020 C 
ATOM      4  C   UNL     1       0.205   3.701  12.577  1.00  0.00     0.041 C 
ATOM      5  C   UNL     1      -0.175   2.243  12.957  1.00  0.00     0.003 C 
ATOM      6  C   UNL     1      -0.580   1.567  11.628  1.00  0.00     0.009 C 
ATOM      7  C   UNL     1      -1.804   2.247  10.992  1.00  0.00     0.031 C 
ATOM      8  C   UNL     1      -1.824   3.767  11.112  1.00  0.00    -0.073 C 
ATOM      9  C   UNL     1      -0.965   4.436  11.938  1.00  0.00    -0.064 C 
ATOM     10  C   UNL     1      -0.987   5.945  12.090  1.00  0.00     0.036 C 
ATOM     11  C   UNL     1      -0.757   6.321  13.553  1.00  0.00     0.035 C 
ATOM     12  C   UNL     1      -2.918   4.484  10.359  1.00  0.00     0.039 C 
ENDROOT
BRANCH   5  13
ATOM     13  C   UNL     1      -1.283   2.109  14.071  1.00  0.00    -0.013 C 
ATOM     14  C   UNL     1      -1.827   0.669  14.169  1.00  0.00     0.007 C 
ATOM     15  C   UNL     1      -0.776   2.528  15.465  1.00  0.00     0.007 C 
ENDBRANCH   5  13
TORSDOF 1
ENDMDL
MODEL 2
REMARK VINA RESULT:    -5.109      1.159      4.638
REMARK INTER + INTRA:          -5.466
REMARK INTER:                  -5.551
REMARK INTRA:                   0.085
REMARK UNBOUND:                -0.058
REMARK SMILES CC1=C[C@@H]2C(=C(C)CC[C@@H]2C(C)C)CC1
REMARK SMILES IDX 1 1 2 2 3 3 4 4 10 5 9 6 8 7 6 8 5 9 14 10 15 11 7 12 11 13
REMARK SMILES IDX 12 14 13 15
REMARK H PARENT
REMARK Flexibility Score: inf
ROOT
ATOM      1  C   UNL     1      -1.380  -0.107  12.236  1.00  0.00     0.039 C 
ATOM      2  C   UNL     1      -0.936   1.301  12.523  1.00  0.00    -0.076 C 
ATOM      3  C   UNL     1      -0.642   2.122  11.495  1.00  0.00    -0.020 C 
ATOM      4  C   UNL     1      -0.153   3.543  11.681  1.00  0.00     0.041 C 
ATOM      5  C   UNL     1      -0.946   4.586  10.846  1.00  0.00     0.003 C 
ATOM      6  C   UNL     1      -0.130   5.894  10.944  1.00  0.00     0.009 C 
ATOM      7  C   UNL     1      -0.031   6.396  12.395  1.00  0.00     0.031 C 
ATOM      8  C   UNL     1       0.156   5.299  13.438  1.00  0.00    -0.073 C 
ATOM      9  C   UNL     1      -0.014   3.978  13.132  1.00  0.00    -0.064 C 
ATOM     10  C   UNL     1       0.142   2.875  14.163  1.00  0.00     0.036 C 
ATOM     11  C   UNL     1      -0.931   1.809  13.946  1.00  0.00     0.035 C 
ATOM     12  C   UNL     1       0.425   5.757  14.851  1.00  0.00     0.039 C 
ENDROOT
BRANCH   5  13
ATOM     13  C   UNL     1      -2.454   4.774  11.268  1.00  0.00    -0.013 C 
ATOM     14  C   UNL     1      -2.854   6.263  11.316  1.00  0.00     0.007 C 
ATOM     15  C   UNL     1      -3.429   4.044  10.323  1.00  0.00     0.007 C 
ENDBRANCH   5  13
TORSDOF 1
ENDMDL
MODEL 3
REMARK VINA RESULT:    -5.022      1.226      4.023
REMARK INTER + INTRA:          -5.374
REMARK INTER:                  -5.295
REMARK INTRA:                  -0.079
REMARK UNBOUND:                -0.058
REMARK SMILES CC1=C[C@@H]2C(=C(C)CC[C@@H]2C(C)C)CC1
REMARK SMILES IDX 1 1 2 2 3 3 4 4 10 5 9 6 8 7 6 8 5 9 14 10 15 11 7 12 11 13
REMARK SMILES IDX 12 14 13 15
REMARK H PARENT
REMARK Flexibility Score: inf
ROOT
ATOM      1  C   UNL     1      -1.317  -0.130  13.105  1.00  0.00     0.039 C 
ATOM      2  C   UNL     1      -1.359   1.306  12.660  1.00  0.00    -0.076 C 
ATOM      3  C   UNL     1      -1.743   2.257  13.534  1.00  0.00    -0.020 C 
ATOM      4  C   UNL     1      -1.853   3.723  13.173  1.00  0.00     0.041 C 
ATOM      5  C   UNL     1      -1.117   4.664  14.166  1.00  0.00     0.003 C 
ATOM      6  C   UNL     1      -1.581   6.090  13.798  1.00  0.00     0.009 C 
ATOM      7  C   UNL     1      -1.172   6.470  12.364  1.00  0.00     0.031 C 
ATOM      8  C   UNL     1      -1.294   5.342  11.347  1.00  0.00    -0.073 C 
ATOM      9  C   UNL     1      -1.495   4.045  11.729  1.00  0.00    -0.064 C 
ATOM     10  C   UNL     1      -1.593   2.906  10.732  1.00  0.00     0.036 C 
ATOM     11  C   UNL     1      -0.869   1.676  11.279  1.00  0.00     0.035 C 
ATOM     12  C   UNL     1      -1.065   5.715   9.902  1.00  0.00     0.039 C 
ENDROOT
BRANCH   5  13
ATOM     13  C   UNL     1       0.453   4.519  14.187  1.00  0.00    -0.013 C 
ATOM     14  C   UNL     1       1.130   5.712  14.894  1.00  0.00     0.007 C 
ATOM     15  C   UNL     1       0.920   3.223  14.877  1.00  0.00     0.007 C 
ENDBRANCH   5  13
TORSDOF 1
ENDMDL
MODEL 4
REMARK VINA RESULT:    -4.894      1.218      3.749
REMARK INTER + INTRA:          -5.238
REMARK INTER:                  -5.498
REMARK INTRA:                   0.260
REMARK UNBOUND:                -0.058
REMARK SMILES CC1=C[C@@H]2C(=C(C)CC[C@@H]2C(C)C)CC1
REMARK SMILES IDX 1 1 2 2 3 3 4 4 10 5 9 6 8 7 6 8 5 9 14 10 15 11 7 12 11 13
REMARK SMILES IDX 12 14 13 15
REMARK H PARENT
REMARK Flexibility Score: inf
ROOT
ATOM      1  C   UNL     1      -3.248   5.876   9.991  1.00  0.00     0.039 C 
ATOM      2  C   UNL     1      -2.350   5.482  11.132  1.00  0.00    -0.076 C 
ATOM      3  C   UNL     1      -2.775   4.560  12.017  1.00  0.00    -0.020 C 
ATOM      4  C   UNL     1      -1.962   4.124  13.218  1.00  0.00     0.041 C 
ATOM      5  C   UNL     1      -1.827   2.582  13.348  1.00  0.00     0.003 C 
ATOM      6  C   UNL     1      -1.230   2.341  14.753  1.00  0.00     0.009 C 
ATOM      7  C   UNL     1       0.165   2.973  14.895  1.00  0.00     0.031 C 
ATOM      8  C   UNL     1       0.322   4.332  14.222  1.00  0.00    -0.073 C 
ATOM      9  C   UNL     1      -0.613   4.817  13.351  1.00  0.00    -0.064 C 
ATOM     10  C   UNL     1      -0.462   6.154  12.652  1.00  0.00     0.036 C 
ATOM     11  C   UNL     1      -0.948   6.041  11.208  1.00  0.00     0.035 C 
ATOM     12  C   UNL     1       1.619   5.061  14.478  1.00  0.00     0.039 C 
ENDROOT
BRANCH   5  13
ATOM     13  C   UNL     1      -0.995   1.884  12.205  1.00  0.00    -0.013 C 
ATOM     14  C   UNL     1      -1.020   0.346  12.334  1.00  0.00     0.007 C 
ATOM     15  C   UNL     1      -1.496   2.256  10.796  1.00  0.00     0.007 C 
ENDBRANCH   5  13
TORSDOF 1
ENDMDL
MODEL 5
REMARK VINA RESULT:    -4.858      1.339      4.430
REMARK INTER + INTRA:          -5.200
REMARK INTER:                  -5.168
REMARK INTRA:                  -0.032
REMARK UNBOUND:                -0.058
REMARK SMILES CC1=C[C@@H]2C(=C(C)CC[C@@H]2C(C)C)CC1
REMARK SMILES IDX 1 1 2 2 3 3 4 4 10 5 9 6 8 7 6 8 5 9 14 10 15 11 7 12 11 13
REMARK SMILES IDX 12 14 13 15
REMARK H PARENT
REMARK Flexibility Score: inf
ROOT
ATOM      1  C   UNL     1      -2.409   0.670  14.500  1.00  0.00     0.039 C 
ATOM      2  C   UNL     1      -1.566   1.856  14.118  1.00  0.00    -0.076 C 
ATOM      3  C   UNL     1      -1.634   2.336  12.861  1.00  0.00    -0.020 C 
ATOM      4  C   UNL     1      -0.799   3.500  12.370  1.00  0.00     0.041 C 
ATOM      5  C   UNL     1      -1.631   4.603  11.658  1.00  0.00     0.003 C 
ATOM      6  C   UNL     1      -0.593   5.533  10.993  1.00  0.00     0.009 C 
ATOM      7  C   UNL     1       0.323   6.200  12.033  1.00  0.00     0.031 C 
ATOM      8  C   UNL     1       0.737   5.299  13.191  1.00  0.00    -0.073 C 
ATOM      9  C   UNL     1       0.134   4.093  13.416  1.00  0.00    -0.064 C 
ATOM     10  C   UNL     1       0.515   3.194  14.577  1.00  0.00     0.036 C 
ATOM     11  C   UNL     1      -0.741   2.558  15.172  1.00  0.00     0.035 C 
ATOM     12  C   UNL     1       1.766   5.859  14.142  1.00  0.00     0.039 C 
ENDROOT
BRANCH   5  13
ATOM     13  C   UNL     1      -2.642   5.381  12.584  1.00  0.00    -0.013 C 
ATOM     14  C   UNL     1      -2.783   6.859  12.165  1.00  0.00     0.007 C 
ATOM     15  C   UNL     1      -4.048   4.748  12.592  1.00  0.00     0.007 C 
ENDBRANCH   5  13
TORSDOF 1
ENDMDL
MODEL 6
REMARK VINA RESULT:    -4.755     14.930     16.071
REMARK INTER + INTRA:          -5.091
REMARK INTER:                  -5.141
REMARK INTRA:                   0.050
REMARK UNBOUND:                -0.058
REMARK SMILES CC1=C[C@@H]2C(=C(C)CC[C@@H]2C(C)C)CC1
REMARK SMILES IDX 1 1 2 2 3 3 4 4 10 5 9 6 8 7 6 8 5 9 14 10 15 11 7 12 11 13
REMARK SMILES IDX 12 14 13 15
REMARK H PARENT
REMARK Flexibility Score: inf
ROOT
ATOM      1  C   UNL     1     -11.106  -8.421  10.589  1.00  0.00     0.039 C 
ATOM      2  C   UNL     1      -9.718  -8.983  10.732  1.00  0.00    -0.076 C 
ATOM      3  C   UNL     1      -9.030  -8.758  11.869  1.00  0.00    -0.020 C 
ATOM      4  C   UNL     1      -7.616  -9.249  12.095  1.00  0.00     0.041 C 
ATOM      5  C   UNL     1      -7.431 -10.011  13.437  1.00  0.00     0.003 C 
ATOM      6  C   UNL     1      -5.904 -10.168  13.610  1.00  0.00     0.009 C 
ATOM      7  C   UNL     1      -5.285 -11.006  12.478  1.00  0.00     0.031 C 
ATOM      8  C   UNL     1      -5.873 -10.744  11.096  1.00  0.00    -0.073 C 
ATOM      9  C   UNL     1      -7.023 -10.023  10.927  1.00  0.00    -0.064 C 
ATOM     10  C   UNL     1      -7.636  -9.775   9.562  1.00  0.00     0.036 C 
ATOM     11  C   UNL     1      -9.159  -9.879   9.653  1.00  0.00     0.035 C 
ATOM     12  C   UNL     1      -5.184 -11.419   9.935  1.00  0.00     0.039 C 
ENDROOT
BRANCH   5  13
ATOM     13  C   UNL     1      -8.201 -11.383  13.539  1.00  0.00    -0.013 C 
ATOM     14  C   UNL     1      -7.879 -12.124  14.853  1.00  0.00     0.007 C 
ATOM     15  C   UNL     1      -9.730 -11.213  13.445  1.00  0.00     0.007 C 
ENDBRANCH   5  13
TORSDOF 1
ENDMDL
MODEL 7
REMARK VINA RESULT:    -4.733      2.077      3.834
REMARK INTER + INTRA:          -5.068
REMARK INTER:                  -4.977
REMARK INTRA:                  -0.091
REMARK UNBOUND:                -0.058
REMARK SMILES CC1=C[C@@H]2C(=C(C)CC[C@@H]2C(C)C)CC1
REMARK SMILES IDX 1 1 2 2 3 3 4 4 10 5 9 6 8 7 6 8 5 9 14 10 15 11 7 12 11 13
REMARK SMILES IDX 12 14 13 15
REMARK H PARENT
REMARK Flexibility Score: inf
ROOT
ATOM      1  C   UNL     1       0.299   7.002   8.426  1.00  0.00     0.039 C 
ATOM      2  C   UNL     1      -0.639   6.363   9.413  1.00  0.00    -0.076 C 
ATOM      3  C   UNL     1      -0.217   5.307  10.136  1.00  0.00    -0.020 C 
ATOM      4  C   UNL     1      -1.097   4.574  11.127  1.00  0.00     0.041 C 
ATOM      5  C   UNL     1      -0.439   4.390  12.523  1.00  0.00     0.003 C 
ATOM      6  C   UNL     1      -1.349   3.394  13.275  1.00  0.00     0.009 C 
ATOM      7  C   UNL     1      -2.769   3.952  13.468  1.00  0.00     0.031 C 
ATOM      8  C   UNL     1      -3.314   4.734  12.278  1.00  0.00    -0.073 C 
ATOM      9  C   UNL     1      -2.511   5.124  11.243  1.00  0.00    -0.064 C 
ATOM     10  C   UNL     1      -3.030   5.925  10.064  1.00  0.00     0.036 C 
ATOM     11  C   UNL     1      -1.998   6.977   9.659  1.00  0.00     0.035 C 
ATOM     12  C   UNL     1      -4.761   5.156  12.359  1.00  0.00     0.039 C 
ENDROOT
BRANCH   5  13
ATOM     13  C   UNL     1      -0.198   5.723  13.329  1.00  0.00    -0.013 C 
ATOM     14  C   UNL     1       0.020   5.453  14.832  1.00  0.00     0.007 C 
ATOM     15  C   UNL     1       1.012   6.522  12.805  1.00  0.00     0.007 C 
ENDBRANCH   5  13
TORSDOF 1
ENDMDL
MODEL 8
REMARK VINA RESULT:    -4.491     12.652     14.268
REMARK INTER + INTRA:          -4.812
REMARK INTER:                  -4.722
REMARK INTRA:                  -0.090
REMARK UNBOUND:                -0.058
REMARK SMILES CC1=C[C@@H]2C(=C(C)CC[C@@H]2C(C)C)CC1
REMARK SMILES IDX 1 1 2 2 3 3 4 4 10 5 9 6 8 7 6 8 5 9 14 10 15 11 7 12 11 13
REMARK SMILES IDX 12 14 13 15
REMARK H PARENT
REMARK Flexibility Score: inf
ROOT
ATOM      1  C   UNL     1       2.052  -8.752  11.131  1.00  0.00     0.039 C 
ATOM      2  C   UNL     1       0.699  -9.408  11.077  1.00  0.00    -0.076 C 
ATOM      3  C   UNL     1       0.346 -10.272  12.050  1.00  0.00    -0.020 C 
ATOM      4  C   UNL     1      -0.976 -11.010  12.067  1.00  0.00     0.041 C 
ATOM      5  C   UNL     1      -1.735 -10.892  13.417  1.00  0.00     0.003 C 
ATOM      6  C   UNL     1      -2.882 -11.923  13.332  1.00  0.00     0.009 C 
ATOM      7  C   UNL     1      -3.857 -11.598  12.188  1.00  0.00     0.031 C 
ATOM      8  C   UNL     1      -3.197 -11.084  10.914  1.00  0.00    -0.073 C 
ATOM      9  C   UNL     1      -1.885 -10.700  10.886  1.00  0.00    -0.064 C 
ATOM     10  C   UNL     1      -1.219 -10.162   9.634  1.00  0.00     0.036 C 
ATOM     11  C   UNL     1      -0.283  -9.011  10.001  1.00  0.00     0.035 C 
ATOM     12  C   UNL     1      -4.098 -10.912   9.715  1.00  0.00     0.039 C 
ENDROOT
BRANCH   5  13
ATOM     13  C   UNL     1      -2.242  -9.444  13.776  1.00  0.00    -0.013 C 
ATOM     14  C   UNL     1      -3.375  -9.476  14.824  1.00  0.00     0.007 C 
ATOM     15  C   UNL     1      -1.117  -8.537  14.313  1.00  0.00     0.007 C 
ENDBRANCH   5  13
TORSDOF 1
ENDMDL
MODEL 9
REMARK VINA RESULT:    -4.447      1.327      3.847
REMARK INTER + INTRA:          -4.765
REMARK INTER:                  -4.691
REMARK INTRA:                  -0.073
REMARK UNBOUND:                -0.058
REMARK SMILES CC1=C[C@@H]2C(=C(C)CC[C@@H]2C(C)C)CC1
REMARK SMILES IDX 1 1 2 2 3 3 4 4 10 5 9 6 8 7 6 8 5 9 14 10 15 11 7 12 11 13
REMARK SMILES IDX 12 14 13 15
REMARK H PARENT
REMARK Flexibility Score: inf
ROOT
ATOM      1  C   UNL     1       1.600   6.852  15.246  1.00  0.00     0.039 C 
ATOM      2  C   UNL     1       0.817   5.913  14.372  1.00  0.00    -0.076 C 
ATOM      3  C   UNL     1      -0.288   6.362  13.745  1.00  0.00    -0.020 C 
ATOM      4  C   UNL     1      -1.164   5.486  12.874  1.00  0.00     0.041 C 
ATOM      5  C   UNL     1      -1.462   6.100  11.478  1.00  0.00     0.003 C 
ATOM      6  C   UNL     1      -2.575   5.217  10.872  1.00  0.00     0.009 C 
ATOM      7  C   UNL     1      -2.110   3.763  10.683  1.00  0.00     0.031 C 
ATOM      8  C   UNL     1      -1.233   3.222  11.807  1.00  0.00    -0.073 C 
ATOM      9  C   UNL     1      -0.698   4.042  12.761  1.00  0.00    -0.064 C 
ATOM     10  C   UNL     1       0.197   3.526  13.872  1.00  0.00     0.036 C 
ATOM     11  C   UNL     1       1.335   4.516  14.121  1.00  0.00     0.035 C 
ATOM     12  C   UNL     1      -0.893   1.753  11.744  1.00  0.00     0.039 C 
ENDROOT
BRANCH   5  13
ATOM     13  C   UNL     1      -0.212   6.242  10.528  1.00  0.00    -0.013 C 
ATOM     14  C   UNL     1      -0.629   6.522   9.069  1.00  0.00     0.007 C 
ATOM     15  C   UNL     1       0.750   7.360  10.977  1.00  0.00     0.007 C 
ENDBRANCH   5  13
TORSDOF 1
ENDMDL
