MODEL 1
REMARK VINA RESULT:    -4.264      0.000      0.000
REMARK INTER + INTRA:          -8.183
REMARK INTER:                  -7.753
REMARK INTRA:                  -0.430
REMARK UNBOUND:                -0.430
REMARK SMILES CCCCCCCCCCCCCCCC(=O)[O-]
REMARK SMILES IDX 9 1 10 2 11 3 12 4 13 5 14 6 15 7 16 8 17 9 18 10 8 11 7 12
REMARK SMILES IDX 6 13 5 14 4 15 3 16 2 17 1 18
REMARK H PARENT
REMARK Flexibility Score: inf
ROOT
ATOM      1  C   UNL     1      -5.165  19.845  14.989  1.00  0.00     0.000 C 
ENDROOT
BRANCH   1   2
ATOM      2  C   UNL     1      -6.424  20.558  14.466  1.00  0.00     0.000 C 
BRANCH   2   3
ATOM      3  C   UNL     1      -6.589  21.967  15.059  1.00  0.00     0.000 C 
BRANCH   3   4
ATOM      4  C   UNL     1      -7.963  22.581  14.740  1.00  0.00     0.000 C 
BRANCH   4   5
ATOM      5  C   UNL     1      -7.871  23.802  13.806  1.00  0.00     0.000 C 
BRANCH   5   6
ATOM      6  C   UNL     1      -8.569  25.073  14.325  1.00  0.00     0.006 C 
BRANCH   6   7
ATOM      7  C   UNL     1      -9.199  25.910  13.204  1.00  0.00     0.053 C 
BRANCH   7   8
ATOM      8  C   UNL     1      -8.795  27.345  13.336  1.00  0.00     0.041 C 
ATOM      9  O   UNL     1      -7.682  27.646  13.842  1.00  0.00    -0.550 OA
ATOM     10  O   UNL     1      -9.627  28.348  12.854  1.00  0.00    -0.550 OA
ENDBRANCH   7   8
ENDBRANCH   6   7
ENDBRANCH   5   6
ENDBRANCH   4   5
ENDBRANCH   3   4
ENDBRANCH   2   3
ENDBRANCH   1   2
BRANCH   1  11
ATOM     11  C   UNL     1      -4.830  18.565  14.202  1.00  0.00     0.000 C 
BRANCH  11  12
ATOM     12  C   UNL     1      -3.527  18.624  13.382  1.00  0.00    -0.000 C 
BRANCH  12  13
ATOM     13  C   UNL     1      -2.648  17.375  13.566  1.00  0.00    -0.000 C 
BRANCH  13  14
ATOM     14  C   UNL     1      -1.238  17.560  12.978  1.00  0.00    -0.000 C 
BRANCH  14  15
ATOM     15  C   UNL     1      -0.850  16.423  12.017  1.00  0.00    -0.000 C 
BRANCH  15  16
ATOM     16  C   UNL     1      -2.032  15.494  11.680  1.00  0.00    -0.000 C 
BRANCH  16  17
ATOM     17  C   UNL     1      -1.655  14.018  11.465  1.00  0.00    -0.003 C 
ATOM     18  C   UNL     1      -2.558  13.310  10.455  1.00  0.00     0.004 C 
ENDBRANCH  16  17
ENDBRANCH  15  16
ENDBRANCH  14  15
ENDBRANCH  13  14
ENDBRANCH  12  13
ENDBRANCH  11  12
ENDBRANCH   1  11
TORSDOF 14
ENDMDL
MODEL 2
REMARK VINA RESULT:    -4.172      2.492      4.510
REMARK INTER + INTRA:          -8.017
REMARK INTER:                  -7.550
REMARK INTRA:                  -0.467
REMARK UNBOUND:                -0.430
REMARK SMILES CCCCCCCCCCCCCCCC(=O)[O-]
REMARK SMILES IDX 9 1 10 2 11 3 12 4 13 5 14 6 15 7 16 8 17 9 18 10 8 11 7 12
REMARK SMILES IDX 6 13 5 14 4 15 3 16 2 17 1 18
REMARK H PARENT
REMARK Flexibility Score: inf
ROOT
ATOM      1  C   UNL     1      -2.599  17.108  13.509  1.00  0.00     0.000 C 
ENDROOT
BRANCH   1   2
ATOM      2  C   UNL     1      -3.455  18.379  13.643  1.00  0.00     0.000 C 
BRANCH   2   3
ATOM      3  C   UNL     1      -4.049  18.540  15.052  1.00  0.00     0.000 C 
BRANCH   3   4
ATOM      4  C   UNL     1      -5.587  18.587  15.039  1.00  0.00     0.000 C 
BRANCH   4   5
ATOM      5  C   UNL     1      -6.142  19.851  14.356  1.00  0.00     0.000 C 
BRANCH   5   6
ATOM      6  C   UNL     1      -7.467  20.376  14.937  1.00  0.00     0.006 C 
BRANCH   6   7
ATOM      7  C   UNL     1      -7.583  21.905  14.880  1.00  0.00     0.053 C 
BRANCH   7   8
ATOM      8  C   UNL     1      -8.907  22.307  14.313  1.00  0.00     0.041 C 
ATOM      9  O   UNL     1      -9.844  21.468  14.233  1.00  0.00    -0.550 OA
ATOM     10  O   UNL     1      -9.125  23.621  13.918  1.00  0.00    -0.550 OA
ENDBRANCH   7   8
ENDBRANCH   6   7
ENDBRANCH   5   6
ENDBRANCH   4   5
ENDBRANCH   3   4
ENDBRANCH   2   3
ENDBRANCH   1   2
BRANCH   1  11
ATOM     11  C   UNL     1      -1.677  17.133  12.276  1.00  0.00     0.000 C 
BRANCH  11  12
ATOM     12  C   UNL     1      -1.824  15.931  11.325  1.00  0.00    -0.000 C 
BRANCH  12  13
ATOM     13  C   UNL     1      -1.571  14.583  12.021  1.00  0.00    -0.000 C 
BRANCH  13  14
ATOM     14  C   UNL     1      -1.722  13.390  11.062  1.00  0.00    -0.000 C 
BRANCH  14  15
ATOM     15  C   UNL     1      -3.172  12.880  10.983  1.00  0.00    -0.000 C 
BRANCH  15  16
ATOM     16  C   UNL     1      -3.459  11.737  11.974  1.00  0.00    -0.000 C 
BRANCH  16  17
ATOM     17  C   UNL     1      -4.950  11.495  12.269  1.00  0.00    -0.003 C 
ATOM     18  C   UNL     1      -5.253  10.054  12.676  1.00  0.00     0.004 C 
ENDBRANCH  16  17
ENDBRANCH  15  16
ENDBRANCH  14  15
ENDBRANCH  13  14
ENDBRANCH  12  13
ENDBRANCH  11  12
ENDBRANCH   1  11
TORSDOF 14
ENDMDL
MODEL 3
REMARK VINA RESULT:    -3.987      5.538      8.150
REMARK INTER + INTRA:          -7.681
REMARK INTER:                  -5.682
REMARK INTRA:                  -1.999
REMARK UNBOUND:                -0.430
REMARK SMILES CCCCCCCCCCCCCCCC(=O)[O-]
REMARK SMILES IDX 9 1 10 2 11 3 12 4 13 5 14 6 15 7 16 8 17 9 18 10 8 11 7 12
REMARK SMILES IDX 6 13 5 14 4 15 3 16 2 17 1 18
REMARK H PARENT
REMARK Flexibility Score: inf
ROOT
ATOM      1  C   UNL     1      -2.179  14.475  11.043  1.00  0.00     0.000 C 
ENDROOT
BRANCH   1   2
ATOM      2  C   UNL     1      -1.777  15.922  11.376  1.00  0.00     0.000 C 
BRANCH   2   3
ATOM      3  C   UNL     1      -0.337  16.023  11.906  1.00  0.00     0.000 C 
BRANCH   3   4
ATOM      4  C   UNL     1      -0.264  16.701  13.285  1.00  0.00     0.000 C 
BRANCH   4   5
ATOM      5  C   UNL     1      -1.359  16.211  14.252  1.00  0.00     0.000 C 
BRANCH   5   6
ATOM      6  C   UNL     1      -2.171  17.326  14.934  1.00  0.00     0.006 C 
BRANCH   6   7
ATOM      7  C   UNL     1      -3.651  17.322  14.530  1.00  0.00     0.053 C 
BRANCH   7   8
ATOM      8  C   UNL     1      -3.964  18.512  13.680  1.00  0.00     0.041 C 
ATOM      9  O   UNL     1      -3.188  18.844  12.745  1.00  0.00    -0.550 OA
ATOM     10  O   UNL     1      -5.137  19.226  13.887  1.00  0.00    -0.550 OA
ENDBRANCH   7   8
ENDBRANCH   6   7
ENDBRANCH   5   6
ENDBRANCH   4   5
ENDBRANCH   3   4
ENDBRANCH   2   3
ENDBRANCH   1   2
BRANCH   1  11
ATOM     11  C   UNL     1      -1.147  13.440  11.527  1.00  0.00     0.000 C 
BRANCH  11  12
ATOM     12  C   UNL     1      -0.964  12.220  10.605  1.00  0.00    -0.000 C 
BRANCH  12  13
ATOM     13  C   UNL     1      -2.289  11.503  10.289  1.00  0.00    -0.000 C 
BRANCH  13  14
ATOM     14  C   UNL     1      -2.818  10.695  11.486  1.00  0.00    -0.000 C 
BRANCH  14  15
ATOM     15  C   UNL     1      -4.345  10.801  11.637  1.00  0.00    -0.000 C 
BRANCH  15  16
ATOM     16  C   UNL     1      -4.782  12.033  12.452  1.00  0.00    -0.000 C 
BRANCH  16  17
ATOM     17  C   UNL     1      -4.327  12.032  13.922  1.00  0.00    -0.003 C 
ATOM     18  C   UNL     1      -3.579  13.304  14.318  1.00  0.00     0.004 C 
ENDBRANCH  16  17
ENDBRANCH  15  16
ENDBRANCH  14  15
ENDBRANCH  13  14
ENDBRANCH  12  13
ENDBRANCH  11  12
ENDBRANCH   1  11
TORSDOF 14
ENDMDL
MODEL 4
REMARK VINA RESULT:    -3.954      5.931      9.336
REMARK INTER + INTRA:          -7.620
REMARK INTER:                  -5.766
REMARK INTRA:                  -1.853
REMARK UNBOUND:                -0.430
REMARK SMILES CCCCCCCCCCCCCCCC(=O)[O-]
REMARK SMILES IDX 9 1 10 2 11 3 12 4 13 5 14 6 15 7 16 8 17 9 18 10 8 11 7 12
REMARK SMILES IDX 6 13 5 14 4 15 3 16 2 17 1 18
REMARK H PARENT
REMARK Flexibility Score: inf
ROOT
ATOM      1  C   UNL     1      -1.831  12.295   9.772  1.00  0.00     0.000 C 
ENDROOT
BRANCH   1   2
ATOM      2  C   UNL     1      -0.726  12.587  10.802  1.00  0.00     0.000 C 
BRANCH   2   3
ATOM      3  C   UNL     1      -1.186  13.566  11.894  1.00  0.00     0.000 C 
BRANCH   3   4
ATOM      4  C   UNL     1      -2.205  14.593  11.371  1.00  0.00     0.000 C 
BRANCH   4   5
ATOM      5  C   UNL     1      -1.638  16.024  11.316  1.00  0.00     0.000 C 
BRANCH   5   6
ATOM      6  C   UNL     1      -1.656  16.783  12.656  1.00  0.00     0.006 C 
BRANCH   6   7
ATOM      7  C   UNL     1      -2.492  18.067  12.605  1.00  0.00     0.053 C 
BRANCH   7   8
ATOM      8  C   UNL     1      -3.617  17.997  13.589  1.00  0.00     0.041 C 
ATOM      9  O   UNL     1      -3.677  17.048  14.416  1.00  0.00    -0.550 OA
ATOM     10  O   UNL     1      -4.572  19.005  13.627  1.00  0.00    -0.550 OA
ENDBRANCH   7   8
ENDBRANCH   6   7
ENDBRANCH   5   6
ENDBRANCH   4   5
ENDBRANCH   3   4
ENDBRANCH   2   3
ENDBRANCH   1   2
BRANCH   1  11
ATOM     11  C   UNL     1      -1.427  11.218   8.748  1.00  0.00     0.000 C 
BRANCH  11  12
ATOM     12  C   UNL     1      -1.028   9.858   9.353  1.00  0.00    -0.000 C 
BRANCH  12  13
ATOM     13  C   UNL     1      -2.199   9.148  10.054  1.00  0.00    -0.000 C 
BRANCH  13  14
ATOM     14  C   UNL     1      -1.952   8.959  11.561  1.00  0.00    -0.000 C 
BRANCH  14  15
ATOM     15  C   UNL     1      -2.750   9.959  12.416  1.00  0.00    -0.000 C 
BRANCH  15  16
ATOM     16  C   UNL     1      -4.164  10.221  11.867  1.00  0.00    -0.000 C 
BRANCH  16  17
ATOM     17  C   UNL     1      -4.688  11.652  12.083  1.00  0.00    -0.003 C 
ATOM     18  C   UNL     1      -4.334  12.218  13.458  1.00  0.00     0.004 C 
ENDBRANCH  16  17
ENDBRANCH  15  16
ENDBRANCH  14  15
ENDBRANCH  13  14
ENDBRANCH  12  13
ENDBRANCH  11  12
ENDBRANCH   1  11
TORSDOF 14
ENDMDL
MODEL 5
REMARK VINA RESULT:    -3.866      6.141     10.733
REMARK INTER + INTRA:          -7.461
REMARK INTER:                  -6.498
REMARK INTRA:                  -0.962
REMARK UNBOUND:                -0.430
REMARK SMILES CCCCCCCCCCCCCCCC(=O)[O-]
REMARK SMILES IDX 9 1 10 2 11 3 12 4 13 5 14 6 15 7 16 8 17 9 18 10 8 11 7 12
REMARK SMILES IDX 6 13 5 14 4 15 3 16 2 17 1 18
REMARK H PARENT
REMARK Flexibility Score: inf
ROOT
ATOM      1  C   UNL     1      -2.131  16.745  11.737  1.00  0.00     0.000 C 
ENDROOT
BRANCH   1   2
ATOM      2  C   UNL     1      -1.133  15.577  11.817  1.00  0.00     0.000 C 
BRANCH   2   3
ATOM      3  C   UNL     1      -0.701  15.273  13.260  1.00  0.00     0.000 C 
BRANCH   3   4
ATOM      4  C   UNL     1      -1.635  14.267  13.955  1.00  0.00     0.000 C 
BRANCH   4   5
ATOM      5  C   UNL     1      -1.966  13.049  13.071  1.00  0.00     0.000 C 
BRANCH   5   6
ATOM      6  C   UNL     1      -3.457  12.671  13.017  1.00  0.00     0.006 C 
BRANCH   6   7
ATOM      7  C   UNL     1      -3.920  12.259  11.614  1.00  0.00     0.053 C 
BRANCH   7   8
ATOM      8  C   UNL     1      -2.748  11.871  10.771  1.00  0.00     0.041 C 
ATOM      9  O   UNL     1      -2.267  10.709  10.850  1.00  0.00    -0.550 OA
ATOM     10  O   UNL     1      -2.216  12.775   9.860  1.00  0.00    -0.550 OA
ENDBRANCH   7   8
ENDBRANCH   6   7
ENDBRANCH   5   6
ENDBRANCH   4   5
ENDBRANCH   3   4
ENDBRANCH   2   3
ENDBRANCH   1   2
BRANCH   1  11
ATOM     11  C   UNL     1      -1.818  17.870  12.741  1.00  0.00     0.000 C 
BRANCH  11  12
ATOM     12  C   UNL     1      -3.044  18.471  13.453  1.00  0.00    -0.000 C 
BRANCH  12  13
ATOM     13  C   UNL     1      -3.603  17.555  14.556  1.00  0.00    -0.000 C 
BRANCH  13  14
ATOM     14  C   UNL     1      -5.045  17.923  14.948  1.00  0.00    -0.000 C 
BRANCH  14  15
ATOM     15  C   UNL     1      -5.461  19.308  14.422  1.00  0.00    -0.000 C 
BRANCH  15  16
ATOM     16  C   UNL     1      -6.731  19.849  15.104  1.00  0.00    -0.000 C 
BRANCH  16  17
ATOM     17  C   UNL     1      -7.352  21.085  14.429  1.00  0.00    -0.003 C 
ATOM     18  C   UNL     1      -8.879  21.083  14.465  1.00  0.00     0.004 C 
ENDBRANCH  16  17
ENDBRANCH  15  16
ENDBRANCH  14  15
ENDBRANCH  13  14
ENDBRANCH  12  13
ENDBRANCH  11  12
ENDBRANCH   1  11
TORSDOF 14
ENDMDL
MODEL 6
REMARK VINA RESULT:    -3.778      6.697     10.853
REMARK INTER + INTRA:          -7.300
REMARK INTER:                  -5.934
REMARK INTRA:                  -1.367
REMARK UNBOUND:                -0.430
REMARK SMILES CCCCCCCCCCCCCCCC(=O)[O-]
REMARK SMILES IDX 9 1 10 2 11 3 12 4 13 5 14 6 15 7 16 8 17 9 18 10 8 11 7 12
REMARK SMILES IDX 6 13 5 14 4 15 3 16 2 17 1 18
REMARK H PARENT
REMARK Flexibility Score: inf
ROOT
ATOM      1  C   UNL     1      -2.471  14.164  10.930  1.00  0.00     0.000 C 
ENDROOT
BRANCH   1   2
ATOM      2  C   UNL     1      -1.485  12.985  10.989  1.00  0.00     0.000 C 
BRANCH   2   3
ATOM      3  C   UNL     1      -1.725  11.963   9.866  1.00  0.00     0.000 C 
BRANCH   3   4
ATOM      4  C   UNL     1      -2.003  10.549  10.406  1.00  0.00     0.000 C 
BRANCH   4   5
ATOM      5  C   UNL     1      -2.709  10.560  11.775  1.00  0.00     0.000 C 
BRANCH   5   6
ATOM      6  C   UNL     1      -4.247  10.533  11.714  1.00  0.00     0.006 C 
BRANCH   6   7
ATOM      7  C   UNL     1      -4.890  11.812  12.265  1.00  0.00     0.053 C 
BRANCH   7   8
ATOM      8  C   UNL     1      -4.449  12.053  13.674  1.00  0.00     0.041 C 
ATOM      9  O   UNL     1      -3.875  13.131  13.982  1.00  0.00    -0.550 OA
ATOM     10  O   UNL     1      -4.716  11.109  14.657  1.00  0.00    -0.550 OA
ENDBRANCH   7   8
ENDBRANCH   6   7
ENDBRANCH   5   6
ENDBRANCH   4   5
ENDBRANCH   3   4
ENDBRANCH   2   3
ENDBRANCH   1   2
BRANCH   1  11
ATOM     11  C   UNL     1      -1.789  15.527  11.150  1.00  0.00     0.000 C 
BRANCH  11  12
ATOM     12  C   UNL     1      -0.468  15.477  11.940  1.00  0.00    -0.000 C 
BRANCH  12  13
ATOM     13  C   UNL     1      -0.084  16.837  12.550  1.00  0.00    -0.000 C 
BRANCH  13  14
ATOM     14  C   UNL     1      -1.112  17.328  13.582  1.00  0.00    -0.000 C 
BRANCH  14  15
ATOM     15  C   UNL     1      -1.831  18.611  13.130  1.00  0.00    -0.000 C 
BRANCH  15  16
ATOM     16  C   UNL     1      -3.363  18.459  13.098  1.00  0.00    -0.000 C 
BRANCH  16  17
ATOM     17  C   UNL     1      -3.969  17.752  14.324  1.00  0.00    -0.003 C 
ATOM     18  C   UNL     1      -5.278  18.386  14.794  1.00  0.00     0.004 C 
ENDBRANCH  16  17
ENDBRANCH  15  16
ENDBRANCH  14  15
ENDBRANCH  13  14
ENDBRANCH  12  13
ENDBRANCH  11  12
ENDBRANCH   1  11
TORSDOF 14
ENDMDL
MODEL 7
REMARK VINA RESULT:    -3.763      6.484      9.283
REMARK INTER + INTRA:          -7.274
REMARK INTER:                  -5.210
REMARK INTRA:                  -2.064
REMARK UNBOUND:                -0.430
REMARK SMILES CCCCCCCCCCCCCCCC(=O)[O-]
REMARK SMILES IDX 9 1 10 2 11 3 12 4 13 5 14 6 15 7 16 8 17 9 18 10 8 11 7 12
REMARK SMILES IDX 6 13 5 14 4 15 3 16 2 17 1 18
REMARK H PARENT
REMARK Flexibility Score: inf
ROOT
ATOM      1  C   UNL     1      -3.668  12.340  12.624  1.00  0.00     0.000 C 
ENDROOT
BRANCH   1   2
ATOM      2  C   UNL     1      -3.606  12.601  11.109  1.00  0.00     0.000 C 
BRANCH   2   3
ATOM      3  C   UNL     1      -2.501  13.601  10.732  1.00  0.00     0.000 C 
BRANCH   3   4
ATOM      4  C   UNL     1      -1.279  13.505  11.661  1.00  0.00     0.000 C 
BRANCH   4   5
ATOM      5  C   UNL     1      -0.794  14.880  12.157  1.00  0.00     0.000 C 
BRANCH   5   6
ATOM      6  C   UNL     1      -1.899  15.803  12.702  1.00  0.00     0.006 C 
BRANCH   6   7
ATOM      7  C   UNL     1      -2.012  17.124  11.931  1.00  0.00     0.053 C 
BRANCH   7   8
ATOM      8  C   UNL     1      -2.449  18.225  12.844  1.00  0.00     0.041 C 
ATOM      9  O   UNL     1      -3.672  18.395  13.092  1.00  0.00    -0.550 OA
ATOM     10  O   UNL     1      -1.503  19.034  13.461  1.00  0.00    -0.550 OA
ENDBRANCH   7   8
ENDBRANCH   6   7
ENDBRANCH   5   6
ENDBRANCH   4   5
ENDBRANCH   3   4
ENDBRANCH   2   3
ENDBRANCH   1   2
BRANCH   1  11
ATOM     11  C   UNL     1      -3.809  10.846  12.970  1.00  0.00     0.000 C 
BRANCH  11  12
ATOM     12  C   UNL     1      -3.971   9.908  11.759  1.00  0.00    -0.000 C 
BRANCH  12  13
ATOM     13  C   UNL     1      -2.720   9.054  11.492  1.00  0.00    -0.000 C 
BRANCH  13  14
ATOM     14  C   UNL     1      -1.483   9.576  12.241  1.00  0.00    -0.000 C 
BRANCH  14  15
ATOM     15  C   UNL     1      -0.302   9.864  11.297  1.00  0.00    -0.000 C 
BRANCH  15  16
ATOM     16  C   UNL     1      -0.701   9.816   9.810  1.00  0.00    -0.000 C 
BRANCH  16  17
ATOM     17  C   UNL     1      -0.356  11.083   9.006  1.00  0.00    -0.003 C 
ATOM     18  C   UNL     1      -1.427  11.449   7.979  1.00  0.00     0.004 C 
ENDBRANCH  16  17
ENDBRANCH  15  16
ENDBRANCH  14  15
ENDBRANCH  13  14
ENDBRANCH  12  13
ENDBRANCH  11  12
ENDBRANCH   1  11
TORSDOF 14
ENDMDL
MODEL 8
REMARK VINA RESULT:    -3.686     17.794     20.060
REMARK INTER + INTRA:          -7.133
REMARK INTER:                  -5.753
REMARK INTRA:                  -1.380
REMARK UNBOUND:                -0.430
REMARK SMILES CCCCCCCCCCCCCCCC(=O)[O-]
REMARK SMILES IDX 9 1 10 2 11 3 12 4 13 5 14 6 15 7 16 8 17 9 18 10 8 11 7 12
REMARK SMILES IDX 6 13 5 14 4 15 3 16 2 17 1 18
REMARK H PARENT
REMARK Flexibility Score: inf
ROOT
ATOM      1  C   UNL     1     -18.931  12.172   2.521  1.00  0.00     0.000 C 
ENDROOT
BRANCH   1   2
ATOM      2  C   UNL     1     -18.321  10.808   2.153  1.00  0.00     0.000 C 
BRANCH   2   3
ATOM      3  C   UNL     1     -17.245  10.358   3.154  1.00  0.00     0.000 C 
BRANCH   3   4
ATOM      4  C   UNL     1     -16.803  11.495   4.093  1.00  0.00     0.000 C 
BRANCH   4   5
ATOM      5  C   UNL     1     -15.655  11.083   5.033  1.00  0.00     0.000 C 
BRANCH   5   6
ATOM      6  C   UNL     1     -14.786   9.917   4.526  1.00  0.00     0.006 C 
BRANCH   6   7
ATOM      7  C   UNL     1     -13.342  10.336   4.220  1.00  0.00     0.053 C 
BRANCH   7   8
ATOM      8  C   UNL     1     -12.586  10.569   5.490  1.00  0.00     0.041 C 
ATOM      9  O   UNL     1     -11.910  11.621   5.641  1.00  0.00    -0.550 OA
ATOM     10  O   UNL     1     -12.667   9.648   6.527  1.00  0.00    -0.550 OA
ENDBRANCH   7   8
ENDBRANCH   6   7
ENDBRANCH   5   6
ENDBRANCH   4   5
ENDBRANCH   3   4
ENDBRANCH   2   3
ENDBRANCH   1   2
BRANCH   1  11
ATOM     11  C   UNL     1     -19.685  12.827   1.349  1.00  0.00     0.000 C 
BRANCH  11  12
ATOM     12  C   UNL     1     -18.936  13.980   0.654  1.00  0.00    -0.000 C 
BRANCH  12  13
ATOM     13  C   UNL     1     -18.728  13.737  -0.851  1.00  0.00    -0.000 C 
BRANCH  13  14
ATOM     14  C   UNL     1     -19.509  12.514  -1.360  1.00  0.00    -0.000 C 
BRANCH  14  15
ATOM     15  C   UNL     1     -18.594  11.464  -2.016  1.00  0.00    -0.000 C 
BRANCH  15  16
ATOM     16  C   UNL     1     -17.168  11.468  -1.434  1.00  0.00    -0.000 C 
BRANCH  16  17
ATOM     17  C   UNL     1     -16.044  11.605  -2.476  1.00  0.00    -0.003 C 
ATOM     18  C   UNL     1     -16.518  12.220  -3.792  1.00  0.00     0.004 C 
ENDBRANCH  16  17
ENDBRANCH  15  16
ENDBRANCH  14  15
ENDBRANCH  13  14
ENDBRANCH  12  13
ENDBRANCH  11  12
ENDBRANCH   1  11
TORSDOF 14
ENDMDL
MODEL 9
REMARK VINA RESULT:    -3.651      5.447      8.333
REMARK INTER + INTRA:          -7.069
REMARK INTER:                  -5.364
REMARK INTRA:                  -1.704
REMARK UNBOUND:                -0.430
REMARK SMILES CCCCCCCCCCCCCCCC(=O)[O-]
REMARK SMILES IDX 9 1 10 2 11 3 12 4 13 5 14 6 15 7 16 8 17 9 18 10 8 11 7 12
REMARK SMILES IDX 6 13 5 14 4 15 3 16 2 17 1 18
REMARK H PARENT
REMARK Flexibility Score: inf
ROOT
ATOM      1  C   UNL     1      -3.210  13.039  11.204  1.00  0.00     0.000 C 
ENDROOT
BRANCH   1   2
ATOM      2  C   UNL     1      -2.011  14.003  11.214  1.00  0.00     0.000 C 
BRANCH   2   3
ATOM      3  C   UNL     1      -2.142  15.088  12.295  1.00  0.00     0.000 C 
BRANCH   3   4
ATOM      4  C   UNL     1      -1.620  16.456  11.821  1.00  0.00     0.000 C 
BRANCH   4   5
ATOM      5  C   UNL     1      -1.080  17.324  12.973  1.00  0.00     0.000 C 
BRANCH   5   6
ATOM      6  C   UNL     1      -1.812  18.662  13.178  1.00  0.00     0.006 C 
BRANCH   6   7
ATOM      7  C   UNL     1      -3.276  18.620  12.723  1.00  0.00     0.053 C 
BRANCH   7   8
ATOM      8  C   UNL     1      -4.187  18.509  13.904  1.00  0.00     0.041 C 
ATOM      9  O   UNL     1      -5.188  19.267  14.006  1.00  0.00    -0.550 OA
ATOM     10  O   UNL     1      -3.959  17.536  14.868  1.00  0.00    -0.550 OA
ENDBRANCH   7   8
ENDBRANCH   6   7
ENDBRANCH   5   6
ENDBRANCH   4   5
ENDBRANCH   3   4
ENDBRANCH   2   3
ENDBRANCH   1   2
BRANCH   1  11
ATOM     11  C   UNL     1      -2.862  11.657  10.619  1.00  0.00     0.000 C 
BRANCH  11  12
ATOM     12  C   UNL     1      -3.216  10.459  11.519  1.00  0.00    -0.000 C 
BRANCH  12  13
ATOM     13  C   UNL     1      -4.729  10.318  11.761  1.00  0.00    -0.000 C 
BRANCH  13  14
ATOM     14  C   UNL     1      -5.119  10.614  13.219  1.00  0.00    -0.000 C 
BRANCH  14  15
ATOM     15  C   UNL     1      -3.892  10.810  14.127  1.00  0.00    -0.000 C 
BRANCH  15  16
ATOM     16  C   UNL     1      -3.778  12.244  14.677  1.00  0.00    -0.000 C 
BRANCH  16  17
ATOM     17  C   UNL     1      -2.364  12.657  15.121  1.00  0.00    -0.003 C 
ATOM     18  C   UNL     1      -1.262  12.036  14.263  1.00  0.00     0.004 C 
ENDBRANCH  16  17
ENDBRANCH  15  16
ENDBRANCH  14  15
ENDBRANCH  13  14
ENDBRANCH  12  13
ENDBRANCH  11  12
ENDBRANCH   1  11
TORSDOF 14
ENDMDL
