MODEL 1
REMARK VINA RESULT:    -4.100      0.000      0.000
REMARK INTER + INTRA:          -6.955
REMARK INTER:                  -6.257
REMARK INTRA:                  -0.698
REMARK UNBOUND:                -0.698
REMARK SMILES O=C([O-])CCCCCCCCC(=O)[O-]
REMARK SMILES IDX 7 1 6 2 5 3 4 4 2 5 1 6 3 7 8 8 9 9 10 10 11 11 12 12 13 13
REMARK SMILES IDX 14 14
REMARK H PARENT
REMARK Flexibility Score: inf
ROOT
ATOM      1  C   UNL     1       6.265  24.631 112.647  1.00  0.00     0.000 C 
ENDROOT
BRANCH   1   2
ATOM      2  C   UNL     1       7.443  24.618 111.656  1.00  0.00     0.000 C 
BRANCH   2   3
ATOM      3  C   UNL     1       7.860  26.002 111.120  1.00  0.00     0.006 C 
BRANCH   3   4
ATOM      4  C   UNL     1       8.628  25.966 109.791  1.00  0.00     0.053 C 
BRANCH   4   5
ATOM      5  C   UNL     1       7.706  25.952 108.611  1.00  0.00     0.041 C 
ATOM      6  O   UNL     1       7.940  25.197 107.630  1.00  0.00    -0.550 OA
ATOM      7  O   UNL     1       6.569  26.750 108.609  1.00  0.00    -0.550 OA
ENDBRANCH   4   5
ENDBRANCH   3   4
ENDBRANCH   2   3
ENDBRANCH   1   2
BRANCH   1   8
ATOM      8  C   UNL     1       4.992  23.990 112.074  1.00  0.00     0.000 C 
BRANCH   8   9
ATOM      9  C   UNL     1       3.758  24.393 112.894  1.00  0.00     0.000 C 
BRANCH   9  10
ATOM     10  C   UNL     1       2.953  25.532 112.241  1.00  0.00     0.006 C 
BRANCH  10  11
ATOM     11  C   UNL     1       3.383  25.867 110.805  1.00  0.00     0.053 C 
BRANCH  11  12
ATOM     12  C   UNL     1       3.846  27.285 110.674  1.00  0.00     0.041 C 
ATOM     13  O   UNL     1       4.769  27.721 111.410  1.00  0.00    -0.550 OA
ATOM     14  O   UNL     1       3.279  28.116 109.716  1.00  0.00    -0.550 OA
ENDBRANCH  11  12
ENDBRANCH  10  11
ENDBRANCH   9  10
ENDBRANCH   8   9
ENDBRANCH   1   8
TORSDOF 9
ENDMDL
MODEL 2
REMARK VINA RESULT:    -4.098      0.875      4.469
REMARK INTER + INTRA:          -6.952
REMARK INTER:                  -6.080
REMARK INTRA:                  -0.872
REMARK UNBOUND:                -0.698
REMARK SMILES O=C([O-])CCCCCCCCC(=O)[O-]
REMARK SMILES IDX 7 1 6 2 5 3 4 4 2 5 1 6 3 7 8 8 9 9 10 10 11 11 12 12 13 13
REMARK SMILES IDX 14 14
REMARK H PARENT
REMARK Flexibility Score: inf
ROOT
ATOM      1  C   UNL     1       5.704  24.523 112.113  1.00  0.00     0.000 C 
ENDROOT
BRANCH   1   2
ATOM      2  C   UNL     1       4.379  24.662 112.884  1.00  0.00     0.000 C 
BRANCH   2   3
ATOM      3  C   UNL     1       3.167  25.084 112.028  1.00  0.00     0.006 C 
BRANCH   3   4
ATOM      4  C   UNL     1       3.529  25.670 110.655  1.00  0.00     0.053 C 
BRANCH   4   5
ATOM      5  C   UNL     1       3.442  27.165 110.643  1.00  0.00     0.041 C 
ATOM      6  O   UNL     1       4.462  27.863 110.884  1.00  0.00    -0.550 OA
ATOM      7  O   UNL     1       2.240  27.788 110.333  1.00  0.00    -0.550 OA
ENDBRANCH   4   5
ENDBRANCH   3   4
ENDBRANCH   2   3
ENDBRANCH   1   2
BRANCH   1   8
ATOM      8  C   UNL     1       6.774  25.524 112.574  1.00  0.00     0.000 C 
BRANCH   8   9
ATOM      9  C   UNL     1       7.605  26.025 111.383  1.00  0.00     0.000 C 
BRANCH   9  10
ATOM     10  C   UNL     1       7.378  25.196 110.105  1.00  0.00     0.006 C 
BRANCH  10  11
ATOM     11  C   UNL     1       8.065  25.764 108.854  1.00  0.00     0.053 C 
BRANCH  11  12
ATOM     12  C   UNL     1       7.076  26.142 107.795  1.00  0.00     0.041 C 
ATOM     13  O   UNL     1       6.034  26.780 108.098  1.00  0.00    -0.550 OA
ATOM     14  O   UNL     1       7.322  25.818 106.466  1.00  0.00    -0.550 OA
ENDBRANCH  11  12
ENDBRANCH  10  11
ENDBRANCH   9  10
ENDBRANCH   8   9
ENDBRANCH   1   8
TORSDOF 9
ENDMDL
MODEL 3
REMARK VINA RESULT:    -4.077      1.115      1.371
REMARK INTER + INTRA:          -6.921
REMARK INTER:                  -6.358
REMARK INTRA:                  -0.563
REMARK UNBOUND:                -0.698
REMARK SMILES O=C([O-])CCCCCCCCC(=O)[O-]
REMARK SMILES IDX 7 1 6 2 5 3 4 4 2 5 1 6 3 7 8 8 9 9 10 10 11 11 12 12 13 13
REMARK SMILES IDX 14 14
REMARK H PARENT
REMARK Flexibility Score: inf
ROOT
ATOM      1  C   UNL     1       6.718  24.496 111.387  1.00  0.00     0.000 C 
ENDROOT
BRANCH   1   2
ATOM      2  C   UNL     1       7.721  25.653 111.547  1.00  0.00     0.000 C 
BRANCH   2   3
ATOM      3  C   UNL     1       7.997  26.460 110.263  1.00  0.00     0.006 C 
BRANCH   3   4
ATOM      4  C   UNL     1       8.003  25.625 108.974  1.00  0.00     0.053 C 
BRANCH   4   5
ATOM      5  C   UNL     1       7.153  26.238 107.905  1.00  0.00     0.041 C 
ATOM      6  O   UNL     1       7.545  26.245 106.707  1.00  0.00    -0.550 OA
ATOM      7  O   UNL     1       5.912  26.773 108.225  1.00  0.00    -0.550 OA
ENDBRANCH   4   5
ENDBRANCH   3   4
ENDBRANCH   2   3
ENDBRANCH   1   2
BRANCH   1   8
ATOM      8  C   UNL     1       5.272  24.978 111.202  1.00  0.00     0.000 C 
BRANCH   8   9
ATOM      9  C   UNL     1       4.531  25.018 112.547  1.00  0.00     0.000 C 
BRANCH   9  10
ATOM     10  C   UNL     1       3.129  25.646 112.438  1.00  0.00     0.006 C 
BRANCH  10  11
ATOM     11  C   UNL     1       2.701  25.992 111.004  1.00  0.00     0.053 C 
BRANCH  11  12
ATOM     12  C   UNL     1       2.463  27.460 110.828  1.00  0.00     0.041 C 
ATOM     13  O   UNL     1       1.363  27.969 111.170  1.00  0.00    -0.550 OA
ATOM     14  O   UNL     1       3.468  28.272 110.317  1.00  0.00    -0.550 OA
ENDBRANCH  11  12
ENDBRANCH  10  11
ENDBRANCH   9  10
ENDBRANCH   8   9
ENDBRANCH   1   8
TORSDOF 9
ENDMDL
MODEL 4
REMARK VINA RESULT:    -3.950      2.322      5.197
REMARK INTER + INTRA:          -6.727
REMARK INTER:                  -5.985
REMARK INTRA:                  -0.742
REMARK UNBOUND:                -0.698
REMARK SMILES O=C([O-])CCCCCCCCC(=O)[O-]
REMARK SMILES IDX 7 1 6 2 5 3 4 4 2 5 1 6 3 7 8 8 9 9 10 10 11 11 12 12 13 13
REMARK SMILES IDX 14 14
REMARK H PARENT
REMARK Flexibility Score: inf
ROOT
ATOM      1  C   UNL     1       3.305  25.196 113.383  1.00  0.00     0.000 C 
ENDROOT
BRANCH   1   2
ATOM      2  C   UNL     1       2.151  25.462 112.400  1.00  0.00     0.000 C 
BRANCH   2   3
ATOM      3  C   UNL     1       1.936  26.944 112.032  1.00  0.00     0.006 C 
BRANCH   3   4
ATOM      4  C   UNL     1       2.442  27.335 110.636  1.00  0.00     0.053 C 
BRANCH   4   5
ATOM      5  C   UNL     1       1.903  28.660 110.195  1.00  0.00     0.041 C 
ATOM      6  O   UNL     1       2.659  29.501 109.639  1.00  0.00    -0.550 OA
ATOM      7  O   UNL     1       0.556  28.956 110.368  1.00  0.00    -0.550 OA
ENDBRANCH   4   5
ENDBRANCH   3   4
ENDBRANCH   2   3
ENDBRANCH   1   2
BRANCH   1   8
ATOM      8  C   UNL     1       4.311  24.160 112.861  1.00  0.00     0.000 C 
BRANCH   8   9
ATOM      9  C   UNL     1       4.962  24.638 111.555  1.00  0.00     0.000 C 
BRANCH   9  10
ATOM     10  C   UNL     1       5.761  25.943 111.728  1.00  0.00     0.006 C 
BRANCH  10  11
ATOM     11  C   UNL     1       6.867  25.871 112.792  1.00  0.00     0.053 C 
BRANCH  11  12
ATOM     12  C   UNL     1       8.027  25.038 112.340  1.00  0.00     0.041 C 
ATOM     13  O   UNL     1       8.222  23.899 112.838  1.00  0.00    -0.550 OA
ATOM     14  O   UNL     1       8.874  25.508 111.344  1.00  0.00    -0.550 OA
ENDBRANCH  11  12
ENDBRANCH  10  11
ENDBRANCH   9  10
ENDBRANCH   8   9
ENDBRANCH   1   8
TORSDOF 9
ENDMDL
MODEL 5
REMARK VINA RESULT:    -3.891      1.575      2.425
REMARK INTER + INTRA:          -6.636
REMARK INTER:                  -5.820
REMARK INTRA:                  -0.816
REMARK UNBOUND:                -0.698
REMARK SMILES O=C([O-])CCCCCCCCC(=O)[O-]
REMARK SMILES IDX 7 1 6 2 5 3 4 4 2 5 1 6 3 7 8 8 9 9 10 10 11 11 12 12 13 13
REMARK SMILES IDX 14 14
REMARK H PARENT
REMARK Flexibility Score: inf
ROOT
ATOM      1  C   UNL     1       4.234  23.144 113.269  1.00  0.00     0.000 C 
ENDROOT
BRANCH   1   2
ATOM      2  C   UNL     1       5.388  24.121 112.980  1.00  0.00     0.000 C 
BRANCH   2   3
ATOM      3  C   UNL     1       5.902  24.111 111.526  1.00  0.00     0.006 C 
BRANCH   3   4
ATOM      4  C   UNL     1       7.151  24.973 111.286  1.00  0.00     0.053 C 
BRANCH   4   5
ATOM      5  C   UNL     1       6.800  26.398 110.993  1.00  0.00     0.041 C 
ATOM      6  O   UNL     1       6.977  27.288 111.867  1.00  0.00    -0.550 OA
ATOM      7  O   UNL     1       6.307  26.751 109.742  1.00  0.00    -0.550 OA
ENDBRANCH   4   5
ENDBRANCH   3   4
ENDBRANCH   2   3
ENDBRANCH   1   2
BRANCH   1   8
ATOM      8  C   UNL     1       2.943  23.853 113.705  1.00  0.00     0.000 C 
BRANCH   8   9
ATOM      9  C   UNL     1       3.023  25.361 113.424  1.00  0.00     0.000 C 
BRANCH   9  10
ATOM     10  C   UNL     1       2.067  25.812 112.304  1.00  0.00     0.006 C 
BRANCH  10  11
ATOM     11  C   UNL     1       2.770  26.230 111.003  1.00  0.00     0.053 C 
BRANCH  11  12
ATOM     12  C   UNL     1       2.641  27.700 110.745  1.00  0.00     0.041 C 
ATOM     13  O   UNL     1       1.527  28.193 110.428  1.00  0.00    -0.550 OA
ATOM     14  O   UNL     1       3.746  28.530 110.885  1.00  0.00    -0.550 OA
ENDBRANCH  11  12
ENDBRANCH  10  11
ENDBRANCH   9  10
ENDBRANCH   8   9
ENDBRANCH   1   8
TORSDOF 9
ENDMDL
MODEL 6
REMARK VINA RESULT:    -3.858      2.124      3.043
REMARK INTER + INTRA:          -6.585
REMARK INTER:                  -5.770
REMARK INTRA:                  -0.815
REMARK UNBOUND:                -0.698
REMARK SMILES O=C([O-])CCCCCCCCC(=O)[O-]
REMARK SMILES IDX 7 1 6 2 5 3 4 4 2 5 1 6 3 7 8 8 9 9 10 10 11 11 12 12 13 13
REMARK SMILES IDX 14 14
REMARK H PARENT
REMARK Flexibility Score: inf
ROOT
ATOM      1  C   UNL     1       3.986  24.710 113.846  1.00  0.00     0.000 C 
ENDROOT
BRANCH   1   2
ATOM      2  C   UNL     1       4.547  23.473 113.122  1.00  0.00     0.000 C 
BRANCH   2   3
ATOM      3  C   UNL     1       5.358  23.777 111.846  1.00  0.00     0.006 C 
BRANCH   3   4
ATOM      4  C   UNL     1       6.102  25.120 111.868  1.00  0.00     0.053 C 
BRANCH   4   5
ATOM      5  C   UNL     1       7.582  24.939 112.000  1.00  0.00     0.041 C 
ATOM      6  O   UNL     1       8.048  23.970 112.657  1.00  0.00    -0.550 OA
ATOM      7  O   UNL     1       8.450  25.822 111.369  1.00  0.00    -0.550 OA
ENDBRANCH   4   5
ENDBRANCH   3   4
ENDBRANCH   2   3
ENDBRANCH   1   2
BRANCH   1   8
ATOM      8  C   UNL     1       2.465  24.855 113.696  1.00  0.00     0.000 C 
BRANCH   8   9
ATOM      9  C   UNL     1       2.041  26.328 113.798  1.00  0.00     0.000 C 
BRANCH   9  10
ATOM     10  C   UNL     1       1.579  26.911 112.450  1.00  0.00     0.006 C 
BRANCH  10  11
ATOM     11  C   UNL     1       2.654  27.722 111.710  1.00  0.00     0.053 C 
BRANCH  11  12
ATOM     12  C   UNL     1       3.195  26.985 110.524  1.00  0.00     0.041 C 
ATOM     13  O   UNL     1       3.949  27.570 109.703  1.00  0.00    -0.550 OA
ATOM     14  O   UNL     1       2.892  25.641 110.343  1.00  0.00    -0.550 OA
ENDBRANCH  11  12
ENDBRANCH  10  11
ENDBRANCH   9  10
ENDBRANCH   8   9
ENDBRANCH   1   8
TORSDOF 9
ENDMDL
MODEL 7
REMARK VINA RESULT:    -3.847      1.436      4.507
REMARK INTER + INTRA:          -6.569
REMARK INTER:                  -5.955
REMARK INTRA:                  -0.614
REMARK UNBOUND:                -0.698
REMARK SMILES O=C([O-])CCCCCCCCC(=O)[O-]
REMARK SMILES IDX 7 1 6 2 5 3 4 4 2 5 1 6 3 7 8 8 9 9 10 10 11 11 12 12 13 13
REMARK SMILES IDX 14 14
REMARK H PARENT
REMARK Flexibility Score: inf
ROOT
ATOM      1  C   UNL     1       4.018  23.700 113.857  1.00  0.00     0.000 C 
ENDROOT
BRANCH   1   2
ATOM      2  C   UNL     1       3.002  24.855 113.911  1.00  0.00     0.000 C 
BRANCH   2   3
ATOM      3  C   UNL     1       2.211  25.089 112.608  1.00  0.00     0.006 C 
BRANCH   3   4
ATOM      4  C   UNL     1       2.065  26.564 112.207  1.00  0.00     0.053 C 
BRANCH   4   5
ATOM      5  C   UNL     1       2.622  26.831 110.843  1.00  0.00     0.041 C 
ATOM      6  O   UNL     1       2.257  27.847 110.195  1.00  0.00    -0.550 OA
ATOM      7  O   UNL     1       3.572  25.974 110.300  1.00  0.00    -0.550 OA
ENDBRANCH   4   5
ENDBRANCH   3   4
ENDBRANCH   2   3
ENDBRANCH   1   2
BRANCH   1   8
ATOM      8  C   UNL     1       4.774  23.628 112.522  1.00  0.00     0.000 C 
BRANCH   8   9
ATOM      9  C   UNL     1       6.035  24.504 112.558  1.00  0.00     0.000 C 
BRANCH   9  10
ATOM     10  C   UNL     1       6.915  24.336 111.305  1.00  0.00     0.006 C 
BRANCH  10  11
ATOM     11  C   UNL     1       7.956  25.450 111.111  1.00  0.00     0.053 C 
BRANCH  11  12
ATOM     12  C   UNL     1       7.327  26.732 110.661  1.00  0.00     0.041 C 
ATOM     13  O   UNL     1       7.233  27.705 111.454  1.00  0.00    -0.550 OA
ATOM     14  O   UNL     1       6.872  26.864 109.355  1.00  0.00    -0.550 OA
ENDBRANCH  11  12
ENDBRANCH  10  11
ENDBRANCH   9  10
ENDBRANCH   8   9
ENDBRANCH   1   8
TORSDOF 9
ENDMDL
MODEL 8
REMARK VINA RESULT:    -3.840      1.328      4.495
REMARK INTER + INTRA:          -6.559
REMARK INTER:                  -5.810
REMARK INTRA:                  -0.749
REMARK UNBOUND:                -0.698
REMARK SMILES O=C([O-])CCCCCCCCC(=O)[O-]
REMARK SMILES IDX 7 1 6 2 5 3 4 4 2 5 1 6 3 7 8 8 9 9 10 10 11 11 12 12 13 13
REMARK SMILES IDX 14 14
REMARK H PARENT
REMARK Flexibility Score: inf
ROOT
ATOM      1  C   UNL     1       4.203  25.869 114.035  1.00  0.00     0.000 C 
ENDROOT
BRANCH   1   2
ATOM      2  C   UNL     1       3.439  24.847 113.174  1.00  0.00     0.000 C 
BRANCH   2   3
ATOM      3  C   UNL     1       2.377  25.452 112.233  1.00  0.00     0.006 C 
BRANCH   3   4
ATOM      4  C   UNL     1       2.915  25.888 110.862  1.00  0.00     0.053 C 
BRANCH   4   5
ATOM      5  C   UNL     1       2.838  27.371 110.676  1.00  0.00     0.041 C 
ATOM      6  O   UNL     1       3.891  28.051 110.549  1.00  0.00    -0.550 OA
ATOM      7  O   UNL     1       1.601  28.000 110.609  1.00  0.00    -0.550 OA
ENDBRANCH   4   5
ENDBRANCH   3   4
ENDBRANCH   2   3
ENDBRANCH   1   2
BRANCH   1   8
ATOM      8  C   UNL     1       5.644  26.098 113.556  1.00  0.00     0.000 C 
BRANCH   8   9
ATOM      9  C   UNL     1       6.088  24.983 112.597  1.00  0.00     0.000 C 
BRANCH   9  10
ATOM     10  C   UNL     1       7.595  25.028 112.285  1.00  0.00     0.006 C 
BRANCH  10  11
ATOM     11  C   UNL     1       7.927  25.315 110.813  1.00  0.00     0.053 C 
BRANCH  11  12
ATOM     12  C   UNL     1       7.360  26.624 110.356  1.00  0.00     0.041 C 
ATOM     13  O   UNL     1       6.666  26.683 109.308  1.00  0.00    -0.550 OA
ATOM     14  O   UNL     1       7.573  27.774 111.106  1.00  0.00    -0.550 OA
ENDBRANCH  11  12
ENDBRANCH  10  11
ENDBRANCH   9  10
ENDBRANCH   8   9
ENDBRANCH   1   8
TORSDOF 9
ENDMDL
MODEL 9
REMARK VINA RESULT:    -3.837      1.803      4.885
REMARK INTER + INTRA:          -6.554
REMARK INTER:                  -5.676
REMARK INTRA:                  -0.878
REMARK UNBOUND:                -0.698
REMARK SMILES O=C([O-])CCCCCCCCC(=O)[O-]
REMARK SMILES IDX 7 1 6 2 5 3 4 4 2 5 1 6 3 7 8 8 9 9 10 10 11 11 12 12 13 13
REMARK SMILES IDX 14 14
REMARK H PARENT
REMARK Flexibility Score: inf
ROOT
ATOM      1  C   UNL     1       3.909  24.955 112.388  1.00  0.00     0.000 C 
ENDROOT
BRANCH   1   2
ATOM      2  C   UNL     1       3.992  25.663 111.023  1.00  0.00     0.000 C 
BRANCH   2   3
ATOM      3  C   UNL     1       4.014  27.203 111.088  1.00  0.00     0.006 C 
BRANCH   3   4
ATOM      4  C   UNL     1       3.508  27.793 112.413  1.00  0.00     0.053 C 
BRANCH   4   5
ATOM      5  C   UNL     1       2.092  28.270 112.309  1.00  0.00     0.041 C 
ATOM      6  O   UNL     1       1.836  29.503 112.297  1.00  0.00    -0.550 OA
ATOM      7  O   UNL     1       1.056  27.352 112.190  1.00  0.00    -0.550 OA
ENDBRANCH   4   5
ENDBRANCH   3   4
ENDBRANCH   2   3
ENDBRANCH   1   2
BRANCH   1   8
ATOM      8  C   UNL     1       5.186  24.177 112.738  1.00  0.00     0.000 C 
BRANCH   8   9
ATOM      9  C   UNL     1       6.167  24.171 111.556  1.00  0.00     0.000 C 
BRANCH   9  10
ATOM     10  C   UNL     1       7.539  24.772 111.915  1.00  0.00     0.006 C 
BRANCH  10  11
ATOM     11  C   UNL     1       8.238  25.491 110.751  1.00  0.00     0.053 C 
BRANCH  11  12
ATOM     12  C   UNL     1       7.542  26.764 110.379  1.00  0.00     0.041 C 
ATOM     13  O   UNL     1       7.516  27.731 111.184  1.00  0.00    -0.550 OA
ATOM     14  O   UNL     1       6.949  26.893 109.129  1.00  0.00    -0.550 OA
ENDBRANCH  11  12
ENDBRANCH  10  11
ENDBRANCH   9  10
ENDBRANCH   8   9
ENDBRANCH   1   8
TORSDOF 9
ENDMDL
