MODEL 1
REMARK VINA RESULT:    -3.352      0.000      0.000
REMARK INTER + INTRA:          -9.018
REMARK INTER:                  -6.291
REMARK INTRA:                  -2.727
REMARK UNBOUND:                -2.727
REMARK SMILES CCCCCC=CCC=CCCCCCCCC(=O)OC
REMARK SMILES IDX 11 1 10 2 9 3 8 4 7 5 6 6 5 7 4 8 3 9 2 10 1 11 12 12 13 13
REMARK SMILES IDX 14 14 15 15 16 16 17 17 18 18 19 19 20 20 21 21
REMARK H PARENT
REMARK Flexibility Score: inf
ROOT
ATOM      1  C   UNL     1     101.792  83.831  21.536  1.00  0.00     0.027 C 
ENDROOT
BRANCH   1   2
ATOM      2  C   UNL     1     102.926  84.676  21.013  1.00  0.00    -0.031 C 
ATOM      3  C   UNL     1     104.138  84.769  21.588  1.00  0.00    -0.027 C 
BRANCH   3   4
ATOM      4  C   UNL     1     104.527  84.100  22.883  1.00  0.00     0.054 C 
BRANCH   4   5
ATOM      5  C   UNL     1     105.397  82.893  22.635  1.00  0.00    -0.027 C 
ATOM      6  C   UNL     1     105.044  81.623  22.908  1.00  0.00    -0.031 C 
BRANCH   6   7
ATOM      7  C   UNL     1     103.757  81.215  23.584  1.00  0.00     0.027 C 
BRANCH   7   8
ATOM      8  C   UNL     1     103.961  80.922  25.078  1.00  0.00     0.004 C 
BRANCH   8   9
ATOM      9  C   UNL     1     103.618  82.133  25.958  1.00  0.00     0.000 C 
BRANCH   9  10
ATOM     10  C   UNL     1     104.884  82.738  26.577  1.00  0.00    -0.003 C 
ATOM     11  C   UNL     1     104.560  83.506  27.855  1.00  0.00     0.004 C 
ENDBRANCH   9  10
ENDBRANCH   8   9
ENDBRANCH   7   8
ENDBRANCH   6   7
ENDBRANCH   4   5
ENDBRANCH   3   4
ENDBRANCH   1   2
BRANCH   1  12
ATOM     12  C   UNL     1     101.602  82.580  20.666  1.00  0.00     0.004 C 
BRANCH  12  13
ATOM     13  C   UNL     1     102.236  82.729  19.274  1.00  0.00     0.000 C 
BRANCH  13  14
ATOM     14  C   UNL     1     102.994  81.464  18.833  1.00  0.00     0.000 C 
BRANCH  14  15
ATOM     15  C   UNL     1     104.430  81.416  19.377  1.00  0.00     0.001 C 
BRANCH  15  16
ATOM     16  C   UNL     1     105.291  82.589  18.875  1.00  0.00     0.012 C 
BRANCH  16  17
ATOM     17  C   UNL     1     105.913  82.304  17.500  1.00  0.00     0.123 C 
BRANCH  17  18
ATOM     18  C   UNL     1     106.656  81.003  17.485  1.00  0.00     0.305 C 
ATOM     19  O   UNL     1     107.802  80.930  18.010  1.00  0.00    -0.252 OA
BRANCH  18  20
ATOM     20  O   UNL     1     106.058  79.875  16.918  1.00  0.00    -0.469 OA
ATOM     21  C   UNL     1     105.044  79.964  15.925  1.00  0.00     0.282 C 
ENDBRANCH  18  20
ENDBRANCH  17  18
ENDBRANCH  16  17
ENDBRANCH  15  16
ENDBRANCH  14  15
ENDBRANCH  13  14
ENDBRANCH  12  13
ENDBRANCH   1  12
TORSDOF 15
ENDMDL
MODEL 2
REMARK VINA RESULT:    -3.294      2.251      3.342
REMARK INTER + INTRA:          -8.910
REMARK INTER:                  -5.720
REMARK INTRA:                  -3.190
REMARK UNBOUND:                -2.727
REMARK SMILES CCCCCC=CCC=CCCCCCCCC(=O)OC
REMARK SMILES IDX 11 1 10 2 9 3 8 4 7 5 6 6 5 7 4 8 3 9 2 10 1 11 12 12 13 13
REMARK SMILES IDX 14 14 15 15 16 16 17 17 18 18 19 19 20 20 21 21
REMARK H PARENT
REMARK Flexibility Score: inf
ROOT
ATOM      1  C   UNL     1     105.471  83.194  22.496  1.00  0.00     0.027 C 
ENDROOT
BRANCH   1   2
ATOM      2  C   UNL     1     104.677  84.004  21.503  1.00  0.00    -0.031 C 
ATOM      3  C   UNL     1     103.397  84.381  21.672  1.00  0.00    -0.027 C 
BRANCH   3   4
ATOM      4  C   UNL     1     102.537  83.991  22.848  1.00  0.00     0.054 C 
BRANCH   4   5
ATOM      5  C   UNL     1     101.953  82.613  22.666  1.00  0.00    -0.027 C 
ATOM      6  C   UNL     1     101.937  81.654  23.611  1.00  0.00    -0.031 C 
BRANCH   6   7
ATOM      7  C   UNL     1     102.577  81.778  24.972  1.00  0.00     0.027 C 
BRANCH   7   8
ATOM      8  C   UNL     1     103.762  80.816  25.141  1.00  0.00     0.004 C 
BRANCH   8   9
ATOM      9  C   UNL     1     104.945  81.474  25.865  1.00  0.00     0.000 C 
BRANCH   9  10
ATOM     10  C   UNL     1     104.651  82.948  26.169  1.00  0.00    -0.003 C 
ATOM     11  C   UNL     1     105.166  83.339  27.552  1.00  0.00     0.004 C 
ENDBRANCH   9  10
ENDBRANCH   8   9
ENDBRANCH   7   8
ENDBRANCH   6   7
ENDBRANCH   4   5
ENDBRANCH   3   4
ENDBRANCH   1   2
BRANCH   1  12
ATOM     12  C   UNL     1     106.053  81.938  21.831  1.00  0.00     0.004 C 
BRANCH  12  13
ATOM     13  C   UNL     1     105.158  80.703  22.020  1.00  0.00     0.000 C 
BRANCH  13  14
ATOM     14  C   UNL     1     104.820  80.010  20.688  1.00  0.00     0.000 C 
BRANCH  14  15
ATOM     15  C   UNL     1     103.485  80.486  20.097  1.00  0.00     0.001 C 
BRANCH  15  16
ATOM     16  C   UNL     1     103.675  81.450  18.912  1.00  0.00     0.012 C 
BRANCH  16  17
ATOM     17  C   UNL     1     102.471  82.385  18.725  1.00  0.00     0.123 C 
BRANCH  17  18
ATOM     18  C   UNL     1     102.780  83.506  17.781  1.00  0.00     0.305 C 
ATOM     19  O   UNL     1     102.062  83.678  16.757  1.00  0.00    -0.252 OA
BRANCH  18  20
ATOM     20  O   UNL     1     103.841  84.371  18.062  1.00  0.00    -0.469 OA
ATOM     21  C   UNL     1     104.948  84.535  17.185  1.00  0.00     0.282 C 
ENDBRANCH  18  20
ENDBRANCH  17  18
ENDBRANCH  16  17
ENDBRANCH  15  16
ENDBRANCH  14  15
ENDBRANCH  13  14
ENDBRANCH  12  13
ENDBRANCH   1  12
TORSDOF 15
ENDMDL
MODEL 3
REMARK VINA RESULT:    -3.249      1.778      2.412
REMARK INTER + INTRA:          -8.825
REMARK INTER:                  -5.696
REMARK INTRA:                  -3.129
REMARK UNBOUND:                -2.727
REMARK SMILES CCCCCC=CCC=CCCCCCCCC(=O)OC
REMARK SMILES IDX 11 1 10 2 9 3 8 4 7 5 6 6 5 7 4 8 3 9 2 10 1 11 12 12 13 13
REMARK SMILES IDX 14 14 15 15 16 16 17 17 18 18 19 19 20 20 21 21
REMARK H PARENT
REMARK Flexibility Score: inf
ROOT
ATOM      1  C   UNL     1     102.442  84.311  22.326  1.00  0.00     0.027 C 
ENDROOT
BRANCH   1   2
ATOM      2  C   UNL     1     103.598  84.592  21.400  1.00  0.00    -0.031 C 
ATOM      3  C   UNL     1     104.846  84.119  21.571  1.00  0.00    -0.027 C 
BRANCH   3   4
ATOM      4  C   UNL     1     105.297  83.296  22.751  1.00  0.00     0.054 C 
BRANCH   4   5
ATOM      5  C   UNL     1     105.331  81.827  22.413  1.00  0.00    -0.027 C 
ATOM      6  C   UNL     1     105.156  80.830  23.301  1.00  0.00    -0.031 C 
BRANCH   6   7
ATOM      7  C   UNL     1     104.984  81.024  24.788  1.00  0.00     0.027 C 
BRANCH   7   8
ATOM      8  C   UNL     1     103.513  81.235  25.173  1.00  0.00     0.004 C 
BRANCH   8   9
ATOM      9  C   UNL     1     103.257  82.641  25.736  1.00  0.00     0.000 C 
BRANCH   9  10
ATOM     10  C   UNL     1     101.762  82.982  25.704  1.00  0.00    -0.003 C 
ATOM     11  C   UNL     1     101.099  82.678  27.045  1.00  0.00     0.004 C 
ENDBRANCH   9  10
ENDBRANCH   8   9
ENDBRANCH   7   8
ENDBRANCH   6   7
ENDBRANCH   4   5
ENDBRANCH   3   4
ENDBRANCH   1   2
BRANCH   1  12
ATOM     12  C   UNL     1     101.406  83.406  21.643  1.00  0.00     0.004 C 
BRANCH  12  13
ATOM     13  C   UNL     1     101.397  81.982  22.220  1.00  0.00     0.000 C 
BRANCH  13  14
ATOM     14  C   UNL     1     101.931  80.939  21.222  1.00  0.00     0.000 C 
BRANCH  14  15
ATOM     15  C   UNL     1     102.209  81.536  19.834  1.00  0.00     0.001 C 
BRANCH  15  16
ATOM     16  C   UNL     1     103.634  81.235  19.337  1.00  0.00     0.012 C 
BRANCH  16  17
ATOM     17  C   UNL     1     104.063  82.175  18.201  1.00  0.00     0.123 C 
BRANCH  17  18
ATOM     18  C   UNL     1     103.240  81.968  16.967  1.00  0.00     0.305 C 
ATOM     19  O   UNL     1     102.489  82.893  16.553  1.00  0.00    -0.252 OA
BRANCH  18  20
ATOM     20  O   UNL     1     103.338  80.762  16.268  1.00  0.00    -0.469 OA
ATOM     21  C   UNL     1     104.586  80.154  15.960  1.00  0.00     0.282 C 
ENDBRANCH  18  20
ENDBRANCH  17  18
ENDBRANCH  16  17
ENDBRANCH  15  16
ENDBRANCH  14  15
ENDBRANCH  13  14
ENDBRANCH  12  13
ENDBRANCH   1  12
TORSDOF 15
ENDMDL
MODEL 4
REMARK VINA RESULT:    -3.241      1.855      3.482
REMARK INTER + INTRA:          -8.811
REMARK INTER:                  -5.394
REMARK INTRA:                  -3.417
REMARK UNBOUND:                -2.727
REMARK SMILES CCCCCC=CCC=CCCCCCCCC(=O)OC
REMARK SMILES IDX 11 1 10 2 9 3 8 4 7 5 6 6 5 7 4 8 3 9 2 10 1 11 12 12 13 13
REMARK SMILES IDX 14 14 15 15 16 16 17 17 18 18 19 19 20 20 21 21
REMARK H PARENT
REMARK Flexibility Score: inf
ROOT
ATOM      1  C   UNL     1     104.534  84.024  22.733  1.00  0.00     0.027 C 
ENDROOT
BRANCH   1   2
ATOM      2  C   UNL     1     105.616  83.089  22.257  1.00  0.00    -0.031 C 
ATOM      3  C   UNL     1     105.597  81.753  22.415  1.00  0.00    -0.027 C 
BRANCH   3   4
ATOM      4  C   UNL     1     104.524  80.992  23.154  1.00  0.00     0.054 C 
BRANCH   4   5
ATOM      5  C   UNL     1     105.056  80.405  24.437  1.00  0.00    -0.027 C 
ATOM      6  C   UNL     1     104.972  80.994  25.645  1.00  0.00    -0.031 C 
BRANCH   6   7
ATOM      7  C   UNL     1     104.409  82.372  25.892  1.00  0.00     0.027 C 
BRANCH   7   8
ATOM      8  C   UNL     1     102.918  82.327  26.255  1.00  0.00     0.004 C 
BRANCH   8   9
ATOM      9  C   UNL     1     102.035  82.947  25.162  1.00  0.00     0.000 C 
BRANCH   9  10
ATOM     10  C   UNL     1     101.213  81.870  24.443  1.00  0.00    -0.003 C 
ATOM     11  C   UNL     1      99.805  82.369  24.130  1.00  0.00     0.004 C 
ENDBRANCH   9  10
ENDBRANCH   8   9
ENDBRANCH   7   8
ENDBRANCH   6   7
ENDBRANCH   4   5
ENDBRANCH   3   4
ENDBRANCH   1   2
BRANCH   1  12
ATOM     12  C   UNL     1     103.697  84.534  21.550  1.00  0.00     0.004 C 
BRANCH  12  13
ATOM     13  C   UNL     1     102.186  84.424  21.808  1.00  0.00     0.000 C 
BRANCH  13  14
ATOM     14  C   UNL     1     101.466  83.583  20.739  1.00  0.00     0.000 C 
BRANCH  14  15
ATOM     15  C   UNL     1     101.925  82.116  20.733  1.00  0.00     0.001 C 
BRANCH  15  16
ATOM     16  C   UNL     1     102.347  81.637  19.332  1.00  0.00     0.012 C 
BRANCH  16  17
ATOM     17  C   UNL     1     103.872  81.533  19.189  1.00  0.00     0.123 C 
BRANCH  17  18
ATOM     18  C   UNL     1     104.451  82.745  18.525  1.00  0.00     0.305 C 
ATOM     19  O   UNL     1     105.669  83.031  18.696  1.00  0.00    -0.252 OA
BRANCH  18  20
ATOM     20  O   UNL     1     103.645  83.528  17.695  1.00  0.00    -0.469 OA
ATOM     21  C   UNL     1     103.580  84.944  17.806  1.00  0.00     0.282 C 
ENDBRANCH  18  20
ENDBRANCH  17  18
ENDBRANCH  16  17
ENDBRANCH  15  16
ENDBRANCH  14  15
ENDBRANCH  13  14
ENDBRANCH  12  13
ENDBRANCH   1  12
TORSDOF 15
ENDMDL
MODEL 5
REMARK VINA RESULT:    -3.201      1.635      2.946
REMARK INTER + INTRA:          -8.735
REMARK INTER:                  -5.673
REMARK INTRA:                  -3.062
REMARK UNBOUND:                -2.727
REMARK SMILES CCCCCC=CCC=CCCCCCCCC(=O)OC
REMARK SMILES IDX 11 1 10 2 9 3 8 4 7 5 6 6 5 7 4 8 3 9 2 10 1 11 12 12 13 13
REMARK SMILES IDX 14 14 15 15 16 16 17 17 18 18 19 19 20 20 21 21
REMARK H PARENT
REMARK Flexibility Score: inf
ROOT
ATOM      1  C   UNL     1     102.672  85.405  20.982  1.00  0.00     0.027 C 
ENDROOT
BRANCH   1   2
ATOM      2  C   UNL     1     102.336  84.508  19.818  1.00  0.00    -0.031 C 
ATOM      3  C   UNL     1     101.486  83.466  19.876  1.00  0.00    -0.027 C 
BRANCH   3   4
ATOM      4  C   UNL     1     100.794  82.993  21.130  1.00  0.00     0.054 C 
BRANCH   4   5
ATOM      5  C   UNL     1     101.133  81.555  21.432  1.00  0.00    -0.027 C 
ATOM      6  C   UNL     1     101.503  81.091  22.641  1.00  0.00    -0.031 C 
BRANCH   6   7
ATOM      7  C   UNL     1     101.720  81.951  23.862  1.00  0.00     0.027 C 
BRANCH   7   8
ATOM      8  C   UNL     1     102.839  81.402  24.760  1.00  0.00     0.004 C 
BRANCH   8   9
ATOM      9  C   UNL     1     103.167  82.351  25.922  1.00  0.00     0.000 C 
BRANCH   9  10
ATOM     10  C   UNL     1     104.683  82.539  26.066  1.00  0.00    -0.003 C 
ATOM     11  C   UNL     1     105.023  83.322  27.331  1.00  0.00     0.004 C 
ENDBRANCH   9  10
ENDBRANCH   8   9
ENDBRANCH   7   8
ENDBRANCH   6   7
ENDBRANCH   4   5
ENDBRANCH   3   4
ENDBRANCH   1   2
BRANCH   1  12
ATOM     12  C   UNL     1     104.117  85.172  21.448  1.00  0.00     0.004 C 
BRANCH  12  13
ATOM     13  C   UNL     1     104.217  84.087  22.533  1.00  0.00     0.000 C 
BRANCH  13  14
ATOM     14  C   UNL     1     105.511  83.262  22.423  1.00  0.00     0.000 C 
BRANCH  14  15
ATOM     15  C   UNL     1     105.245  81.787  22.085  1.00  0.00     0.001 C 
BRANCH  15  16
ATOM     16  C   UNL     1     104.716  81.596  20.653  1.00  0.00     0.012 C 
BRANCH  16  17
ATOM     17  C   UNL     1     105.695  82.128  19.597  1.00  0.00     0.123 C 
BRANCH  17  18
ATOM     18  C   UNL     1     104.985  82.569  18.353  1.00  0.00     0.305 C 
ATOM     19  O   UNL     1     105.382  83.597  17.736  1.00  0.00    -0.252 OA
BRANCH  18  20
ATOM     20  O   UNL     1     103.909  81.819  17.871  1.00  0.00    -0.469 OA
ATOM     21  C   UNL     1     103.376  81.997  16.565  1.00  0.00     0.282 C 
ENDBRANCH  18  20
ENDBRANCH  17  18
ENDBRANCH  16  17
ENDBRANCH  15  16
ENDBRANCH  14  15
ENDBRANCH  13  14
ENDBRANCH  12  13
ENDBRANCH   1  12
TORSDOF 15
ENDMDL
MODEL 6
REMARK VINA RESULT:    -3.176      1.668      2.096
REMARK INTER + INTRA:          -8.689
REMARK INTER:                  -5.759
REMARK INTRA:                  -2.930
REMARK UNBOUND:                -2.727
REMARK SMILES CCCCCC=CCC=CCCCCCCCC(=O)OC
REMARK SMILES IDX 11 1 10 2 9 3 8 4 7 5 6 6 5 7 4 8 3 9 2 10 1 11 12 12 13 13
REMARK SMILES IDX 14 14 15 15 16 16 17 17 18 18 19 19 20 20 21 21
REMARK H PARENT
REMARK Flexibility Score: inf
ROOT
ATOM      1  C   UNL     1     101.561  83.395  20.702  1.00  0.00     0.027 C 
ENDROOT
BRANCH   1   2
ATOM      2  C   UNL     1     102.625  84.368  20.262  1.00  0.00    -0.031 C 
ATOM      3  C   UNL     1     103.660  84.765  21.024  1.00  0.00    -0.027 C 
BRANCH   3   4
ATOM      4  C   UNL     1     103.877  84.352  22.458  1.00  0.00     0.054 C 
BRANCH   4   5
ATOM      5  C   UNL     1     105.142  83.545  22.610  1.00  0.00    -0.027 C 
ATOM      6  C   UNL     1     105.184  82.230  22.894  1.00  0.00    -0.031 C 
BRANCH   6   7
ATOM      7  C   UNL     1     103.976  81.374  23.187  1.00  0.00     0.027 C 
BRANCH   7   8
ATOM      8  C   UNL     1     103.785  81.147  24.694  1.00  0.00     0.004 C 
BRANCH   8   9
ATOM      9  C   UNL     1     102.770  82.126  25.303  1.00  0.00     0.000 C 
BRANCH   9  10
ATOM     10  C   UNL     1     103.314  82.747  26.595  1.00  0.00    -0.003 C 
ATOM     11  C   UNL     1     104.839  82.779  26.592  1.00  0.00     0.004 C 
ENDBRANCH   9  10
ENDBRANCH   8   9
ENDBRANCH   7   8
ENDBRANCH   6   7
ENDBRANCH   4   5
ENDBRANCH   3   4
ENDBRANCH   1   2
BRANCH   1  12
ATOM     12  C   UNL     1     101.892  81.974  20.222  1.00  0.00     0.004 C 
BRANCH  12  13
ATOM     13  C   UNL     1     102.984  81.958  19.140  1.00  0.00     0.000 C 
BRANCH  13  14
ATOM     14  C   UNL     1     104.073  80.907  19.417  1.00  0.00     0.000 C 
BRANCH  14  15
ATOM     15  C   UNL     1     105.492  81.491  19.340  1.00  0.00     0.001 C 
BRANCH  15  16
ATOM     16  C   UNL     1     105.538  82.833  18.589  1.00  0.00     0.012 C 
BRANCH  16  17
ATOM     17  C   UNL     1     106.130  82.689  17.180  1.00  0.00     0.123 C 
BRANCH  17  18
ATOM     18  C   UNL     1     105.139  83.063  16.120  1.00  0.00     0.305 C 
ATOM     19  O   UNL     1     104.624  82.163  15.400  1.00  0.00    -0.252 OA
BRANCH  18  20
ATOM     20  O   UNL     1     104.772  84.401  15.961  1.00  0.00    -0.469 OA
ATOM     21  C   UNL     1     103.523  84.910  16.410  1.00  0.00     0.282 C 
ENDBRANCH  18  20
ENDBRANCH  17  18
ENDBRANCH  16  17
ENDBRANCH  15  16
ENDBRANCH  14  15
ENDBRANCH  13  14
ENDBRANCH  12  13
ENDBRANCH   1  12
TORSDOF 15
ENDMDL
MODEL 7
REMARK VINA RESULT:    -3.160      1.698      2.524
REMARK INTER + INTRA:          -8.657
REMARK INTER:                  -5.650
REMARK INTRA:                  -3.007
REMARK UNBOUND:                -2.727
REMARK SMILES CCCCCC=CCC=CCCCCCCCC(=O)OC
REMARK SMILES IDX 11 1 10 2 9 3 8 4 7 5 6 6 5 7 4 8 3 9 2 10 1 11 12 12 13 13
REMARK SMILES IDX 14 14 15 15 16 16 17 17 18 18 19 19 20 20 21 21
REMARK H PARENT
REMARK Flexibility Score: inf
ROOT
ATOM      1  C   UNL     1     101.202  84.079  22.778  1.00  0.00     0.027 C 
ENDROOT
BRANCH   1   2
ATOM      2  C   UNL     1     101.275  84.567  21.354  1.00  0.00    -0.031 C 
ATOM      3  C   UNL     1     102.386  85.046  20.766  1.00  0.00    -0.027 C 
BRANCH   3   4
ATOM      4  C   UNL     1     103.711  85.234  21.461  1.00  0.00     0.054 C 
BRANCH   4   5
ATOM      5  C   UNL     1     104.619  84.051  21.240  1.00  0.00    -0.027 C 
ATOM      6  C   UNL     1     105.080  83.244  22.213  1.00  0.00    -0.031 C 
BRANCH   6   7
ATOM      7  C   UNL     1     104.831  83.446  23.688  1.00  0.00     0.027 C 
BRANCH   7   8
ATOM      8  C   UNL     1     104.227  82.197  24.346  1.00  0.00     0.004 C 
BRANCH   8   9
ATOM      9  C   UNL     1     104.655  82.051  25.814  1.00  0.00     0.000 C 
BRANCH   9  10
ATOM     10  C   UNL     1     103.688  82.793  26.744  1.00  0.00    -0.003 C 
ATOM     11  C   UNL     1     102.236  82.521  26.361  1.00  0.00     0.004 C 
ENDBRANCH   9  10
ENDBRANCH   8   9
ENDBRANCH   7   8
ENDBRANCH   6   7
ENDBRANCH   4   5
ENDBRANCH   3   4
ENDBRANCH   1   2
BRANCH   1  12
ATOM     12  C   UNL     1     100.912  82.571  22.821  1.00  0.00     0.004 C 
BRANCH  12  13
ATOM     13  C   UNL     1     100.878  81.938  21.421  1.00  0.00     0.000 C 
BRANCH  13  14
ATOM     14  C   UNL     1     101.805  80.715  21.304  1.00  0.00     0.000 C 
BRANCH  14  15
ATOM     15  C   UNL     1     102.880  80.889  20.220  1.00  0.00     0.001 C 
BRANCH  15  16
ATOM     16  C   UNL     1     102.427  81.827  19.086  1.00  0.00     0.012 C 
BRANCH  16  17
ATOM     17  C   UNL     1     103.359  81.756  17.868  1.00  0.00     0.123 C 
BRANCH  17  18
ATOM     18  C   UNL     1     104.233  82.969  17.766  1.00  0.00     0.305 C 
ATOM     19  O   UNL     1     103.730  84.078  17.435  1.00  0.00    -0.252 OA
BRANCH  18  20
ATOM     20  O   UNL     1     105.592  82.865  18.072  1.00  0.00    -0.469 OA
ATOM     21  C   UNL     1     106.443  81.902  17.464  1.00  0.00     0.282 C 
ENDBRANCH  18  20
ENDBRANCH  17  18
ENDBRANCH  16  17
ENDBRANCH  15  16
ENDBRANCH  14  15
ENDBRANCH  13  14
ENDBRANCH  12  13
ENDBRANCH   1  12
TORSDOF 15
ENDMDL
MODEL 8
REMARK VINA RESULT:    -3.155      1.927      3.593
REMARK INTER + INTRA:          -8.649
REMARK INTER:                  -5.345
REMARK INTRA:                  -3.304
REMARK UNBOUND:                -2.727
REMARK SMILES CCCCCC=CCC=CCCCCCCCC(=O)OC
REMARK SMILES IDX 11 1 10 2 9 3 8 4 7 5 6 6 5 7 4 8 3 9 2 10 1 11 12 12 13 13
REMARK SMILES IDX 14 14 15 15 16 16 17 17 18 18 19 19 20 20 21 21
REMARK H PARENT
REMARK Flexibility Score: inf
ROOT
ATOM      1  C   UNL     1     105.239  82.124  21.864  1.00  0.00     0.027 C 
ENDROOT
BRANCH   1   2
ATOM      2  C   UNL     1     105.686  81.969  20.433  1.00  0.00    -0.031 C 
ATOM      3  C   UNL     1     104.968  81.365  19.468  1.00  0.00    -0.027 C 
BRANCH   3   4
ATOM      4  C   UNL     1     103.639  80.688  19.686  1.00  0.00     0.054 C 
BRANCH   4   5
ATOM      5  C   UNL     1     102.499  81.669  19.568  1.00  0.00    -0.027 C 
ATOM      6  C   UNL     1     101.559  81.871  20.510  1.00  0.00    -0.031 C 
BRANCH   6   7
ATOM      7  C   UNL     1     101.448  81.087  21.795  1.00  0.00     0.027 C 
BRANCH   7   8
ATOM      8  C   UNL     1     101.516  81.996  23.031  1.00  0.00     0.004 C 
BRANCH   8   9
ATOM      9  C   UNL     1     102.435  81.424  24.121  1.00  0.00     0.000 C 
BRANCH   9  10
ATOM     10  C   UNL     1     102.749  82.483  25.186  1.00  0.00    -0.003 C 
ATOM     11  C   UNL     1     104.193  82.370  25.666  1.00  0.00     0.004 C 
ENDBRANCH   9  10
ENDBRANCH   8   9
ENDBRANCH   7   8
ENDBRANCH   6   7
ENDBRANCH   4   5
ENDBRANCH   3   4
ENDBRANCH   1   2
BRANCH   1  12
ATOM     12  C   UNL     1     105.293  83.598  22.293  1.00  0.00     0.004 C 
BRANCH  12  13
ATOM     13  C   UNL     1     104.004  84.360  21.948  1.00  0.00     0.000 C 
BRANCH  13  14
ATOM     14  C   UNL     1     104.229  85.448  20.884  1.00  0.00     0.000 C 
BRANCH  14  15
ATOM     15  C   UNL     1     103.607  85.086  19.527  1.00  0.00     0.001 C 
BRANCH  15  16
ATOM     16  C   UNL     1     104.668  84.846  18.438  1.00  0.00     0.012 C 
BRANCH  16  17
ATOM     17  C   UNL     1     104.043  84.410  17.105  1.00  0.00     0.123 C 
BRANCH  17  18
ATOM     18  C   UNL     1     105.056  83.786  16.194  1.00  0.00     0.305 C 
ATOM     19  O   UNL     1     106.013  84.481  15.752  1.00  0.00    -0.252 OA
BRANCH  18  20
ATOM     20  O   UNL     1     104.948  82.432  15.869  1.00  0.00    -0.469 OA
ATOM     21  C   UNL     1     103.727  81.712  15.982  1.00  0.00     0.282 C 
ENDBRANCH  18  20
ENDBRANCH  17  18
ENDBRANCH  16  17
ENDBRANCH  15  16
ENDBRANCH  14  15
ENDBRANCH  13  14
ENDBRANCH  12  13
ENDBRANCH   1  12
TORSDOF 15
ENDMDL
MODEL 9
REMARK VINA RESULT:    -3.133      2.160      3.164
REMARK INTER + INTRA:          -8.607
REMARK INTER:                  -5.441
REMARK INTRA:                  -3.167
REMARK UNBOUND:                -2.727
REMARK SMILES CCCCCC=CCC=CCCCCCCCC(=O)OC
REMARK SMILES IDX 11 1 10 2 9 3 8 4 7 5 6 6 5 7 4 8 3 9 2 10 1 11 12 12 13 13
REMARK SMILES IDX 14 14 15 15 16 16 17 17 18 18 19 19 20 20 21 21
REMARK H PARENT
REMARK Flexibility Score: inf
ROOT
ATOM      1  C   UNL     1     105.321  80.592  22.673  1.00  0.00     0.027 C 
ENDROOT
BRANCH   1   2
ATOM      2  C   UNL     1     105.800  81.555  21.617  1.00  0.00    -0.031 C 
ATOM      3  C   UNL     1     105.651  82.891  21.676  1.00  0.00    -0.027 C 
BRANCH   3   4
ATOM      4  C   UNL     1     104.918  83.624  22.772  1.00  0.00     0.054 C 
BRANCH   4   5
ATOM      5  C   UNL     1     103.709  84.346  22.233  1.00  0.00    -0.027 C 
ATOM      6  C   UNL     1     102.434  84.053  22.552  1.00  0.00    -0.031 C 
BRANCH   6   7
ATOM      7  C   UNL     1     102.011  82.901  23.431  1.00  0.00     0.027 C 
BRANCH   7   8
ATOM      8  C   UNL     1     101.939  83.304  24.911  1.00  0.00     0.004 C 
BRANCH   8   9
ATOM      9  C   UNL     1     102.275  82.134  25.847  1.00  0.00     0.000 C 
BRANCH   9  10
ATOM     10  C   UNL     1     103.766  81.782  25.772  1.00  0.00    -0.003 C 
ATOM     11  C   UNL     1     104.624  82.880  26.394  1.00  0.00     0.004 C 
ENDBRANCH   9  10
ENDBRANCH   8   9
ENDBRANCH   7   8
ENDBRANCH   6   7
ENDBRANCH   4   5
ENDBRANCH   3   4
ENDBRANCH   1   2
BRANCH   1  12
ATOM     12  C   UNL     1     103.899  80.105  22.359  1.00  0.00     0.004 C 
BRANCH  12  13
ATOM     13  C   UNL     1     103.643  79.969  20.850  1.00  0.00     0.000 C 
BRANCH  13  14
ATOM     14  C   UNL     1     102.489  80.864  20.364  1.00  0.00     0.000 C 
BRANCH  14  15
ATOM     15  C   UNL     1     102.704  81.382  18.934  1.00  0.00     0.001 C 
BRANCH  15  16
ATOM     16  C   UNL     1     102.852  82.913  18.877  1.00  0.00     0.012 C 
BRANCH  16  17
ATOM     17  C   UNL     1     104.227  83.345  18.350  1.00  0.00     0.123 C 
BRANCH  17  18
ATOM     18  C   UNL     1     104.113  84.156  17.095  1.00  0.00     0.305 C 
ATOM     19  O   UNL     1     103.611  85.314  17.142  1.00  0.00    -0.252 OA
BRANCH  18  20
ATOM     20  O   UNL     1     104.592  83.635  15.891  1.00  0.00    -0.469 OA
ATOM     21  C   UNL     1     104.405  82.276  15.516  1.00  0.00     0.282 C 
ENDBRANCH  18  20
ENDBRANCH  17  18
ENDBRANCH  16  17
ENDBRANCH  15  16
ENDBRANCH  14  15
ENDBRANCH  13  14
ENDBRANCH  12  13
ENDBRANCH   1  12
TORSDOF 15
ENDMDL
