MODEL 1
REMARK VINA RESULT:    -1.805      0.000      0.000
REMARK INTER + INTRA:          -3.677
REMARK INTER:                  -2.860
REMARK INTRA:                  -0.817
REMARK UNBOUND:                -0.817
REMARK SMILES CCCCCCCCCCCC(=O)[O-]
REMARK SMILES IDX 7 1 8 2 9 3 10 4 11 5 12 6 13 7 14 8 6 9 5 10 4 11 3 12 2 13
REMARK SMILES IDX 1 14
REMARK H PARENT
REMARK Flexibility Score: inf
ROOT
ATOM      1  C   UNL     1      -4.903  39.591  22.007  1.00  0.00     0.000 C 
ENDROOT
BRANCH   1   2
ATOM      2  C   UNL     1      -5.870  38.807  21.097  1.00  0.00     0.000 C 
BRANCH   2   3
ATOM      3  C   UNL     1      -5.205  37.743  20.205  1.00  0.00     0.000 C 
BRANCH   3   4
ATOM      4  C   UNL     1      -5.733  36.323  20.476  1.00  0.00     0.006 C 
BRANCH   4   5
ATOM      5  C   UNL     1      -4.718  35.243  20.078  1.00  0.00     0.053 C 
BRANCH   5   6
ATOM      6  C   UNL     1      -4.918  34.789  18.664  1.00  0.00     0.041 C 
ATOM      7  O   UNL     1      -4.138  35.183  17.756  1.00  0.00    -0.550 OA
ATOM      8  O   UNL     1      -5.986  33.962  18.343  1.00  0.00    -0.550 OA
ENDBRANCH   5   6
ENDBRANCH   4   5
ENDBRANCH   3   4
ENDBRANCH   2   3
ENDBRANCH   1   2
BRANCH   1   9
ATOM      9  C   UNL     1      -5.148  39.420  23.520  1.00  0.00     0.000 C 
BRANCH   9  10
ATOM     10  C   UNL     1      -5.953  38.164  23.908  1.00  0.00    -0.000 C 
BRANCH  10  11
ATOM     11  C   UNL     1      -5.396  37.377  25.111  1.00  0.00    -0.000 C 
BRANCH  11  12
ATOM     12  C   UNL     1      -5.788  35.890  25.153  1.00  0.00    -0.000 C 
BRANCH  12  13
ATOM     13  C   UNL     1      -6.125  35.323  23.766  1.00  0.00    -0.003 C 
ATOM     14  C   UNL     1      -5.148  34.219  23.372  1.00  0.00     0.004 C 
ENDBRANCH  12  13
ENDBRANCH  11  12
ENDBRANCH  10  11
ENDBRANCH   9  10
ENDBRANCH   1   9
TORSDOF 10
ENDMDL
MODEL 2
REMARK VINA RESULT:    -1.260      2.418      4.007
REMARK INTER + INTRA:          -2.813
REMARK INTER:                  -2.421
REMARK INTRA:                  -0.392
REMARK UNBOUND:                -0.817
REMARK SMILES CCCCCCCCCCCC(=O)[O-]
REMARK SMILES IDX 7 1 8 2 9 3 10 4 11 5 12 6 13 7 14 8 6 9 5 10 4 11 3 12 2 13
REMARK SMILES IDX 1 14
REMARK H PARENT
REMARK Flexibility Score: inf
ROOT
ATOM      1  C   UNL     1      -5.144  35.903  19.902  1.00  0.00     0.000 C 
ENDROOT
BRANCH   1   2
ATOM      2  C   UNL     1      -5.628  34.732  19.023  1.00  0.00     0.000 C 
BRANCH   2   3
ATOM      3  C   UNL     1      -4.680  34.347  17.873  1.00  0.00     0.000 C 
BRANCH   3   4
ATOM      4  C   UNL     1      -4.098  35.571  17.145  1.00  0.00     0.006 C 
BRANCH   4   5
ATOM      5  C   UNL     1      -3.130  35.171  16.023  1.00  0.00     0.053 C 
BRANCH   5   6
ATOM      6  C   UNL     1      -3.108  36.187  14.922  1.00  0.00     0.041 C 
ATOM      7  O   UNL     1      -4.111  36.920  14.716  1.00  0.00    -0.550 OA
ATOM      8  O   UNL     1      -1.992  36.300  14.101  1.00  0.00    -0.550 OA
ENDBRANCH   5   6
ENDBRANCH   4   5
ENDBRANCH   3   4
ENDBRANCH   2   3
ENDBRANCH   1   2
BRANCH   1   9
ATOM      9  C   UNL     1      -5.683  35.902  21.346  1.00  0.00     0.000 C 
BRANCH   9  10
ATOM     10  C   UNL     1      -5.168  34.748  22.229  1.00  0.00    -0.000 C 
BRANCH  10  11
ATOM     11  C   UNL     1      -5.668  34.767  23.687  1.00  0.00    -0.000 C 
BRANCH  11  12
ATOM     12  C   UNL     1      -6.125  36.144  24.200  1.00  0.00    -0.000 C 
BRANCH  12  13
ATOM     13  C   UNL     1      -5.696  36.412  25.650  1.00  0.00    -0.003 C 
ATOM     14  C   UNL     1      -4.690  37.557  25.723  1.00  0.00     0.004 C 
ENDBRANCH  12  13
ENDBRANCH  11  12
ENDBRANCH  10  11
ENDBRANCH   9  10
ENDBRANCH   1   9
TORSDOF 10
ENDMDL
MODEL 3
REMARK VINA RESULT:    -1.254      3.643      6.890
REMARK INTER + INTRA:          -2.804
REMARK INTER:                  -2.368
REMARK INTRA:                  -0.436
REMARK UNBOUND:                -0.817
REMARK SMILES CCCCCCCCCCCC(=O)[O-]
REMARK SMILES IDX 7 1 8 2 9 3 10 4 11 5 12 6 13 7 14 8 6 9 5 10 4 11 3 12 2 13
REMARK SMILES IDX 1 14
REMARK H PARENT
REMARK Flexibility Score: inf
ROOT
ATOM      1  C   UNL     1      -5.229  36.215  19.453  1.00  0.00     0.000 C 
ENDROOT
BRANCH   1   2
ATOM      2  C   UNL     1      -5.564  36.519  20.927  1.00  0.00     0.000 C 
BRANCH   2   3
ATOM      3  C   UNL     1      -6.107  35.324  21.731  1.00  0.00     0.000 C 
BRANCH   3   4
ATOM      4  C   UNL     1      -5.352  35.101  23.052  1.00  0.00     0.006 C 
BRANCH   4   5
ATOM      5  C   UNL     1      -6.125  35.648  24.260  1.00  0.00     0.053 C 
BRANCH   5   6
ATOM      6  C   UNL     1      -5.615  36.992  24.682  1.00  0.00     0.041 C 
ATOM      7  O   UNL     1      -5.820  38.003  23.960  1.00  0.00    -0.550 OA
ATOM      8  O   UNL     1      -4.881  37.121  25.855  1.00  0.00    -0.550 OA
ENDBRANCH   5   6
ENDBRANCH   4   5
ENDBRANCH   3   4
ENDBRANCH   2   3
ENDBRANCH   1   2
BRANCH   1   9
ATOM      9  C   UNL     1      -4.769  34.770  19.173  1.00  0.00     0.000 C 
BRANCH   9  10
ATOM     10  C   UNL     1      -4.529  34.444  17.686  1.00  0.00    -0.000 C 
BRANCH  10  11
ATOM     11  C   UNL     1      -4.101  35.641  16.814  1.00  0.00    -0.000 C 
BRANCH  11  12
ATOM     12  C   UNL     1      -2.863  35.396  15.934  1.00  0.00    -0.000 C 
BRANCH  12  13
ATOM     13  C   UNL     1      -2.978  36.051  14.550  1.00  0.00    -0.003 C 
ATOM     14  C   UNL     1      -3.923  37.249  14.585  1.00  0.00     0.004 C 
ENDBRANCH  12  13
ENDBRANCH  11  12
ENDBRANCH  10  11
ENDBRANCH   9  10
ENDBRANCH   1   9
TORSDOF 10
ENDMDL
MODEL 4
REMARK VINA RESULT:    -1.247      2.432      5.054
REMARK INTER + INTRA:          -2.793
REMARK INTER:                  -1.958
REMARK INTRA:                  -0.835
REMARK UNBOUND:                -0.817
REMARK SMILES CCCCCCCCCCCC(=O)[O-]
REMARK SMILES IDX 7 1 8 2 9 3 10 4 11 5 12 6 13 7 14 8 6 9 5 10 4 11 3 12 2 13
REMARK SMILES IDX 1 14
REMARK H PARENT
REMARK Flexibility Score: inf
ROOT
ATOM      1  C   UNL     1      -5.378  35.235  24.756  1.00  0.00     0.000 C 
ENDROOT
BRANCH   1   2
ATOM      2  C   UNL     1      -6.111  36.535  25.144  1.00  0.00     0.000 C 
BRANCH   2   3
ATOM      3  C   UNL     1      -5.201  37.761  25.343  1.00  0.00     0.000 C 
BRANCH   3   4
ATOM      4  C   UNL     1      -5.571  38.933  24.418  1.00  0.00     0.006 C 
BRANCH   4   5
ATOM      5  C   UNL     1      -6.125  38.454  23.069  1.00  0.00     0.053 C 
BRANCH   5   6
ATOM      6  C   UNL     1      -5.600  39.275  21.931  1.00  0.00     0.041 C 
ATOM      7  O   UNL     1      -5.247  40.469  22.121  1.00  0.00    -0.550 OA
ATOM      8  O   UNL     1      -5.534  38.733  20.654  1.00  0.00    -0.550 OA
ENDBRANCH   5   6
ENDBRANCH   4   5
ENDBRANCH   3   4
ENDBRANCH   2   3
ENDBRANCH   1   2
BRANCH   1   9
ATOM      9  C   UNL     1      -6.114  34.352  23.729  1.00  0.00     0.000 C 
BRANCH   9  10
ATOM     10  C   UNL     1      -6.120  34.902  22.289  1.00  0.00    -0.000 C 
BRANCH  10  11
ATOM     11  C   UNL     1      -4.730  35.225  21.706  1.00  0.00    -0.000 C 
BRANCH  11  12
ATOM     12  C   UNL     1      -4.711  35.534  20.199  1.00  0.00    -0.000 C 
BRANCH  12  13
ATOM     13  C   UNL     1      -5.579  34.566  19.382  1.00  0.00    -0.003 C 
ATOM     14  C   UNL     1      -4.972  34.312  18.005  1.00  0.00     0.004 C 
ENDBRANCH  12  13
ENDBRANCH  11  12
ENDBRANCH  10  11
ENDBRANCH   9  10
ENDBRANCH   1   9
TORSDOF 10
ENDMDL
MODEL 5
REMARK VINA RESULT:    -1.010      2.086      4.409
REMARK INTER + INTRA:          -2.417
REMARK INTER:                  -2.074
REMARK INTRA:                  -0.344
REMARK UNBOUND:                -0.817
REMARK SMILES CCCCCCCCCCCC(=O)[O-]
REMARK SMILES IDX 7 1 8 2 9 3 10 4 11 5 12 6 13 7 14 8 6 9 5 10 4 11 3 12 2 13
REMARK SMILES IDX 1 14
REMARK H PARENT
REMARK Flexibility Score: inf
ROOT
ATOM      1  C   UNL     1      -5.088  39.614  22.899  1.00  0.00     0.000 C 
ENDROOT
BRANCH   1   2
ATOM      2  C   UNL     1      -5.643  38.550  23.867  1.00  0.00     0.000 C 
BRANCH   2   3
ATOM      3  C   UNL     1      -4.641  38.043  24.920  1.00  0.00     0.000 C 
BRANCH   3   4
ATOM      4  C   UNL     1      -5.037  36.680  25.513  1.00  0.00     0.006 C 
BRANCH   4   5
ATOM      5  C   UNL     1      -6.125  35.982  24.684  1.00  0.00     0.053 C 
BRANCH   5   6
ATOM      6  C   UNL     1      -5.546  34.946  23.771  1.00  0.00     0.041 C 
ATOM      7  O   UNL     1      -4.633  35.254  22.960  1.00  0.00    -0.550 OA
ATOM      8  O   UNL     1      -6.041  33.648  23.789  1.00  0.00    -0.550 OA
ENDBRANCH   5   6
ENDBRANCH   4   5
ENDBRANCH   3   4
ENDBRANCH   2   3
ENDBRANCH   1   2
BRANCH   1   9
ATOM      9  C   UNL     1      -6.018  39.976  21.724  1.00  0.00     0.000 C 
BRANCH   9  10
ATOM     10  C   UNL     1      -5.901  39.050  20.497  1.00  0.00    -0.000 C 
BRANCH  10  11
ATOM     11  C   UNL     1      -5.185  37.709  20.756  1.00  0.00    -0.000 C 
BRANCH  11  12
ATOM     12  C   UNL     1      -5.713  36.520  19.934  1.00  0.00    -0.000 C 
BRANCH  12  13
ATOM     13  C   UNL     1      -4.613  35.515  19.567  1.00  0.00    -0.003 C 
ATOM     14  C   UNL     1      -5.083  34.560  18.473  1.00  0.00     0.004 C 
ENDBRANCH  12  13
ENDBRANCH  11  12
ENDBRANCH  10  11
ENDBRANCH   9  10
ENDBRANCH   1   9
TORSDOF 10
ENDMDL
MODEL 6
REMARK VINA RESULT:    -0.928      3.482      5.891
REMARK INTER + INTRA:          -2.287
REMARK INTER:                  -1.323
REMARK INTRA:                  -0.964
REMARK UNBOUND:                -0.817
REMARK SMILES CCCCCCCCCCCC(=O)[O-]
REMARK SMILES IDX 7 1 8 2 9 3 10 4 11 5 12 6 13 7 14 8 6 9 5 10 4 11 3 12 2 13
REMARK SMILES IDX 1 14
REMARK H PARENT
REMARK Flexibility Score: inf
ROOT
ATOM      1  C   UNL     1      -4.519  34.839  21.600  1.00  0.00     0.000 C 
ENDROOT
BRANCH   1   2
ATOM      2  C   UNL     1      -5.731  35.204  22.481  1.00  0.00     0.000 C 
BRANCH   2   3
ATOM      3  C   UNL     1      -5.850  34.399  23.788  1.00  0.00     0.000 C 
BRANCH   3   4
ATOM      4  C   UNL     1      -6.125  35.288  25.013  1.00  0.00     0.006 C 
BRANCH   4   5
ATOM      5  C   UNL     1      -5.734  36.751  24.766  1.00  0.00     0.053 C 
BRANCH   5   6
ATOM      6  C   UNL     1      -4.807  37.264  25.825  1.00  0.00     0.041 C 
ATOM      7  O   UNL     1      -3.872  36.537  26.255  1.00  0.00    -0.550 OA
ATOM      8  O   UNL     1      -4.997  38.530  26.364  1.00  0.00    -0.550 OA
ENDBRANCH   5   6
ENDBRANCH   4   5
ENDBRANCH   3   4
ENDBRANCH   2   3
ENDBRANCH   1   2
BRANCH   1   9
ATOM      9  C   UNL     1      -4.582  35.368  20.153  1.00  0.00     0.000 C 
BRANCH   9  10
ATOM     10  C   UNL     1      -5.719  36.372  19.879  1.00  0.00    -0.000 C 
BRANCH  10  11
ATOM     11  C   UNL     1      -5.259  37.800  19.524  1.00  0.00    -0.000 C 
BRANCH  11  12
ATOM     12  C   UNL     1      -5.758  38.900  20.478  1.00  0.00    -0.000 C 
BRANCH  12  13
ATOM     13  C   UNL     1      -5.145  38.793  21.882  1.00  0.00    -0.003 C 
ATOM     14  C   UNL     1      -5.736  39.841  22.820  1.00  0.00     0.004 C 
ENDBRANCH  12  13
ENDBRANCH  11  12
ENDBRANCH  10  11
ENDBRANCH   9  10
ENDBRANCH   1   9
TORSDOF 10
ENDMDL
MODEL 7
REMARK VINA RESULT:    -0.758      3.068      5.377
REMARK INTER + INTRA:          -2.018
REMARK INTER:                  -1.432
REMARK INTRA:                  -0.586
REMARK UNBOUND:                -0.817
REMARK SMILES CCCCCCCCCCCC(=O)[O-]
REMARK SMILES IDX 7 1 8 2 9 3 10 4 11 5 12 6 13 7 14 8 6 9 5 10 4 11 3 12 2 13
REMARK SMILES IDX 1 14
REMARK H PARENT
REMARK Flexibility Score: inf
ROOT
ATOM      1  C   UNL     1      -4.988  38.518  20.337  1.00  0.00     0.000 C 
ENDROOT
BRANCH   1   2
ATOM      2  C   UNL     1      -5.785  39.310  21.393  1.00  0.00     0.000 C 
BRANCH   2   3
ATOM      3  C   UNL     1      -5.011  39.635  22.683  1.00  0.00     0.000 C 
BRANCH   3   4
ATOM      4  C   UNL     1      -5.714  39.113  23.948  1.00  0.00     0.006 C 
BRANCH   4   5
ATOM      5  C   UNL     1      -6.095  37.631  23.829  1.00  0.00     0.053 C 
BRANCH   5   6
ATOM      6  C   UNL     1      -5.651  36.846  25.025  1.00  0.00     0.041 C 
ATOM      7  O   UNL     1      -6.045  35.662  25.189  1.00  0.00    -0.550 OA
ATOM      8  O   UNL     1      -4.830  37.436  25.978  1.00  0.00    -0.550 OA
ENDBRANCH   5   6
ENDBRANCH   4   5
ENDBRANCH   3   4
ENDBRANCH   2   3
ENDBRANCH   1   2
BRANCH   1   9
ATOM      9  C   UNL     1      -5.654  37.214  19.857  1.00  0.00     0.000 C 
BRANCH   9  10
ATOM     10  C   UNL     1      -5.832  36.138  20.947  1.00  0.00    -0.000 C 
BRANCH  10  11
ATOM     11  C   UNL     1      -5.991  34.697  20.424  1.00  0.00    -0.000 C 
BRANCH  11  12
ATOM     12  C   UNL     1      -6.122  34.571  18.896  1.00  0.00    -0.000 C 
BRANCH  12  13
ATOM     13  C   UNL     1      -4.865  33.984  18.237  1.00  0.00    -0.003 C 
ATOM     14  C   UNL     1      -4.137  35.038  17.408  1.00  0.00     0.004 C 
ENDBRANCH  12  13
ENDBRANCH  11  12
ENDBRANCH  10  11
ENDBRANCH   9  10
ENDBRANCH   1   9
TORSDOF 10
ENDMDL
MODEL 8
REMARK VINA RESULT:    -0.707      3.678      7.108
REMARK INTER + INTRA:          -1.937
REMARK INTER:                  -1.546
REMARK INTRA:                  -0.391
REMARK UNBOUND:                -0.817
REMARK SMILES CCCCCCCCCCCC(=O)[O-]
REMARK SMILES IDX 7 1 8 2 9 3 10 4 11 5 12 6 13 7 14 8 6 9 5 10 4 11 3 12 2 13
REMARK SMILES IDX 1 14
REMARK H PARENT
REMARK Flexibility Score: inf
ROOT
ATOM      1  C   UNL     1      -5.646  35.071  19.129  1.00  0.00     0.000 C 
ENDROOT
BRANCH   1   2
ATOM      2  C   UNL     1      -4.678  35.570  20.221  1.00  0.00     0.000 C 
BRANCH   2   3
ATOM      3  C   UNL     1      -5.220  35.485  21.659  1.00  0.00     0.000 C 
BRANCH   3   4
ATOM      4  C   UNL     1      -6.013  36.738  22.072  1.00  0.00     0.006 C 
BRANCH   4   5
ATOM      5  C   UNL     1      -5.624  37.969  21.242  1.00  0.00     0.053 C 
BRANCH   5   6
ATOM      6  C   UNL     1      -5.828  39.240  22.007  1.00  0.00     0.041 C 
ATOM      7  O   UNL     1      -5.763  39.240  23.265  1.00  0.00    -0.550 OA
ATOM      8  O   UNL     1      -6.125  40.418  21.334  1.00  0.00    -0.550 OA
ENDBRANCH   5   6
ENDBRANCH   4   5
ENDBRANCH   3   4
ENDBRANCH   2   3
ENDBRANCH   1   2
BRANCH   1   9
ATOM      9  C   UNL     1      -4.989  34.258  17.996  1.00  0.00     0.000 C 
BRANCH   9  10
ATOM     10  C   UNL     1      -3.732  34.904  17.380  1.00  0.00    -0.000 C 
BRANCH  10  11
ATOM     11  C   UNL     1      -3.992  35.803  16.155  1.00  0.00    -0.000 C 
BRANCH  11  12
ATOM     12  C   UNL     1      -2.882  35.789  15.090  1.00  0.00    -0.000 C 
BRANCH  12  13
ATOM     13  C   UNL     1      -3.189  36.707  13.898  1.00  0.00    -0.003 C 
ATOM     14  C   UNL     1      -4.234  37.756  14.267  1.00  0.00     0.004 C 
ENDBRANCH  12  13
ENDBRANCH  11  12
ENDBRANCH  10  11
ENDBRANCH   9  10
ENDBRANCH   1   9
TORSDOF 10
ENDMDL
