MODEL 1
REMARK VINA RESULT:    -4.294      0.000      0.000
REMARK INTER + INTRA:          -8.662
REMARK INTER:                  -7.432
REMARK INTRA:                  -1.231
REMARK UNBOUND:                -1.231
REMARK SMILES CCCCCCCCCCCCCCO
REMARK SMILES IDX 8 1 7 2 6 3 5 4 4 5 3 6 2 7 1 8 9 9 10 10 11 11 12 12 13 13
REMARK SMILES IDX 14 14 15 15
REMARK H PARENT 15 16
REMARK Flexibility Score: inf
ROOT
ATOM      1  C   UNL     1      45.397   9.813  20.085  1.00  0.00     0.000 C 
ENDROOT
BRANCH   1   2
ATOM      2  C   UNL     1      44.356   8.846  20.677  1.00  0.00    -0.000 C 
BRANCH   2   3
ATOM      3  C   UNL     1      44.129   8.977  22.197  1.00  0.00    -0.000 C 
BRANCH   3   4
ATOM      4  C   UNL     1      45.265   9.667  22.976  1.00  0.00    -0.000 C 
BRANCH   4   5
ATOM      5  C   UNL     1      46.256   8.667  23.596  1.00  0.00    -0.000 C 
BRANCH   5   6
ATOM      6  C   UNL     1      47.632   8.683  22.907  1.00  0.00    -0.000 C 
BRANCH   6   7
ATOM      7  C   UNL     1      48.153   7.305  22.458  1.00  0.00    -0.003 C 
ATOM      8  C   UNL     1      47.343   6.704  21.311  1.00  0.00     0.004 C 
ENDBRANCH   6   7
ENDBRANCH   5   6
ENDBRANCH   4   5
ENDBRANCH   3   4
ENDBRANCH   2   3
ENDBRANCH   1   2
BRANCH   1   9
ATOM      9  C   UNL     1      45.919   9.361  18.712  1.00  0.00     0.000 C 
BRANCH   9  10
ATOM     10  C   UNL     1      45.559   7.895  18.446  1.00  0.00     0.000 C 
BRANCH  10  11
ATOM     11  C   UNL     1      44.642   7.767  17.224  1.00  0.00     0.000 C 
BRANCH  11  12
ATOM     12  C   UNL     1      45.247   6.823  16.177  1.00  0.00     0.002 C 
BRANCH  12  13
ATOM     13  C   UNL     1      46.778   6.872  16.212  1.00  0.00     0.028 C 
BRANCH  13  14
ATOM     14  C   UNL     1      47.385   5.569  15.686  1.00  0.00     0.156 C 
BRANCH  14  15
ATOM     15  O   UNL     1      48.267   5.029  16.633  1.00  0.00    -0.396 OA
ATOM     16  H   UNL     1      48.970   5.712  16.788  1.00  0.00     0.210 HD
ENDBRANCH  14  15
ENDBRANCH  13  14
ENDBRANCH  12  13
ENDBRANCH  11  12
ENDBRANCH  10  11
ENDBRANCH   9  10
ENDBRANCH   1   9
TORSDOF 13
ENDMDL
MODEL 2
REMARK VINA RESULT:    -4.245      1.672      2.000
REMARK INTER + INTRA:          -8.577
REMARK INTER:                  -7.342
REMARK INTRA:                  -1.235
REMARK UNBOUND:                -1.231
REMARK SMILES CCCCCCCCCCCCCCO
REMARK SMILES IDX 8 1 7 2 6 3 5 4 4 5 3 6 2 7 1 8 9 9 10 10 11 11 12 12 13 13
REMARK SMILES IDX 14 14 15 15
REMARK H PARENT 15 16
REMARK Flexibility Score: inf
ROOT
ATOM      1  C   UNL     1      44.567   8.571  19.184  1.00  0.00     0.000 C 
ENDROOT
BRANCH   1   2
ATOM      2  C   UNL     1      44.383   9.320  20.517  1.00  0.00    -0.000 C 
BRANCH   2   3
ATOM      3  C   UNL     1      44.291   8.420  21.766  1.00  0.00    -0.000 C 
BRANCH   3   4
ATOM      4  C   UNL     1      44.561   9.126  23.108  1.00  0.00    -0.000 C 
BRANCH   4   5
ATOM      5  C   UNL     1      45.892   8.697  23.751  1.00  0.00    -0.000 C 
BRANCH   5   6
ATOM      6  C   UNL     1      47.120   9.122  22.927  1.00  0.00    -0.000 C 
BRANCH   6   7
ATOM      7  C   UNL     1      48.224   8.057  22.806  1.00  0.00    -0.003 C 
ATOM      8  C   UNL     1      47.816   6.866  21.940  1.00  0.00     0.004 C 
ENDBRANCH   6   7
ENDBRANCH   5   6
ENDBRANCH   4   5
ENDBRANCH   3   4
ENDBRANCH   2   3
ENDBRANCH   1   2
BRANCH   1   9
ATOM      9  C   UNL     1      46.042   8.444  18.770  1.00  0.00     0.000 C 
BRANCH   9  10
ATOM     10  C   UNL     1      46.436   6.974  18.593  1.00  0.00     0.000 C 
BRANCH  10  11
ATOM     11  C   UNL     1      47.104   6.743  17.232  1.00  0.00     0.000 C 
BRANCH  11  12
ATOM     12  C   UNL     1      46.636   7.784  16.206  1.00  0.00     0.002 C 
BRANCH  12  13
ATOM     13  C   UNL     1      45.793   7.131  15.105  1.00  0.00     0.028 C 
BRANCH  13  14
ATOM     14  C   UNL     1      44.337   7.600  15.174  1.00  0.00     0.156 C 
BRANCH  14  15
ATOM     15  O   UNL     1      43.678   6.978  16.245  1.00  0.00    -0.396 OA
ATOM     16  H   UNL     1      43.370   7.704  16.849  1.00  0.00     0.210 HD
ENDBRANCH  14  15
ENDBRANCH  13  14
ENDBRANCH  12  13
ENDBRANCH  11  12
ENDBRANCH  10  11
ENDBRANCH   9  10
ENDBRANCH   1   9
TORSDOF 13
ENDMDL
MODEL 3
REMARK VINA RESULT:    -4.228      1.954      6.167
REMARK INTER + INTRA:          -8.548
REMARK INTER:                  -7.212
REMARK INTRA:                  -1.336
REMARK UNBOUND:                -1.231
REMARK SMILES CCCCCCCCCCCCCCO
REMARK SMILES IDX 8 1 7 2 6 3 5 4 4 5 3 6 2 7 1 8 9 9 10 10 11 11 12 12 13 13
REMARK SMILES IDX 14 14 15 15
REMARK H PARENT 15 16
REMARK Flexibility Score: inf
ROOT
ATOM      1  C   UNL     1      44.478   8.136  17.736  1.00  0.00     0.000 C 
ENDROOT
BRANCH   1   2
ATOM      2  C   UNL     1      45.960   8.082  17.323  1.00  0.00    -0.000 C 
BRANCH   2   3
ATOM      3  C   UNL     1      46.694   6.775  17.685  1.00  0.00    -0.000 C 
BRANCH   3   4
ATOM      4  C   UNL     1      47.149   5.921  16.487  1.00  0.00    -0.000 C 
BRANCH   4   5
ATOM      5  C   UNL     1      46.718   6.511  15.134  1.00  0.00    -0.000 C 
BRANCH   5   6
ATOM      6  C   UNL     1      45.714   5.618  14.383  1.00  0.00    -0.000 C 
BRANCH   6   7
ATOM      7  C   UNL     1      44.253   5.744  14.850  1.00  0.00    -0.003 C 
ATOM      8  C   UNL     1      43.486   6.850  14.128  1.00  0.00     0.004 C 
ENDBRANCH   6   7
ENDBRANCH   5   6
ENDBRANCH   4   5
ENDBRANCH   3   4
ENDBRANCH   2   3
ENDBRANCH   1   2
BRANCH   1   9
ATOM      9  C   UNL     1      44.095   9.464  18.408  1.00  0.00     0.000 C 
BRANCH   9  10
ATOM     10  C   UNL     1      44.995   9.747  19.616  1.00  0.00     0.000 C 
BRANCH  10  11
ATOM     11  C   UNL     1      44.294   9.367  20.925  1.00  0.00     0.000 C 
BRANCH  11  12
ATOM     12  C   UNL     1      45.120   8.345  21.716  1.00  0.00     0.002 C 
BRANCH  12  13
ATOM     13  C   UNL     1      46.463   8.073  21.028  1.00  0.00     0.028 C 
BRANCH  13  14
ATOM     14  C   UNL     1      47.419   7.322  21.960  1.00  0.00     0.156 C 
BRANCH  14  15
ATOM     15  O   UNL     1      47.488   5.970  21.594  1.00  0.00    -0.396 OA
ATOM     16  H   UNL     1      47.132   5.450  22.362  1.00  0.00     0.210 HD
ENDBRANCH  14  15
ENDBRANCH  13  14
ENDBRANCH  12  13
ENDBRANCH  11  12
ENDBRANCH  10  11
ENDBRANCH   9  10
ENDBRANCH   1   9
TORSDOF 13
ENDMDL
MODEL 4
REMARK VINA RESULT:    -4.227      1.195      2.165
REMARK INTER + INTRA:          -8.547
REMARK INTER:                  -7.614
REMARK INTRA:                  -0.932
REMARK UNBOUND:                -1.231
REMARK SMILES CCCCCCCCCCCCCCO
REMARK SMILES IDX 8 1 7 2 6 3 5 4 4 5 3 6 2 7 1 8 9 9 10 10 11 11 12 12 13 13
REMARK SMILES IDX 14 14 15 15
REMARK H PARENT 15 16
REMARK Flexibility Score: inf
ROOT
ATOM      1  C   UNL     1      46.321   7.094  17.964  1.00  0.00     0.000 C 
ENDROOT
BRANCH   1   2
ATOM      2  C   UNL     1      46.445   7.531  19.435  1.00  0.00    -0.000 C 
BRANCH   2   3
ATOM      3  C   UNL     1      45.555   8.723  19.841  1.00  0.00    -0.000 C 
BRANCH   3   4
ATOM      4  C   UNL     1      44.966   8.652  21.263  1.00  0.00    -0.000 C 
BRANCH   4   5
ATOM      5  C   UNL     1      45.833   9.377  22.306  1.00  0.00    -0.000 C 
BRANCH   5   6
ATOM      6  C   UNL     1      46.607   8.409  23.219  1.00  0.00    -0.000 C 
BRANCH   6   7
ATOM      7  C   UNL     1      48.012   8.025  22.721  1.00  0.00    -0.003 C 
ATOM      8  C   UNL     1      48.139   6.544  22.369  1.00  0.00     0.004 C 
ENDBRANCH   6   7
ENDBRANCH   5   6
ENDBRANCH   4   5
ENDBRANCH   3   4
ENDBRANCH   2   3
ENDBRANCH   1   2
BRANCH   1   9
ATOM      9  C   UNL     1      45.131   7.749  17.246  1.00  0.00     0.000 C 
BRANCH   9  10
ATOM     10  C   UNL     1      45.208   7.514  15.733  1.00  0.00     0.000 C 
BRANCH  10  11
ATOM     11  C   UNL     1      44.490   6.216  15.341  1.00  0.00     0.000 C 
BRANCH  11  12
ATOM     12  C   UNL     1      45.223   5.505  14.197  1.00  0.00     0.002 C 
BRANCH  12  13
ATOM     13  C   UNL     1      46.692   5.938  14.131  1.00  0.00     0.028 C 
BRANCH  13  14
ATOM     14  C   UNL     1      47.613   4.854  14.697  1.00  0.00     0.156 C 
BRANCH  14  15
ATOM     15  O   UNL     1      48.368   5.367  15.761  1.00  0.00    -0.396 OA
ATOM     16  H   UNL     1      48.188   6.343  15.792  1.00  0.00     0.210 HD
ENDBRANCH  14  15
ENDBRANCH  13  14
ENDBRANCH  12  13
ENDBRANCH  11  12
ENDBRANCH  10  11
ENDBRANCH   9  10
ENDBRANCH   1   9
TORSDOF 13
ENDMDL
MODEL 5
REMARK VINA RESULT:    -4.212      1.180      2.628
REMARK INTER + INTRA:          -8.521
REMARK INTER:                  -7.664
REMARK INTRA:                  -0.858
REMARK UNBOUND:                -1.231
REMARK SMILES CCCCCCCCCCCCCCO
REMARK SMILES IDX 8 1 7 2 6 3 5 4 4 5 3 6 2 7 1 8 9 9 10 10 11 11 12 12 13 13
REMARK SMILES IDX 14 14 15 15
REMARK H PARENT 15 16
REMARK Flexibility Score: inf
ROOT
ATOM      1  C   UNL     1      46.743   6.842  18.723  1.00  0.00     0.000 C 
ENDROOT
BRANCH   1   2
ATOM      2  C   UNL     1      46.643   7.545  20.089  1.00  0.00    -0.000 C 
BRANCH   2   3
ATOM      3  C   UNL     1      47.139   6.716  21.291  1.00  0.00    -0.000 C 
BRANCH   3   4
ATOM      4  C   UNL     1      47.889   7.511  22.376  1.00  0.00    -0.000 C 
BRANCH   4   5
ATOM      5  C   UNL     1      47.222   8.859  22.698  1.00  0.00    -0.000 C 
BRANCH   5   6
ATOM      6  C   UNL     1      46.140   8.747  23.786  1.00  0.00    -0.000 C 
BRANCH   6   7
ATOM      7  C   UNL     1      44.774   9.351  23.412  1.00  0.00    -0.003 C 
ATOM      8  C   UNL     1      44.019   8.527  22.371  1.00  0.00     0.004 C 
ENDBRANCH   6   7
ENDBRANCH   5   6
ENDBRANCH   4   5
ENDBRANCH   3   4
ENDBRANCH   2   3
ENDBRANCH   1   2
BRANCH   1   9
ATOM      9  C   UNL     1      46.352   7.756  17.551  1.00  0.00     0.000 C 
BRANCH   9  10
ATOM     10  C   UNL     1      44.919   7.469  17.088  1.00  0.00     0.000 C 
BRANCH  10  11
ATOM     11  C   UNL     1      44.908   6.865  15.678  1.00  0.00     0.000 C 
BRANCH  11  12
ATOM     12  C   UNL     1      46.331   6.745  15.119  1.00  0.00     0.002 C 
BRANCH  12  13
ATOM     13  C   UNL     1      46.501   5.449  14.320  1.00  0.00     0.028 C 
BRANCH  13  14
ATOM     14  C   UNL     1      47.714   4.653  14.810  1.00  0.00     0.156 C 
BRANCH  14  15
ATOM     15  O   UNL     1      48.323   5.313  15.886  1.00  0.00    -0.396 OA
ATOM     16  H   UNL     1      47.605   5.505  16.545  1.00  0.00     0.210 HD
ENDBRANCH  14  15
ENDBRANCH  13  14
ENDBRANCH  12  13
ENDBRANCH  11  12
ENDBRANCH  10  11
ENDBRANCH   9  10
ENDBRANCH   1   9
TORSDOF 13
ENDMDL
MODEL 6
REMARK VINA RESULT:    -4.210      1.850      3.442
REMARK INTER + INTRA:          -8.518
REMARK INTER:                  -7.919
REMARK INTRA:                  -0.598
REMARK UNBOUND:                -1.231
REMARK SMILES CCCCCCCCCCCCCCO
REMARK SMILES IDX 8 1 7 2 6 3 5 4 4 5 3 6 2 7 1 8 9 9 10 10 11 11 12 12 13 13
REMARK SMILES IDX 14 14 15 15
REMARK H PARENT 15 16
REMARK Flexibility Score: inf
ROOT
ATOM      1  C   UNL     1      47.185   7.349  21.788  1.00  0.00     0.000 C 
ENDROOT
BRANCH   1   2
ATOM      2  C   UNL     1      47.568   8.405  22.841  1.00  0.00    -0.000 C 
BRANCH   2   3
ATOM      3  C   UNL     1      46.707   9.685  22.830  1.00  0.00    -0.000 C 
BRANCH   3   4
ATOM      4  C   UNL     1      46.006  10.020  24.159  1.00  0.00    -0.000 C 
BRANCH   4   5
ATOM      5  C   UNL     1      45.137   8.864  24.685  1.00  0.00    -0.000 C 
BRANCH   5   6
ATOM      6  C   UNL     1      43.954   9.346  25.542  1.00  0.00    -0.000 C 
BRANCH   6   7
ATOM      7  C   UNL     1      42.852  10.094  24.770  1.00  0.00    -0.003 C 
ATOM      8  C   UNL     1      41.442   9.704  25.210  1.00  0.00     0.004 C 
ENDBRANCH   6   7
ENDBRANCH   5   6
ENDBRANCH   4   5
ENDBRANCH   3   4
ENDBRANCH   2   3
ENDBRANCH   1   2
BRANCH   1   9
ATOM      9  C   UNL     1      46.280   7.912  20.682  1.00  0.00     0.000 C 
BRANCH   9  10
ATOM     10  C   UNL     1      46.644   7.313  19.319  1.00  0.00     0.000 C 
BRANCH  10  11
ATOM     11  C   UNL     1      46.227   8.249  18.177  1.00  0.00     0.000 C 
BRANCH  11  12
ATOM     12  C   UNL     1      46.375   7.557  16.816  1.00  0.00     0.002 C 
BRANCH  12  13
ATOM     13  C   UNL     1      47.073   6.200  16.962  1.00  0.00     0.028 C 
BRANCH  13  14
ATOM     14  C   UNL     1      47.256   5.525  15.600  1.00  0.00     0.156 C 
BRANCH  14  15
ATOM     15  O   UNL     1      48.608   5.215  15.391  1.00  0.00    -0.396 OA
ATOM     16  H   UNL     1      49.094   5.505  16.207  1.00  0.00     0.210 HD
ENDBRANCH  14  15
ENDBRANCH  13  14
ENDBRANCH  12  13
ENDBRANCH  11  12
ENDBRANCH  10  11
ENDBRANCH   9  10
ENDBRANCH   1   9
TORSDOF 13
ENDMDL
MODEL 7
REMARK VINA RESULT:    -4.168      3.537      6.957
REMARK INTER + INTRA:          -8.444
REMARK INTER:                  -7.314
REMARK INTRA:                  -1.130
REMARK UNBOUND:                -1.231
REMARK SMILES CCCCCCCCCCCCCCO
REMARK SMILES IDX 8 1 7 2 6 3 5 4 4 5 3 6 2 7 1 8 9 9 10 10 11 11 12 12 13 13
REMARK SMILES IDX 14 14 15 15
REMARK H PARENT 15 16
REMARK Flexibility Score: inf
ROOT
ATOM      1  C   UNL     1      46.119   8.188  21.359  1.00  0.00     0.000 C 
ENDROOT
BRANCH   1   2
ATOM      2  C   UNL     1      44.647   8.622  21.239  1.00  0.00    -0.000 C 
BRANCH   2   3
ATOM      3  C   UNL     1      44.267   9.291  19.902  1.00  0.00    -0.000 C 
BRANCH   3   4
ATOM      4  C   UNL     1      45.437   9.929  19.129  1.00  0.00    -0.000 C 
BRANCH   4   5
ATOM      5  C   UNL     1      45.427   9.576  17.632  1.00  0.00    -0.000 C 
BRANCH   5   6
ATOM      6  C   UNL     1      44.815   8.193  17.347  1.00  0.00    -0.000 C 
BRANCH   6   7
ATOM      7  C   UNL     1      45.812   7.125  16.861  1.00  0.00    -0.003 C 
ATOM      8  C   UNL     1      46.682   6.563  17.983  1.00  0.00     0.004 C 
ENDBRANCH   6   7
ENDBRANCH   5   6
ENDBRANCH   4   5
ENDBRANCH   3   4
ENDBRANCH   2   3
ENDBRANCH   1   2
BRANCH   1   9
ATOM      9  C   UNL     1      46.637   8.231  22.805  1.00  0.00     0.000 C 
BRANCH   9  10
ATOM     10  C   UNL     1      45.849   9.248  23.639  1.00  0.00     0.000 C 
BRANCH  10  11
ATOM     11  C   UNL     1      45.200   8.576  24.856  1.00  0.00     0.000 C 
BRANCH  11  12
ATOM     12  C   UNL     1      44.111   9.470  25.462  1.00  0.00     0.002 C 
BRANCH  12  13
ATOM     13  C   UNL     1      42.979   9.716  24.458  1.00  0.00     0.028 C 
BRANCH  13  14
ATOM     14  C   UNL     1      41.671  10.060  25.174  1.00  0.00     0.156 C 
BRANCH  14  15
ATOM     15  O   UNL     1      40.650   9.191  24.761  1.00  0.00    -0.396 OA
ATOM     16  H   UNL     1      41.051   8.283  24.718  1.00  0.00     0.210 HD
ENDBRANCH  14  15
ENDBRANCH  13  14
ENDBRANCH  12  13
ENDBRANCH  11  12
ENDBRANCH  10  11
ENDBRANCH   9  10
ENDBRANCH   1   9
TORSDOF 13
ENDMDL
MODEL 8
REMARK VINA RESULT:    -4.134      1.948      2.993
REMARK INTER + INTRA:          -8.386
REMARK INTER:                  -7.413
REMARK INTRA:                  -0.972
REMARK UNBOUND:                -1.231
REMARK SMILES CCCCCCCCCCCCCCO
REMARK SMILES IDX 8 1 7 2 6 3 5 4 4 5 3 6 2 7 1 8 9 9 10 10 11 11 12 12 13 13
REMARK SMILES IDX 14 14 15 15
REMARK H PARENT 15 16
REMARK Flexibility Score: inf
ROOT
ATOM      1  C   UNL     1      46.659   7.445  18.530  1.00  0.00     0.000 C 
ENDROOT
BRANCH   1   2
ATOM      2  C   UNL     1      45.236   8.028  18.607  1.00  0.00    -0.000 C 
BRANCH   2   3
ATOM      3  C   UNL     1      45.073   9.235  19.554  1.00  0.00    -0.000 C 
BRANCH   3   4
ATOM      4  C   UNL     1      44.247   8.969  20.826  1.00  0.00    -0.000 C 
BRANCH   4   5
ATOM      5  C   UNL     1      45.080   8.349  21.961  1.00  0.00    -0.000 C 
BRANCH   5   6
ATOM      6  C   UNL     1      46.411   9.085  22.198  1.00  0.00    -0.000 C 
BRANCH   6   7
ATOM      7  C   UNL     1      47.567   8.198  22.695  1.00  0.00    -0.003 C 
ATOM      8  C   UNL     1      47.708   6.899  21.904  1.00  0.00     0.004 C 
ENDBRANCH   6   7
ENDBRANCH   5   6
ENDBRANCH   4   5
ENDBRANCH   3   4
ENDBRANCH   2   3
ENDBRANCH   1   2
BRANCH   1   9
ATOM      9  C   UNL     1      46.780   6.304  17.508  1.00  0.00     0.000 C 
BRANCH   9  10
ATOM     10  C   UNL     1      46.658   6.837  16.076  1.00  0.00     0.000 C 
BRANCH  10  11
ATOM     11  C   UNL     1      46.824   5.706  15.052  1.00  0.00     0.000 C 
BRANCH  11  12
ATOM     12  C   UNL     1      45.505   5.429  14.321  1.00  0.00     0.002 C 
BRANCH  12  13
ATOM     13  C   UNL     1      44.837   6.734  13.876  1.00  0.00     0.028 C 
BRANCH  13  14
ATOM     14  C   UNL     1      43.346   6.738  14.224  1.00  0.00     0.156 C 
BRANCH  14  15
ATOM     15  O   UNL     1      43.103   5.899  15.321  1.00  0.00    -0.396 OA
ATOM     16  H   UNL     1      43.540   5.031  15.117  1.00  0.00     0.210 HD
ENDBRANCH  14  15
ENDBRANCH  13  14
ENDBRANCH  12  13
ENDBRANCH  11  12
ENDBRANCH  10  11
ENDBRANCH   9  10
ENDBRANCH   1   9
TORSDOF 13
ENDMDL
MODEL 9
REMARK VINA RESULT:    -4.082      3.327      7.446
REMARK INTER + INTRA:          -8.296
REMARK INTER:                  -7.728
REMARK INTRA:                  -0.568
REMARK UNBOUND:                -1.231
REMARK SMILES CCCCCCCCCCCCCCO
REMARK SMILES IDX 8 1 7 2 6 3 5 4 4 5 3 6 2 7 1 8 9 9 10 10 11 11 12 12 13 13
REMARK SMILES IDX 14 14 15 15
REMARK H PARENT 15 16
REMARK Flexibility Score: inf
ROOT
ATOM      1  C   UNL     1      46.389   7.766  20.902  1.00  0.00     0.000 C 
ENDROOT
BRANCH   1   2
ATOM      2  C   UNL     1      46.713   6.940  19.644  1.00  0.00    -0.000 C 
BRANCH   2   3
ATOM      3  C   UNL     1      46.338   7.610  18.306  1.00  0.00    -0.000 C 
BRANCH   3   4
ATOM      4  C   UNL     1      46.296   6.669  17.087  1.00  0.00    -0.000 C 
BRANCH   4   5
ATOM      5  C   UNL     1      46.681   7.374  15.775  1.00  0.00    -0.000 C 
BRANCH   5   6
ATOM      6  C   UNL     1      45.461   7.902  14.999  1.00  0.00    -0.000 C 
BRANCH   6   7
ATOM      7  C   UNL     1      44.138   7.168  15.284  1.00  0.00    -0.003 C 
ATOM      8  C   UNL     1      43.424   6.705  14.016  1.00  0.00     0.004 C 
ENDBRANCH   6   7
ENDBRANCH   5   6
ENDBRANCH   4   5
ENDBRANCH   3   4
ENDBRANCH   2   3
ENDBRANCH   1   2
BRANCH   1   9
ATOM      9  C   UNL     1      47.355   7.485  22.065  1.00  0.00     0.000 C 
BRANCH   9  10
ATOM     10  C   UNL     1      47.420   8.679  23.023  1.00  0.00     0.000 C 
BRANCH  10  11
ATOM     11  C   UNL     1      46.454   9.788  22.587  1.00  0.00     0.000 C 
BRANCH  11  12
ATOM     12  C   UNL     1      45.443  10.106  23.695  1.00  0.00     0.002 C 
BRANCH  12  13
ATOM     13  C   UNL     1      45.322   8.938  24.681  1.00  0.00     0.028 C 
BRANCH  13  14
ATOM     14  C   UNL     1      44.588   9.364  25.955  1.00  0.00     0.156 C 
BRANCH  14  15
ATOM     15  O   UNL     1      44.875   8.474  26.999  1.00  0.00    -0.396 OA
ATOM     16  H   UNL     1      44.849   7.561  26.609  1.00  0.00     0.210 HD
ENDBRANCH  14  15
ENDBRANCH  13  14
ENDBRANCH  12  13
ENDBRANCH  11  12
ENDBRANCH  10  11
ENDBRANCH   9  10
ENDBRANCH   1   9
TORSDOF 13
ENDMDL
