MODEL 1
REMARK VINA RESULT:    -3.468      0.000      0.000
REMARK INTER + INTRA:          -3.570
REMARK INTER:                  -3.570
REMARK INTRA:                   0.000
REMARK UNBOUND:                 0.000
REMARK SMILES Nc1ncnc2nc[nH]c12
REMARK SMILES IDX 8 1 7 2 6 3 5 4 4 5 3 6 2 7 10 8 9 9 1 11
REMARK H PARENT 9 10 1 12 1 13
REMARK Flexibility Score: inf
ROOT
ATOM      1  C   UNL     1      11.864  41.271  11.233  1.00  0.00     0.199 A 
ATOM      2  N   UNL     1      12.911  41.784  11.934  1.00  0.00    -0.217 NA
ATOM      3  C   UNL     1      12.577  41.491  13.202  1.00  0.00     0.182 A 
ATOM      4  N   UNL     1      13.290  41.787  14.315  1.00  0.00    -0.215 NA
ATOM      5  C   UNL     1      12.783  41.403  15.526  1.00  0.00     0.226 A 
ATOM      6  N   UNL     1      11.584  40.740  15.601  1.00  0.00    -0.217 NA
ATOM      7  C   UNL     1      10.864  40.442  14.479  1.00  0.00     0.152 A 
ATOM      8  C   UNL     1      11.393  40.838  13.254  1.00  0.00     0.127 A 
ATOM      9  N   UNL     1      10.920  40.686  12.010  1.00  0.00    -0.340 N 
ATOM     10  H   UNL     1      10.035  40.228  11.701  1.00  0.00     0.168 HD
ENDROOT
BRANCH   7  11
ATOM     11  N   UNL     1       9.619  39.750  14.582  1.00  0.00    -0.382 N 
ATOM     12  H   UNL     1       8.721  40.267  14.444  1.00  0.00     0.158 HD
ATOM     13  H   UNL     1       9.579  38.729  14.793  1.00  0.00     0.158 HD
ENDBRANCH   7  11
TORSDOF 1
ENDMDL
MODEL 2
REMARK VINA RESULT:    -3.413     17.484     18.245
REMARK INTER + INTRA:          -3.513
REMARK INTER:                  -3.513
REMARK INTRA:                   0.000
REMARK UNBOUND:                 0.000
REMARK SMILES Nc1ncnc2nc[nH]c12
REMARK SMILES IDX 8 1 7 2 6 3 5 4 4 5 3 6 2 7 10 8 9 9 1 11
REMARK H PARENT 9 10 1 12 1 13
REMARK Flexibility Score: inf
ROOT
ATOM      1  C   UNL     1       8.212  28.321   2.403  1.00  0.00     0.199 A 
ATOM      2  N   UNL     1       9.414  27.788   2.052  1.00  0.00    -0.217 NA
ATOM      3  C   UNL     1       9.453  26.665   2.789  1.00  0.00     0.182 A 
ATOM      4  N   UNL     1      10.453  25.751   2.817  1.00  0.00    -0.215 NA
ATOM      5  C   UNL     1      10.312  24.666   3.636  1.00  0.00     0.226 A 
ATOM      6  N   UNL     1       9.186  24.515   4.405  1.00  0.00    -0.217 NA
ATOM      7  C   UNL     1       8.177  25.436   4.379  1.00  0.00     0.152 A 
ATOM      8  C   UNL     1       8.336  26.536   3.540  1.00  0.00     0.127 A 
ATOM      9  N   UNL     1       7.529  27.580   3.311  1.00  0.00    -0.340 N 
ATOM     10  H   UNL     1       6.594  27.786   3.726  1.00  0.00     0.168 HD
ENDROOT
BRANCH   7  11
ATOM     11  N   UNL     1       7.014  25.259   5.189  1.00  0.00    -0.382 N 
ATOM     12  H   UNL     1       6.262  25.985   5.189  1.00  0.00     0.158 HD
ATOM     13  H   UNL     1       6.892  24.414   5.788  1.00  0.00     0.158 HD
ENDBRANCH   7  11
TORSDOF 1
ENDMDL
MODEL 3
REMARK VINA RESULT:    -3.360     13.032     14.052
REMARK INTER + INTRA:          -3.458
REMARK INTER:                  -3.458
REMARK INTRA:                   0.000
REMARK UNBOUND:                 0.000
REMARK SMILES Nc1ncnc2nc[nH]c12
REMARK SMILES IDX 8 1 7 2 6 3 5 4 4 5 3 6 2 7 10 8 9 9 1 11
REMARK H PARENT 9 10 1 12 1 13
REMARK Flexibility Score: inf
ROOT
ATOM      1  C   UNL     1       6.761  38.049   1.780  1.00  0.00     0.199 A 
ATOM      2  N   UNL     1       6.266  36.866   1.324  1.00  0.00    -0.217 NA
ATOM      3  C   UNL     1       7.384  36.150   1.118  1.00  0.00     0.182 A 
ATOM      4  N   UNL     1       7.455  34.879   0.656  1.00  0.00    -0.215 NA
ATOM      5  C   UNL     1       8.692  34.314   0.510  1.00  0.00     0.226 A 
ATOM      6  N   UNL     1       9.823  35.024   0.825  1.00  0.00    -0.217 NA
ATOM      7  C   UNL     1       9.753  36.306   1.289  1.00  0.00     0.152 A 
ATOM      8  C   UNL     1       8.487  36.867   1.433  1.00  0.00     0.127 A 
ATOM      9  N   UNL     1       8.115  38.082   1.858  1.00  0.00    -0.340 N 
ATOM     10  H   UNL     1       8.715  38.873   2.177  1.00  0.00     0.168 HD
ENDROOT
BRANCH   7  11
ATOM     11  N   UNL     1      10.944  37.026   1.611  1.00  0.00    -0.382 N 
ATOM     12  H   UNL     1      11.822  36.850   1.073  1.00  0.00     0.158 HD
ATOM     13  H   UNL     1      10.963  37.732   2.379  1.00  0.00     0.158 HD
ENDBRANCH   7  11
TORSDOF 1
ENDMDL
MODEL 4
REMARK VINA RESULT:    -3.306     18.480     19.013
REMARK INTER + INTRA:          -3.403
REMARK INTER:                  -3.403
REMARK INTRA:                   0.000
REMARK UNBOUND:                 0.000
REMARK SMILES Nc1ncnc2nc[nH]c12
REMARK SMILES IDX 8 1 7 2 6 3 5 4 4 5 3 6 2 7 10 8 9 9 1 11
REMARK H PARENT 9 10 1 12 1 13
REMARK Flexibility Score: inf
ROOT
ATOM      1  C   UNL     1      11.250  23.396   5.191  1.00  0.00     0.199 A 
ATOM      2  N   UNL     1      11.725  23.969   4.051  1.00  0.00    -0.217 NA
ATOM      3  C   UNL     1      10.697  24.748   3.674  1.00  0.00     0.182 A 
ATOM      4  N   UNL     1      10.646  25.547   2.581  1.00  0.00    -0.215 NA
ATOM      5  C   UNL     1       9.506  26.269   2.363  1.00  0.00     0.226 A 
ATOM      6  N   UNL     1       8.447  26.180   3.232  1.00  0.00    -0.217 NA
ATOM      7  C   UNL     1       8.496  25.374   4.333  1.00  0.00     0.152 A 
ATOM      8  C   UNL     1       9.664  24.645   4.542  1.00  0.00     0.127 A 
ATOM      9  N   UNL     1       9.994  23.789   5.518  1.00  0.00    -0.340 N 
ATOM     10  H   UNL     1       9.427  23.487   6.341  1.00  0.00     0.168 HD
ENDROOT
BRANCH   7  11
ATOM     11  N   UNL     1       7.382  25.297   5.224  1.00  0.00    -0.382 N 
ATOM     12  H   UNL     1       7.472  25.645   6.204  1.00  0.00     0.158 HD
ATOM     13  H   UNL     1       6.468  24.896   4.918  1.00  0.00     0.158 HD
ENDBRANCH   7  11
TORSDOF 1
ENDMDL
MODEL 5
REMARK VINA RESULT:    -3.273      1.177      3.118
REMARK INTER + INTRA:          -3.369
REMARK INTER:                  -3.369
REMARK INTRA:                   0.000
REMARK UNBOUND:                 0.000
REMARK SMILES Nc1ncnc2nc[nH]c12
REMARK SMILES IDX 8 1 7 2 6 3 5 4 4 5 3 6 2 7 10 8 9 9 1 11
REMARK H PARENT 9 10 1 12 1 13
REMARK Flexibility Score: inf
ROOT
ATOM      1  C   UNL     1      12.573  41.034  16.891  1.00  0.00     0.199 A 
ATOM      2  N   UNL     1      13.241  41.393  15.761  1.00  0.00    -0.217 NA
ATOM      3  C   UNL     1      12.331  41.153  14.803  1.00  0.00     0.182 A 
ATOM      4  N   UNL     1      12.489  41.344  13.471  1.00  0.00    -0.215 NA
ATOM      5  C   UNL     1      11.441  41.040  12.647  1.00  0.00     0.226 A 
ATOM      6  N   UNL     1      10.266  40.556  13.164  1.00  0.00    -0.217 NA
ATOM      7  C   UNL     1      10.105  40.363  14.506  1.00  0.00     0.152 A 
ATOM      8  C   UNL     1      11.180  40.676  15.332  1.00  0.00     0.127 A 
ATOM      9  N   UNL     1      11.311  40.592  16.663  1.00  0.00    -0.340 N 
ATOM     10  H   UNL     1      10.614  40.265  17.367  1.00  0.00     0.168 HD
ENDROOT
BRANCH   7  11
ATOM     11  N   UNL     1       8.872  39.858  15.022  1.00  0.00    -0.382 N 
ATOM     12  H   UNL     1       8.875  39.207  15.839  1.00  0.00     0.158 HD
ATOM     13  H   UNL     1       7.956  40.124  14.599  1.00  0.00     0.158 HD
ENDBRANCH   7  11
TORSDOF 1
ENDMDL
MODEL 6
REMARK VINA RESULT:    -3.204      1.233      2.964
REMARK INTER + INTRA:          -3.297
REMARK INTER:                  -3.297
REMARK INTRA:                   0.000
REMARK UNBOUND:                 0.000
REMARK SMILES Nc1ncnc2nc[nH]c12
REMARK SMILES IDX 8 1 7 2 6 3 5 4 4 5 3 6 2 7 10 8 9 9 1 11
REMARK H PARENT 9 10 1 12 1 13
REMARK Flexibility Score: inf
ROOT
ATOM      1  C   UNL     1       9.512  40.979  13.888  1.00  0.00     0.199 A 
ATOM      2  N   UNL     1      10.410  40.921  14.909  1.00  0.00    -0.217 NA
ATOM      3  C   UNL     1      11.559  41.253  14.297  1.00  0.00     0.182 A 
ATOM      4  N   UNL     1      12.783  41.347  14.870  1.00  0.00    -0.215 NA
ATOM      5  C   UNL     1      13.840  41.701  14.079  1.00  0.00     0.226 A 
ATOM      6  N   UNL     1      13.657  41.953  12.743  1.00  0.00    -0.217 NA
ATOM      7  C   UNL     1      12.424  41.858  12.163  1.00  0.00     0.152 A 
ATOM      8  C   UNL     1      11.358  41.496  12.981  1.00  0.00     0.127 A 
ATOM      9  N   UNL     1      10.059  41.328  12.697  1.00  0.00    -0.340 N 
ATOM     10  H   UNL     1       9.573  41.437  11.781  1.00  0.00     0.168 HD
ENDROOT
BRANCH   7  11
ATOM     11  N   UNL     1      12.257  42.125  10.770  1.00  0.00    -0.382 N 
ATOM     12  H   UNL     1      12.722  42.954  10.337  1.00  0.00     0.158 HD
ATOM     13  H   UNL     1      11.675  41.506  10.163  1.00  0.00     0.158 HD
ENDBRANCH   7  11
TORSDOF 1
ENDMDL
MODEL 7
REMARK VINA RESULT:    -3.111      0.702      2.425
REMARK INTER + INTRA:          -3.202
REMARK INTER:                  -3.202
REMARK INTRA:                   0.000
REMARK UNBOUND:                 0.000
REMARK SMILES Nc1ncnc2nc[nH]c12
REMARK SMILES IDX 8 1 7 2 6 3 5 4 4 5 3 6 2 7 10 8 9 9 1 11
REMARK H PARENT 9 10 1 12 1 13
REMARK Flexibility Score: inf
ROOT
ATOM      1  C   UNL     1      12.068  41.238  11.199  1.00  0.00     0.199 A 
ATOM      2  N   UNL     1      10.824  40.846  11.586  1.00  0.00    -0.217 NA
ATOM      3  C   UNL     1      10.936  40.822  12.925  1.00  0.00     0.182 A 
ATOM      4  N   UNL     1       9.967  40.490  13.811  1.00  0.00    -0.215 NA
ATOM      5  C   UNL     1      10.272  40.525  15.144  1.00  0.00     0.226 A 
ATOM      6  N   UNL     1      11.528  40.887  15.561  1.00  0.00    -0.217 NA
ATOM      7  C   UNL     1      12.507  41.221  14.669  1.00  0.00     0.152 A 
ATOM      8  C   UNL     1      12.181  41.180  13.316  1.00  0.00     0.127 A 
ATOM      9  N   UNL     1      12.921  41.451  12.233  1.00  0.00    -0.340 N 
ATOM     10  H   UNL     1      13.918  41.754  12.183  1.00  0.00     0.168 HD
ENDROOT
BRANCH   7  11
ATOM     11  N   UNL     1      13.807  41.594  15.127  1.00  0.00    -0.382 N 
ATOM     12  H   UNL     1      14.656  41.247  14.627  1.00  0.00     0.158 HD
ATOM     13  H   UNL     1      13.935  42.212  15.958  1.00  0.00     0.158 HD
ENDBRANCH   7  11
TORSDOF 1
ENDMDL
MODEL 8
REMARK VINA RESULT:    -3.106     15.337     16.492
REMARK INTER + INTRA:          -3.197
REMARK INTER:                  -3.197
REMARK INTRA:                   0.000
REMARK UNBOUND:                 0.000
REMARK SMILES Nc1ncnc2nc[nH]c12
REMARK SMILES IDX 8 1 7 2 6 3 5 4 4 5 3 6 2 7 10 8 9 9 1 11
REMARK H PARENT 9 10 1 12 1 13
REMARK Flexibility Score: inf
ROOT
ATOM      1  C   UNL     1       8.433  32.111   1.496  1.00  0.00     0.199 A 
ATOM      2  N   UNL     1       9.360  31.477   2.265  1.00  0.00    -0.217 NA
ATOM      3  C   UNL     1       8.774  30.291   2.499  1.00  0.00     0.182 A 
ATOM      4  N   UNL     1       9.282  29.268   3.228  1.00  0.00    -0.215 NA
ATOM      5  C   UNL     1       8.532  28.132   3.354  1.00  0.00     0.226 A 
ATOM      6  N   UNL     1       7.300  28.040   2.756  1.00  0.00    -0.217 NA
ATOM      7  C   UNL     1       6.787  29.070   2.021  1.00  0.00     0.152 A 
ATOM      8  C   UNL     1       7.562  30.220   1.902  1.00  0.00     0.127 A 
ATOM      9  N   UNL     1       7.323  31.369   1.256  1.00  0.00    -0.340 N 
ATOM     10  H   UNL     1       6.484  31.641   0.697  1.00  0.00     0.168 HD
ENDROOT
BRANCH   7  11
ATOM     11  N   UNL     1       5.503  28.951   1.407  1.00  0.00    -0.382 N 
ATOM     12  H   UNL     1       5.352  29.308   0.437  1.00  0.00     0.158 HD
ATOM     13  H   UNL     1       4.699  28.513   1.908  1.00  0.00     0.158 HD
ENDBRANCH   7  11
TORSDOF 1
ENDMDL
MODEL 9
REMARK VINA RESULT:    -3.085     18.776     19.832
REMARK INTER + INTRA:          -3.175
REMARK INTER:                  -3.175
REMARK INTRA:                   0.000
REMARK UNBOUND:                 0.000
REMARK SMILES Nc1ncnc2nc[nH]c12
REMARK SMILES IDX 8 1 7 2 6 3 5 4 4 5 3 6 2 7 10 8 9 9 1 11
REMARK H PARENT 9 10 1 12 1 13
REMARK Flexibility Score: inf
ROOT
ATOM      1  C   UNL     1       8.507  25.671   4.460  1.00  0.00     0.199 A 
ATOM      2  N   UNL     1       8.812  25.478   3.147  1.00  0.00    -0.217 NA
ATOM      3  C   UNL     1       9.733  24.502   3.210  1.00  0.00     0.182 A 
ATOM      4  N   UNL     1      10.376  23.929   2.164  1.00  0.00    -0.215 NA
ATOM      5  C   UNL     1      11.286  22.944   2.428  1.00  0.00     0.226 A 
ATOM      6  N   UNL     1      11.536  22.554   3.720  1.00  0.00    -0.217 NA
ATOM      7  C   UNL     1      10.890  23.132   4.776  1.00  0.00     0.152 A 
ATOM      8  C   UNL     1       9.966  24.133   4.491  1.00  0.00     0.127 A 
ATOM      9  N   UNL     1       9.195  24.865   5.305  1.00  0.00    -0.340 N 
ATOM     10  H   UNL     1       9.130  24.831   6.346  1.00  0.00     0.168 HD
ENDROOT
BRANCH   7  11
ATOM     11  N   UNL     1      11.167  22.710   6.112  1.00  0.00    -0.382 N 
ATOM     12  H   UNL     1      10.789  23.254   6.920  1.00  0.00     0.158 HD
ATOM     13  H   UNL     1      11.743  21.862   6.307  1.00  0.00     0.158 HD
ENDBRANCH   7  11
TORSDOF 1
ENDMDL
