MODEL 1
REMARK VINA RESULT:    -3.521      0.000      0.000
REMARK INTER + INTRA:          -4.265
REMARK INTER:                  -4.139
REMARK INTRA:                  -0.126
REMARK UNBOUND:                -0.126
REMARK SMILES O=C([O-])CCC(=O)[O-]
REMARK SMILES IDX 4 1 2 2 1 3 3 4 5 5 6 6 7 7 8 8
REMARK H PARENT
REMARK Flexibility Score: inf
ROOT
ATOM      1  C   UNL     1       7.003   4.745  19.407  1.00  0.00     0.059 C 
ENDROOT
BRANCH   1   2
ATOM      2  C   UNL     1       7.685   5.347  20.596  1.00  0.00     0.042 C 
ATOM      3  O   UNL     1       8.829   4.949  20.938  1.00  0.00    -0.550 OA
ATOM      4  O   UNL     1       7.078   6.382  21.296  1.00  0.00    -0.550 OA
ENDBRANCH   1   2
BRANCH   1   5
ATOM      5  C   UNL     1       7.620   5.272  18.112  1.00  0.00     0.059 C 
BRANCH   5   6
ATOM      6  C   UNL     1       7.062   6.620  17.775  1.00  0.00     0.042 C 
ATOM      7  O   UNL     1       5.874   6.905  18.077  1.00  0.00    -0.550 OA
ATOM      8  O   UNL     1       7.839   7.541  17.085  1.00  0.00    -0.550 OA
ENDBRANCH   5   6
ENDBRANCH   1   5
TORSDOF 3
ENDMDL
MODEL 2
REMARK VINA RESULT:    -3.519      1.107      4.167
REMARK INTER + INTRA:          -4.263
REMARK INTER:                  -4.230
REMARK INTRA:                  -0.033
REMARK UNBOUND:                -0.126
REMARK SMILES O=C([O-])CCC(=O)[O-]
REMARK SMILES IDX 4 1 2 2 1 3 3 4 5 5 6 6 7 7 8 8
REMARK H PARENT
REMARK Flexibility Score: inf
ROOT
ATOM      1  C   UNL     1       7.649   5.626  19.362  1.00  0.00     0.059 C 
ENDROOT
BRANCH   1   2
ATOM      2  C   UNL     1       6.996   6.463  18.308  1.00  0.00     0.042 C 
ATOM      3  O   UNL     1       5.741   6.553  18.258  1.00  0.00    -0.550 OA
ATOM      4  O   UNL     1       7.774   7.184  17.411  1.00  0.00    -0.550 OA
ENDBRANCH   1   2
BRANCH   1   5
ATOM      5  C   UNL     1       7.279   6.135  20.755  1.00  0.00     0.059 C 
BRANCH   5   6
ATOM      6  C   UNL     1       7.998   5.350  21.808  1.00  0.00     0.042 C 
ATOM      7  O   UNL     1       9.177   4.959  21.610  1.00  0.00    -0.550 OA
ATOM      8  O   UNL     1       7.346   5.009  22.986  1.00  0.00    -0.550 OA
ENDBRANCH   5   6
ENDBRANCH   1   5
TORSDOF 3
ENDMDL
MODEL 3
REMARK VINA RESULT:    -3.490      1.460      2.012
REMARK INTER + INTRA:          -4.228
REMARK INTER:                  -4.190
REMARK INTRA:                  -0.038
REMARK UNBOUND:                -0.126
REMARK SMILES O=C([O-])CCC(=O)[O-]
REMARK SMILES IDX 4 1 2 2 1 3 3 4 5 5 6 6 7 7 8 8
REMARK H PARENT
REMARK Flexibility Score: inf
ROOT
ATOM      1  C   UNL     1       7.074   6.301  21.043  1.00  0.00     0.059 C 
ENDROOT
BRANCH   1   2
ATOM      2  C   UNL     1       7.197   5.410  22.239  1.00  0.00     0.042 C 
ATOM      3  O   UNL     1       8.141   4.581  22.315  1.00  0.00    -0.550 OA
ATOM      4  O   UNL     1       6.297   5.529  23.290  1.00  0.00    -0.550 OA
ENDBRANCH   1   2
BRANCH   1   5
ATOM      5  C   UNL     1       7.751   5.665  19.829  1.00  0.00     0.059 C 
BRANCH   5   6
ATOM      6  C   UNL     1       7.042   6.055  18.570  1.00  0.00     0.042 C 
ATOM      7  O   UNL     1       7.510   6.963  17.836  1.00  0.00    -0.550 OA
ATOM      8  O   UNL     1       5.839   5.447  18.234  1.00  0.00    -0.550 OA
ENDBRANCH   5   6
ENDBRANCH   1   5
TORSDOF 3
ENDMDL
MODEL 4
REMARK VINA RESULT:    -3.453     15.316     16.323
REMARK INTER + INTRA:          -4.185
REMARK INTER:                  -4.096
REMARK INTRA:                  -0.089
REMARK UNBOUND:                -0.126
REMARK SMILES O=C([O-])CCC(=O)[O-]
REMARK SMILES IDX 4 1 2 2 1 3 3 4 5 5 6 6 7 7 8 8
REMARK H PARENT
REMARK Flexibility Score: inf
ROOT
ATOM      1  C   UNL     1      13.339  -3.021   6.349  1.00  0.00     0.059 C 
ENDROOT
BRANCH   1   2
ATOM      2  C   UNL     1      14.593  -3.673   6.844  1.00  0.00     0.042 C 
ATOM      3  O   UNL     1      14.972  -3.495   8.031  1.00  0.00    -0.550 OA
ATOM      4  O   UNL     1      15.314  -4.515   6.008  1.00  0.00    -0.550 OA
ENDBRANCH   1   2
BRANCH   1   5
ATOM      5  C   UNL     1      12.609  -2.324   7.497  1.00  0.00     0.059 C 
BRANCH   5   6
ATOM      6  C   UNL     1      11.243  -2.908   7.682  1.00  0.00     0.042 C 
ATOM      7  O   UNL     1      10.987  -4.064   7.255  1.00  0.00    -0.550 OA
ATOM      8  O   UNL     1      10.241  -2.156   8.280  1.00  0.00    -0.550 OA
ENDBRANCH   5   6
ENDBRANCH   1   5
TORSDOF 3
ENDMDL
MODEL 5
REMARK VINA RESULT:    -3.399     16.460     17.565
REMARK INTER + INTRA:          -4.121
REMARK INTER:                  -4.027
REMARK INTRA:                  -0.094
REMARK UNBOUND:                -0.126
REMARK SMILES O=C([O-])CCC(=O)[O-]
REMARK SMILES IDX 4 1 2 2 1 3 3 4 5 5 6 6 7 7 8 8
REMARK H PARENT
REMARK Flexibility Score: inf
ROOT
ATOM      1  C   UNL     1      14.663  -3.563   7.372  1.00  0.00     0.059 C 
ENDROOT
BRANCH   1   2
ATOM      2  C   UNL     1      14.530  -2.100   7.083  1.00  0.00     0.042 C 
ATOM      3  O   UNL     1      13.475  -1.652   6.564  1.00  0.00    -0.550 OA
ATOM      4  O   UNL     1      15.551  -1.227   7.432  1.00  0.00    -0.550 OA
ENDBRANCH   1   2
BRANCH   1   5
ATOM      5  C   UNL     1      15.814  -4.165   6.567  1.00  0.00     0.059 C 
BRANCH   5   6
ATOM      6  C   UNL     1      16.949  -4.533   7.471  1.00  0.00     0.042 C 
ATOM      7  O   UNL     1      16.734  -4.795   8.683  1.00  0.00    -0.550 OA
ATOM      8  O   UNL     1      18.251  -4.539   6.985  1.00  0.00    -0.550 OA
ENDBRANCH   5   6
ENDBRANCH   1   5
TORSDOF 3
ENDMDL
MODEL 6
REMARK VINA RESULT:    -3.393      3.037      3.562
REMARK INTER + INTRA:          -4.114
REMARK INTER:                  -4.002
REMARK INTRA:                  -0.112
REMARK UNBOUND:                -0.126
REMARK SMILES O=C([O-])CCC(=O)[O-]
REMARK SMILES IDX 4 1 2 2 1 3 3 4 5 5 6 6 7 7 8 8
REMARK H PARENT
REMARK Flexibility Score: inf
ROOT
ATOM      1  C   UNL     1       8.161   3.783  22.048  1.00  0.00     0.059 C 
ENDROOT
BRANCH   1   2
ATOM      2  C   UNL     1       7.339   4.878  22.654  1.00  0.00     0.042 C 
ATOM      3  O   UNL     1       6.961   4.795  23.851  1.00  0.00    -0.550 OA
ATOM      4  O   UNL     1       7.034   6.010  21.911  1.00  0.00    -0.550 OA
ENDBRANCH   1   2
BRANCH   1   5
ATOM      5  C   UNL     1       8.689   4.207  20.678  1.00  0.00     0.059 C 
BRANCH   5   6
ATOM      6  C   UNL     1       8.069   3.377  19.597  1.00  0.00     0.042 C 
ATOM      7  O   UNL     1       8.782   2.903  18.676  1.00  0.00    -0.550 OA
ATOM      8  O   UNL     1       6.695   3.170  19.582  1.00  0.00    -0.550 OA
ENDBRANCH   5   6
ENDBRANCH   1   5
TORSDOF 3
ENDMDL
MODEL 7
REMARK VINA RESULT:    -3.386     15.699     16.782
REMARK INTER + INTRA:          -4.105
REMARK INTER:                  -4.072
REMARK INTRA:                  -0.034
REMARK UNBOUND:                -0.126
REMARK SMILES O=C([O-])CCC(=O)[O-]
REMARK SMILES IDX 4 1 2 2 1 3 3 4 5 5 6 6 7 7 8 8
REMARK H PARENT
REMARK Flexibility Score: inf
ROOT
ATOM      1  C   UNL     1      13.410  -3.366   6.712  1.00  0.00     0.059 C 
ENDROOT
BRANCH   1   2
ATOM      2  C   UNL     1      12.079  -2.983   7.279  1.00  0.00     0.042 C 
ATOM      3  O   UNL     1      11.945  -1.899   7.903  1.00  0.00    -0.550 OA
ATOM      4  O   UNL     1      10.975  -3.801   7.075  1.00  0.00    -0.550 OA
ENDBRANCH   1   2
BRANCH   1   5
ATOM      5  C   UNL     1      14.525  -3.060   7.711  1.00  0.00     0.059 C 
BRANCH   5   6
ATOM      6  C   UNL     1      15.645  -4.042   7.564  1.00  0.00     0.042 C 
ATOM      7  O   UNL     1      15.966  -4.469   6.424  1.00  0.00    -0.550 OA
ATOM      8  O   UNL     1      16.300  -4.524   8.690  1.00  0.00    -0.550 OA
ENDBRANCH   5   6
ENDBRANCH   1   5
TORSDOF 3
ENDMDL
MODEL 8
REMARK VINA RESULT:    -3.379      2.934      4.132
REMARK INTER + INTRA:          -4.097
REMARK INTER:                  -4.006
REMARK INTRA:                  -0.091
REMARK UNBOUND:                -0.126
REMARK SMILES O=C([O-])CCC(=O)[O-]
REMARK SMILES IDX 4 1 2 2 1 3 3 4 5 5 6 6 7 7 8 8
REMARK H PARENT
REMARK Flexibility Score: inf
ROOT
ATOM      1  C   UNL     1       8.685   4.188  20.539  1.00  0.00     0.059 C 
ENDROOT
BRANCH   1   2
ATOM      2  C   UNL     1       7.988   3.264  19.589  1.00  0.00     0.042 C 
ATOM      3  O   UNL     1       8.634   2.699  18.669  1.00  0.00    -0.550 OA
ATOM      4  O   UNL     1       6.636   2.991  19.752  1.00  0.00    -0.550 OA
ENDBRANCH   1   2
BRANCH   1   5
ATOM      5  C   UNL     1       8.125   4.025  21.952  1.00  0.00     0.059 C 
BRANCH   5   6
ATOM      6  C   UNL     1       7.295   5.212  22.327  1.00  0.00     0.042 C 
ATOM      7  O   UNL     1       7.263   6.224  21.579  1.00  0.00    -0.550 OA
ATOM      8  O   UNL     1       6.597   5.221  23.528  1.00  0.00    -0.550 OA
ENDBRANCH   5   6
ENDBRANCH   1   5
TORSDOF 3
ENDMDL
MODEL 9
REMARK VINA RESULT:    -3.371     16.542     17.461
REMARK INTER + INTRA:          -4.089
REMARK INTER:                  -3.993
REMARK INTRA:                  -0.095
REMARK UNBOUND:                -0.126
REMARK SMILES O=C([O-])CCC(=O)[O-]
REMARK SMILES IDX 4 1 2 2 1 3 3 4 5 5 6 6 7 7 8 8
REMARK H PARENT
REMARK Flexibility Score: inf
ROOT
ATOM      1  C   UNL     1      15.923  -4.184   6.441  1.00  0.00     0.059 C 
ENDROOT
BRANCH   1   2
ATOM      2  C   UNL     1      17.029  -4.528   7.389  1.00  0.00     0.042 C 
ATOM      3  O   UNL     1      18.221  -4.557   6.987  1.00  0.00    -0.550 OA
ATOM      4  O   UNL     1      16.748  -4.769   8.728  1.00  0.00    -0.550 OA
ENDBRANCH   1   2
BRANCH   1   5
ATOM      5  C   UNL     1      14.692  -3.701   7.208  1.00  0.00     0.059 C 
BRANCH   5   6
ATOM      6  C   UNL     1      14.480  -2.235   6.989  1.00  0.00     0.042 C 
ATOM      7  O   UNL     1      15.358  -1.409   7.349  1.00  0.00    -0.550 OA
ATOM      8  O   UNL     1      13.292  -1.781   6.433  1.00  0.00    -0.550 OA
ENDBRANCH   5   6
ENDBRANCH   1   5
TORSDOF 3
ENDMDL
