MODEL 1
REMARK VINA RESULT:    -4.412      0.000      0.000
REMARK INTER + INTRA:         -15.316
REMARK INTER:                 -11.118
REMARK INTRA:                  -4.198
REMARK UNBOUND:                -4.198
REMARK SMILES CCCCCCCCCCCCCCCCCCCCCCCCCCCC(=O)[O-]
REMARK SMILES IDX 15 1 16 2 17 3 18 4 19 5 20 6 21 7 22 8 23 9 24 10 25 11
REMARK SMILES IDX 26 12 27 13 28 14 29 15 30 16 14 17 13 18 12 19 11 20 10 21
REMARK SMILES IDX 9 22 8 23 7 24 6 25 5 26 4 27 3 28 2 29 1 30
REMARK H PARENT
REMARK Flexibility Score: inf
ROOT
ATOM      1  C   UNL     1      48.942  -8.569 -55.043  1.00  0.00     0.000 C 
ENDROOT
BRANCH   1   2
ATOM      2  C   UNL     1      47.483  -8.239 -55.420  1.00  0.00     0.000 C 
BRANCH   2   3
ATOM      3  C   UNL     1      47.173  -8.239 -56.932  1.00  0.00     0.000 C 
BRANCH   3   4
ATOM      4  C   UNL     1      48.404  -8.181 -57.855  1.00  0.00     0.000 C 
BRANCH   4   5
ATOM      5  C   UNL     1      48.249  -9.042 -59.121  1.00  0.00     0.000 C 
BRANCH   5   6
ATOM      6  C   UNL     1      47.098 -10.054 -59.007  1.00  0.00     0.000 C 
BRANCH   6   7
ATOM      7  C   UNL     1      47.579 -11.513 -59.012  1.00  0.00     0.000 C 
BRANCH   7   8
ATOM      8  C   UNL     1      47.136 -12.239 -57.736  1.00  0.00     0.000 C 
BRANCH   8   9
ATOM      9  C   UNL     1      48.006 -11.833 -56.540  1.00  0.00     0.000 C 
BRANCH   9  10
ATOM     10  C   UNL     1      48.775 -13.041 -55.982  1.00  0.00     0.000 C 
BRANCH  10  11
ATOM     11  C   UNL     1      47.834 -14.189 -55.559  1.00  0.00     0.000 C 
BRANCH  11  12
ATOM     12  C   UNL     1      48.183 -15.544 -56.200  1.00  0.00     0.006 C 
BRANCH  12  13
ATOM     13  C   UNL     1      47.018 -16.149 -56.990  1.00  0.00     0.053 C 
BRANCH  13  14
ATOM     14  C   UNL     1      47.043 -17.642 -56.898  1.00  0.00     0.041 C 
ATOM     15  O   UNL     1      47.664 -18.208 -55.959  1.00  0.00    -0.550 OA
ATOM     16  O   UNL     1      46.346 -18.409 -57.824  1.00  0.00    -0.550 OA
ENDBRANCH  13  14
ENDBRANCH  12  13
ENDBRANCH  11  12
ENDBRANCH  10  11
ENDBRANCH   9  10
ENDBRANCH   8   9
ENDBRANCH   7   8
ENDBRANCH   6   7
ENDBRANCH   5   6
ENDBRANCH   4   5
ENDBRANCH   3   4
ENDBRANCH   2   3
ENDBRANCH   1   2
BRANCH   1  17
ATOM     17  C   UNL     1      49.669  -7.478 -54.237  1.00  0.00     0.000 C 
BRANCH  17  18
ATOM     18  C   UNL     1      50.158  -6.312 -55.114  1.00  0.00     0.000 C 
BRANCH  18  19
ATOM     19  C   UNL     1      51.691  -6.141 -55.051  1.00  0.00     0.000 C 
BRANCH  19  20
ATOM     20  C   UNL     1      52.368  -6.080 -56.431  1.00  0.00     0.000 C 
BRANCH  20  21
ATOM     21  C   UNL     1      51.369  -6.177 -57.593  1.00  0.00     0.000 C 
BRANCH  21  22
ATOM     22  C   UNL     1      51.721  -5.246 -58.766  1.00  0.00    -0.000 C 
BRANCH  22  23
ATOM     23  C   UNL     1      51.886  -3.767 -58.357  1.00  0.00    -0.000 C 
BRANCH  23  24
ATOM     24  C   UNL     1      50.577  -3.160 -57.829  1.00  0.00    -0.000 C 
BRANCH  24  25
ATOM     25  C   UNL     1      49.560  -2.977 -58.966  1.00  0.00    -0.000 C 
BRANCH  25  26
ATOM     26  C   UNL     1      48.112  -3.257 -58.524  1.00  0.00    -0.000 C 
BRANCH  26  27
ATOM     27  C   UNL     1      47.882  -4.634 -57.869  1.00  0.00    -0.000 C 
BRANCH  27  28
ATOM     28  C   UNL     1      47.235  -4.595 -56.471  1.00  0.00    -0.000 C 
BRANCH  28  29
ATOM     29  C   UNL     1      47.551  -3.335 -55.647  1.00  0.00    -0.003 C 
ATOM     30  C   UNL     1      47.868  -3.646 -54.183  1.00  0.00     0.004 C 
ENDBRANCH  28  29
ENDBRANCH  27  28
ENDBRANCH  26  27
ENDBRANCH  25  26
ENDBRANCH  24  25
ENDBRANCH  23  24
ENDBRANCH  22  23
ENDBRANCH  21  22
ENDBRANCH  20  21
ENDBRANCH  19  20
ENDBRANCH  18  19
ENDBRANCH  17  18
ENDBRANCH   1  17
TORSDOF 26
ENDMDL
MODEL 2
REMARK VINA RESULT:    -4.147      3.541      9.001
REMARK INTER + INTRA:         -14.648
REMARK INTER:                 -10.418
REMARK INTRA:                  -4.230
REMARK UNBOUND:                -4.198
REMARK SMILES CCCCCCCCCCCCCCCCCCCCCCCCCCCC(=O)[O-]
REMARK SMILES IDX 15 1 16 2 17 3 18 4 19 5 20 6 21 7 22 8 23 9 24 10 25 11
REMARK SMILES IDX 26 12 27 13 28 14 29 15 30 16 14 17 13 18 12 19 11 20 10 21
REMARK SMILES IDX 9 22 8 23 7 24 6 25 5 26 4 27 3 28 2 29 1 30
REMARK H PARENT
REMARK Flexibility Score: inf
ROOT
ATOM      1  C   UNL     1      49.503  -7.801 -54.418  1.00  0.00     0.000 C 
ENDROOT
BRANCH   1   2
ATOM      2  C   UNL     1      49.402  -6.262 -54.356  1.00  0.00     0.000 C 
BRANCH   2   3
ATOM      3  C   UNL     1      50.716  -5.501 -54.632  1.00  0.00     0.000 C 
BRANCH   3   4
ATOM      4  C   UNL     1      51.732  -6.244 -55.519  1.00  0.00     0.000 C 
BRANCH   4   5
ATOM      5  C   UNL     1      51.997  -5.532 -56.857  1.00  0.00     0.000 C 
BRANCH   5   6
ATOM      6  C   UNL     1      51.324  -6.241 -58.044  1.00  0.00     0.000 C 
BRANCH   6   7
ATOM      7  C   UNL     1      50.164  -5.433 -58.646  1.00  0.00     0.000 C 
BRANCH   7   8
ATOM      8  C   UNL     1      50.519  -3.944 -58.728  1.00  0.00     0.000 C 
BRANCH   8   9
ATOM      9  C   UNL     1      49.369  -3.073 -58.207  1.00  0.00     0.000 C 
BRANCH   9  10
ATOM     10  C   UNL     1      48.835  -3.608 -56.868  1.00  0.00     0.000 C 
BRANCH  10  11
ATOM     11  C   UNL     1      47.314  -3.865 -56.905  1.00  0.00     0.000 C 
BRANCH  11  12
ATOM     12  C   UNL     1      46.683  -4.047 -55.513  1.00  0.00     0.006 C 
BRANCH  12  13
ATOM     13  C   UNL     1      45.514  -5.038 -55.512  1.00  0.00     0.053 C 
BRANCH  13  14
ATOM     14  C   UNL     1      45.314  -5.608 -54.143  1.00  0.00     0.041 C 
ATOM     15  O   UNL     1      45.749  -6.757 -53.866  1.00  0.00    -0.550 OA
ATOM     16  O   UNL     1      44.686  -4.854 -53.159  1.00  0.00    -0.550 OA
ENDBRANCH  13  14
ENDBRANCH  12  13
ENDBRANCH  11  12
ENDBRANCH  10  11
ENDBRANCH   9  10
ENDBRANCH   8   9
ENDBRANCH   7   8
ENDBRANCH   6   7
ENDBRANCH   5   6
ENDBRANCH   4   5
ENDBRANCH   3   4
ENDBRANCH   2   3
ENDBRANCH   1   2
BRANCH   1  17
ATOM     17  C   UNL     1      48.532  -8.478 -55.401  1.00  0.00     0.000 C 
BRANCH  17  18
ATOM     18  C   UNL     1      47.995  -7.513 -56.473  1.00  0.00     0.000 C 
BRANCH  18  19
ATOM     19  C   UNL     1      48.024  -8.138 -57.884  1.00  0.00     0.000 C 
BRANCH  19  20
ATOM     20  C   UNL     1      46.685  -8.045 -58.634  1.00  0.00     0.000 C 
BRANCH  20  21
ATOM     21  C   UNL     1      46.087  -9.419 -58.968  1.00  0.00     0.000 C 
BRANCH  21  22
ATOM     22  C   UNL     1      45.819 -10.277 -57.719  1.00  0.00    -0.000 C 
BRANCH  22  23
ATOM     23  C   UNL     1      46.483 -11.669 -57.769  1.00  0.00    -0.000 C 
BRANCH  23  24
ATOM     24  C   UNL     1      48.002 -11.597 -57.550  1.00  0.00    -0.000 C 
BRANCH  24  25
ATOM     25  C   UNL     1      48.376 -12.068 -56.136  1.00  0.00    -0.000 C 
BRANCH  25  26
ATOM     26  C   UNL     1      48.932 -13.503 -56.111  1.00  0.00    -0.000 C 
BRANCH  26  27
ATOM     27  C   UNL     1      47.910 -14.594 -55.730  1.00  0.00    -0.000 C 
BRANCH  27  28
ATOM     28  C   UNL     1      48.214 -15.999 -56.287  1.00  0.00    -0.000 C 
BRANCH  28  29
ATOM     29  C   UNL     1      46.973 -16.839 -56.634  1.00  0.00    -0.003 C 
ATOM     30  C   UNL     1      45.916 -16.048 -57.405  1.00  0.00     0.004 C 
ENDBRANCH  28  29
ENDBRANCH  27  28
ENDBRANCH  26  27
ENDBRANCH  25  26
ENDBRANCH  24  25
ENDBRANCH  23  24
ENDBRANCH  22  23
ENDBRANCH  21  22
ENDBRANCH  20  21
ENDBRANCH  19  20
ENDBRANCH  18  19
ENDBRANCH  17  18
ENDBRANCH   1  17
TORSDOF 26
ENDMDL
MODEL 3
REMARK VINA RESULT:    -4.144      1.332      2.035
REMARK INTER + INTRA:         -14.641
REMARK INTER:                 -10.487
REMARK INTRA:                  -4.155
REMARK UNBOUND:                -4.198
REMARK SMILES CCCCCCCCCCCCCCCCCCCCCCCCCCCC(=O)[O-]
REMARK SMILES IDX 15 1 16 2 17 3 18 4 19 5 20 6 21 7 22 8 23 9 24 10 25 11
REMARK SMILES IDX 26 12 27 13 28 14 29 15 30 16 14 17 13 18 12 19 11 20 10 21
REMARK SMILES IDX 9 22 8 23 7 24 6 25 5 26 4 27 3 28 2 29 1 30
REMARK H PARENT
REMARK Flexibility Score: inf
ROOT
ATOM      1  C   UNL     1      49.139  -7.438 -55.207  1.00  0.00     0.000 C 
ENDROOT
BRANCH   1   2
ATOM      2  C   UNL     1      47.647  -7.697 -55.504  1.00  0.00     0.000 C 
BRANCH   2   3
ATOM      3  C   UNL     1      47.315  -8.049 -56.970  1.00  0.00     0.000 C 
BRANCH   3   4
ATOM      4  C   UNL     1      48.469  -7.851 -57.970  1.00  0.00     0.000 C 
BRANCH   4   5
ATOM      5  C   UNL     1      48.446  -8.868 -59.124  1.00  0.00     0.000 C 
BRANCH   5   6
ATOM      6  C   UNL     1      47.184  -9.747 -59.110  1.00  0.00     0.000 C 
BRANCH   6   7
ATOM      7  C   UNL     1      47.493 -11.237 -58.899  1.00  0.00     0.000 C 
BRANCH   7   8
ATOM      8  C   UNL     1      47.054 -11.693 -57.502  1.00  0.00     0.000 C 
BRANCH   8   9
ATOM      9  C   UNL     1      48.202 -11.567 -56.494  1.00  0.00     0.000 C 
BRANCH   9  10
ATOM     10  C   UNL     1      48.636 -12.947 -55.976  1.00  0.00     0.000 C 
BRANCH  10  11
ATOM     11  C   UNL     1      47.578 -14.036 -56.253  1.00  0.00     0.000 C 
BRANCH  11  12
ATOM     12  C   UNL     1      47.905 -15.395 -55.610  1.00  0.00     0.006 C 
BRANCH  12  13
ATOM     13  C   UNL     1      47.991 -16.535 -56.632  1.00  0.00     0.053 C 
BRANCH  13  14
ATOM     14  C   UNL     1      46.714 -17.315 -56.651  1.00  0.00     0.041 C 
ATOM     15  O   UNL     1      45.626 -16.743 -56.928  1.00  0.00    -0.550 OA
ATOM     16  O   UNL     1      46.731 -18.683 -56.407  1.00  0.00    -0.550 OA
ENDBRANCH  13  14
ENDBRANCH  12  13
ENDBRANCH  11  12
ENDBRANCH  10  11
ENDBRANCH   9  10
ENDBRANCH   8   9
ENDBRANCH   7   8
ENDBRANCH   6   7
ENDBRANCH   5   6
ENDBRANCH   4   5
ENDBRANCH   3   4
ENDBRANCH   2   3
ENDBRANCH   1   2
BRANCH   1  17
ATOM     17  C   UNL     1      49.418  -6.266 -54.249  1.00  0.00     0.000 C 
BRANCH  17  18
ATOM     18  C   UNL     1      50.645  -5.435 -54.660  1.00  0.00     0.000 C 
BRANCH  18  19
ATOM     19  C   UNL     1      51.640  -6.252 -55.513  1.00  0.00     0.000 C 
BRANCH  19  20
ATOM     20  C   UNL     1      52.123  -5.522 -56.777  1.00  0.00     0.000 C 
BRANCH  20  21
ATOM     21  C   UNL     1      50.999  -5.272 -57.791  1.00  0.00     0.000 C 
BRANCH  21  22
ATOM     22  C   UNL     1      50.810  -3.781 -58.124  1.00  0.00    -0.000 C 
BRANCH  22  23
ATOM     23  C   UNL     1      49.486  -3.190 -57.596  1.00  0.00    -0.000 C 
BRANCH  23  24
ATOM     24  C   UNL     1      48.414  -4.269 -57.378  1.00  0.00    -0.000 C 
BRANCH  24  25
ATOM     25  C   UNL     1      47.233  -3.714 -56.567  1.00  0.00    -0.000 C 
BRANCH  25  26
ATOM     26  C   UNL     1      47.593  -3.442 -55.095  1.00  0.00    -0.000 C 
BRANCH  26  27
ATOM     27  C   UNL     1      46.443  -3.656 -54.090  1.00  0.00    -0.000 C 
BRANCH  27  28
ATOM     28  C   UNL     1      45.536  -4.868 -54.383  1.00  0.00    -0.000 C 
BRANCH  28  29
ATOM     29  C   UNL     1      45.334  -5.826 -53.196  1.00  0.00    -0.003 C 
ATOM     30  C   UNL     1      44.479  -7.042 -53.553  1.00  0.00     0.004 C 
ENDBRANCH  28  29
ENDBRANCH  27  28
ENDBRANCH  26  27
ENDBRANCH  25  26
ENDBRANCH  24  25
ENDBRANCH  23  24
ENDBRANCH  22  23
ENDBRANCH  21  22
ENDBRANCH  20  21
ENDBRANCH  19  20
ENDBRANCH  18  19
ENDBRANCH  17  18
ENDBRANCH   1  17
TORSDOF 26
ENDMDL
MODEL 4
REMARK VINA RESULT:    -4.120      1.368      2.580
REMARK INTER + INTRA:         -14.580
REMARK INTER:                 -10.962
REMARK INTRA:                  -3.619
REMARK UNBOUND:                -4.198
REMARK SMILES CCCCCCCCCCCCCCCCCCCCCCCCCCCC(=O)[O-]
REMARK SMILES IDX 15 1 16 2 17 3 18 4 19 5 20 6 21 7 22 8 23 9 24 10 25 11
REMARK SMILES IDX 26 12 27 13 28 14 29 15 30 16 14 17 13 18 12 19 11 20 10 21
REMARK SMILES IDX 9 22 8 23 7 24 6 25 5 26 4 27 3 28 2 29 1 30
REMARK H PARENT
REMARK Flexibility Score: inf
ROOT
ATOM      1  C   UNL     1      47.533  -7.392 -57.162  1.00  0.00     0.000 C 
ENDROOT
BRANCH   1   2
ATOM      2  C   UNL     1      48.771  -7.822 -57.976  1.00  0.00     0.000 C 
BRANCH   2   3
ATOM      3  C   UNL     1      48.502  -8.840 -59.104  1.00  0.00     0.000 C 
BRANCH   3   4
ATOM      4  C   UNL     1      47.275  -9.745 -58.893  1.00  0.00     0.000 C 
BRANCH   4   5
ATOM      5  C   UNL     1      47.644 -11.157 -58.406  1.00  0.00     0.000 C 
BRANCH   5   6
ATOM      6  C   UNL     1      47.853 -11.219 -56.883  1.00  0.00     0.000 C 
BRANCH   6   7
ATOM      7  C   UNL     1      48.234 -12.621 -56.386  1.00  0.00     0.000 C 
BRANCH   7   8
ATOM      8  C   UNL     1      47.070 -13.603 -56.571  1.00  0.00     0.000 C 
BRANCH   8   9
ATOM      9  C   UNL     1      47.183 -14.783 -55.599  1.00  0.00     0.000 C 
BRANCH   9  10
ATOM     10  C   UNL     1      48.399 -15.661 -55.935  1.00  0.00     0.000 C 
BRANCH  10  11
ATOM     11  C   UNL     1      47.997 -17.112 -56.275  1.00  0.00     0.000 C 
BRANCH  11  12
ATOM     12  C   UNL     1      47.385 -17.274 -57.677  1.00  0.00     0.006 C 
BRANCH  12  13
ATOM     13  C   UNL     1      45.953 -17.817 -57.645  1.00  0.00     0.053 C 
BRANCH  13  14
ATOM     14  C   UNL     1      44.967 -16.703 -57.812  1.00  0.00     0.041 C 
ATOM     15  O   UNL     1      44.124 -16.463 -56.907  1.00  0.00    -0.550 OA
ATOM     16  O   UNL     1      45.009 -15.901 -58.946  1.00  0.00    -0.550 OA
ENDBRANCH  13  14
ENDBRANCH  12  13
ENDBRANCH  11  12
ENDBRANCH  10  11
ENDBRANCH   9  10
ENDBRANCH   8   9
ENDBRANCH   7   8
ENDBRANCH   6   7
ENDBRANCH   5   6
ENDBRANCH   4   5
ENDBRANCH   3   4
ENDBRANCH   2   3
ENDBRANCH   1   2
BRANCH   1  17
ATOM     17  C   UNL     1      47.773  -7.225 -55.651  1.00  0.00     0.000 C 
BRANCH  17  18
ATOM     18  C   UNL     1      48.650  -8.341 -55.057  1.00  0.00     0.000 C 
BRANCH  18  19
ATOM     19  C   UNL     1      49.831  -7.777 -54.238  1.00  0.00     0.000 C 
BRANCH  19  20
ATOM     20  C   UNL     1      50.182  -6.319 -54.574  1.00  0.00     0.000 C 
BRANCH  20  21
ATOM     21  C   UNL     1      51.612  -6.154 -55.108  1.00  0.00     0.000 C 
BRANCH  21  22
ATOM     22  C   UNL     1      51.660  -5.855 -56.616  1.00  0.00    -0.000 C 
BRANCH  22  23
ATOM     23  C   UNL     1      51.178  -4.436 -56.983  1.00  0.00    -0.000 C 
BRANCH  23  24
ATOM     24  C   UNL     1      49.880  -4.457 -57.805  1.00  0.00    -0.000 C 
BRANCH  24  25
ATOM     25  C   UNL     1      48.956  -3.297 -57.401  1.00  0.00    -0.000 C 
BRANCH  25  26
ATOM     26  C   UNL     1      47.614  -3.776 -56.818  1.00  0.00    -0.000 C 
BRANCH  26  27
ATOM     27  C   UNL     1      47.177  -3.070 -55.519  1.00  0.00    -0.000 C 
BRANCH  27  28
ATOM     28  C   UNL     1      47.522  -3.821 -54.218  1.00  0.00    -0.000 C 
BRANCH  28  29
ATOM     29  C   UNL     1      46.443  -3.750 -53.124  1.00  0.00    -0.003 C 
ATOM     30  C   UNL     1      45.775  -5.100 -52.859  1.00  0.00     0.004 C 
ENDBRANCH  28  29
ENDBRANCH  27  28
ENDBRANCH  26  27
ENDBRANCH  25  26
ENDBRANCH  24  25
ENDBRANCH  23  24
ENDBRANCH  22  23
ENDBRANCH  21  22
ENDBRANCH  20  21
ENDBRANCH  19  20
ENDBRANCH  18  19
ENDBRANCH  17  18
ENDBRANCH   1  17
TORSDOF 26
ENDMDL
MODEL 5
REMARK VINA RESULT:    -4.113      4.051      9.651
REMARK INTER + INTRA:         -14.563
REMARK INTER:                 -10.598
REMARK INTRA:                  -3.965
REMARK UNBOUND:                -4.198
REMARK SMILES CCCCCCCCCCCCCCCCCCCCCCCCCCCC(=O)[O-]
REMARK SMILES IDX 15 1 16 2 17 3 18 4 19 5 20 6 21 7 22 8 23 9 24 10 25 11
REMARK SMILES IDX 26 12 27 13 28 14 29 15 30 16 14 17 13 18 12 19 11 20 10 21
REMARK SMILES IDX 9 22 8 23 7 24 6 25 5 26 4 27 3 28 2 29 1 30
REMARK H PARENT
REMARK Flexibility Score: inf
ROOT
ATOM      1  C   UNL     1      49.695  -8.327 -54.342  1.00  0.00     0.000 C 
ENDROOT
BRANCH   1   2
ATOM      2  C   UNL     1      49.392  -6.881 -53.897  1.00  0.00     0.000 C 
BRANCH   2   3
ATOM      3  C   UNL     1      50.469  -5.837 -54.258  1.00  0.00     0.000 C 
BRANCH   3   4
ATOM      4  C   UNL     1      51.428  -6.246 -55.391  1.00  0.00     0.000 C 
BRANCH   4   5
ATOM      5  C   UNL     1      51.164  -5.491 -56.706  1.00  0.00     0.000 C 
BRANCH   5   6
ATOM      6  C   UNL     1      50.128  -6.199 -57.594  1.00  0.00     0.000 C 
BRANCH   6   7
ATOM      7  C   UNL     1      48.934  -5.302 -57.956  1.00  0.00     0.000 C 
BRANCH   7   8
ATOM      8  C   UNL     1      48.823  -4.121 -56.984  1.00  0.00     0.000 C 
BRANCH   8   9
ATOM      9  C   UNL     1      47.659  -4.319 -56.005  1.00  0.00     0.000 C 
BRANCH   9  10
ATOM     10  C   UNL     1      47.784  -3.373 -54.800  1.00  0.00     0.000 C 
BRANCH  10  11
ATOM     11  C   UNL     1      46.699  -3.634 -53.735  1.00  0.00     0.000 C 
BRANCH  11  12
ATOM     12  C   UNL     1      46.233  -5.099 -53.672  1.00  0.00     0.006 C 
BRANCH  12  13
ATOM     13  C   UNL     1      44.861  -5.262 -53.009  1.00  0.00     0.053 C 
BRANCH  13  14
ATOM     14  C   UNL     1      44.915  -4.820 -51.580  1.00  0.00     0.041 C 
ATOM     15  O   UNL     1      44.296  -3.787 -51.213  1.00  0.00    -0.550 OA
ATOM     16  O   UNL     1      45.614  -5.575 -50.645  1.00  0.00    -0.550 OA
ENDBRANCH  13  14
ENDBRANCH  12  13
ENDBRANCH  11  12
ENDBRANCH  10  11
ENDBRANCH   9  10
ENDBRANCH   8   9
ENDBRANCH   7   8
ENDBRANCH   6   7
ENDBRANCH   5   6
ENDBRANCH   4   5
ENDBRANCH   3   4
ENDBRANCH   2   3
ENDBRANCH   1   2
BRANCH   1  17
ATOM     17  C   UNL     1      48.710  -8.912 -55.369  1.00  0.00     0.000 C 
BRANCH  17  18
ATOM     18  C   UNL     1      47.449  -8.051 -55.548  1.00  0.00     0.000 C 
BRANCH  18  19
ATOM     19  C   UNL     1      46.810  -8.239 -56.940  1.00  0.00     0.000 C 
BRANCH  19  20
ATOM     20  C   UNL     1      47.753  -8.868 -57.979  1.00  0.00     0.000 C 
BRANCH  20  21
ATOM     21  C   UNL     1      47.167 -10.125 -58.638  1.00  0.00     0.000 C 
BRANCH  21  22
ATOM     22  C   UNL     1      47.927 -11.409 -58.264  1.00  0.00    -0.000 C 
BRANCH  22  23
ATOM     23  C   UNL     1      47.252 -12.225 -57.141  1.00  0.00    -0.000 C 
BRANCH  23  24
ATOM     24  C   UNL     1      48.272 -13.001 -56.293  1.00  0.00    -0.000 C 
BRANCH  24  25
ATOM     25  C   UNL     1      47.593 -14.151 -55.535  1.00  0.00    -0.000 C 
BRANCH  25  26
ATOM     26  C   UNL     1      48.278 -15.510 -55.769  1.00  0.00    -0.000 C 
BRANCH  26  27
ATOM     27  C   UNL     1      47.590 -16.418 -56.808  1.00  0.00    -0.000 C 
BRANCH  27  28
ATOM     28  C   UNL     1      46.057 -16.518 -56.677  1.00  0.00    -0.000 C 
BRANCH  28  29
ATOM     29  C   UNL     1      45.361 -17.302 -57.803  1.00  0.00    -0.003 C 
ATOM     30  C   UNL     1      45.886 -18.731 -57.945  1.00  0.00     0.004 C 
ENDBRANCH  28  29
ENDBRANCH  27  28
ENDBRANCH  26  27
ENDBRANCH  25  26
ENDBRANCH  24  25
ENDBRANCH  23  24
ENDBRANCH  22  23
ENDBRANCH  21  22
ENDBRANCH  20  21
ENDBRANCH  19  20
ENDBRANCH  18  19
ENDBRANCH  17  18
ENDBRANCH   1  17
TORSDOF 26
ENDMDL
MODEL 6
REMARK VINA RESULT:    -4.109      3.581      8.521
REMARK INTER + INTRA:         -14.554
REMARK INTER:                 -10.659
REMARK INTRA:                  -3.895
REMARK UNBOUND:                -4.198
REMARK SMILES CCCCCCCCCCCCCCCCCCCCCCCCCCCC(=O)[O-]
REMARK SMILES IDX 15 1 16 2 17 3 18 4 19 5 20 6 21 7 22 8 23 9 24 10 25 11
REMARK SMILES IDX 26 12 27 13 28 14 29 15 30 16 14 17 13 18 12 19 11 20 10 21
REMARK SMILES IDX 9 22 8 23 7 24 6 25 5 26 4 27 3 28 2 29 1 30
REMARK H PARENT
REMARK Flexibility Score: inf
ROOT
ATOM      1  C   UNL     1      51.417  -4.726 -57.496  1.00  0.00     0.000 C 
ENDROOT
BRANCH   1   2
ATOM      2  C   UNL     1      52.311  -5.857 -56.946  1.00  0.00     0.000 C 
BRANCH   2   3
ATOM      3  C   UNL     1      52.157  -6.149 -55.439  1.00  0.00     0.000 C 
BRANCH   3   4
ATOM      4  C   UNL     1      50.720  -6.437 -54.969  1.00  0.00     0.000 C 
BRANCH   4   5
ATOM      5  C   UNL     1      50.068  -5.241 -54.254  1.00  0.00     0.000 C 
BRANCH   5   6
ATOM      6  C   UNL     1      48.584  -5.074 -54.620  1.00  0.00     0.000 C 
BRANCH   6   7
ATOM      7  C   UNL     1      48.292  -3.762 -55.364  1.00  0.00     0.000 C 
BRANCH   7   8
ATOM      8  C   UNL     1      46.870  -3.270 -55.068  1.00  0.00     0.000 C 
BRANCH   8   9
ATOM      9  C   UNL     1      46.592  -3.260 -53.560  1.00  0.00     0.000 C 
BRANCH   9  10
ATOM     10  C   UNL     1      45.320  -4.056 -53.229  1.00  0.00     0.000 C 
BRANCH  10  11
ATOM     11  C   UNL     1      45.034  -5.162 -54.265  1.00  0.00     0.000 C 
BRANCH  11  12
ATOM     12  C   UNL     1      45.121  -6.587 -53.691  1.00  0.00     0.006 C 
BRANCH  12  13
ATOM     13  C   UNL     1      43.829  -7.389 -53.884  1.00  0.00     0.053 C 
BRANCH  13  14
ATOM     14  C   UNL     1      43.292  -7.841 -52.563  1.00  0.00     0.041 C 
ATOM     15  O   UNL     1      43.177  -7.022 -51.613  1.00  0.00    -0.550 OA
ATOM     16  O   UNL     1      42.877  -9.156 -52.393  1.00  0.00    -0.550 OA
ENDBRANCH  13  14
ENDBRANCH  12  13
ENDBRANCH  11  12
ENDBRANCH  10  11
ENDBRANCH   9  10
ENDBRANCH   8   9
ENDBRANCH   7   8
ENDBRANCH   6   7
ENDBRANCH   5   6
ENDBRANCH   4   5
ENDBRANCH   3   4
ENDBRANCH   2   3
ENDBRANCH   1   2
BRANCH   1  17
ATOM     17  C   UNL     1      50.272  -5.190 -58.414  1.00  0.00     0.000 C 
BRANCH  17  18
ATOM     18  C   UNL     1      50.395  -6.667 -58.825  1.00  0.00     0.000 C 
BRANCH  18  19
ATOM     19  C   UNL     1      49.041  -7.406 -58.748  1.00  0.00     0.000 C 
BRANCH  19  20
ATOM     20  C   UNL     1      47.972  -6.664 -57.929  1.00  0.00     0.000 C 
BRANCH  20  21
ATOM     21  C   UNL     1      47.009  -7.612 -57.201  1.00  0.00     0.000 C 
BRANCH  21  22
ATOM     22  C   UNL     1      47.620  -8.230 -55.932  1.00  0.00    -0.000 C 
BRANCH  22  23
ATOM     23  C   UNL     1      48.036  -9.707 -56.099  1.00  0.00    -0.000 C 
BRANCH  23  24
ATOM     24  C   UNL     1      47.304 -10.388 -57.265  1.00  0.00    -0.000 C 
BRANCH  24  25
ATOM     25  C   UNL     1      47.715 -11.864 -57.384  1.00  0.00    -0.000 C 
BRANCH  25  26
ATOM     26  C   UNL     1      48.375 -12.406 -56.103  1.00  0.00    -0.000 C 
BRANCH  26  27
ATOM     27  C   UNL     1      48.809 -13.885 -56.168  1.00  0.00    -0.000 C 
BRANCH  27  28
ATOM     28  C   UNL     1      47.825 -14.885 -55.529  1.00  0.00    -0.000 C 
BRANCH  28  29
ATOM     29  C   UNL     1      47.229 -15.917 -56.501  1.00  0.00    -0.003 C 
ATOM     30  C   UNL     1      46.180 -15.316 -57.437  1.00  0.00     0.004 C 
ENDBRANCH  28  29
ENDBRANCH  27  28
ENDBRANCH  26  27
ENDBRANCH  25  26
ENDBRANCH  24  25
ENDBRANCH  23  24
ENDBRANCH  22  23
ENDBRANCH  21  22
ENDBRANCH  20  21
ENDBRANCH  19  20
ENDBRANCH  18  19
ENDBRANCH  17  18
ENDBRANCH   1  17
TORSDOF 26
ENDMDL
MODEL 7
REMARK VINA RESULT:    -4.089      1.543      3.018
REMARK INTER + INTRA:         -14.501
REMARK INTER:                 -10.652
REMARK INTRA:                  -3.849
REMARK UNBOUND:                -4.198
REMARK SMILES CCCCCCCCCCCCCCCCCCCCCCCCCCCC(=O)[O-]
REMARK SMILES IDX 15 1 16 2 17 3 18 4 19 5 20 6 21 7 22 8 23 9 24 10 25 11
REMARK SMILES IDX 26 12 27 13 28 14 29 15 30 16 14 17 13 18 12 19 11 20 10 21
REMARK SMILES IDX 9 22 8 23 7 24 6 25 5 26 4 27 3 28 2 29 1 30
REMARK H PARENT
REMARK Flexibility Score: inf
ROOT
ATOM      1  C   UNL     1      46.884  -8.250 -56.049  1.00  0.00     0.000 C 
ENDROOT
BRANCH   1   2
ATOM      2  C   UNL     1      46.481  -9.178 -57.214  1.00  0.00     0.000 C 
BRANCH   2   3
ATOM      3  C   UNL     1      47.614  -9.538 -58.197  1.00  0.00     0.000 C 
BRANCH   3   4
ATOM      4  C   UNL     1      47.821 -11.044 -58.438  1.00  0.00     0.000 C 
BRANCH   4   5
ATOM      5  C   UNL     1      47.326 -11.915 -57.271  1.00  0.00     0.000 C 
BRANCH   5   6
ATOM      6  C   UNL     1      48.399 -12.115 -56.188  1.00  0.00     0.000 C 
BRANCH   6   7
ATOM      7  C   UNL     1      48.968 -13.541 -56.162  1.00  0.00     0.000 C 
BRANCH   7   8
ATOM      8  C   UNL     1      47.933 -14.533 -55.618  1.00  0.00     0.000 C 
BRANCH   8   9
ATOM      9  C   UNL     1      47.951 -15.843 -56.417  1.00  0.00     0.000 C 
BRANCH   9  10
ATOM     10  C   UNL     1      46.731 -15.938 -57.347  1.00  0.00     0.000 C 
BRANCH  10  11
ATOM     11  C   UNL     1      45.417 -16.156 -56.568  1.00  0.00     0.000 C 
BRANCH  11  12
ATOM     12  C   UNL     1      44.993 -17.632 -56.468  1.00  0.00     0.006 C 
BRANCH  12  13
ATOM     13  C   UNL     1      45.167 -18.395 -57.785  1.00  0.00     0.053 C 
BRANCH  13  14
ATOM     14  C   UNL     1      45.787 -19.734 -57.535  1.00  0.00     0.041 C 
ATOM     15  O   UNL     1      46.401 -19.957 -56.458  1.00  0.00    -0.550 OA
ATOM     16  O   UNL     1      45.650 -20.750 -58.473  1.00  0.00    -0.550 OA
ENDBRANCH  13  14
ENDBRANCH  12  13
ENDBRANCH  11  12
ENDBRANCH  10  11
ENDBRANCH   9  10
ENDBRANCH   8   9
ENDBRANCH   7   8
ENDBRANCH   6   7
ENDBRANCH   5   6
ENDBRANCH   4   5
ENDBRANCH   3   4
ENDBRANCH   2   3
ENDBRANCH   1   2
BRANCH   1  17
ATOM     17  C   UNL     1      48.340  -8.396 -55.573  1.00  0.00     0.000 C 
BRANCH  17  18
ATOM     18  C   UNL     1      48.684  -7.462 -54.401  1.00  0.00     0.000 C 
BRANCH  18  19
ATOM     19  C   UNL     1      50.208  -7.327 -54.194  1.00  0.00     0.000 C 
BRANCH  19  20
ATOM     20  C   UNL     1      50.787  -5.991 -54.689  1.00  0.00     0.000 C 
BRANCH  20  21
ATOM     21  C   UNL     1      51.615  -6.136 -55.973  1.00  0.00     0.000 C 
BRANCH  21  22
ATOM     22  C   UNL     1      50.768  -6.013 -57.251  1.00  0.00    -0.000 C 
BRANCH  22  23
ATOM     23  C   UNL     1      49.804  -4.808 -57.242  1.00  0.00    -0.000 C 
BRANCH  23  24
ATOM     24  C   UNL     1      48.385  -5.196 -57.685  1.00  0.00    -0.000 C 
BRANCH  24  25
ATOM     25  C   UNL     1      47.344  -4.744 -56.650  1.00  0.00    -0.000 C 
BRANCH  25  26
ATOM     26  C   UNL     1      47.884  -3.670 -55.687  1.00  0.00    -0.000 C 
BRANCH  26  27
ATOM     27  C   UNL     1      47.567  -3.910 -54.197  1.00  0.00    -0.000 C 
BRANCH  27  28
ATOM     28  C   UNL     1      46.117  -4.335 -53.896  1.00  0.00    -0.000 C 
BRANCH  28  29
ATOM     29  C   UNL     1      45.979  -5.608 -53.044  1.00  0.00    -0.003 C 
ATOM     30  C   UNL     1      44.677  -6.365 -53.310  1.00  0.00     0.004 C 
ENDBRANCH  28  29
ENDBRANCH  27  28
ENDBRANCH  26  27
ENDBRANCH  25  26
ENDBRANCH  24  25
ENDBRANCH  23  24
ENDBRANCH  22  23
ENDBRANCH  21  22
ENDBRANCH  20  21
ENDBRANCH  19  20
ENDBRANCH  18  19
ENDBRANCH  17  18
ENDBRANCH   1  17
TORSDOF 26
ENDMDL
MODEL 8
REMARK VINA RESULT:    -4.067      1.952      3.897
REMARK INTER + INTRA:         -14.446
REMARK INTER:                 -10.612
REMARK INTRA:                  -3.833
REMARK UNBOUND:                -4.198
REMARK SMILES CCCCCCCCCCCCCCCCCCCCCCCCCCCC(=O)[O-]
REMARK SMILES IDX 15 1 16 2 17 3 18 4 19 5 20 6 21 7 22 8 23 9 24 10 25 11
REMARK SMILES IDX 26 12 27 13 28 14 29 15 30 16 14 17 13 18 12 19 11 20 10 21
REMARK SMILES IDX 9 22 8 23 7 24 6 25 5 26 4 27 3 28 2 29 1 30
REMARK H PARENT
REMARK Flexibility Score: inf
ROOT
ATOM      1  C   UNL     1      50.699  -5.881 -54.613  1.00  0.00     0.000 C 
ENDROOT
BRANCH   1   2
ATOM      2  C   UNL     1      50.051  -7.235 -54.259  1.00  0.00     0.000 C 
BRANCH   2   3
ATOM      3  C   UNL     1      48.509  -7.256 -54.273  1.00  0.00     0.000 C 
BRANCH   3   4
ATOM      4  C   UNL     1      47.874  -8.365 -55.131  1.00  0.00     0.000 C 
BRANCH   4   5
ATOM      5  C   UNL     1      47.275  -7.840 -56.448  1.00  0.00     0.000 C 
BRANCH   5   6
ATOM      6  C   UNL     1      47.945  -8.457 -57.687  1.00  0.00     0.000 C 
BRANCH   6   7
ATOM      7  C   UNL     1      47.007  -9.379 -58.480  1.00  0.00     0.000 C 
BRANCH   7   8
ATOM      8  C   UNL     1      46.330 -10.398 -57.555  1.00  0.00     0.000 C 
BRANCH   8   9
ATOM      9  C   UNL     1      47.093 -11.728 -57.547  1.00  0.00     0.000 C 
BRANCH   9  10
ATOM     10  C   UNL     1      48.162 -11.743 -56.442  1.00  0.00     0.000 C 
BRANCH  10  11
ATOM     11  C   UNL     1      48.642 -13.172 -56.110  1.00  0.00     0.000 C 
BRANCH  11  12
ATOM     12  C   UNL     1      47.498 -14.190 -55.961  1.00  0.00     0.006 C 
BRANCH  12  13
ATOM     13  C   UNL     1      47.997 -15.631 -55.809  1.00  0.00     0.053 C 
BRANCH  13  14
ATOM     14  C   UNL     1      47.171 -16.561 -56.642  1.00  0.00     0.041 C 
ATOM     15  O   UNL     1      47.623 -17.006 -57.730  1.00  0.00    -0.550 OA
ATOM     16  O   UNL     1      45.921 -16.970 -56.196  1.00  0.00    -0.550 OA
ENDBRANCH  13  14
ENDBRANCH  12  13
ENDBRANCH  11  12
ENDBRANCH  10  11
ENDBRANCH   9  10
ENDBRANCH   8   9
ENDBRANCH   7   8
ENDBRANCH   6   7
ENDBRANCH   5   6
ENDBRANCH   4   5
ENDBRANCH   3   4
ENDBRANCH   2   3
ENDBRANCH   1   2
BRANCH   1  17
ATOM     17  C   UNL     1      51.625  -5.903 -55.842  1.00  0.00     0.000 C 
BRANCH  17  18
ATOM     18  C   UNL     1      50.910  -6.369 -57.122  1.00  0.00     0.000 C 
BRANCH  18  19
ATOM     19  C   UNL     1      50.461  -5.183 -58.002  1.00  0.00     0.000 C 
BRANCH  19  20
ATOM     20  C   UNL     1      48.978  -4.813 -57.839  1.00  0.00     0.000 C 
BRANCH  20  21
ATOM     21  C   UNL     1      48.739  -3.755 -56.753  1.00  0.00     0.000 C 
BRANCH  21  22
ATOM     22  C   UNL     1      47.552  -4.094 -55.834  1.00  0.00    -0.000 C 
BRANCH  22  23
ATOM     23  C   UNL     1      47.411  -3.143 -54.627  1.00  0.00    -0.000 C 
BRANCH  23  24
ATOM     24  C   UNL     1      46.883  -3.864 -53.378  1.00  0.00    -0.000 C 
BRANCH  24  25
ATOM     25  C   UNL     1      45.788  -3.037 -52.688  1.00  0.00    -0.000 C 
BRANCH  25  26
ATOM     26  C   UNL     1      44.752  -3.908 -51.953  1.00  0.00    -0.000 C 
BRANCH  26  27
ATOM     27  C   UNL     1      45.145  -5.391 -51.788  1.00  0.00    -0.000 C 
BRANCH  27  28
ATOM     28  C   UNL     1      44.336  -6.382 -52.647  1.00  0.00    -0.000 C 
BRANCH  28  29
ATOM     29  C   UNL     1      44.777  -6.473 -54.118  1.00  0.00    -0.003 C 
ATOM     30  C   UNL     1      43.663  -6.101 -55.097  1.00  0.00     0.004 C 
ENDBRANCH  28  29
ENDBRANCH  27  28
ENDBRANCH  26  27
ENDBRANCH  25  26
ENDBRANCH  24  25
ENDBRANCH  23  24
ENDBRANCH  22  23
ENDBRANCH  21  22
ENDBRANCH  20  21
ENDBRANCH  19  20
ENDBRANCH  18  19
ENDBRANCH  17  18
ENDBRANCH   1  17
TORSDOF 26
ENDMDL
MODEL 9
REMARK VINA RESULT:    -4.055      2.879      6.134
REMARK INTER + INTRA:         -14.417
REMARK INTER:                  -8.491
REMARK INTRA:                  -5.926
REMARK UNBOUND:                -4.198
REMARK SMILES CCCCCCCCCCCCCCCCCCCCCCCCCCCC(=O)[O-]
REMARK SMILES IDX 15 1 16 2 17 3 18 4 19 5 20 6 21 7 22 8 23 9 24 10 25 11
REMARK SMILES IDX 26 12 27 13 28 14 29 15 30 16 14 17 13 18 12 19 11 20 10 21
REMARK SMILES IDX 9 22 8 23 7 24 6 25 5 26 4 27 3 28 2 29 1 30
REMARK H PARENT
REMARK Flexibility Score: inf
ROOT
ATOM      1  C   UNL     1      47.206  -6.922 -55.413  1.00  0.00     0.000 C 
ENDROOT
BRANCH   1   2
ATOM      2  C   UNL     1      48.227  -7.375 -54.349  1.00  0.00     0.000 C 
BRANCH   2   3
ATOM      3  C   UNL     1      49.694  -7.442 -54.824  1.00  0.00     0.000 C 
BRANCH   3   4
ATOM      4  C   UNL     1      50.555  -6.214 -54.472  1.00  0.00     0.000 C 
BRANCH   4   5
ATOM      5  C   UNL     1      51.767  -6.042 -55.404  1.00  0.00     0.000 C 
BRANCH   5   6
ATOM      6  C   UNL     1      51.401  -6.224 -56.886  1.00  0.00     0.000 C 
BRANCH   6   7
ATOM      7  C   UNL     1      50.614  -5.037 -57.461  1.00  0.00     0.000 C 
BRANCH   7   8
ATOM      8  C   UNL     1      49.752  -5.476 -58.650  1.00  0.00     0.000 C 
BRANCH   8   9
ATOM      9  C   UNL     1      49.792  -6.999 -58.828  1.00  0.00     0.000 C 
BRANCH   9  10
ATOM     10  C   UNL     1      48.372  -7.580 -58.924  1.00  0.00     0.000 C 
BRANCH  10  11
ATOM     11  C   UNL     1      48.360  -9.119 -58.805  1.00  0.00     0.000 C 
BRANCH  11  12
ATOM     12  C   UNL     1      47.236  -9.662 -57.905  1.00  0.00     0.006 C 
BRANCH  12  13
ATOM     13  C   UNL     1      47.762 -10.331 -56.631  1.00  0.00     0.053 C 
BRANCH  13  14
ATOM     14  C   UNL     1      47.765 -11.820 -56.785  1.00  0.00     0.041 C 
ATOM     15  O   UNL     1      46.918 -12.380 -57.531  1.00  0.00    -0.550 OA
ATOM     16  O   UNL     1      48.730 -12.584 -56.140  1.00  0.00    -0.550 OA
ENDBRANCH  13  14
ENDBRANCH  12  13
ENDBRANCH  11  12
ENDBRANCH  10  11
ENDBRANCH   9  10
ENDBRANCH   8   9
ENDBRANCH   7   8
ENDBRANCH   6   7
ENDBRANCH   5   6
ENDBRANCH   4   5
ENDBRANCH   3   4
ENDBRANCH   2   3
ENDBRANCH   1   2
BRANCH   1  17
ATOM     17  C   UNL     1      47.340  -5.456 -55.862  1.00  0.00     0.000 C 
BRANCH  17  18
ATOM     18  C   UNL     1      46.042  -4.894 -56.467  1.00  0.00     0.000 C 
BRANCH  18  19
ATOM     19  C   UNL     1      46.063  -4.918 -58.011  1.00  0.00     0.000 C 
BRANCH  19  20
ATOM     20  C   UNL     1      44.779  -5.481 -58.641  1.00  0.00     0.000 C 
BRANCH  20  21
ATOM     21  C   UNL     1      44.741  -7.016 -58.657  1.00  0.00     0.000 C 
BRANCH  21  22
ATOM     22  C   UNL     1      43.634  -7.599 -57.761  1.00  0.00    -0.000 C 
BRANCH  22  23
ATOM     23  C   UNL     1      44.145  -8.113 -56.399  1.00  0.00    -0.000 C 
BRANCH  23  24
ATOM     24  C   UNL     1      43.222  -7.704 -55.240  1.00  0.00    -0.000 C 
BRANCH  24  25
ATOM     25  C   UNL     1      43.030  -6.181 -55.203  1.00  0.00    -0.000 C 
BRANCH  25  26
ATOM     26  C   UNL     1      43.434  -5.559 -53.853  1.00  0.00    -0.000 C 
BRANCH  26  27
ATOM     27  C   UNL     1      44.464  -6.372 -53.042  1.00  0.00    -0.000 C 
BRANCH  27  28
ATOM     28  C   UNL     1      45.543  -5.534 -52.327  1.00  0.00    -0.000 C 
BRANCH  28  29
ATOM     29  C   UNL     1      45.266  -4.021 -52.288  1.00  0.00    -0.003 C 
ATOM     30  C   UNL     1      46.300  -3.208 -53.069  1.00  0.00     0.004 C 
ENDBRANCH  28  29
ENDBRANCH  27  28
ENDBRANCH  26  27
ENDBRANCH  25  26
ENDBRANCH  24  25
ENDBRANCH  23  24
ENDBRANCH  22  23
ENDBRANCH  21  22
ENDBRANCH  20  21
ENDBRANCH  19  20
ENDBRANCH  18  19
ENDBRANCH  17  18
ENDBRANCH   1  17
TORSDOF 26
ENDMDL
