MODEL 1
REMARK VINA RESULT:    -6.166      0.000      0.000
REMARK INTER + INTRA:          -9.745
REMARK INTER:                  -8.148
REMARK INTRA:                  -1.596
REMARK UNBOUND:                -1.596
REMARK SMILES CC(C)=CCC[C@@H](C(=O)[O-])[C@@H]1CC[C@@]2(C)C3=C(CC[C@]12C)[C@]1(C)CC[C@@H](O)C(C)(C)[C@H]1CC3
REMARK SMILES IDX 6 1 7 2 8 3 9 4 10 5 11 6 12 7 20 8 13 9 14 10 19 11 21 12
REMARK SMILES IDX 15 13 16 14 18 15 17 16 33 17 22 18 32 19 31 20 24 21 23 22
REMARK SMILES IDX 28 23 25 24 26 25 29 26 30 27 27 28 5 30 4 31 2 32 1 33 3 34
REMARK H PARENT 27 29
REMARK Flexibility Score: inf
ROOT
ATOM      1  C   UNL     1       7.259 -24.944   1.988  1.00  0.00     0.014 C 
ENDROOT
BRANCH   1   2
ATOM      2  C   UNL     1       6.861 -26.425   1.731  1.00  0.00     0.039 C 
BRANCH   2   3
ATOM      3  C   UNL     1       7.484 -26.948   0.457  1.00  0.00     0.045 C 
ATOM      4  O   UNL     1       8.603 -26.508   0.079  1.00  0.00    -0.550 OA
ATOM      5  O   UNL     1       6.875 -27.952  -0.286  1.00  0.00    -0.550 OA
ENDBRANCH   2   3
BRANCH   2   6
ATOM      6  C   UNL     1       6.972 -27.346   3.005  1.00  0.00     0.004 C 
ATOM      7  C   UNL     1       7.754 -28.680   2.871  1.00  0.00     0.006 C 
ATOM      8  C   UNL     1       5.641 -27.735   3.752  1.00  0.00    -0.020 C 
ATOM      9  C   UNL     1       6.946 -29.755   3.614  1.00  0.00     0.012 C 
ATOM     10  C   UNL     1       5.493 -29.267   3.517  1.00  0.00    -0.006 C 
ATOM     11  C   UNL     1       4.311 -27.074   3.334  1.00  0.00     0.012 C 
ATOM     12  C   UNL     1       5.868 -27.380   5.270  1.00  0.00     0.012 C 
ATOM     13  C   UNL     1       4.963 -29.694   2.110  1.00  0.00     0.017 C 
ATOM     14  C   UNL     1       4.478 -29.827   4.500  1.00  0.00    -0.064 C 
ATOM     15  C   UNL     1       3.088 -27.742   4.034  1.00  0.00     0.032 C 
ATOM     16  C   UNL     1       3.298 -29.139   4.679  1.00  0.00    -0.064 C 
ATOM     17  C   UNL     1       4.816 -31.106   5.250  1.00  0.00     0.032 C 
ATOM     18  C   UNL     1       2.106 -29.818   5.392  1.00  0.00    -0.008 C 
ATOM     19  C   UNL     1       3.623 -31.804   5.902  1.00  0.00     0.009 C 
ATOM     20  C   UNL     1       2.660 -30.768   6.517  1.00  0.00     0.007 C 
ATOM     21  C   UNL     1       1.184 -28.756   6.057  1.00  0.00     0.014 C 
ATOM     22  C   UNL     1       1.322 -30.549   4.268  1.00  0.00     0.016 C 
ATOM     23  C   UNL     1       1.611 -31.362   7.548  1.00  0.00    -0.006 C 
ATOM     24  C   UNL     1       0.088 -29.373   6.928  1.00  0.00     0.033 C 
ATOM     25  C   UNL     1       0.687 -30.214   8.065  1.00  0.00     0.120 C 
ATOM     26  C   UNL     1       0.764 -32.535   6.978  1.00  0.00     0.014 C 
ATOM     27  C   UNL     1       2.375 -31.918   8.785  1.00  0.00     0.014 C 
BRANCH  25  28
ATOM     28  O   UNL     1      -0.353 -30.738   8.855  1.00  0.00    -0.393 OA
ATOM     29  H   UNL     1      -0.370 -31.718   8.700  1.00  0.00     0.210 HD
ENDBRANCH  25  28
ENDBRANCH   2   6
ENDBRANCH   1   2
BRANCH   1  30
ATOM     30  C   UNL     1       6.142 -24.016   2.518  1.00  0.00     0.028 C 
BRANCH  30  31
ATOM     31  C   UNL     1       6.153 -23.916   4.025  1.00  0.00    -0.028 C 
ATOM     32  C   UNL     1       5.153 -23.378   4.758  1.00  0.00    -0.080 C 
ATOM     33  C   UNL     1       5.271 -23.320   6.260  1.00  0.00     0.039 C 
ATOM     34  C   UNL     1       3.875 -22.882   4.125  1.00  0.00     0.039 C 
ENDBRANCH  30  31
ENDBRANCH   1  30
TORSDOF 6
ENDMDL
MODEL 2
REMARK VINA RESULT:    -6.144      2.084      3.088
REMARK INTER + INTRA:          -9.716
REMARK INTER:                  -8.436
REMARK INTRA:                  -1.280
REMARK UNBOUND:                -1.596
REMARK SMILES CC(C)=CCC[C@@H](C(=O)[O-])[C@@H]1CC[C@@]2(C)C3=C(CC[C@]12C)[C@]1(C)CC[C@@H](O)C(C)(C)[C@H]1CC3
REMARK SMILES IDX 6 1 7 2 8 3 9 4 10 5 11 6 12 7 20 8 13 9 14 10 19 11 21 12
REMARK SMILES IDX 15 13 16 14 18 15 17 16 33 17 22 18 32 19 31 20 24 21 23 22
REMARK SMILES IDX 28 23 25 24 26 25 29 26 30 27 27 28 5 30 4 31 2 32 1 33 3 34
REMARK H PARENT 27 29
REMARK Flexibility Score: inf
ROOT
ATOM      1  C   UNL     1       5.842 -23.079   5.157  1.00  0.00     0.014 C 
ENDROOT
BRANCH   1   2
ATOM      2  C   UNL     1       5.139 -24.134   4.258  1.00  0.00     0.039 C 
BRANCH   2   3
ATOM      3  C   UNL     1       5.026 -23.649   2.830  1.00  0.00     0.045 C 
ATOM      4  O   UNL     1       3.911 -23.267   2.384  1.00  0.00    -0.550 OA
ATOM      5  O   UNL     1       6.141 -23.562   2.006  1.00  0.00    -0.550 OA
ENDBRANCH   2   3
BRANCH   2   6
ATOM      6  C   UNL     1       5.666 -25.605   4.468  1.00  0.00     0.004 C 
ATOM      7  C   UNL     1       6.053 -26.424   3.208  1.00  0.00     0.006 C 
ATOM      8  C   UNL     1       4.787 -26.586   5.331  1.00  0.00    -0.020 C 
ATOM      9  C   UNL     1       5.508 -27.846   3.409  1.00  0.00     0.012 C 
ATOM     10  C   UNL     1       4.285 -27.656   4.317  1.00  0.00    -0.006 C 
ATOM     11  C   UNL     1       3.551 -26.044   6.078  1.00  0.00     0.012 C 
ATOM     12  C   UNL     1       5.747 -27.196   6.420  1.00  0.00     0.012 C 
ATOM     13  C   UNL     1       3.099 -27.221   3.395  1.00  0.00     0.017 C 
ATOM     14  C   UNL     1       3.760 -28.860   5.081  1.00  0.00    -0.064 C 
ATOM     15  C   UNL     1       2.696 -27.196   6.692  1.00  0.00     0.032 C 
ATOM     16  C   UNL     1       2.936 -28.636   6.161  1.00  0.00    -0.064 C 
ATOM     17  C   UNL     1       4.179 -30.251   4.631  1.00  0.00     0.032 C 
ATOM     18  C   UNL     1       2.112 -29.798   6.762  1.00  0.00    -0.008 C 
ATOM     19  C   UNL     1       3.323 -31.391   5.181  1.00  0.00     0.009 C 
ATOM     20  C   UNL     1       2.950 -31.125   6.653  1.00  0.00     0.007 C 
ATOM     21  C   UNL     1       1.801 -29.536   8.263  1.00  0.00     0.014 C 
ATOM     22  C   UNL     1       0.783 -29.813   5.956  1.00  0.00     0.016 C 
ATOM     23  C   UNL     1       2.411 -32.391   7.444  1.00  0.00    -0.006 C 
ATOM     24  C   UNL     1       1.144 -30.730   8.959  1.00  0.00     0.033 C 
ATOM     25  C   UNL     1       2.045 -31.972   8.903  1.00  0.00     0.120 C 
ATOM     26  C   UNL     1       1.208 -33.097   6.756  1.00  0.00     0.014 C 
ATOM     27  C   UNL     1       3.552 -33.445   7.549  1.00  0.00     0.014 C 
BRANCH  25  28
ATOM     28  O   UNL     1       1.416 -33.035   9.576  1.00  0.00    -0.393 OA
ATOM     29  H   UNL     1       0.438 -32.875   9.522  1.00  0.00     0.210 HD
ENDBRANCH  25  28
ENDBRANCH   2   6
ENDBRANCH   1   2
BRANCH   1  30
ATOM     30  C   UNL     1       6.358 -23.580   6.527  1.00  0.00     0.028 C 
BRANCH  30  31
ATOM     31  C   UNL     1       5.767 -22.798   7.676  1.00  0.00    -0.028 C 
ATOM     32  C   UNL     1       5.299 -23.359   8.814  1.00  0.00    -0.080 C 
ATOM     33  C   UNL     1       4.721 -22.485   9.898  1.00  0.00     0.039 C 
ATOM     34  C   UNL     1       5.391 -24.844   9.071  1.00  0.00     0.039 C 
ENDBRANCH  30  31
ENDBRANCH   1  30
TORSDOF 6
ENDMDL
MODEL 3
REMARK VINA RESULT:    -6.049      1.643      2.290
REMARK INTER + INTRA:          -9.590
REMARK INTER:                  -7.731
REMARK INTRA:                  -1.859
REMARK UNBOUND:                -1.596
REMARK SMILES CC(C)=CCC[C@@H](C(=O)[O-])[C@@H]1CC[C@@]2(C)C3=C(CC[C@]12C)[C@]1(C)CC[C@@H](O)C(C)(C)[C@H]1CC3
REMARK SMILES IDX 6 1 7 2 8 3 9 4 10 5 11 6 12 7 20 8 13 9 14 10 19 11 21 12
REMARK SMILES IDX 15 13 16 14 18 15 17 16 33 17 22 18 32 19 31 20 24 21 23 22
REMARK SMILES IDX 28 23 25 24 26 25 29 26 30 27 27 28 5 30 4 31 2 32 1 33 3 34
REMARK H PARENT 27 29
REMARK Flexibility Score: inf
ROOT
ATOM      1  C   UNL     1       7.644 -27.783   0.887  1.00  0.00     0.014 C 
ENDROOT
BRANCH   1   2
ATOM      2  C   UNL     1       6.545 -28.854   1.131  1.00  0.00     0.039 C 
BRANCH   2   3
ATOM      3  C   UNL     1       6.484 -29.847  -0.007  1.00  0.00     0.045 C 
ATOM      4  O   UNL     1       5.366 -30.235  -0.442  1.00  0.00    -0.550 OA
ATOM      5  O   UNL     1       7.638 -30.304  -0.629  1.00  0.00    -0.550 OA
ENDBRANCH   2   3
BRANCH   2   6
ATOM      6  C   UNL     1       6.544 -29.448   2.592  1.00  0.00     0.004 C 
ATOM      7  C   UNL     1       6.647 -30.989   2.748  1.00  0.00     0.006 C 
ATOM      8  C   UNL     1       5.378 -29.022   3.561  1.00  0.00    -0.020 C 
ATOM      9  C   UNL     1       5.654 -31.398   3.847  1.00  0.00     0.012 C 
ATOM     10  C   UNL     1       4.556 -30.326   3.781  1.00  0.00    -0.006 C 
ATOM     11  C   UNL     1       4.389 -27.922   3.125  1.00  0.00     0.012 C 
ATOM     12  C   UNL     1       6.067 -28.517   4.884  1.00  0.00     0.012 C 
ATOM     13  C   UNL     1       3.595 -30.732   2.617  1.00  0.00     0.017 C 
ATOM     14  C   UNL     1       3.650 -30.146   4.987  1.00  0.00    -0.064 C 
ATOM     15  C   UNL     1       3.191 -27.796   4.116  1.00  0.00     0.032 C 
ATOM     16  C   UNL     1       2.938 -28.973   5.098  1.00  0.00    -0.064 C 
ATOM     17  C   UNL     1       3.583 -31.258   6.023  1.00  0.00     0.032 C 
ATOM     18  C   UNL     1       1.766 -28.868   6.100  1.00  0.00    -0.008 C 
ATOM     19  C   UNL     1       2.388 -31.183   6.972  1.00  0.00     0.009 C 
ATOM     20  C   UNL     1       2.111 -29.720   7.377  1.00  0.00     0.007 C 
ATOM     21  C   UNL     1       1.546 -27.393   6.540  1.00  0.00     0.014 C 
ATOM     22  C   UNL     1       0.518 -29.364   5.319  1.00  0.00     0.016 C 
ATOM     23  C   UNL     1       1.171 -29.545   8.643  1.00  0.00    -0.006 C 
ATOM     24  C   UNL     1       0.520 -27.247   7.666  1.00  0.00     0.033 C 
ATOM     25  C   UNL     1       0.952 -28.024   8.918  1.00  0.00     0.120 C 
ATOM     26  C   UNL     1      -0.192 -30.283   8.521  1.00  0.00     0.014 C 
ATOM     27  C   UNL     1       1.890 -30.132   9.893  1.00  0.00     0.014 C 
BRANCH  25  28
ATOM     28  O   UNL     1      -0.004 -27.840   9.933  1.00  0.00    -0.393 OA
ATOM     29  H   UNL     1       0.282 -28.394  10.705  1.00  0.00     0.210 HD
ENDBRANCH  25  28
ENDBRANCH   2   6
ENDBRANCH   1   2
BRANCH   1  30
ATOM     30  C   UNL     1       7.195 -26.306   0.985  1.00  0.00     0.028 C 
BRANCH  30  31
ATOM     31  C   UNL     1       7.314 -25.768   2.391  1.00  0.00    -0.028 C 
ATOM     32  C   UNL     1       6.423 -24.923   2.959  1.00  0.00    -0.080 C 
ATOM     33  C   UNL     1       6.643 -24.440   4.369  1.00  0.00     0.039 C 
ATOM     34  C   UNL     1       5.166 -24.489   2.245  1.00  0.00     0.039 C 
ENDBRANCH  30  31
ENDBRANCH   1  30
TORSDOF 6
ENDMDL
MODEL 4
REMARK VINA RESULT:    -6.024      2.685      8.490
REMARK INTER + INTRA:          -9.557
REMARK INTER:                  -8.146
REMARK INTRA:                  -1.412
REMARK UNBOUND:                -1.596
REMARK SMILES CC(C)=CCC[C@@H](C(=O)[O-])[C@@H]1CC[C@@]2(C)C3=C(CC[C@]12C)[C@]1(C)CC[C@@H](O)C(C)(C)[C@H]1CC3
REMARK SMILES IDX 6 1 7 2 8 3 9 4 10 5 11 6 12 7 20 8 13 9 14 10 19 11 21 12
REMARK SMILES IDX 15 13 16 14 18 15 17 16 33 17 22 18 32 19 31 20 24 21 23 22
REMARK SMILES IDX 28 23 25 24 26 25 29 26 30 27 27 28 5 30 4 31 2 32 1 33 3 34
REMARK H PARENT 27 29
REMARK Flexibility Score: inf
ROOT
ATOM      1  C   UNL     1      -1.257 -28.741   9.872  1.00  0.00     0.014 C 
ENDROOT
BRANCH   1   2
ATOM      2  C   UNL     1      -0.163 -29.324   8.934  1.00  0.00     0.039 C 
BRANCH   2   3
ATOM      3  C   UNL     1      -0.179 -30.836   8.944  1.00  0.00     0.045 C 
ATOM      4  O   UNL     1       0.905 -31.474   9.011  1.00  0.00    -0.550 OA
ATOM      5  O   UNL     1      -1.373 -31.545   8.939  1.00  0.00    -0.550 OA
ENDBRANCH   2   3
BRANCH   2   6
ATOM      6  C   UNL     1      -0.094 -28.625   7.522  1.00  0.00     0.004 C 
ATOM      7  C   UNL     1      -0.225 -29.521   6.262  1.00  0.00     0.006 C 
ATOM      8  C   UNL     1       1.136 -27.687   7.223  1.00  0.00    -0.020 C 
ATOM      9  C   UNL     1       0.819 -29.029   5.247  1.00  0.00     0.012 C 
ATOM     10  C   UNL     1       1.937 -28.434   6.116  1.00  0.00    -0.006 C 
ATOM     11  C   UNL     1       2.125 -27.344   8.356  1.00  0.00     0.012 C 
ATOM     12  C   UNL     1       0.536 -26.324   6.713  1.00  0.00     0.012 C 
ATOM     13  C   UNL     1       2.820 -29.629   6.601  1.00  0.00     0.017 C 
ATOM     14  C   UNL     1       2.915 -27.466   5.471  1.00  0.00    -0.064 C 
ATOM     15  C   UNL     1       3.380 -26.590   7.818  1.00  0.00     0.032 C 
ATOM     16  C   UNL     1       3.660 -26.649   6.291  1.00  0.00    -0.064 C 
ATOM     17  C   UNL     1       3.014 -27.432   3.953  1.00  0.00     0.032 C 
ATOM     18  C   UNL     1       4.889 -25.899   5.729  1.00  0.00    -0.008 C 
ATOM     19  C   UNL     1       4.263 -26.742   3.405  1.00  0.00     0.009 C 
ATOM     20  C   UNL     1       4.598 -25.489   4.239  1.00  0.00     0.007 C 
ATOM     21  C   UNL     1       5.170 -24.607   6.548  1.00  0.00     0.014 C 
ATOM     22  C   UNL     1       6.079 -26.885   5.899  1.00  0.00     0.016 C 
ATOM     23  C   UNL     1       5.612 -24.482   3.551  1.00  0.00    -0.006 C 
ATOM     24  C   UNL     1       6.262 -23.730   5.933  1.00  0.00     0.033 C 
ATOM     25  C   UNL     1       5.884 -23.283   4.514  1.00  0.00     0.120 C 
ATOM     26  C   UNL     1       6.948 -25.141   3.105  1.00  0.00     0.014 C 
ATOM     27  C   UNL     1       4.952 -23.893   2.270  1.00  0.00     0.014 C 
BRANCH  25  28
ATOM     28  O   UNL     1       6.900 -22.458   3.998  1.00  0.00    -0.393 OA
ATOM     29  H   UNL     1       7.444 -23.017   3.384  1.00  0.00     0.210 HD
ENDBRANCH  25  28
ENDBRANCH   2   6
ENDBRANCH   1   2
BRANCH   1  30
ATOM     30  C   UNL     1      -1.542 -27.227   9.734  1.00  0.00     0.028 C 
BRANCH  30  31
ATOM     31  C   UNL     1      -2.924 -26.957   9.188  1.00  0.00    -0.028 C 
ATOM     32  C   UNL     1      -3.273 -25.829   8.529  1.00  0.00    -0.080 C 
ATOM     33  C   UNL     1      -4.685 -25.658   8.032  1.00  0.00     0.039 C 
ATOM     34  C   UNL     1      -2.270 -24.746   8.211  1.00  0.00     0.039 C 
ENDBRANCH  30  31
ENDBRANCH   1  30
TORSDOF 6
ENDMDL
MODEL 5
REMARK VINA RESULT:    -5.985      2.394      6.832
REMARK INTER + INTRA:          -9.506
REMARK INTER:                  -7.691
REMARK INTRA:                  -1.815
REMARK UNBOUND:                -1.596
REMARK SMILES CC(C)=CCC[C@@H](C(=O)[O-])[C@@H]1CC[C@@]2(C)C3=C(CC[C@]12C)[C@]1(C)CC[C@@H](O)C(C)(C)[C@H]1CC3
REMARK SMILES IDX 6 1 7 2 8 3 9 4 10 5 11 6 12 7 20 8 13 9 14 10 19 11 21 12
REMARK SMILES IDX 15 13 16 14 18 15 17 16 33 17 22 18 32 19 31 20 24 21 23 22
REMARK SMILES IDX 28 23 25 24 26 25 29 26 30 27 27 28 5 30 4 31 2 32 1 33 3 34
REMARK H PARENT 27 29
REMARK Flexibility Score: inf
ROOT
ATOM      1  C   UNL     1       2.926 -25.840   7.224  1.00  0.00     0.014 C 
ENDROOT
BRANCH   1   2
ATOM      2  C   UNL     1       2.799 -27.367   6.960  1.00  0.00     0.039 C 
BRANCH   2   3
ATOM      3  C   UNL     1       1.954 -28.039   8.018  1.00  0.00     0.045 C 
ATOM      4  O   UNL     1       2.305 -29.155   8.485  1.00  0.00    -0.550 OA
ATOM      5  O   UNL     1       0.821 -27.424   8.535  1.00  0.00    -0.550 OA
ENDBRANCH   2   3
BRANCH   2   6
ATOM      6  C   UNL     1       2.479 -27.731   5.460  1.00  0.00     0.004 C 
ATOM      7  C   UNL     1       1.273 -28.668   5.182  1.00  0.00     0.006 C 
ATOM      8  C   UNL     1       3.647 -28.307   4.575  1.00  0.00    -0.020 C 
ATOM      9  C   UNL     1       1.714 -29.663   4.097  1.00  0.00     0.012 C 
ATOM     10  C   UNL     1       3.233 -29.781   4.290  1.00  0.00    -0.006 C 
ATOM     11  C   UNL     1       5.085 -28.332   5.134  1.00  0.00     0.012 C 
ATOM     12  C   UNL     1       3.682 -27.431   3.267  1.00  0.00     0.012 C 
ATOM     13  C   UNL     1       3.465 -30.793   5.459  1.00  0.00     0.017 C 
ATOM     14  C   UNL     1       4.067 -30.319   3.139  1.00  0.00    -0.064 C 
ATOM     15  C   UNL     1       6.052 -29.129   4.206  1.00  0.00     0.032 C 
ATOM     16  C   UNL     1       5.422 -30.077   3.148  1.00  0.00    -0.064 C 
ATOM     17  C   UNL     1       3.367 -31.084   2.027  1.00  0.00     0.032 C 
ATOM     18  C   UNL     1       6.357 -30.869   2.206  1.00  0.00    -0.008 C 
ATOM     19  C   UNL     1       4.292 -31.913   1.136  1.00  0.00     0.009 C 
ATOM     20  C   UNL     1       5.601 -31.148   0.855  1.00  0.00     0.007 C 
ATOM     21  C   UNL     1       7.642 -30.051   1.889  1.00  0.00     0.014 C 
ATOM     22  C   UNL     1       6.744 -32.148   2.998  1.00  0.00     0.016 C 
ATOM     23  C   UNL     1       6.458 -31.714  -0.354  1.00  0.00    -0.006 C 
ATOM     24  C   UNL     1       8.523 -30.704   0.821  1.00  0.00     0.033 C 
ATOM     25  C   UNL     1       7.763 -30.869  -0.503  1.00  0.00     0.120 C 
ATOM     26  C   UNL     1       6.795 -33.227  -0.232  1.00  0.00     0.014 C 
ATOM     27  C   UNL     1       5.652 -31.537  -1.674  1.00  0.00     0.014 C 
BRANCH  25  28
ATOM     28  O   UNL     1       8.616 -31.446  -1.461  1.00  0.00    -0.393 OA
ATOM     29  H   UNL     1       9.487 -31.607  -1.015  1.00  0.00     0.210 HD
ENDBRANCH  25  28
ENDBRANCH   2   6
ENDBRANCH   1   2
BRANCH   1  30
ATOM     30  C   UNL     1       4.182 -25.147   6.646  1.00  0.00     0.028 C 
BRANCH  30  31
ATOM     31  C   UNL     1       3.861 -24.317   5.425  1.00  0.00    -0.028 C 
ATOM     32  C   UNL     1       4.712 -24.125   4.392  1.00  0.00    -0.080 C 
ATOM     33  C   UNL     1       4.293 -23.269   3.225  1.00  0.00     0.039 C 
ATOM     34  C   UNL     1       6.063 -24.798   4.334  1.00  0.00     0.039 C 
ENDBRANCH  30  31
ENDBRANCH   1  30
TORSDOF 6
ENDMDL
MODEL 6
REMARK VINA RESULT:    -5.980      3.114      7.243
REMARK INTER + INTRA:          -9.500
REMARK INTER:                  -7.901
REMARK INTRA:                  -1.598
REMARK UNBOUND:                -1.596
REMARK SMILES CC(C)=CCC[C@@H](C(=O)[O-])[C@@H]1CC[C@@]2(C)C3=C(CC[C@]12C)[C@]1(C)CC[C@@H](O)C(C)(C)[C@H]1CC3
REMARK SMILES IDX 6 1 7 2 8 3 9 4 10 5 11 6 12 7 20 8 13 9 14 10 19 11 21 12
REMARK SMILES IDX 15 13 16 14 18 15 17 16 33 17 22 18 32 19 31 20 24 21 23 22
REMARK SMILES IDX 28 23 25 24 26 25 29 26 30 27 27 28 5 30 4 31 2 32 1 33 3 34
REMARK H PARENT 27 29
REMARK Flexibility Score: inf
ROOT
ATOM      1  C   UNL     1       7.153 -32.938   2.316  1.00  0.00     0.014 C 
ENDROOT
BRANCH   1   2
ATOM      2  C   UNL     1       5.852 -32.108   2.503  1.00  0.00     0.039 C 
BRANCH   2   3
ATOM      3  C   UNL     1       4.627 -32.923   2.155  1.00  0.00     0.045 C 
ATOM      4  O   UNL     1       4.542 -34.121   2.535  1.00  0.00    -0.550 OA
ATOM      5  O   UNL     1       3.557 -32.361   1.469  1.00  0.00    -0.550 OA
ENDBRANCH   2   3
BRANCH   2   6
ATOM      6  C   UNL     1       5.803 -31.294   3.852  1.00  0.00     0.004 C 
ATOM      7  C   UNL     1       4.528 -31.417   4.729  1.00  0.00     0.006 C 
ATOM      8  C   UNL     1       6.101 -29.748   3.792  1.00  0.00    -0.020 C 
ATOM      9  C   UNL     1       4.189 -30.007   5.235  1.00  0.00     0.012 C 
ATOM     10  C   UNL     1       4.744 -29.074   4.148  1.00  0.00    -0.006 C 
ATOM     11  C   UNL     1       6.597 -29.119   2.474  1.00  0.00     0.012 C 
ATOM     12  C   UNL     1       7.211 -29.471   4.874  1.00  0.00     0.012 C 
ATOM     13  C   UNL     1       3.681 -29.031   3.002  1.00  0.00     0.017 C 
ATOM     14  C   UNL     1       4.989 -27.617   4.504  1.00  0.00    -0.064 C 
ATOM     15  C   UNL     1       6.626 -27.562   2.552  1.00  0.00     0.032 C 
ATOM     16  C   UNL     1       5.821 -26.880   3.692  1.00  0.00    -0.064 C 
ATOM     17  C   UNL     1       4.322 -27.047   5.746  1.00  0.00     0.032 C 
ATOM     18  C   UNL     1       5.844 -25.338   3.801  1.00  0.00    -0.008 C 
ATOM     19  C   UNL     1       4.294 -25.520   5.818  1.00  0.00     0.009 C 
ATOM     20  C   UNL     1       5.623 -24.931   5.304  1.00  0.00     0.007 C 
ATOM     21  C   UNL     1       7.216 -24.772   3.336  1.00  0.00     0.014 C 
ATOM     22  C   UNL     1       4.730 -24.845   2.836  1.00  0.00     0.016 C 
ATOM     23  C   UNL     1       5.873 -23.413   5.690  1.00  0.00    -0.006 C 
ATOM     24  C   UNL     1       7.364 -23.270   3.589  1.00  0.00     0.033 C 
ATOM     25  C   UNL     1       7.232 -22.941   5.083  1.00  0.00     0.120 C 
ATOM     26  C   UNL     1       4.721 -22.458   5.265  1.00  0.00     0.014 C 
ATOM     27  C   UNL     1       6.005 -23.297   7.237  1.00  0.00     0.014 C 
BRANCH  25  28
ATOM     28  O   UNL     1       7.402 -21.557   5.272  1.00  0.00    -0.393 OA
ATOM     29  H   UNL     1       8.244 -21.435   5.783  1.00  0.00     0.210 HD
ENDBRANCH  25  28
ENDBRANCH   2   6
ENDBRANCH   1   2
BRANCH   1  30
ATOM     30  C   UNL     1       7.676 -33.074   0.866  1.00  0.00     0.028 C 
BRANCH  30  31
ATOM     31  C   UNL     1       8.276 -31.784   0.356  1.00  0.00    -0.028 C 
ATOM     32  C   UNL     1       7.672 -30.968  -0.537  1.00  0.00    -0.080 C 
ATOM     33  C   UNL     1       8.364 -29.706  -0.986  1.00  0.00     0.039 C 
ATOM     34  C   UNL     1       6.284 -31.245  -1.063  1.00  0.00     0.039 C 
ENDBRANCH  30  31
ENDBRANCH   1  30
TORSDOF 6
ENDMDL
MODEL 7
REMARK VINA RESULT:    -5.975      2.577      7.881
REMARK INTER + INTRA:          -9.492
REMARK INTER:                  -8.039
REMARK INTRA:                  -1.453
REMARK UNBOUND:                -1.596
REMARK SMILES CC(C)=CCC[C@@H](C(=O)[O-])[C@@H]1CC[C@@]2(C)C3=C(CC[C@]12C)[C@]1(C)CC[C@@H](O)C(C)(C)[C@H]1CC3
REMARK SMILES IDX 6 1 7 2 8 3 9 4 10 5 11 6 12 7 20 8 13 9 14 10 19 11 21 12
REMARK SMILES IDX 15 13 16 14 18 15 17 16 33 17 22 18 32 19 31 20 24 21 23 22
REMARK SMILES IDX 28 23 25 24 26 25 29 26 30 27 27 28 5 30 4 31 2 32 1 33 3 34
REMARK H PARENT 27 29
REMARK Flexibility Score: inf
ROOT
ATOM      1  C   UNL     1      -0.708 -31.730   6.378  1.00  0.00     0.014 C 
ENDROOT
BRANCH   1   2
ATOM      2  C   UNL     1       0.777 -31.866   5.940  1.00  0.00     0.039 C 
BRANCH   2   3
ATOM      3  C   UNL     1       1.206 -33.316   5.896  1.00  0.00     0.045 C 
ATOM      4  O   UNL     1       0.641 -34.113   5.101  1.00  0.00    -0.550 OA
ATOM      5  O   UNL     1       2.255 -33.782   6.678  1.00  0.00    -0.550 OA
ENDBRANCH   2   3
BRANCH   2   6
ATOM      6  C   UNL     1       1.160 -30.975   4.697  1.00  0.00     0.004 C 
ATOM      7  C   UNL     1       2.072 -31.602   3.608  1.00  0.00     0.006 C 
ATOM      8  C   UNL     1       1.782 -29.554   4.972  1.00  0.00    -0.020 C 
ATOM      9  C   UNL     1       3.097 -30.531   3.206  1.00  0.00     0.012 C 
ATOM     10  C   UNL     1       3.250 -29.664   4.464  1.00  0.00    -0.006 C 
ATOM     11  C   UNL     1       1.832 -29.011   6.415  1.00  0.00     0.012 C 
ATOM     12  C   UNL     1       0.931 -28.531   4.130  1.00  0.00     0.012 C 
ATOM     13  C   UNL     1       4.246 -30.409   5.411  1.00  0.00     0.017 C 
ATOM     14  C   UNL     1       3.830 -28.268   4.312  1.00  0.00    -0.064 C 
ATOM     15  C   UNL     1       2.671 -27.700   6.509  1.00  0.00     0.032 C 
ATOM     16  C   UNL     1       3.622 -27.362   5.328  1.00  0.00    -0.064 C 
ATOM     17  C   UNL     1       4.597 -27.930   3.044  1.00  0.00     0.032 C 
ATOM     18  C   UNL     1       4.454 -26.061   5.390  1.00  0.00    -0.008 C 
ATOM     19  C   UNL     1       5.466 -26.676   3.131  1.00  0.00     0.009 C 
ATOM     20  C   UNL     1       4.739 -25.570   3.923  1.00  0.00     0.007 C 
ATOM     21  C   UNL     1       3.675 -24.943   6.139  1.00  0.00     0.014 C 
ATOM     22  C   UNL     1       5.728 -26.431   6.199  1.00  0.00     0.016 C 
ATOM     23  C   UNL     1       5.348 -24.115   3.750  1.00  0.00    -0.006 C 
ATOM     24  C   UNL     1       4.369 -23.581   6.077  1.00  0.00     0.033 C 
ATOM     25  C   UNL     1       4.539 -23.108   4.626  1.00  0.00     0.120 C 
ATOM     26  C   UNL     1       6.867 -24.027   4.072  1.00  0.00     0.014 C 
ATOM     27  C   UNL     1       5.176 -23.666   2.269  1.00  0.00     0.014 C 
BRANCH  25  28
ATOM     28  O   UNL     1       5.155 -21.843   4.617  1.00  0.00    -0.393 OA
ATOM     29  H   UNL     1       4.444 -21.174   4.438  1.00  0.00     0.210 HD
ENDBRANCH  25  28
ENDBRANCH   2   6
ENDBRANCH   1   2
BRANCH   1  30
ATOM     30  C   UNL     1      -0.985 -31.822   7.897  1.00  0.00     0.028 C 
BRANCH  30  31
ATOM     31  C   UNL     1      -0.560 -30.570   8.628  1.00  0.00    -0.028 C 
ATOM     32  C   UNL     1       0.522 -30.493   9.435  1.00  0.00    -0.080 C 
ATOM     33  C   UNL     1       0.852 -29.194  10.125  1.00  0.00     0.039 C 
ATOM     34  C   UNL     1       1.462 -31.659   9.626  1.00  0.00     0.039 C 
ENDBRANCH  30  31
ENDBRANCH   1  30
TORSDOF 6
ENDMDL
MODEL 8
REMARK VINA RESULT:    -5.887      2.592      7.847
REMARK INTER + INTRA:          -9.376
REMARK INTER:                  -7.983
REMARK INTRA:                  -1.393
REMARK UNBOUND:                -1.596
REMARK SMILES CC(C)=CCC[C@@H](C(=O)[O-])[C@@H]1CC[C@@]2(C)C3=C(CC[C@]12C)[C@]1(C)CC[C@@H](O)C(C)(C)[C@H]1CC3
REMARK SMILES IDX 6 1 7 2 8 3 9 4 10 5 11 6 12 7 20 8 13 9 14 10 19 11 21 12
REMARK SMILES IDX 15 13 16 14 18 15 17 16 33 17 22 18 32 19 31 20 24 21 23 22
REMARK SMILES IDX 28 23 25 24 26 25 29 26 30 27 27 28 5 30 4 31 2 32 1 33 3 34
REMARK H PARENT 27 29
REMARK Flexibility Score: inf
ROOT
ATOM      1  C   UNL     1       0.902 -33.940   5.582  1.00  0.00     0.014 C 
ENDROOT
BRANCH   1   2
ATOM      2  C   UNL     1       1.859 -32.745   5.846  1.00  0.00     0.039 C 
BRANCH   2   3
ATOM      3  C   UNL     1       3.095 -33.187   6.597  1.00  0.00     0.045 C 
ATOM      4  O   UNL     1       3.883 -34.019   6.073  1.00  0.00    -0.550 OA
ATOM      5  O   UNL     1       3.416 -32.652   7.838  1.00  0.00    -0.550 OA
ENDBRANCH   2   3
BRANCH   2   6
ATOM      6  C   UNL     1       2.085 -31.818   4.591  1.00  0.00     0.004 C 
ATOM      7  C   UNL     1       3.089 -32.296   3.507  1.00  0.00     0.006 C 
ATOM      8  C   UNL     1       2.459 -30.309   4.845  1.00  0.00    -0.020 C 
ATOM      9  C   UNL     1       3.917 -31.073   3.087  1.00  0.00     0.012 C 
ATOM     10  C   UNL     1       3.923 -30.176   4.334  1.00  0.00    -0.006 C 
ATOM     11  C   UNL     1       2.418 -29.747   6.281  1.00  0.00     0.012 C 
ATOM     12  C   UNL     1       1.446 -29.456   3.993  1.00  0.00     0.012 C 
ATOM     13  C   UNL     1       5.032 -30.731   5.287  1.00  0.00     0.017 C 
ATOM     14  C   UNL     1       4.259 -28.704   4.163  1.00  0.00    -0.064 C 
ATOM     15  C   UNL     1       3.023 -28.311   6.356  1.00  0.00     0.032 C 
ATOM     16  C   UNL     1       3.902 -27.834   5.168  1.00  0.00    -0.064 C 
ATOM     17  C   UNL     1       4.957 -28.258   2.887  1.00  0.00     0.032 C 
ATOM     18  C   UNL     1       4.503 -26.410   5.210  1.00  0.00    -0.008 C 
ATOM     19  C   UNL     1       5.601 -26.874   2.956  1.00  0.00     0.009 C 
ATOM     20  C   UNL     1       4.699 -25.897   3.736  1.00  0.00     0.007 C 
ATOM     21  C   UNL     1       3.548 -25.430   5.948  1.00  0.00     0.014 C 
ATOM     22  C   UNL     1       5.823 -26.549   6.019  1.00  0.00     0.016 C 
ATOM     23  C   UNL     1       5.054 -24.363   3.542  1.00  0.00    -0.006 C 
ATOM     24  C   UNL     1       4.002 -23.971   5.866  1.00  0.00     0.033 C 
ATOM     25  C   UNL     1       4.088 -23.495   4.409  1.00  0.00     0.120 C 
ATOM     26  C   UNL     1       6.536 -24.015   3.858  1.00  0.00     0.014 C 
ATOM     27  C   UNL     1       4.806 -23.969   2.057  1.00  0.00     0.014 C 
BRANCH  25  28
ATOM     28  O   UNL     1       4.481 -22.144   4.382  1.00  0.00    -0.393 OA
ATOM     29  H   UNL     1       5.266 -22.058   4.984  1.00  0.00     0.210 HD
ENDBRANCH  25  28
ENDBRANCH   2   6
ENDBRANCH   1   2
BRANCH   1  30
ATOM     30  C   UNL     1      -0.582 -33.726   5.964  1.00  0.00     0.028 C 
BRANCH  30  31
ATOM     31  C   UNL     1      -1.348 -33.001   4.882  1.00  0.00    -0.028 C 
ATOM     32  C   UNL     1      -1.689 -31.694   4.940  1.00  0.00    -0.080 C 
ATOM     33  C   UNL     1      -2.462 -31.070   3.807  1.00  0.00     0.039 C 
ATOM     34  C   UNL     1      -1.264 -30.807   6.086  1.00  0.00     0.039 C 
ENDBRANCH  30  31
ENDBRANCH   1  30
TORSDOF 6
ENDMDL
MODEL 9
REMARK VINA RESULT:    -5.831      1.875      2.888
REMARK INTER + INTRA:          -9.302
REMARK INTER:                  -7.641
REMARK INTRA:                  -1.661
REMARK UNBOUND:                -1.596
REMARK SMILES CC(C)=CCC[C@@H](C(=O)[O-])[C@@H]1CC[C@@]2(C)C3=C(CC[C@]12C)[C@]1(C)CC[C@@H](O)C(C)(C)[C@H]1CC3
REMARK SMILES IDX 6 1 7 2 8 3 9 4 10 5 11 6 12 7 20 8 13 9 14 10 19 11 21 12
REMARK SMILES IDX 15 13 16 14 18 15 17 16 33 17 22 18 32 19 31 20 24 21 23 22
REMARK SMILES IDX 28 23 25 24 26 25 29 26 30 27 27 28 5 30 4 31 2 32 1 33 3 34
REMARK H PARENT 27 29
REMARK Flexibility Score: inf
ROOT
ATOM      1  C   UNL     1       7.360 -28.326   0.564  1.00  0.00     0.014 C 
ENDROOT
BRANCH   1   2
ATOM      2  C   UNL     1       6.491 -29.613   0.630  1.00  0.00     0.039 C 
BRANCH   2   3
ATOM      3  C   UNL     1       6.444 -30.313  -0.710  1.00  0.00     0.045 C 
ATOM      4  O   UNL     1       5.357 -30.791  -1.130  1.00  0.00    -0.550 OA
ATOM      5  O   UNL     1       7.568 -30.394  -1.522  1.00  0.00    -0.550 OA
ENDBRANCH   2   3
BRANCH   2   6
ATOM      6  C   UNL     1       6.777 -30.513   1.891  1.00  0.00     0.004 C 
ATOM      7  C   UNL     1       7.079 -32.018   1.655  1.00  0.00     0.006 C 
ATOM      8  C   UNL     1       5.728 -30.494   3.066  1.00  0.00    -0.020 C 
ATOM      9  C   UNL     1       6.315 -32.805   2.731  1.00  0.00     0.012 C 
ATOM     10  C   UNL     1       5.104 -31.920   3.058  1.00  0.00    -0.006 C 
ATOM     11  C   UNL     1       4.565 -29.481   3.030  1.00  0.00     0.012 C 
ATOM     12  C   UNL     1       6.545 -30.203   4.381  1.00  0.00     0.012 C 
ATOM     13  C   UNL     1       4.032 -32.191   1.952  1.00  0.00     0.017 C 
ATOM     14  C   UNL     1       4.374 -32.151   4.370  1.00  0.00    -0.064 C 
ATOM     15  C   UNL     1       3.523 -29.759   4.156  1.00  0.00     0.032 C 
ATOM     16  C   UNL     1       3.557 -31.151   4.846  1.00  0.00    -0.064 C 
ATOM     17  C   UNL     1       4.591 -33.465   5.104  1.00  0.00     0.032 C 
ATOM     18  C   UNL     1       2.544 -31.448   5.975  1.00  0.00    -0.008 C 
ATOM     19  C   UNL     1       3.551 -33.783   6.178  1.00  0.00     0.009 C 
ATOM     20  C   UNL     1       3.171 -32.506   6.956  1.00  0.00     0.007 C 
ATOM     21  C   UNL     1       2.224 -30.159   6.783  1.00  0.00     0.014 C 
ATOM     22  C   UNL     1       1.257 -31.934   5.250  1.00  0.00     0.016 C 
ATOM     23  C   UNL     1       2.417 -32.760   8.329  1.00  0.00    -0.006 C 
ATOM     24  C   UNL     1       1.367 -30.423   8.023  1.00  0.00     0.033 C 
ATOM     25  C   UNL     1       2.068 -31.389   8.989  1.00  0.00     0.120 C 
ATOM     26  C   UNL     1       1.145 -33.644   8.193  1.00  0.00     0.014 C 
ATOM     27  C   UNL     1       3.378 -33.501   9.305  1.00  0.00     0.014 C 
BRANCH  25  28
ATOM     28  O   UNL     1       1.260 -31.582  10.124  1.00  0.00    -0.393 OA
ATOM     29  H   UNL     1       0.902 -32.506  10.073  1.00  0.00     0.210 HD
ENDBRANCH  25  28
ENDBRANCH   2   6
ENDBRANCH   1   2
BRANCH   1  30
ATOM     30  C   UNL     1       7.418 -27.472   1.852  1.00  0.00     0.028 C 
BRANCH  30  31
ATOM     31  C   UNL     1       6.496 -26.277   1.782  1.00  0.00    -0.028 C 
ATOM     32  C   UNL     1       5.783 -25.806   2.830  1.00  0.00    -0.080 C 
ATOM     33  C   UNL     1       4.885 -24.610   2.649  1.00  0.00     0.039 C 
ATOM     34  C   UNL     1       5.902 -26.404   4.212  1.00  0.00     0.039 C 
ENDBRANCH  30  31
ENDBRANCH   1  30
TORSDOF 6
ENDMDL
