MODEL 1
REMARK VINA RESULT:    -5.231      0.000      0.000
REMARK INTER + INTRA:          -7.219
REMARK INTER:                  -6.607
REMARK INTRA:                  -0.613
REMARK UNBOUND:                -0.613
REMARK SMILES CC(C)=CCCC(C)=CCO
REMARK SMILES IDX 7 1 9 2 8 3 6 4 5 5 4 6 1 7 2 8 3 9 10 10 11 11
REMARK H PARENT 11 12
REMARK Flexibility Score: inf
ROOT
ATOM      1  C   UNL     1     153.736 131.733 140.205  1.00  0.00    -0.075 C 
ATOM      2  C   UNL     1     152.400 131.545 140.282  1.00  0.00    -0.000 C 
ATOM      3  C   UNL     1     154.617 131.659 141.431  1.00  0.00     0.039 C 
ENDROOT
BRANCH   1   4
ATOM      4  C   UNL     1     154.365 132.032 138.862  1.00  0.00     0.034 C 
BRANCH   4   5
ATOM      5  C   UNL     1     155.292 133.249 138.955  1.00  0.00     0.032 C 
BRANCH   5   6
ATOM      6  C   UNL     1     154.538 134.520 138.652  1.00  0.00    -0.028 C 
ATOM      7  C   UNL     1     153.569 136.736 139.093  1.00  0.00     0.039 C 
ATOM      8  C   UNL     1     154.303 135.501 139.552  1.00  0.00    -0.080 C 
ATOM      9  C   UNL     1     154.737 135.386 140.994  1.00  0.00     0.039 C 
ENDBRANCH   5   6
ENDBRANCH   4   5
ENDBRANCH   1   4
BRANCH   2  10
ATOM     10  C   UNL     1     151.663 131.249 141.563  1.00  0.00     0.183 C 
BRANCH  10  11
ATOM     11  O   UNL     1     150.300 131.045 141.313  1.00  0.00    -0.392 OA
ATOM     12  H   UNL     1     149.969 131.862 140.856  1.00  0.00     0.210 HD
ENDBRANCH  10  11
ENDBRANCH   2  10
TORSDOF 5
ENDMDL
MODEL 2
REMARK VINA RESULT:    -4.925      1.502      2.171
REMARK INTER + INTRA:          -6.833
REMARK INTER:                  -6.329
REMARK INTRA:                  -0.504
REMARK UNBOUND:                -0.613
REMARK SMILES CC(C)=CCCC(C)=CCO
REMARK SMILES IDX 7 1 9 2 8 3 6 4 5 5 4 6 1 7 2 8 3 9 10 10 11 11
REMARK H PARENT 11 12
REMARK Flexibility Score: inf
ROOT
ATOM      1  C   UNL     1     153.430 132.044 139.981  1.00  0.00    -0.075 C 
ATOM      2  C   UNL     1     152.666 132.143 141.091  1.00  0.00    -0.000 C 
ATOM      3  C   UNL     1     153.507 130.762 139.185  1.00  0.00     0.039 C 
ENDROOT
BRANCH   1   4
ATOM      4  C   UNL     1     154.235 133.242 139.528  1.00  0.00     0.034 C 
BRANCH   4   5
ATOM      5  C   UNL     1     155.354 133.555 140.527  1.00  0.00     0.032 C 
BRANCH   5   6
ATOM      6  C   UNL     1     155.181 134.935 141.109  1.00  0.00    -0.028 C 
ATOM      7  C   UNL     1     154.841 136.626 142.860  1.00  0.00     0.039 C 
ATOM      8  C   UNL     1     154.952 135.190 142.416  1.00  0.00    -0.080 C 
ATOM      9  C   UNL     1     154.789 134.082 143.431  1.00  0.00     0.039 C 
ENDBRANCH   5   6
ENDBRANCH   4   5
ENDBRANCH   1   4
BRANCH   2  10
ATOM     10  C   UNL     1     151.829 131.017 141.641  1.00  0.00     0.183 C 
BRANCH  10  11
ATOM     11  O   UNL     1     150.500 131.133 141.212  1.00  0.00    -0.392 OA
ATOM     12  H   UNL     1     150.352 130.414 140.544  1.00  0.00     0.210 HD
ENDBRANCH  10  11
ENDBRANCH   2  10
TORSDOF 5
ENDMDL
MODEL 3
REMARK VINA RESULT:    -4.883      3.606      4.898
REMARK INTER + INTRA:          -6.781
REMARK INTER:                  -6.235
REMARK INTRA:                  -0.546
REMARK UNBOUND:                -0.613
REMARK SMILES CC(C)=CCCC(C)=CCO
REMARK SMILES IDX 7 1 9 2 8 3 6 4 5 5 4 6 1 7 2 8 3 9 10 10 11 11
REMARK H PARENT 11 12
REMARK Flexibility Score: inf
ROOT
ATOM      1  C   UNL     1     155.470 135.129 142.346  1.00  0.00    -0.075 C 
ATOM      2  C   UNL     1     156.766 134.779 142.187  1.00  0.00    -0.000 C 
ATOM      3  C   UNL     1     155.077 136.487 142.879  1.00  0.00     0.039 C 
ENDROOT
BRANCH   1   4
ATOM      4  C   UNL     1     154.387 134.135 141.990  1.00  0.00     0.034 C 
BRANCH   4   5
ATOM      5  C   UNL     1     154.416 133.812 140.492  1.00  0.00     0.032 C 
BRANCH   5   6
ATOM      6  C   UNL     1     154.124 135.045 139.673  1.00  0.00    -0.028 C 
ATOM      7  C   UNL     1     154.408 136.670 137.851  1.00  0.00     0.039 C 
ATOM      8  C   UNL     1     154.844 135.435 138.597  1.00  0.00    -0.080 C 
ATOM      9  C   UNL     1     156.071 134.683 138.139  1.00  0.00     0.039 C 
ENDBRANCH   5   6
ENDBRANCH   4   5
ENDBRANCH   1   4
BRANCH   2  10
ATOM     10  C   UNL     1     157.928 135.681 142.515  1.00  0.00     0.183 C 
BRANCH  10  11
ATOM     11  O   UNL     1     158.888 134.995 143.272  1.00  0.00    -0.392 OA
ATOM     12  H   UNL     1     158.549 134.069 143.388  1.00  0.00     0.210 HD
ENDBRANCH  10  11
ENDBRANCH   2  10
TORSDOF 5
ENDMDL
MODEL 4
REMARK VINA RESULT:    -4.871      1.212      2.247
REMARK INTER + INTRA:          -6.765
REMARK INTER:                  -6.160
REMARK INTRA:                  -0.605
REMARK UNBOUND:                -0.613
REMARK SMILES CC(C)=CCCC(C)=CCO
REMARK SMILES IDX 7 1 9 2 8 3 6 4 5 5 4 6 1 7 2 8 3 9 10 10 11 11
REMARK H PARENT 11 12
REMARK Flexibility Score: inf
ROOT
ATOM      1  C   UNL     1     154.150 131.800 140.553  1.00  0.00    -0.075 C 
ATOM      2  C   UNL     1     152.953 131.459 141.080  1.00  0.00    -0.000 C 
ATOM      3  C   UNL     1     154.330 132.004 139.067  1.00  0.00     0.039 C 
ENDROOT
BRANCH   1   4
ATOM      4  C   UNL     1     155.339 131.974 141.470  1.00  0.00     0.034 C 
BRANCH   4   5
ATOM      5  C   UNL     1     156.134 133.230 141.099  1.00  0.00     0.032 C 
BRANCH   5   6
ATOM      6  C   UNL     1     155.802 134.369 142.030  1.00  0.00    -0.028 C 
ATOM      7  C   UNL     1     154.732 136.459 142.756  1.00  0.00     0.039 C 
ATOM      8  C   UNL     1     155.008 135.413 141.706  1.00  0.00    -0.080 C 
ATOM      9  C   UNL     1     154.408 135.566 140.328  1.00  0.00     0.039 C 
ENDBRANCH   5   6
ENDBRANCH   4   5
ENDBRANCH   1   4
BRANCH   2  10
ATOM     10  C   UNL     1     151.702 131.252 140.265  1.00  0.00     0.183 C 
BRANCH  10  11
ATOM     11  O   UNL     1     150.579 131.155 141.098  1.00  0.00    -0.392 OA
ATOM     12  H   UNL     1     150.453 132.049 141.510  1.00  0.00     0.210 HD
ENDBRANCH  10  11
ENDBRANCH   2  10
TORSDOF 5
ENDMDL
MODEL 5
REMARK VINA RESULT:    -4.810      3.452      5.539
REMARK INTER + INTRA:          -6.688
REMARK INTER:                  -6.285
REMARK INTRA:                  -0.403
REMARK UNBOUND:                -0.613
REMARK SMILES CC(C)=CCCC(C)=CCO
REMARK SMILES IDX 7 1 9 2 8 3 6 4 5 5 4 6 1 7 2 8 3 9 10 10 11 11
REMARK H PARENT 11 12
REMARK Flexibility Score: inf
ROOT
ATOM      1  C   UNL     1     155.309 135.106 142.801  1.00  0.00    -0.075 C 
ATOM      2  C   UNL     1     156.564 134.652 142.589  1.00  0.00    -0.000 C 
ATOM      3  C   UNL     1     155.007 136.583 142.897  1.00  0.00     0.039 C 
ENDROOT
BRANCH   1   4
ATOM      4  C   UNL     1     154.179 134.111 142.953  1.00  0.00     0.034 C 
BRANCH   4   5
ATOM      5  C   UNL     1     154.619 132.716 142.498  1.00  0.00     0.032 C 
BRANCH   5   6
ATOM      6  C   UNL     1     153.478 131.986 141.834  1.00  0.00    -0.028 C 
ATOM      7  C   UNL     1     152.065 131.207 139.980  1.00  0.00     0.039 C 
ATOM      8  C   UNL     1     153.217 132.022 140.508  1.00  0.00    -0.080 C 
ATOM      9  C   UNL     1     154.032 132.863 139.554  1.00  0.00     0.039 C 
ENDBRANCH   5   6
ENDBRANCH   4   5
ENDBRANCH   1   4
BRANCH   2  10
ATOM     10  C   UNL     1     157.767 135.546 142.430  1.00  0.00     0.183 C 
BRANCH  10  11
ATOM     11  O   UNL     1     158.830 135.091 143.222  1.00  0.00    -0.392 OA
ATOM     12  H   UNL     1     159.473 135.844 143.295  1.00  0.00     0.210 HD
ENDBRANCH  10  11
ENDBRANCH   2  10
TORSDOF 5
ENDMDL
MODEL 6
REMARK VINA RESULT:    -4.744      3.449      5.465
REMARK INTER + INTRA:          -6.605
REMARK INTER:                  -6.264
REMARK INTRA:                  -0.342
REMARK UNBOUND:                -0.613
REMARK SMILES CC(C)=CCCC(C)=CCO
REMARK SMILES IDX 7 1 9 2 8 3 6 4 5 5 4 6 1 7 2 8 3 9 10 10 11 11
REMARK H PARENT 11 12
REMARK Flexibility Score: inf
ROOT
ATOM      1  C   UNL     1     155.487 135.175 142.301  1.00  0.00    -0.075 C 
ATOM      2  C   UNL     1     156.787 134.842 142.137  1.00  0.00    -0.000 C 
ATOM      3  C   UNL     1     155.080 136.500 142.903  1.00  0.00     0.039 C 
ENDROOT
BRANCH   1   4
ATOM      4  C   UNL     1     154.415 134.195 141.881  1.00  0.00     0.034 C 
BRANCH   4   5
ATOM      5  C   UNL     1     154.407 134.018 140.359  1.00  0.00     0.032 C 
BRANCH   5   6
ATOM      6  C   UNL     1     153.611 132.798 139.966  1.00  0.00    -0.028 C 
ATOM      7  C   UNL     1     153.232 130.467 139.285  1.00  0.00     0.039 C 
ATOM      8  C   UNL     1     154.156 131.612 139.614  1.00  0.00    -0.080 C 
ATOM      9  C   UNL     1     155.651 131.412 139.526  1.00  0.00     0.039 C 
ENDBRANCH   5   6
ENDBRANCH   4   5
ENDBRANCH   1   4
BRANCH   2  10
ATOM     10  C   UNL     1     157.940 135.733 142.525  1.00  0.00     0.183 C 
BRANCH  10  11
ATOM     11  O   UNL     1     158.890 135.017 143.265  1.00  0.00    -0.392 OA
ATOM     12  H   UNL     1     159.386 134.450 142.619  1.00  0.00     0.210 HD
ENDBRANCH  10  11
ENDBRANCH   2  10
TORSDOF 5
ENDMDL
MODEL 7
REMARK VINA RESULT:    -4.632      2.978      4.537
REMARK INTER + INTRA:          -6.463
REMARK INTER:                  -5.872
REMARK INTRA:                  -0.591
REMARK UNBOUND:                -0.613
REMARK SMILES CC(C)=CCCC(C)=CCO
REMARK SMILES IDX 7 1 9 2 8 3 6 4 5 5 4 6 1 7 2 8 3 9 10 10 11 11
REMARK H PARENT 11 12
REMARK Flexibility Score: inf
ROOT
ATOM      1  C   UNL     1     154.399 134.867 138.765  1.00  0.00    -0.075 C 
ATOM      2  C   UNL     1     153.572 135.891 139.072  1.00  0.00    -0.000 C 
ATOM      3  C   UNL     1     155.520 135.028 137.764  1.00  0.00     0.039 C 
ENDROOT
BRANCH   1   4
ATOM      4  C   UNL     1     154.193 133.525 139.431  1.00  0.00     0.034 C 
BRANCH   4   5
ATOM      5  C   UNL     1     154.320 133.649 140.954  1.00  0.00     0.032 C 
BRANCH   5   6
ATOM      6  C   UNL     1     155.715 134.071 141.342  1.00  0.00    -0.028 C 
ATOM      7  C   UNL     1     157.444 135.417 142.456  1.00  0.00     0.039 C 
ATOM      8  C   UNL     1     156.001 135.141 142.116  1.00  0.00    -0.080 C 
ATOM      9  C   UNL     1     154.925 136.068 142.631  1.00  0.00     0.039 C 
ENDBRANCH   5   6
ENDBRANCH   4   5
ENDBRANCH   1   4
BRANCH   2  10
ATOM     10  C   UNL     1     153.676 137.268 138.467  1.00  0.00     0.183 C 
BRANCH  10  11
ATOM     11  O   UNL     1     152.402 137.803 138.235  1.00  0.00    -0.392 OA
ATOM     12  H   UNL     1     151.924 137.155 137.654  1.00  0.00     0.210 HD
ENDBRANCH  10  11
ENDBRANCH   2  10
TORSDOF 5
ENDMDL
MODEL 8
REMARK VINA RESULT:    -4.595      2.665      4.693
REMARK INTER + INTRA:          -6.416
REMARK INTER:                  -5.821
REMARK INTRA:                  -0.595
REMARK UNBOUND:                -0.613
REMARK SMILES CC(C)=CCCC(C)=CCO
REMARK SMILES IDX 7 1 9 2 8 3 6 4 5 5 4 6 1 7 2 8 3 9 10 10 11 11
REMARK H PARENT 11 12
REMARK Flexibility Score: inf
ROOT
ATOM      1  C   UNL     1     154.864 135.329 140.299  1.00  0.00    -0.075 C 
ATOM      2  C   UNL     1     155.170 135.232 141.612  1.00  0.00    -0.000 C 
ATOM      3  C   UNL     1     153.975 136.432 139.774  1.00  0.00     0.039 C 
ENDROOT
BRANCH   1   4
ATOM      4  C   UNL     1     155.418 134.305 139.333  1.00  0.00     0.034 C 
BRANCH   4   5
ATOM      5  C   UNL     1     155.342 132.896 139.931  1.00  0.00     0.032 C 
BRANCH   5   6
ATOM      6  C   UNL     1     154.003 132.265 139.646  1.00  0.00    -0.028 C 
ATOM      7  C   UNL     1     151.799 131.305 140.159  1.00  0.00     0.039 C 
ATOM      8  C   UNL     1     153.120 131.886 140.596  1.00  0.00    -0.080 C 
ATOM      9  C   UNL     1     153.426 132.012 142.070  1.00  0.00     0.039 C 
ENDBRANCH   5   6
ENDBRANCH   4   5
ENDBRANCH   1   4
BRANCH   2  10
ATOM     10  C   UNL     1     154.671 136.187 142.666  1.00  0.00     0.183 C 
BRANCH  10  11
ATOM     11  O   UNL     1     155.744 136.811 143.315  1.00  0.00    -0.392 OA
ATOM     12  H   UNL     1     155.435 137.027 144.234  1.00  0.00     0.210 HD
ENDBRANCH  10  11
ENDBRANCH   2  10
TORSDOF 5
ENDMDL
MODEL 9
REMARK VINA RESULT:    -4.588      2.419      3.136
REMARK INTER + INTRA:          -6.408
REMARK INTER:                  -5.968
REMARK INTRA:                  -0.441
REMARK UNBOUND:                -0.613
REMARK SMILES CC(C)=CCCC(C)=CCO
REMARK SMILES IDX 7 1 9 2 8 3 6 4 5 5 4 6 1 7 2 8 3 9 10 10 11 11
REMARK H PARENT 11 12
REMARK Flexibility Score: inf
ROOT
ATOM      1  C   UNL     1     153.860 131.923 139.786  1.00  0.00    -0.075 C 
ATOM      2  C   UNL     1     154.952 131.135 139.662  1.00  0.00    -0.000 C 
ATOM      3  C   UNL     1     152.514 131.354 140.169  1.00  0.00     0.039 C 
ENDROOT
BRANCH   1   4
ATOM      4  C   UNL     1     153.988 133.407 139.527  1.00  0.00     0.034 C 
BRANCH   4   5
ATOM      5  C   UNL     1     155.285 133.956 140.130  1.00  0.00     0.032 C 
BRANCH   5   6
ATOM      6  C   UNL     1     155.024 135.228 140.896  1.00  0.00    -0.028 C 
ATOM      7  C   UNL     1     154.618 136.640 142.867  1.00  0.00     0.039 C 
ATOM      8  C   UNL     1     154.827 135.289 142.232  1.00  0.00    -0.080 C 
ATOM      9  C   UNL     1     154.796 134.049 143.094  1.00  0.00     0.039 C 
ENDBRANCH   5   6
ENDBRANCH   4   5
ENDBRANCH   1   4
BRANCH   2  10
ATOM     10  C   UNL     1     154.945 129.644 139.886  1.00  0.00     0.183 C 
BRANCH  10  11
ATOM     11  O   UNL     1     156.214 129.197 140.276  1.00  0.00    -0.392 OA
ATOM     12  H   UNL     1     156.868 129.855 139.923  1.00  0.00     0.210 HD
ENDBRANCH  10  11
ENDBRANCH   2  10
TORSDOF 5
ENDMDL
