MODEL 1
REMARK VINA RESULT:    -9.773      0.000      0.000
REMARK INTER + INTRA:         -13.605
REMARK INTER:                 -14.343
REMARK INTRA:                   0.738
REMARK UNBOUND:                 0.738
REMARK SMILES O=c1c(O[C@@H]2O[C@H](CO)[C@@H](O)[C@@H](O)[C@H]2O)c(-c2ccc(O)c(O)c2)oc2cc(O)cc(O)c12
REMARK SMILES IDX 4 1 3 2 16 3 25 4 2 5 26 6 1 7 33 8 27 9 31 10 28 11 30 12
REMARK SMILES IDX 17 13 18 14 19 15 20 16 24 17 22 18 21 19 23 21 32 23 29 25
REMARK SMILES IDX 5 27 14 28 6 29 12 30 7 31 10 32 15 33 13 35 8 37 9 38 11 40
REMARK H PARENT 21 20 23 22 32 24 29 26 15 34 13 36 9 39 11 41
REMARK Flexibility Score: inf
ROOT
ATOM      1  O   UNL     1      -2.809 -30.124 -51.661  1.00  0.00    -0.454 OA
ENDROOT
BRANCH   1   2
ATOM      2  C   UNL     1      -3.412 -28.983 -52.203  1.00  0.00     0.214 A 
ATOM      3  C   UNL     1      -4.770 -28.680 -51.972  1.00  0.00     0.180 A 
ATOM      4  O   UNL     1      -5.323 -27.628 -52.572  1.00  0.00    -0.452 OA
ATOM      5  C   UNL     1      -2.652 -28.118 -52.999  1.00  0.00     0.239 A 
ATOM      6  C   UNL     1      -4.647 -26.804 -53.364  1.00  0.00     0.146 A 
ATOM      7  O   UNL     1      -1.428 -28.362 -53.174  1.00  0.00    -0.285 OA
ATOM      8  C   UNL     1      -3.267 -27.005 -53.605  1.00  0.00     0.111 A 
ATOM      9  C   UNL     1      -5.314 -25.724 -53.951  1.00  0.00     0.094 A 
ATOM     10  C   UNL     1      -2.574 -26.097 -54.441  1.00  0.00     0.134 A 
ATOM     11  C   UNL     1      -4.624 -24.832 -54.778  1.00  0.00     0.123 A 
ATOM     12  C   UNL     1      -3.261 -25.020 -55.018  1.00  0.00     0.093 A 
BRANCH   3  13
ATOM     13  C   UNL     1      -5.618 -29.487 -51.064  1.00  0.00     0.025 A 
ATOM     14  C   UNL     1      -5.759 -30.874 -51.242  1.00  0.00     0.016 A 
ATOM     15  C   UNL     1      -6.560 -31.618 -50.371  1.00  0.00     0.051 A 
ATOM     16  C   UNL     1      -7.215 -30.993 -49.303  1.00  0.00     0.157 A 
ATOM     17  C   UNL     1      -6.258 -28.867 -49.980  1.00  0.00     0.062 A 
ATOM     18  C   UNL     1      -7.060 -29.610 -49.106  1.00  0.00     0.158 A 
BRANCH  16  19
ATOM     19  O   UNL     1      -8.014 -31.738 -48.438  1.00  0.00    -0.504 OA
ATOM     20  H   UNL     1      -8.903 -32.123 -48.736  1.00  0.00     0.293 HD
ENDBRANCH  16  19
BRANCH  18  21
ATOM     21  O   UNL     1      -7.694 -28.958 -48.048  1.00  0.00    -0.504 OA
ATOM     22  H   UNL     1      -7.765 -27.949 -48.002  1.00  0.00     0.293 HD
ENDBRANCH  18  21
ENDBRANCH   3  13
BRANCH  10  23
ATOM     23  O   UNL     1      -1.213 -26.259 -54.702  1.00  0.00    -0.507 OA
ATOM     24  H   UNL     1      -0.631 -25.483 -54.996  1.00  0.00     0.293 HD
ENDBRANCH  10  23
BRANCH  11  25
ATOM     25  O   UNL     1      -5.283 -23.754 -55.364  1.00  0.00    -0.508 OA
ATOM     26  H   UNL     1      -4.819 -23.148 -56.030  1.00  0.00     0.293 HD
ENDBRANCH  11  25
ENDBRANCH   1   2
BRANCH   1  27
ATOM     27  C   UNL     1      -1.609 -30.693 -52.190  1.00  0.00     0.339 C 
ATOM     28  C   UNL     1      -0.985 -31.698 -51.209  1.00  0.00     0.214 C 
ATOM     29  O   UNL     1      -1.842 -31.258 -53.471  1.00  0.00    -0.332 OA
ATOM     30  C   UNL     1      -1.886 -32.933 -51.077  1.00  0.00     0.180 C 
ATOM     31  C   UNL     1      -2.673 -32.416 -53.459  1.00  0.00     0.179 C 
ATOM     32  C   UNL     1      -2.211 -33.516 -52.468  1.00  0.00     0.177 C 
BRANCH  28  33
ATOM     33  O   UNL     1       0.292 -32.060 -51.672  1.00  0.00    -0.384 OA
ATOM     34  H   UNL     1       0.937 -31.411 -51.285  1.00  0.00     0.211 HD
ENDBRANCH  28  33
BRANCH  30  35
ATOM     35  O   UNL     1      -1.259 -33.895 -50.268  1.00  0.00    -0.387 OA
ATOM     36  H   UNL     1      -1.970 -34.309 -49.712  1.00  0.00     0.211 HD
ENDBRANCH  30  35
BRANCH  31  37
ATOM     37  C   UNL     1      -4.181 -32.076 -53.407  1.00  0.00     0.191 C 
BRANCH  37  38
ATOM     38  O   UNL     1      -4.681 -31.696 -54.658  1.00  0.00    -0.394 OA
ATOM     39  H   UNL     1      -4.039 -32.042 -55.331  1.00  0.00     0.210 HD
ENDBRANCH  37  38
ENDBRANCH  31  37
BRANCH  32  40
ATOM     40  O   UNL     1      -1.073 -34.153 -52.999  1.00  0.00    -0.387 OA
ATOM     41  H   UNL     1      -0.404 -34.214 -52.268  1.00  0.00     0.211 HD
ENDBRANCH  32  40
ENDBRANCH   1  27
TORSDOF 12
ENDMDL
MODEL 2
REMARK VINA RESULT:    -9.489      1.055      1.612
REMARK INTER + INTRA:         -13.189
REMARK INTER:                 -13.779
REMARK INTRA:                   0.591
REMARK UNBOUND:                 0.738
REMARK SMILES O=c1c(O[C@@H]2O[C@H](CO)[C@@H](O)[C@@H](O)[C@H]2O)c(-c2ccc(O)c(O)c2)oc2cc(O)cc(O)c12
REMARK SMILES IDX 4 1 3 2 16 3 25 4 2 5 26 6 1 7 33 8 27 9 31 10 28 11 30 12
REMARK SMILES IDX 17 13 18 14 19 15 20 16 24 17 22 18 21 19 23 21 32 23 29 25
REMARK SMILES IDX 5 27 14 28 6 29 12 30 7 31 10 32 15 33 13 35 8 37 9 38 11 40
REMARK H PARENT 21 20 23 22 32 24 29 26 15 34 13 36 9 39 11 41
REMARK Flexibility Score: inf
ROOT
ATOM      1  O   UNL     1      -2.740 -29.820 -52.281  1.00  0.00    -0.454 OA
ENDROOT
BRANCH   1   2
ATOM      2  C   UNL     1      -3.444 -28.668 -52.654  1.00  0.00     0.214 A 
ATOM      3  C   UNL     1      -4.795 -28.475 -52.297  1.00  0.00     0.180 A 
ATOM      4  O   UNL     1      -5.448 -27.404 -52.741  1.00  0.00    -0.452 OA
ATOM      5  C   UNL     1      -2.794 -27.681 -53.403  1.00  0.00     0.239 A 
ATOM      6  C   UNL     1      -4.879 -26.461 -53.485  1.00  0.00     0.146 A 
ATOM      7  O   UNL     1      -1.576 -27.830 -53.688  1.00  0.00    -0.285 OA
ATOM      8  C   UNL     1      -3.513 -26.551 -53.841  1.00  0.00     0.111 A 
ATOM      9  C   UNL     1      -5.646 -25.370 -53.905  1.00  0.00     0.094 A 
ATOM     10  C   UNL     1      -2.935 -25.521 -54.621  1.00  0.00     0.134 A 
ATOM     11  C   UNL     1      -5.069 -24.357 -54.677  1.00  0.00     0.123 A 
ATOM     12  C   UNL     1      -3.720 -24.434 -55.030  1.00  0.00     0.093 A 
BRANCH   3  13
ATOM     13  C   UNL     1      -5.527 -29.423 -51.425  1.00  0.00     0.025 A 
ATOM     14  C   UNL     1      -5.614 -30.788 -51.745  1.00  0.00     0.016 A 
ATOM     15  C   UNL     1      -6.305 -31.667 -50.906  1.00  0.00     0.051 A 
ATOM     16  C   UNL     1      -6.902 -31.198 -49.730  1.00  0.00     0.157 A 
ATOM     17  C   UNL     1      -6.108 -28.960 -50.233  1.00  0.00     0.062 A 
ATOM     18  C   UNL     1      -6.799 -29.838 -49.391  1.00  0.00     0.158 A 
BRANCH  16  19
ATOM     19  O   UNL     1      -7.592 -32.077 -48.896  1.00  0.00    -0.504 OA
ATOM     20  H   UNL     1      -7.751 -31.866 -47.918  1.00  0.00     0.293 HD
ENDBRANCH  16  19
BRANCH  18  21
ATOM     21  O   UNL     1      -7.377 -29.342 -48.223  1.00  0.00    -0.504 OA
ATOM     22  H   UNL     1      -7.058 -29.621 -47.303  1.00  0.00     0.293 HD
ENDBRANCH  18  21
ENDBRANCH   3  13
BRANCH  10  23
ATOM     23  O   UNL     1      -1.591 -25.570 -54.992  1.00  0.00    -0.507 OA
ATOM     24  H   UNL     1      -1.050 -26.424 -54.922  1.00  0.00     0.293 HD
ENDBRANCH  10  23
BRANCH  11  25
ATOM     25  O   UNL     1      -5.828 -23.266 -55.097  1.00  0.00    -0.508 OA
ATOM     26  H   UNL     1      -6.771 -23.115 -54.758  1.00  0.00     0.293 HD
ENDBRANCH  11  25
ENDBRANCH   1   2
BRANCH   1  27
ATOM     27  C   UNL     1      -1.934 -30.566 -53.194  1.00  0.00     0.339 C 
ATOM     28  C   UNL     1      -0.440 -30.450 -52.849  1.00  0.00     0.214 C 
ATOM     29  O   UNL     1      -2.371 -31.915 -53.266  1.00  0.00    -0.332 OA
ATOM     30  C   UNL     1      -0.151 -31.163 -51.521  1.00  0.00     0.180 C 
ATOM     31  C   UNL     1      -2.148 -32.669 -52.077  1.00  0.00     0.179 C 
ATOM     32  C   UNL     1      -0.688 -32.609 -51.556  1.00  0.00     0.177 C 
BRANCH  28  33
ATOM     33  O   UNL     1       0.317 -31.011 -53.891  1.00  0.00    -0.384 OA
ATOM     34  H   UNL     1       1.267 -30.778 -53.719  1.00  0.00     0.211 HD
ENDBRANCH  28  33
BRANCH  30  35
ATOM     35  O   UNL     1       1.230 -31.151 -51.266  1.00  0.00    -0.387 OA
ATOM     36  H   UNL     1       1.684 -31.087 -52.147  1.00  0.00     0.211 HD
ENDBRANCH  30  35
BRANCH  31  37
ATOM     37  C   UNL     1      -3.238 -32.441 -51.005  1.00  0.00     0.191 C 
BRANCH  37  38
ATOM     38  O   UNL     1      -2.764 -32.680 -49.710  1.00  0.00    -0.394 OA
ATOM     39  H   UNL     1      -1.995 -33.299 -49.806  1.00  0.00     0.210 HD
ENDBRANCH  37  38
ENDBRANCH  31  37
BRANCH  32  40
ATOM     40  O   UNL     1       0.122 -33.401 -52.390  1.00  0.00    -0.387 OA
ATOM     41  H   UNL     1       0.067 -34.334 -52.053  1.00  0.00     0.211 HD
ENDBRANCH  32  40
ENDBRANCH   1  27
TORSDOF 12
ENDMDL
MODEL 3
REMARK VINA RESULT:    -9.374      1.599      2.454
REMARK INTER + INTRA:         -13.019
REMARK INTER:                 -11.645
REMARK INTRA:                  -1.374
REMARK UNBOUND:                 0.738
REMARK SMILES O=c1c(O[C@@H]2O[C@H](CO)[C@@H](O)[C@@H](O)[C@H]2O)c(-c2ccc(O)c(O)c2)oc2cc(O)cc(O)c12
REMARK SMILES IDX 4 1 3 2 16 3 25 4 2 5 26 6 1 7 33 8 27 9 31 10 28 11 30 12
REMARK SMILES IDX 17 13 18 14 19 15 20 16 24 17 22 18 21 19 23 21 32 23 29 25
REMARK SMILES IDX 5 27 14 28 6 29 12 30 7 31 10 32 15 33 13 35 8 37 9 38 11 40
REMARK H PARENT 21 20 23 22 32 24 29 26 15 34 13 36 9 39 11 41
REMARK Flexibility Score: inf
ROOT
ATOM      1  O   UNL     1      -1.892 -29.345 -53.345  1.00  0.00    -0.454 OA
ENDROOT
BRANCH   1   2
ATOM      2  C   UNL     1      -2.674 -28.191 -53.472  1.00  0.00     0.214 A 
ATOM      3  C   UNL     1      -4.049 -28.187 -53.159  1.00  0.00     0.180 A 
ATOM      4  O   UNL     1      -4.771 -27.089 -53.371  1.00  0.00    -0.452 OA
ATOM      5  C   UNL     1      -2.080 -27.008 -53.926  1.00  0.00     0.239 A 
ATOM      6  C   UNL     1      -4.254 -25.957 -53.834  1.00  0.00     0.146 A 
ATOM      7  O   UNL     1      -0.843 -26.996 -54.168  1.00  0.00    -0.285 OA
ATOM      8  C   UNL     1      -2.873 -25.860 -54.123  1.00  0.00     0.111 A 
ATOM      9  C   UNL     1      -5.093 -24.854 -54.026  1.00  0.00     0.094 A 
ATOM     10  C   UNL     1      -2.353 -24.632 -54.600  1.00  0.00     0.134 A 
ATOM     11  C   UNL     1      -4.573 -23.645 -54.499  1.00  0.00     0.123 A 
ATOM     12  C   UNL     1      -3.210 -23.538 -54.782  1.00  0.00     0.093 A 
BRANCH   3  13
ATOM     13  C   UNL     1      -4.733 -29.367 -52.581  1.00  0.00     0.025 A 
ATOM     14  C   UNL     1      -4.971 -30.519 -53.350  1.00  0.00     0.016 A 
ATOM     15  C   UNL     1      -5.613 -31.624 -52.785  1.00  0.00     0.051 A 
ATOM     16  C   UNL     1      -6.010 -31.601 -51.442  1.00  0.00     0.157 A 
ATOM     17  C   UNL     1      -5.112 -29.356 -51.229  1.00  0.00     0.062 A 
ATOM     18  C   UNL     1      -5.754 -30.461 -50.660  1.00  0.00     0.158 A 
BRANCH  16  19
ATOM     19  O   UNL     1      -6.651 -32.704 -50.882  1.00  0.00    -0.504 OA
ATOM     20  H   UNL     1      -6.336 -33.117 -50.012  1.00  0.00     0.293 HD
ENDBRANCH  16  19
BRANCH  18  21
ATOM     21  O   UNL     1      -6.130 -30.410 -49.318  1.00  0.00    -0.504 OA
ATOM     22  H   UNL     1      -6.813 -31.046 -48.926  1.00  0.00     0.293 HD
ENDBRANCH  18  21
ENDBRANCH   3  13
BRANCH  10  23
ATOM     23  O   UNL     1      -0.996 -24.495 -54.894  1.00  0.00    -0.507 OA
ATOM     24  H   UNL     1      -0.282 -24.965 -54.350  1.00  0.00     0.293 HD
ENDBRANCH  10  23
BRANCH  11  25
ATOM     25  O   UNL     1      -5.403 -22.543 -54.690  1.00  0.00    -0.508 OA
ATOM     26  H   UNL     1      -6.396 -22.587 -54.494  1.00  0.00     0.293 HD
ENDBRANCH  11  25
ENDBRANCH   1   2
BRANCH   1  27
ATOM     27  C   UNL     1      -1.474 -29.864 -52.081  1.00  0.00     0.339 C 
ATOM     28  C   UNL     1      -2.061 -31.261 -51.825  1.00  0.00     0.214 C 
ATOM     29  O   UNL     1      -0.059 -29.841 -51.970  1.00  0.00    -0.332 OA
ATOM     30  C   UNL     1      -1.446 -32.276 -52.799  1.00  0.00     0.180 C 
ATOM     31  C   UNL     1       0.613 -30.751 -52.837  1.00  0.00     0.179 C 
ATOM     32  C   UNL     1       0.095 -32.210 -52.745  1.00  0.00     0.177 C 
BRANCH  28  33
ATOM     33  O   UNL     1      -1.805 -31.631 -50.494  1.00  0.00    -0.384 OA
ATOM     34  H   UNL     1      -2.588 -32.156 -50.182  1.00  0.00     0.211 HD
ENDBRANCH  28  33
BRANCH  30  35
ATOM     35  O   UNL     1      -1.900 -33.568 -52.489  1.00  0.00    -0.387 OA
ATOM     36  H   UNL     1      -1.470 -33.826 -51.632  1.00  0.00     0.211 HD
ENDBRANCH  30  35
BRANCH  31  37
ATOM     37  C   UNL     1       0.782 -30.203 -54.273  1.00  0.00     0.191 C 
BRANCH  37  38
ATOM     38  O   UNL     1       1.133 -28.847 -54.284  1.00  0.00    -0.394 OA
ATOM     39  H   UNL     1       2.103 -28.811 -54.080  1.00  0.00     0.210 HD
ENDBRANCH  37  38
ENDBRANCH  31  37
BRANCH  32  40
ATOM     40  O   UNL     1       0.558 -32.778 -51.544  1.00  0.00    -0.387 OA
ATOM     41  H   UNL     1      -0.234 -32.914 -50.960  1.00  0.00     0.211 HD
ENDBRANCH  32  40
ENDBRANCH   1  27
TORSDOF 12
ENDMDL
MODEL 4
REMARK VINA RESULT:    -9.145      2.405      7.934
REMARK INTER + INTRA:         -12.683
REMARK INTER:                 -11.640
REMARK INTRA:                  -1.043
REMARK UNBOUND:                 0.738
REMARK SMILES O=c1c(O[C@@H]2O[C@H](CO)[C@@H](O)[C@@H](O)[C@H]2O)c(-c2ccc(O)c(O)c2)oc2cc(O)cc(O)c12
REMARK SMILES IDX 4 1 3 2 16 3 25 4 2 5 26 6 1 7 33 8 27 9 31 10 28 11 30 12
REMARK SMILES IDX 17 13 18 14 19 15 20 16 24 17 22 18 21 19 23 21 32 23 29 25
REMARK SMILES IDX 5 27 14 28 6 29 12 30 7 31 10 32 15 33 13 35 8 37 9 38 11 40
REMARK H PARENT 21 20 23 22 32 24 29 26 15 34 13 36 9 39 11 41
REMARK Flexibility Score: inf
ROOT
ATOM      1  O   UNL     1      -3.620 -27.420 -54.067  1.00  0.00    -0.454 OA
ENDROOT
BRANCH   1   2
ATOM      2  C   UNL     1      -3.062 -28.481 -53.345  1.00  0.00     0.214 A 
ATOM      3  C   UNL     1      -1.703 -28.488 -52.965  1.00  0.00     0.180 A 
ATOM      4  O   UNL     1      -1.196 -29.554 -52.350  1.00  0.00    -0.452 OA
ATOM      5  C   UNL     1      -3.869 -29.568 -52.991  1.00  0.00     0.239 A 
ATOM      6  C   UNL     1      -1.918 -30.621 -52.028  1.00  0.00     0.146 A 
ATOM      7  O   UNL     1      -5.093 -29.547 -53.291  1.00  0.00    -0.285 OA
ATOM      8  C   UNL     1      -3.301 -30.672 -52.324  1.00  0.00     0.111 A 
ATOM      9  C   UNL     1      -1.297 -31.694 -51.382  1.00  0.00     0.094 A 
ATOM     10  C   UNL     1      -4.044 -31.818 -51.952  1.00  0.00     0.134 A 
ATOM     11  C   UNL     1      -2.036 -32.824 -51.019  1.00  0.00     0.123 A 
ATOM     12  C   UNL     1      -3.402 -32.882 -51.303  1.00  0.00     0.093 A 
BRANCH   3  13
ATOM     13  C   UNL     1      -0.806 -27.337 -53.214  1.00  0.00     0.025 A 
ATOM     14  C   UNL     1      -0.210 -27.136 -54.471  1.00  0.00     0.016 A 
ATOM     15  C   UNL     1       0.630 -26.040 -54.687  1.00  0.00     0.051 A 
ATOM     16  C   UNL     1       0.872 -25.122 -53.658  1.00  0.00     0.157 A 
ATOM     17  C   UNL     1      -0.578 -26.402 -52.191  1.00  0.00     0.062 A 
ATOM     18  C   UNL     1       0.262 -25.303 -52.405  1.00  0.00     0.158 A 
BRANCH  16  19
ATOM     19  O   UNL     1       1.712 -24.031 -53.876  1.00  0.00    -0.504 OA
ATOM     20  H   UNL     1       2.017 -23.774 -54.807  1.00  0.00     0.293 HD
ENDBRANCH  16  19
BRANCH  18  21
ATOM     21  O   UNL     1       0.478 -24.402 -51.362  1.00  0.00    -0.504 OA
ATOM     22  H   UNL     1      -0.015 -24.472 -50.480  1.00  0.00     0.293 HD
ENDBRANCH  18  21
ENDBRANCH   3  13
BRANCH  10  23
ATOM     23  O   UNL     1      -5.409 -31.907 -52.224  1.00  0.00    -0.507 OA
ATOM     24  H   UNL     1      -5.819 -31.471 -53.042  1.00  0.00     0.293 HD
ENDBRANCH  10  23
BRANCH  11  25
ATOM     25  O   UNL     1      -1.422 -33.896 -50.373  1.00  0.00    -0.508 OA
ATOM     26  H   UNL     1      -0.516 -34.240 -50.664  1.00  0.00     0.293 HD
ENDBRANCH  11  25
ENDBRANCH   1   2
BRANCH   1  27
ATOM     27  C   UNL     1      -3.875 -26.137 -53.489  1.00  0.00     0.339 C 
ATOM     28  C   UNL     1      -3.317 -25.005 -54.367  1.00  0.00     0.214 C 
ATOM     29  O   UNL     1      -5.257 -25.977 -53.211  1.00  0.00    -0.332 OA
ATOM     30  C   UNL     1      -4.107 -24.920 -55.680  1.00  0.00     0.180 C 
ATOM     31  C   UNL     1      -6.084 -25.888 -54.368  1.00  0.00     0.179 C 
ATOM     32  C   UNL     1      -5.620 -24.821 -55.395  1.00  0.00     0.177 C 
BRANCH  28  33
ATOM     33  O   UNL     1      -3.395 -23.794 -53.659  1.00  0.00    -0.384 OA
ATOM     34  H   UNL     1      -3.725 -24.011 -52.747  1.00  0.00     0.211 HD
ENDBRANCH  28  33
BRANCH  30  35
ATOM     35  O   UNL     1      -3.667 -23.816 -56.428  1.00  0.00    -0.387 OA
ATOM     36  H   UNL     1      -4.440 -23.198 -56.507  1.00  0.00     0.211 HD
ENDBRANCH  30  35
BRANCH  31  37
ATOM     37  C   UNL     1      -6.432 -27.269 -54.969  1.00  0.00     0.191 C 
BRANCH  37  38
ATOM     38  O   UNL     1      -7.775 -27.354 -55.355  1.00  0.00    -0.394 OA
ATOM     39  H   UNL     1      -7.773 -27.645 -56.304  1.00  0.00     0.210 HD
ENDBRANCH  37  38
ENDBRANCH  31  37
BRANCH  32  40
ATOM     40  O   UNL     1      -5.930 -23.544 -54.890  1.00  0.00    -0.387 OA
ATOM     41  H   UNL     1      -5.594 -22.879 -55.548  1.00  0.00     0.211 HD
ENDBRANCH  32  40
ENDBRANCH   1  27
TORSDOF 12
ENDMDL
MODEL 5
REMARK VINA RESULT:    -8.974      1.567      4.985
REMARK INTER + INTRA:         -12.432
REMARK INTER:                 -11.045
REMARK INTRA:                  -1.387
REMARK UNBOUND:                 0.738
REMARK SMILES O=c1c(O[C@@H]2O[C@H](CO)[C@@H](O)[C@@H](O)[C@H]2O)c(-c2ccc(O)c(O)c2)oc2cc(O)cc(O)c12
REMARK SMILES IDX 4 1 3 2 16 3 25 4 2 5 26 6 1 7 33 8 27 9 31 10 28 11 30 12
REMARK SMILES IDX 17 13 18 14 19 15 20 16 24 17 22 18 21 19 23 21 32 23 29 25
REMARK SMILES IDX 5 27 14 28 6 29 12 30 7 31 10 32 15 33 13 35 8 37 9 38 11 40
REMARK H PARENT 21 20 23 22 32 24 29 26 15 34 13 36 9 39 11 41
REMARK Flexibility Score: inf
ROOT
ATOM      1  O   UNL     1      -4.378 -28.995 -51.690  1.00  0.00    -0.454 OA
ENDROOT
BRANCH   1   2
ATOM      2  C   UNL     1      -3.688 -28.137 -52.555  1.00  0.00     0.214 A 
ATOM      3  C   UNL     1      -2.351 -28.381 -52.932  1.00  0.00     0.180 A 
ATOM      4  O   UNL     1      -1.708 -27.497 -53.692  1.00  0.00    -0.452 OA
ATOM      5  C   UNL     1      -4.337 -27.004 -53.058  1.00  0.00     0.239 A 
ATOM      6  C   UNL     1      -2.276 -26.392 -54.161  1.00  0.00     0.146 A 
ATOM      7  O   UNL     1      -5.545 -26.805 -52.758  1.00  0.00    -0.285 OA
ATOM      8  C   UNL     1      -3.630 -26.099 -53.874  1.00  0.00     0.111 A 
ATOM      9  C   UNL     1      -1.520 -25.521 -54.952  1.00  0.00     0.094 A 
ATOM     10  C   UNL     1      -4.207 -24.920 -54.404  1.00  0.00     0.134 A 
ATOM     11  C   UNL     1      -2.096 -24.357 -55.471  1.00  0.00     0.123 A 
ATOM     12  C   UNL     1      -3.433 -24.062 -55.197  1.00  0.00     0.093 A 
BRANCH   3  13
ATOM     13  C   UNL     1      -1.624 -29.605 -52.524  1.00  0.00     0.025 A 
ATOM     14  C   UNL     1      -0.613 -29.560 -51.550  1.00  0.00     0.016 A 
ATOM     15  C   UNL     1       0.058 -30.728 -51.175  1.00  0.00     0.051 A 
ATOM     16  C   UNL     1      -0.283 -31.956 -51.754  1.00  0.00     0.157 A 
ATOM     17  C   UNL     1      -1.979 -30.842 -53.087  1.00  0.00     0.062 A 
ATOM     18  C   UNL     1      -1.310 -32.013 -52.713  1.00  0.00     0.158 A 
BRANCH  16  19
ATOM     19  O   UNL     1       0.389 -33.118 -51.379  1.00  0.00    -0.504 OA
ATOM     20  H   UNL     1       0.473 -33.909 -52.007  1.00  0.00     0.293 HD
ENDBRANCH  16  19
BRANCH  18  21
ATOM     21  O   UNL     1      -1.678 -33.222 -53.303  1.00  0.00    -0.504 OA
ATOM     22  H   UNL     1      -1.579 -33.388 -54.297  1.00  0.00     0.293 HD
ENDBRANCH  18  21
ENDBRANCH   3  13
BRANCH  10  23
ATOM     23  O   UNL     1      -5.540 -24.596 -54.146  1.00  0.00    -0.507 OA
ATOM     24  H   UNL     1      -6.192 -24.390 -54.894  1.00  0.00     0.293 HD
ENDBRANCH  10  23
BRANCH  11  25
ATOM     25  O   UNL     1      -1.348 -23.488 -56.261  1.00  0.00    -0.508 OA
ATOM     26  H   UNL     1      -0.556 -22.979 -55.886  1.00  0.00     0.293 HD
ENDBRANCH  11  25
ENDBRANCH   1   2
BRANCH   1  27
ATOM     27  C   UNL     1      -5.328 -29.960 -52.148  1.00  0.00     0.339 C 
ATOM     28  C   UNL     1      -4.858 -31.393 -51.855  1.00  0.00     0.214 C 
ATOM     29  O   UNL     1      -6.616 -29.691 -51.615  1.00  0.00    -0.332 OA
ATOM     30  C   UNL     1      -4.859 -31.647 -50.341  1.00  0.00     0.180 C 
ATOM     31  C   UNL     1      -6.724 -29.895 -50.209  1.00  0.00     0.179 C 
ATOM     32  C   UNL     1      -6.232 -31.287 -49.734  1.00  0.00     0.177 C 
BRANCH  28  33
ATOM     33  O   UNL     1      -5.708 -32.299 -52.512  1.00  0.00    -0.384 OA
ATOM     34  H   UNL     1      -6.176 -31.792 -53.227  1.00  0.00     0.211 HD
ENDBRANCH  28  33
BRANCH  30  35
ATOM     35  O   UNL     1      -4.538 -32.989 -50.084  1.00  0.00    -0.387 OA
ATOM     36  H   UNL     1      -4.773 -33.502 -50.901  1.00  0.00     0.211 HD
ENDBRANCH  30  35
BRANCH  31  37
ATOM     37  C   UNL     1      -6.204 -28.697 -49.383  1.00  0.00     0.191 C 
BRANCH  37  38
ATOM     38  O   UNL     1      -6.474 -27.470 -50.002  1.00  0.00    -0.394 OA
ATOM     39  H   UNL     1      -6.660 -27.675 -50.955  1.00  0.00     0.210 HD
ENDBRANCH  37  38
ENDBRANCH  31  37
BRANCH  32  40
ATOM     40  O   UNL     1      -7.186 -32.254 -50.100  1.00  0.00    -0.387 OA
ATOM     41  H   UNL     1      -6.733 -33.138 -50.076  1.00  0.00     0.211 HD
ENDBRANCH  32  40
ENDBRANCH   1  27
TORSDOF 12
ENDMDL
MODEL 6
REMARK VINA RESULT:    -8.782      2.830      8.698
REMARK INTER + INTRA:         -12.151
REMARK INTER:                 -10.797
REMARK INTRA:                  -1.354
REMARK UNBOUND:                 0.738
REMARK SMILES O=c1c(O[C@@H]2O[C@H](CO)[C@@H](O)[C@@H](O)[C@H]2O)c(-c2ccc(O)c(O)c2)oc2cc(O)cc(O)c12
REMARK SMILES IDX 4 1 3 2 16 3 25 4 2 5 26 6 1 7 33 8 27 9 31 10 28 11 30 12
REMARK SMILES IDX 17 13 18 14 19 15 20 16 24 17 22 18 21 19 23 21 32 23 29 25
REMARK SMILES IDX 5 27 14 28 6 29 12 30 7 31 10 32 15 33 13 35 8 37 9 38 11 40
REMARK H PARENT 21 20 23 22 32 24 29 26 15 34 13 36 9 39 11 41
REMARK Flexibility Score: inf
ROOT
ATOM      1  O   UNL     1      -2.420 -25.917 -53.468  1.00  0.00    -0.454 OA
ENDROOT
BRANCH   1   2
ATOM      2  C   UNL     1      -1.797 -27.110 -53.086  1.00  0.00     0.214 A 
ATOM      3  C   UNL     1      -0.394 -27.212 -52.970  1.00  0.00     0.180 A 
ATOM      4  O   UNL     1       0.160 -28.387 -52.682  1.00  0.00    -0.452 OA
ATOM      5  C   UNL     1      -2.581 -28.237 -52.816  1.00  0.00     0.239 A 
ATOM      6  C   UNL     1      -0.546 -29.489 -52.454  1.00  0.00     0.146 A 
ATOM      7  O   UNL     1      -3.836 -28.140 -52.878  1.00  0.00    -0.285 OA
ATOM      8  C   UNL     1      -1.959 -29.461 -52.498  1.00  0.00     0.111 A 
ATOM      9  C   UNL     1       0.126 -30.679 -52.159  1.00  0.00     0.094 A 
ATOM     10  C   UNL     1      -2.681 -30.650 -52.233  1.00  0.00     0.134 A 
ATOM     11  C   UNL     1      -0.592 -31.850 -51.901  1.00  0.00     0.123 A 
ATOM     12  C   UNL     1      -1.988 -31.832 -51.937  1.00  0.00     0.093 A 
BRANCH   3  13
ATOM     13  C   UNL     1       0.501 -26.044 -53.142  1.00  0.00     0.025 A 
ATOM     14  C   UNL     1       1.078 -25.748 -54.389  1.00  0.00     0.016 A 
ATOM     15  C   UNL     1       1.915 -24.639 -54.532  1.00  0.00     0.051 A 
ATOM     16  C   UNL     1       2.175 -23.802 -53.439  1.00  0.00     0.157 A 
ATOM     17  C   UNL     1       0.745 -25.191 -52.054  1.00  0.00     0.062 A 
ATOM     18  C   UNL     1       1.583 -24.080 -52.195  1.00  0.00     0.158 A 
BRANCH  16  19
ATOM     19  O   UNL     1       3.013 -22.698 -53.585  1.00  0.00    -0.504 OA
ATOM     20  H   UNL     1       3.919 -22.656 -53.135  1.00  0.00     0.293 HD
ENDBRANCH  16  19
BRANCH  18  21
ATOM     21  O   UNL     1       1.816 -23.262 -51.089  1.00  0.00    -0.504 OA
ATOM     22  H   UNL     1       2.485 -22.502 -51.113  1.00  0.00     0.293 HD
ENDBRANCH  18  21
ENDBRANCH   3  13
BRANCH  10  23
ATOM     23  O   UNL     1      -4.076 -30.664 -52.265  1.00  0.00    -0.507 OA
ATOM     24  H   UNL     1      -4.617 -29.809 -52.299  1.00  0.00     0.293 HD
ENDBRANCH  10  23
BRANCH  11  25
ATOM     25  O   UNL     1       0.072 -33.039 -51.605  1.00  0.00    -0.508 OA
ATOM     26  H   UNL     1      -0.229 -33.925 -51.993  1.00  0.00     0.293 HD
ENDBRANCH  11  25
ENDBRANCH   1   2
BRANCH   1  27
ATOM     27  C   UNL     1      -2.706 -25.591 -54.831  1.00  0.00     0.339 C 
ATOM     28  C   UNL     1      -4.212 -25.386 -55.055  1.00  0.00     0.214 C 
ATOM     29  O   UNL     1      -1.937 -24.476 -55.254  1.00  0.00    -0.332 OA
ATOM     30  C   UNL     1      -4.684 -24.121 -54.325  1.00  0.00     0.180 C 
ATOM     31  C   UNL     1      -2.297 -23.245 -54.632  1.00  0.00     0.179 C 
ATOM     32  C   UNL     1      -3.809 -22.912 -54.718  1.00  0.00     0.177 C 
BRANCH  28  33
ATOM     33  O   UNL     1      -4.462 -25.288 -56.434  1.00  0.00    -0.384 OA
ATOM     34  H   UNL     1      -5.440 -25.411 -56.562  1.00  0.00     0.211 HD
ENDBRANCH  28  33
BRANCH  30  35
ATOM     35  O   UNL     1      -6.035 -23.876 -54.624  1.00  0.00    -0.387 OA
ATOM     36  H   UNL     1      -6.435 -23.459 -53.817  1.00  0.00     0.211 HD
ENDBRANCH  30  35
BRANCH  31  37
ATOM     37  C   UNL     1      -1.663 -23.068 -53.233  1.00  0.00     0.191 C 
BRANCH  37  38
ATOM     38  O   UNL     1      -2.440 -22.253 -52.401  1.00  0.00    -0.394 OA
ATOM     39  H   UNL     1      -3.371 -22.320 -52.737  1.00  0.00     0.210 HD
ENDBRANCH  37  38
ENDBRANCH  31  37
BRANCH  32  40
ATOM     40  O   UNL     1      -4.110 -22.510 -56.033  1.00  0.00    -0.387 OA
ATOM     41  H   UNL     1      -5.094 -22.389 -56.085  1.00  0.00     0.211 HD
ENDBRANCH  32  40
ENDBRANCH   1  27
TORSDOF 12
ENDMDL
MODEL 7
REMARK VINA RESULT:    -8.745      2.447      8.416
REMARK INTER + INTRA:         -12.097
REMARK INTER:                 -11.026
REMARK INTRA:                  -1.071
REMARK UNBOUND:                 0.738
REMARK SMILES O=c1c(O[C@@H]2O[C@H](CO)[C@@H](O)[C@@H](O)[C@H]2O)c(-c2ccc(O)c(O)c2)oc2cc(O)cc(O)c12
REMARK SMILES IDX 4 1 3 2 16 3 25 4 2 5 26 6 1 7 33 8 27 9 31 10 28 11 30 12
REMARK SMILES IDX 17 13 18 14 19 15 20 16 24 17 22 18 21 19 23 21 32 23 29 25
REMARK SMILES IDX 5 27 14 28 6 29 12 30 7 31 10 32 15 33 13 35 8 37 9 38 11 40
REMARK H PARENT 21 20 23 22 32 24 29 26 15 34 13 36 9 39 11 41
REMARK Flexibility Score: inf
ROOT
ATOM      1  O   UNL     1      -3.570 -25.626 -53.915  1.00  0.00    -0.454 OA
ENDROOT
BRANCH   1   2
ATOM      2  C   UNL     1      -3.047 -26.843 -53.462  1.00  0.00     0.214 A 
ATOM      3  C   UNL     1      -1.662 -27.030 -53.269  1.00  0.00     0.180 A 
ATOM      4  O   UNL     1      -1.202 -28.227 -52.915  1.00  0.00    -0.452 OA
ATOM      5  C   UNL     1      -3.917 -27.906 -53.197  1.00  0.00     0.239 A 
ATOM      6  C   UNL     1      -1.989 -29.272 -52.688  1.00  0.00     0.146 A 
ATOM      7  O   UNL     1      -5.158 -27.731 -53.327  1.00  0.00    -0.285 OA
ATOM      8  C   UNL     1      -3.394 -29.155 -52.806  1.00  0.00     0.111 A 
ATOM      9  C   UNL     1      -1.413 -30.492 -52.320  1.00  0.00     0.094 A 
ATOM     10  C   UNL     1      -4.205 -30.285 -52.541  1.00  0.00     0.134 A 
ATOM     11  C   UNL     1      -2.220 -31.605 -52.061  1.00  0.00     0.123 A 
ATOM     12  C   UNL     1      -3.608 -31.498 -52.171  1.00  0.00     0.093 A 
BRANCH   3  13
ATOM     13  C   UNL     1      -0.684 -25.930 -53.433  1.00  0.00     0.025 A 
ATOM     14  C   UNL     1      -0.226 -25.547 -54.705  1.00  0.00     0.016 A 
ATOM     15  C   UNL     1       0.693 -24.503 -54.839  1.00  0.00     0.051 A 
ATOM     16  C   UNL     1       1.153 -23.816 -53.708  1.00  0.00     0.157 A 
ATOM     17  C   UNL     1      -0.238 -25.225 -52.304  1.00  0.00     0.062 A 
ATOM     18  C   UNL     1       0.682 -24.179 -52.435  1.00  0.00     0.158 A 
BRANCH  16  19
ATOM     19  O   UNL     1       2.071 -22.777 -53.845  1.00  0.00    -0.504 OA
ATOM     20  H   UNL     1       2.177 -22.064 -53.133  1.00  0.00     0.293 HD
ENDBRANCH  16  19
BRANCH  18  21
ATOM     21  O   UNL     1       1.115 -23.510 -51.290  1.00  0.00    -0.504 OA
ATOM     22  H   UNL     1       0.535 -22.834 -50.809  1.00  0.00     0.293 HD
ENDBRANCH  18  21
ENDBRANCH   3  13
BRANCH  10  23
ATOM     23  O   UNL     1      -5.595 -30.211 -52.645  1.00  0.00    -0.507 OA
ATOM     24  H   UNL     1      -6.184 -30.081 -51.830  1.00  0.00     0.293 HD
ENDBRANCH  10  23
BRANCH  11  25
ATOM     25  O   UNL     1      -1.651 -32.822 -51.692  1.00  0.00    -0.508 OA
ATOM     26  H   UNL     1      -0.961 -32.882 -50.952  1.00  0.00     0.293 HD
ENDBRANCH  11  25
ENDBRANCH   1   2
BRANCH   1  27
ATOM     27  C   UNL     1      -3.612 -25.266 -55.298  1.00  0.00     0.339 C 
ATOM     28  C   UNL     1      -4.862 -25.835 -55.989  1.00  0.00     0.214 C 
ATOM     29  O   UNL     1      -3.497 -23.860 -55.455  1.00  0.00    -0.332 OA
ATOM     30  C   UNL     1      -6.121 -25.145 -55.448  1.00  0.00     0.180 C 
ATOM     31  C   UNL     1      -4.620 -23.122 -54.981  1.00  0.00     0.179 C 
ATOM     32  C   UNL     1      -5.981 -23.611 -55.543  1.00  0.00     0.177 C 
BRANCH  28  33
ATOM     33  O   UNL     1      -4.746 -25.643 -57.376  1.00  0.00    -0.384 OA
ATOM     34  H   UNL     1      -5.282 -26.356 -57.814  1.00  0.00     0.211 HD
ENDBRANCH  28  33
BRANCH  30  35
ATOM     35  O   UNL     1      -7.248 -25.587 -56.160  1.00  0.00    -0.387 OA
ATOM     36  H   UNL     1      -8.010 -25.019 -55.872  1.00  0.00     0.211 HD
ENDBRANCH  30  35
BRANCH  31  37
ATOM     37  C   UNL     1      -4.586 -22.888 -53.453  1.00  0.00     0.191 C 
BRANCH  37  38
ATOM     38  O   UNL     1      -5.870 -22.846 -52.896  1.00  0.00    -0.394 OA
ATOM     39  H   UNL     1      -5.764 -23.073 -51.936  1.00  0.00     0.210 HD
ENDBRANCH  37  38
ENDBRANCH  31  37
BRANCH  32  40
ATOM     40  O   UNL     1      -6.089 -23.202 -56.885  1.00  0.00    -0.387 OA
ATOM     41  H   UNL     1      -6.982 -22.782 -56.993  1.00  0.00     0.211 HD
ENDBRANCH  32  40
ENDBRANCH   1  27
TORSDOF 12
ENDMDL
MODEL 8
REMARK VINA RESULT:    -8.723      2.443      7.494
REMARK INTER + INTRA:         -12.064
REMARK INTER:                 -10.406
REMARK INTRA:                  -1.659
REMARK UNBOUND:                 0.738
REMARK SMILES O=c1c(O[C@@H]2O[C@H](CO)[C@@H](O)[C@@H](O)[C@H]2O)c(-c2ccc(O)c(O)c2)oc2cc(O)cc(O)c12
REMARK SMILES IDX 4 1 3 2 16 3 25 4 2 5 26 6 1 7 33 8 27 9 31 10 28 11 30 12
REMARK SMILES IDX 17 13 18 14 19 15 20 16 24 17 22 18 21 19 23 21 32 23 29 25
REMARK SMILES IDX 5 27 14 28 6 29 12 30 7 31 10 32 15 33 13 35 8 37 9 38 11 40
REMARK H PARENT 21 20 23 22 32 24 29 26 15 34 13 36 9 39 11 41
REMARK Flexibility Score: inf
ROOT
ATOM      1  O   UNL     1      -1.970 -26.009 -53.508  1.00  0.00    -0.454 OA
ENDROOT
BRANCH   1   2
ATOM      2  C   UNL     1      -2.784 -27.144 -53.402  1.00  0.00     0.214 A 
ATOM      3  C   UNL     1      -4.139 -27.125 -53.794  1.00  0.00     0.180 A 
ATOM      4  O   UNL     1      -4.896 -28.202 -53.601  1.00  0.00    -0.452 OA
ATOM      5  C   UNL     1      -2.244 -28.329 -52.890  1.00  0.00     0.239 A 
ATOM      6  C   UNL     1      -4.433 -29.335 -53.085  1.00  0.00     0.146 A 
ATOM      7  O   UNL     1      -1.024 -28.362 -52.578  1.00  0.00    -0.285 OA
ATOM      8  C   UNL     1      -3.073 -29.455 -52.716  1.00  0.00     0.111 A 
ATOM      9  C   UNL     1      -5.306 -30.414 -52.920  1.00  0.00     0.094 A 
ATOM     10  C   UNL     1      -2.609 -30.682 -52.185  1.00  0.00     0.134 A 
ATOM     11  C   UNL     1      -4.842 -31.624 -52.393  1.00  0.00     0.123 A 
ATOM     12  C   UNL     1      -3.500 -31.754 -52.029  1.00  0.00     0.093 A 
BRANCH   3  13
ATOM     13  C   UNL     1      -4.761 -25.943 -54.435  1.00  0.00     0.025 A 
ATOM     14  C   UNL     1      -5.230 -25.995 -55.759  1.00  0.00     0.016 A 
ATOM     15  C   UNL     1      -5.818 -24.870 -56.343  1.00  0.00     0.051 A 
ATOM     16  C   UNL     1      -5.962 -23.686 -55.610  1.00  0.00     0.157 A 
ATOM     17  C   UNL     1      -4.927 -24.761 -53.695  1.00  0.00     0.062 A 
ATOM     18  C   UNL     1      -5.517 -23.634 -54.278  1.00  0.00     0.158 A 
BRANCH  16  19
ATOM     19  O   UNL     1      -6.548 -22.566 -56.197  1.00  0.00    -0.504 OA
ATOM     20  H   UNL     1      -7.397 -22.636 -56.744  1.00  0.00     0.293 HD
ENDBRANCH  16  19
BRANCH  18  21
ATOM     21  O   UNL     1      -5.653 -22.471 -53.519  1.00  0.00    -0.504 OA
ATOM     22  H   UNL     1      -6.524 -22.222 -53.067  1.00  0.00     0.293 HD
ENDBRANCH  18  21
ENDBRANCH   3  13
BRANCH  10  23
ATOM     23  O   UNL     1      -1.274 -30.843 -51.810  1.00  0.00    -0.507 OA
ATOM     24  H   UNL     1      -1.010 -31.042 -50.852  1.00  0.00     0.293 HD
ENDBRANCH  10  23
BRANCH  11  25
ATOM     25  O   UNL     1      -5.706 -32.703 -52.227  1.00  0.00    -0.508 OA
ATOM     26  H   UNL     1      -6.485 -32.664 -51.581  1.00  0.00     0.293 HD
ENDBRANCH  11  25
ENDBRANCH   1   2
BRANCH   1  27
ATOM     27  C   UNL     1      -1.099 -25.780 -54.618  1.00  0.00     0.339 C 
ATOM     28  C   UNL     1      -1.627 -24.655 -55.523  1.00  0.00     0.214 C 
ATOM     29  O   UNL     1       0.228 -25.542 -54.175  1.00  0.00    -0.332 OA
ATOM     30  C   UNL     1      -1.557 -23.311 -54.786  1.00  0.00     0.180 C 
ATOM     31  C   UNL     1       0.403 -24.313 -53.475  1.00  0.00     0.179 C 
ATOM     32  C   UNL     1      -0.136 -23.072 -54.233  1.00  0.00     0.177 C 
BRANCH  28  33
ATOM     33  O   UNL     1      -0.864 -24.618 -56.702  1.00  0.00    -0.384 OA
ATOM     34  H   UNL     1      -0.087 -25.222 -56.565  1.00  0.00     0.211 HD
ENDBRANCH  28  33
BRANCH  30  35
ATOM     35  O   UNL     1      -1.934 -22.273 -55.653  1.00  0.00    -0.387 OA
ATOM     36  H   UNL     1      -2.924 -22.209 -55.609  1.00  0.00     0.211 HD
ENDBRANCH  30  35
BRANCH  31  37
ATOM     37  C   UNL     1      -0.007 -24.404 -51.987  1.00  0.00     0.191 C 
BRANCH  37  38
ATOM     38  O   UNL     1      -0.018 -25.724 -51.521  1.00  0.00    -0.394 OA
ATOM     39  H   UNL     1       0.858 -25.870 -51.080  1.00  0.00     0.210 HD
ENDBRANCH  37  38
ENDBRANCH  31  37
BRANCH  32  40
ATOM     40  O   UNL     1       0.745 -22.770 -55.288  1.00  0.00    -0.387 OA
ATOM     41  H   UNL     1       1.317 -23.569 -55.431  1.00  0.00     0.211 HD
ENDBRANCH  32  40
ENDBRANCH   1  27
TORSDOF 12
ENDMDL
MODEL 9
REMARK VINA RESULT:    -8.656      2.212      7.100
REMARK INTER + INTRA:         -11.965
REMARK INTER:                 -10.448
REMARK INTRA:                  -1.518
REMARK UNBOUND:                 0.738
REMARK SMILES O=c1c(O[C@@H]2O[C@H](CO)[C@@H](O)[C@@H](O)[C@H]2O)c(-c2ccc(O)c(O)c2)oc2cc(O)cc(O)c12
REMARK SMILES IDX 4 1 3 2 16 3 25 4 2 5 26 6 1 7 33 8 27 9 31 10 28 11 30 12
REMARK SMILES IDX 17 13 18 14 19 15 20 16 24 17 22 18 21 19 23 21 32 23 29 25
REMARK SMILES IDX 5 27 14 28 6 29 12 30 7 31 10 32 15 33 13 35 8 37 9 38 11 40
REMARK H PARENT 21 20 23 22 32 24 29 26 15 34 13 36 9 39 11 41
REMARK Flexibility Score: inf
ROOT
ATOM      1  O   UNL     1      -1.813 -26.515 -53.992  1.00  0.00    -0.454 OA
ENDROOT
BRANCH   1   2
ATOM      2  C   UNL     1      -2.698 -27.520 -53.583  1.00  0.00     0.214 A 
ATOM      3  C   UNL     1      -4.097 -27.351 -53.653  1.00  0.00     0.180 A 
ATOM      4  O   UNL     1      -4.900 -28.300 -53.178  1.00  0.00    -0.452 OA
ATOM      5  C   UNL     1      -2.186 -28.723 -53.086  1.00  0.00     0.239 A 
ATOM      6  C   UNL     1      -4.455 -29.442 -52.666  1.00  0.00     0.146 A 
ATOM      7  O   UNL     1      -0.938 -28.895 -53.061  1.00  0.00    -0.285 OA
ATOM      8  C   UNL     1      -3.068 -29.713 -52.608  1.00  0.00     0.111 A 
ATOM      9  C   UNL     1      -5.376 -30.380 -52.191  1.00  0.00     0.094 A 
ATOM     10  C   UNL     1      -2.629 -30.947 -52.071  1.00  0.00     0.134 A 
ATOM     11  C   UNL     1      -4.936 -31.596 -51.660  1.00  0.00     0.123 A 
ATOM     12  C   UNL     1      -3.569 -31.875 -51.602  1.00  0.00     0.093 A 
BRANCH   3  13
ATOM     13  C   UNL     1      -4.720 -26.150 -54.255  1.00  0.00     0.025 A 
ATOM     14  C   UNL     1      -5.117 -26.134 -55.603  1.00  0.00     0.016 A 
ATOM     15  C   UNL     1      -5.708 -24.992 -56.151  1.00  0.00     0.051 A 
ATOM     16  C   UNL     1      -5.926 -23.859 -55.357  1.00  0.00     0.157 A 
ATOM     17  C   UNL     1      -4.960 -25.020 -53.457  1.00  0.00     0.062 A 
ATOM     18  C   UNL     1      -5.552 -23.875 -54.003  1.00  0.00     0.158 A 
BRANCH  16  19
ATOM     19  O   UNL     1      -6.513 -22.721 -55.907  1.00  0.00    -0.504 OA
ATOM     20  H   UNL     1      -6.741 -21.913 -55.339  1.00  0.00     0.293 HD
ENDBRANCH  16  19
BRANCH  18  21
ATOM     21  O   UNL     1      -5.762 -22.765 -53.185  1.00  0.00    -0.504 OA
ATOM     22  H   UNL     1      -4.996 -22.215 -52.817  1.00  0.00     0.293 HD
ENDBRANCH  18  21
ENDBRANCH   3  13
BRANCH  10  23
ATOM     23  O   UNL     1      -1.270 -31.254 -51.997  1.00  0.00    -0.507 OA
ATOM     24  H   UNL     1      -0.704 -30.981 -51.202  1.00  0.00     0.293 HD
ENDBRANCH  10  23
BRANCH  11  25
ATOM     25  O   UNL     1      -5.850 -32.536 -51.187  1.00  0.00    -0.508 OA
ATOM     26  H   UNL     1      -6.697 -32.256 -50.708  1.00  0.00     0.293 HD
ENDBRANCH  11  25
ENDBRANCH   1   2
BRANCH   1  27
ATOM     27  C   UNL     1      -1.268 -25.547 -53.093  1.00  0.00     0.339 C 
ATOM     28  C   UNL     1       0.260 -25.680 -52.984  1.00  0.00     0.214 C 
ATOM     29  O   UNL     1      -1.674 -24.237 -53.457  1.00  0.00    -0.332 OA
ATOM     30  C   UNL     1       0.918 -25.280 -54.311  1.00  0.00     0.180 C 
ATOM     31  C   UNL     1      -1.117 -23.768 -54.681  1.00  0.00     0.179 C 
ATOM     32  C   UNL     1       0.428 -23.887 -54.759  1.00  0.00     0.177 C 
BRANCH  28  33
ATOM     33  O   UNL     1       0.718 -24.865 -51.935  1.00  0.00    -0.384 OA
ATOM     34  H   UNL     1       1.009 -24.006 -52.340  1.00  0.00     0.211 HD
ENDBRANCH  28  33
BRANCH  30  35
ATOM     35  O   UNL     1       2.315 -25.295 -54.172  1.00  0.00    -0.387 OA
ATOM     36  H   UNL     1       2.518 -25.850 -53.374  1.00  0.00     0.211 HD
ENDBRANCH  30  35
BRANCH  31  37
ATOM     37  C   UNL     1      -1.879 -24.279 -55.926  1.00  0.00     0.191 C 
BRANCH  37  38
ATOM     38  O   UNL     1      -1.151 -25.245 -56.631  1.00  0.00    -0.394 OA
ATOM     39  H   UNL     1      -0.434 -25.553 -56.020  1.00  0.00     0.210 HD
ENDBRANCH  37  38
ENDBRANCH  31  37
BRANCH  32  40
ATOM     40  O   UNL     1       0.999 -22.893 -53.943  1.00  0.00    -0.387 OA
ATOM     41  H   UNL     1       1.629 -23.348 -53.324  1.00  0.00     0.211 HD
ENDBRANCH  32  40
ENDBRANCH   1  27
TORSDOF 12
ENDMDL
