MODEL 1
REMARK VINA RESULT:    -3.888      0.000      0.000
REMARK INTER + INTRA:          -9.804
REMARK INTER:                  -7.524
REMARK INTRA:                  -2.280
REMARK UNBOUND:                -2.280
REMARK SMILES CCCCCCCCCCCCCCCCCC(=O)[O-]
REMARK SMILES IDX 10 1 11 2 12 3 13 4 14 5 15 6 16 7 17 8 18 9 19 10 20 11
REMARK SMILES IDX 9 12 8 13 7 14 6 15 5 16 4 17 3 18 2 19 1 20
REMARK H PARENT
REMARK Flexibility Score: inf
ROOT
ATOM      1  C   UNL     1      16.573  17.532  14.592  1.00  0.00     0.000 C 
ENDROOT
BRANCH   1   2
ATOM      2  C   UNL     1      16.369  19.048  14.431  1.00  0.00     0.000 C 
BRANCH   2   3
ATOM      3  C   UNL     1      17.594  19.753  13.828  1.00  0.00     0.000 C 
BRANCH   3   4
ATOM      4  C   UNL     1      18.549  20.231  14.931  1.00  0.00     0.000 C 
BRANCH   4   5
ATOM      5  C   UNL     1      20.025  19.992  14.574  1.00  0.00     0.000 C 
BRANCH   5   6
ATOM      6  C   UNL     1      20.761  19.166  15.644  1.00  0.00     0.000 C 
BRANCH   6   7
ATOM      7  C   UNL     1      19.812  18.634  16.731  1.00  0.00     0.006 C 
BRANCH   7   8
ATOM      8  C   UNL     1      20.021  17.140  17.011  1.00  0.00     0.053 C 
BRANCH   8   9
ATOM      9  C   UNL     1      20.676  16.946  18.343  1.00  0.00     0.041 C 
ATOM     10  O   UNL     1      21.634  17.684  18.691  1.00  0.00    -0.550 OA
ATOM     11  O   UNL     1      20.261  15.917  19.181  1.00  0.00    -0.550 OA
ENDBRANCH   8   9
ENDBRANCH   7   8
ENDBRANCH   6   7
ENDBRANCH   5   6
ENDBRANCH   4   5
ENDBRANCH   3   4
ENDBRANCH   2   3
ENDBRANCH   1   2
BRANCH   1  12
ATOM     12  C   UNL     1      16.380  16.997  16.025  1.00  0.00     0.000 C 
BRANCH  12  13
ATOM     13  C   UNL     1      16.298  18.102  17.100  1.00  0.00    -0.000 C 
BRANCH  13  14
ATOM     14  C   UNL     1      15.004  18.017  17.931  1.00  0.00    -0.000 C 
BRANCH  14  15
ATOM     15  C   UNL     1      13.984  19.101  17.545  1.00  0.00    -0.000 C 
BRANCH  15  16
ATOM     16  C   UNL     1      12.632  18.509  17.113  1.00  0.00    -0.000 C 
BRANCH  16  17
ATOM     17  C   UNL     1      12.670  17.893  15.702  1.00  0.00    -0.000 C 
BRANCH  17  18
ATOM     18  C   UNL     1      12.759  16.357  15.662  1.00  0.00    -0.000 C 
BRANCH  18  19
ATOM     19  C   UNL     1      12.004  15.682  16.816  1.00  0.00    -0.003 C 
ATOM     20  C   UNL     1      10.497  15.706  16.573  1.00  0.00     0.004 C 
ENDBRANCH  18  19
ENDBRANCH  17  18
ENDBRANCH  16  17
ENDBRANCH  15  16
ENDBRANCH  14  15
ENDBRANCH  13  14
ENDBRANCH  12  13
ENDBRANCH   1  12
TORSDOF 16
ENDMDL
MODEL 2
REMARK VINA RESULT:    -3.885      6.721      9.693
REMARK INTER + INTRA:          -9.799
REMARK INTER:                  -7.592
REMARK INTRA:                  -2.207
REMARK UNBOUND:                -2.280
REMARK SMILES CCCCCCCCCCCCCCCCCC(=O)[O-]
REMARK SMILES IDX 10 1 11 2 12 3 13 4 14 5 15 6 16 7 17 8 18 9 19 10 20 11
REMARK SMILES IDX 9 12 8 13 7 14 6 15 5 16 4 17 3 18 2 19 1 20
REMARK H PARENT
REMARK Flexibility Score: inf
ROOT
ATOM      1  C   UNL     1      10.263  16.967  12.845  1.00  0.00     0.000 C 
ENDROOT
BRANCH   1   2
ATOM      2  C   UNL     1       9.739  16.384  11.523  1.00  0.00     0.000 C 
BRANCH   2   3
ATOM      3  C   UNL     1       8.288  15.888  11.624  1.00  0.00     0.000 C 
BRANCH   3   4
ATOM      4  C   UNL     1       7.312  16.932  11.062  1.00  0.00     0.000 C 
BRANCH   4   5
ATOM      5  C   UNL     1       7.902  17.707   9.872  1.00  0.00     0.000 C 
BRANCH   5   6
ATOM      6  C   UNL     1       8.001  19.217  10.146  1.00  0.00     0.000 C 
BRANCH   6   7
ATOM      7  C   UNL     1       9.207  19.863   9.443  1.00  0.00     0.006 C 
BRANCH   7   8
ATOM      8  C   UNL     1      10.147  18.822   8.819  1.00  0.00     0.053 C 
BRANCH   8   9
ATOM      9  C   UNL     1      11.052  19.470   7.818  1.00  0.00     0.041 C 
ATOM     10  O   UNL     1      12.266  19.143   7.757  1.00  0.00    -0.550 OA
ATOM     11  O   UNL     1      10.567  20.471   6.985  1.00  0.00    -0.550 OA
ENDBRANCH   8   9
ENDBRANCH   7   8
ENDBRANCH   6   7
ENDBRANCH   5   6
ENDBRANCH   4   5
ENDBRANCH   3   4
ENDBRANCH   2   3
ENDBRANCH   1   2
BRANCH   1  12
ATOM     12  C   UNL     1      10.849  18.390  12.743  1.00  0.00     0.000 C 
BRANCH  12  13
ATOM     13  C   UNL     1      10.334  19.359  13.829  1.00  0.00    -0.000 C 
BRANCH  13  14
ATOM     14  C   UNL     1      11.421  19.713  14.860  1.00  0.00    -0.000 C 
BRANCH  14  15
ATOM     15  C   UNL     1      12.842  19.483  14.320  1.00  0.00    -0.000 C 
BRANCH  15  16
ATOM     16  C   UNL     1      13.717  18.676  15.294  1.00  0.00    -0.000 C 
BRANCH  16  17
ATOM     17  C   UNL     1      12.896  17.777  16.235  1.00  0.00    -0.000 C 
BRANCH  17  18
ATOM     18  C   UNL     1      12.686  16.334  15.742  1.00  0.00    -0.000 C 
BRANCH  18  19
ATOM     19  C   UNL     1      11.833  15.490  16.701  1.00  0.00    -0.003 C 
ATOM     20  C   UNL     1      10.354  15.848  16.578  1.00  0.00     0.004 C 
ENDBRANCH  18  19
ENDBRANCH  17  18
ENDBRANCH  16  17
ENDBRANCH  15  16
ENDBRANCH  14  15
ENDBRANCH  13  14
ENDBRANCH  12  13
ENDBRANCH   1  12
TORSDOF 16
ENDMDL
MODEL 3
REMARK VINA RESULT:    -3.855      5.552      8.252
REMARK INTER + INTRA:          -9.740
REMARK INTER:                  -7.369
REMARK INTRA:                  -2.371
REMARK UNBOUND:                -2.280
REMARK SMILES CCCCCCCCCCCCCCCCCC(=O)[O-]
REMARK SMILES IDX 10 1 11 2 12 3 13 4 14 5 15 6 16 7 17 8 18 9 19 10 20 11
REMARK SMILES IDX 9 12 8 13 7 14 6 15 5 16 4 17 3 18 2 19 1 20
REMARK H PARENT
REMARK Flexibility Score: inf
ROOT
ATOM      1  C   UNL     1      10.625  18.344  12.417  1.00  0.00     0.000 C 
ENDROOT
BRANCH   1   2
ATOM      2  C   UNL     1       9.875  19.294  13.366  1.00  0.00     0.000 C 
BRANCH   2   3
ATOM      3  C   UNL     1      10.612  20.624  13.582  1.00  0.00     0.000 C 
BRANCH   3   4
ATOM      4  C   UNL     1      11.102  20.750  15.033  1.00  0.00     0.000 C 
BRANCH   4   5
ATOM      5  C   UNL     1      11.535  19.399  15.625  1.00  0.00     0.000 C 
BRANCH   5   6
ATOM      6  C   UNL     1      13.007  19.070  15.323  1.00  0.00     0.000 C 
BRANCH   6   7
ATOM      7  C   UNL     1      13.406  17.666  15.810  1.00  0.00     0.006 C 
BRANCH   7   8
ATOM      8  C   UNL     1      12.339  16.611  15.488  1.00  0.00     0.053 C 
BRANCH   8   9
ATOM      9  C   UNL     1      11.920  15.896  16.735  1.00  0.00     0.041 C 
ATOM     10  O   UNL     1      12.766  15.634  17.630  1.00  0.00    -0.550 OA
ATOM     11  O   UNL     1      10.604  15.474  16.888  1.00  0.00    -0.550 OA
ENDBRANCH   8   9
ENDBRANCH   7   8
ENDBRANCH   6   7
ENDBRANCH   5   6
ENDBRANCH   4   5
ENDBRANCH   3   4
ENDBRANCH   2   3
ENDBRANCH   1   2
BRANCH   1  12
ATOM     12  C   UNL     1      10.249  16.855  12.554  1.00  0.00     0.000 C 
BRANCH  12  13
ATOM     13  C   UNL     1       9.536  16.273  11.315  1.00  0.00    -0.000 C 
BRANCH  13  14
ATOM     14  C   UNL     1       8.073  15.890  11.608  1.00  0.00    -0.000 C 
BRANCH  14  15
ATOM     15  C   UNL     1       7.071  16.884  10.997  1.00  0.00    -0.000 C 
BRANCH  15  16
ATOM     16  C   UNL     1       7.680  17.699   9.844  1.00  0.00    -0.000 C 
BRANCH  16  17
ATOM     17  C   UNL     1       7.760  19.206  10.150  1.00  0.00    -0.000 C 
BRANCH  17  18
ATOM     18  C   UNL     1       8.990  19.925   9.569  1.00  0.00    -0.000 C 
BRANCH  18  19
ATOM     19  C   UNL     1       9.907  18.992   8.765  1.00  0.00    -0.003 C 
ATOM     20  C   UNL     1      11.375  19.365   8.959  1.00  0.00     0.004 C 
ENDBRANCH  18  19
ENDBRANCH  17  18
ENDBRANCH  16  17
ENDBRANCH  15  16
ENDBRANCH  14  15
ENDBRANCH  13  14
ENDBRANCH  12  13
ENDBRANCH   1  12
TORSDOF 16
ENDMDL
MODEL 4
REMARK VINA RESULT:    -3.839      1.227      2.044
REMARK INTER + INTRA:          -9.710
REMARK INTER:                  -7.234
REMARK INTRA:                  -2.477
REMARK UNBOUND:                -2.280
REMARK SMILES CCCCCCCCCCCCCCCCCC(=O)[O-]
REMARK SMILES IDX 10 1 11 2 12 3 13 4 14 5 15 6 16 7 17 8 18 9 19 10 20 11
REMARK SMILES IDX 9 12 8 13 7 14 6 15 5 16 4 17 3 18 2 19 1 20
REMARK H PARENT
REMARK Flexibility Score: inf
ROOT
ATOM      1  C   UNL     1      14.972  16.539  16.156  1.00  0.00     0.000 C 
ENDROOT
BRANCH   1   2
ATOM      2  C   UNL     1      16.385  16.938  15.700  1.00  0.00     0.000 C 
BRANCH   2   3
ATOM      3  C   UNL     1      16.376  17.883  14.489  1.00  0.00     0.000 C 
BRANCH   3   4
ATOM      4  C   UNL     1      16.964  19.253  14.858  1.00  0.00     0.000 C 
BRANCH   4   5
ATOM      5  C   UNL     1      18.243  19.574  14.068  1.00  0.00     0.000 C 
BRANCH   5   6
ATOM      6  C   UNL     1      19.375  20.097  14.971  1.00  0.00     0.000 C 
BRANCH   6   7
ATOM      7  C   UNL     1      20.490  19.057  15.174  1.00  0.00     0.006 C 
BRANCH   7   8
ATOM      8  C   UNL     1      20.038  17.877  16.044  1.00  0.00     0.053 C 
BRANCH   8   9
ATOM      9  C   UNL     1      19.839  18.319  17.461  1.00  0.00     0.041 C 
ATOM     10  O   UNL     1      18.700  18.251  17.992  1.00  0.00    -0.550 OA
ATOM     11  O   UNL     1      20.902  18.853  18.180  1.00  0.00    -0.550 OA
ENDBRANCH   8   9
ENDBRANCH   7   8
ENDBRANCH   6   7
ENDBRANCH   5   6
ENDBRANCH   4   5
ENDBRANCH   3   4
ENDBRANCH   2   3
ENDBRANCH   1   2
BRANCH   1  12
ATOM     12  C   UNL     1      14.594  16.991  17.581  1.00  0.00     0.000 C 
BRANCH  12  13
ATOM     13  C   UNL     1      14.775  18.505  17.826  1.00  0.00    -0.000 C 
BRANCH  13  14
ATOM     14  C   UNL     1      13.479  19.298  17.575  1.00  0.00    -0.000 C 
BRANCH  14  15
ATOM     15  C   UNL     1      13.491  20.036  16.226  1.00  0.00    -0.000 C 
BRANCH  15  16
ATOM     16  C   UNL     1      12.821  19.224  15.106  1.00  0.00    -0.000 C 
BRANCH  16  17
ATOM     17  C   UNL     1      11.585  18.443  15.588  1.00  0.00    -0.000 C 
BRANCH  17  18
ATOM     18  C   UNL     1      11.446  17.021  15.014  1.00  0.00    -0.000 C 
BRANCH  18  19
ATOM     19  C   UNL     1      10.613  16.091  15.909  1.00  0.00    -0.003 C 
ATOM     20  C   UNL     1      11.492  15.398  16.947  1.00  0.00     0.004 C 
ENDBRANCH  18  19
ENDBRANCH  17  18
ENDBRANCH  16  17
ENDBRANCH  15  16
ENDBRANCH  14  15
ENDBRANCH  13  14
ENDBRANCH  12  13
ENDBRANCH   1  12
TORSDOF 16
ENDMDL
MODEL 5
REMARK VINA RESULT:    -3.828      1.819      3.289
REMARK INTER + INTRA:          -9.688
REMARK INTER:                  -6.825
REMARK INTRA:                  -2.863
REMARK UNBOUND:                -2.280
REMARK SMILES CCCCCCCCCCCCCCCCCC(=O)[O-]
REMARK SMILES IDX 10 1 11 2 12 3 13 4 14 5 15 6 16 7 17 8 18 9 19 10 20 11
REMARK SMILES IDX 9 12 8 13 7 14 6 15 5 16 4 17 3 18 2 19 1 20
REMARK H PARENT
REMARK Flexibility Score: inf
ROOT
ATOM      1  C   UNL     1      15.258  18.848  14.808  1.00  0.00     0.000 C 
ENDROOT
BRANCH   1   2
ATOM      2  C   UNL     1      15.365  19.983  15.839  1.00  0.00     0.000 C 
BRANCH   2   3
ATOM      3  C   UNL     1      14.107  20.118  16.710  1.00  0.00     0.000 C 
BRANCH   3   4
ATOM      4  C   UNL     1      14.347  19.542  18.113  1.00  0.00     0.000 C 
BRANCH   4   5
ATOM      5  C   UNL     1      15.792  19.751  18.594  1.00  0.00     0.000 C 
BRANCH   5   6
ATOM      6  C   UNL     1      16.439  18.447  19.094  1.00  0.00     0.000 C 
BRANCH   6   7
ATOM      7  C   UNL     1      17.975  18.496  19.038  1.00  0.00     0.006 C 
BRANCH   7   8
ATOM      8  C   UNL     1      18.498  18.912  17.656  1.00  0.00     0.053 C 
BRANCH   8   9
ATOM      9  C   UNL     1      19.461  17.891  17.134  1.00  0.00     0.041 C 
ATOM     10  O   UNL     1      19.857  17.947  15.940  1.00  0.00    -0.550 OA
ATOM     11  O   UNL     1      19.883  16.849  17.950  1.00  0.00    -0.550 OA
ENDBRANCH   8   9
ENDBRANCH   7   8
ENDBRANCH   6   7
ENDBRANCH   5   6
ENDBRANCH   4   5
ENDBRANCH   3   4
ENDBRANCH   2   3
ENDBRANCH   1   2
BRANCH   1  12
ATOM     12  C   UNL     1      16.373  17.785  14.890  1.00  0.00     0.000 C 
BRANCH  12  13
ATOM     13  C   UNL     1      16.080  16.647  15.891  1.00  0.00    -0.000 C 
BRANCH  13  14
ATOM     14  C   UNL     1      14.596  16.234  15.890  1.00  0.00    -0.000 C 
BRANCH  14  15
ATOM     15  C   UNL     1      13.979  16.250  17.299  1.00  0.00    -0.000 C 
BRANCH  15  16
ATOM     16  C   UNL     1      12.499  15.836  17.296  1.00  0.00    -0.000 C 
BRANCH  16  17
ATOM     17  C   UNL     1      11.558  16.974  16.858  1.00  0.00    -0.000 C 
BRANCH  17  18
ATOM     18  C   UNL     1      11.062  16.888  15.404  1.00  0.00    -0.000 C 
BRANCH  18  19
ATOM     19  C   UNL     1      11.634  17.996  14.507  1.00  0.00    -0.003 C 
ATOM     20  C   UNL     1      10.643  18.380  13.411  1.00  0.00     0.004 C 
ENDBRANCH  18  19
ENDBRANCH  17  18
ENDBRANCH  16  17
ENDBRANCH  15  16
ENDBRANCH  14  15
ENDBRANCH  13  14
ENDBRANCH  12  13
ENDBRANCH   1  12
TORSDOF 16
ENDMDL
MODEL 6
REMARK VINA RESULT:    -3.803      2.826      7.035
REMARK INTER + INTRA:          -9.640
REMARK INTER:                  -7.136
REMARK INTRA:                  -2.504
REMARK UNBOUND:                -2.280
REMARK SMILES CCCCCCCCCCCCCCCCCC(=O)[O-]
REMARK SMILES IDX 10 1 11 2 12 3 13 4 14 5 15 6 16 7 17 8 18 9 19 10 20 11
REMARK SMILES IDX 9 12 8 13 7 14 6 15 5 16 4 17 3 18 2 19 1 20
REMARK H PARENT
REMARK Flexibility Score: inf
ROOT
ATOM      1  C   UNL     1      16.305  17.345  16.125  1.00  0.00     0.000 C 
ENDROOT
BRANCH   1   2
ATOM      2  C   UNL     1      16.286  18.630  16.971  1.00  0.00     0.000 C 
BRANCH   2   3
ATOM      3  C   UNL     1      14.932  18.873  17.655  1.00  0.00     0.000 C 
BRANCH   3   4
ATOM      4  C   UNL     1      14.084  19.871  16.852  1.00  0.00     0.000 C 
BRANCH   4   5
ATOM      5  C   UNL     1      12.725  19.286  16.435  1.00  0.00     0.000 C 
BRANCH   5   6
ATOM      6  C   UNL     1      12.770  18.631  15.043  1.00  0.00     0.000 C 
BRANCH   6   7
ATOM      7  C   UNL     1      12.099  17.246  15.025  1.00  0.00     0.006 C 
BRANCH   7   8
ATOM      8  C   UNL     1      12.936  16.181  15.746  1.00  0.00     0.053 C 
BRANCH   8   9
ATOM      9  C   UNL     1      12.155  15.579  16.873  1.00  0.00     0.041 C 
ATOM     10  O   UNL     1      10.899  15.525  16.815  1.00  0.00    -0.550 OA
ATOM     11  O   UNL     1      12.811  15.122  18.010  1.00  0.00    -0.550 OA
ENDBRANCH   8   9
ENDBRANCH   7   8
ENDBRANCH   6   7
ENDBRANCH   5   6
ENDBRANCH   4   5
ENDBRANCH   3   4
ENDBRANCH   2   3
ENDBRANCH   1   2
BRANCH   1  12
ATOM     12  C   UNL     1      16.555  17.560  14.619  1.00  0.00     0.000 C 
BRANCH  12  13
ATOM     13  C   UNL     1      16.420  19.029  14.165  1.00  0.00    -0.000 C 
BRANCH  13  14
ATOM     14  C   UNL     1      17.735  19.586  13.586  1.00  0.00    -0.000 C 
BRANCH  14  15
ATOM     15  C   UNL     1      18.575  20.325  14.640  1.00  0.00    -0.000 C 
BRANCH  15  16
ATOM     16  C   UNL     1      20.066  19.955  14.568  1.00  0.00    -0.000 C 
BRANCH  16  17
ATOM     17  C   UNL     1      20.558  19.196  15.814  1.00  0.00    -0.000 C 
BRANCH  17  18
ATOM     18  C   UNL     1      19.949  17.795  16.007  1.00  0.00    -0.000 C 
BRANCH  18  19
ATOM     19  C   UNL     1      19.906  17.358  17.479  1.00  0.00    -0.003 C 
ATOM     20  C   UNL     1      21.030  18.012  18.278  1.00  0.00     0.004 C 
ENDBRANCH  18  19
ENDBRANCH  17  18
ENDBRANCH  16  17
ENDBRANCH  15  16
ENDBRANCH  14  15
ENDBRANCH  13  14
ENDBRANCH  12  13
ENDBRANCH   1  12
TORSDOF 16
ENDMDL
MODEL 7
REMARK VINA RESULT:    -3.786      1.253      2.255
REMARK INTER + INTRA:          -9.607
REMARK INTER:                  -7.559
REMARK INTRA:                  -2.048
REMARK UNBOUND:                -2.280
REMARK SMILES CCCCCCCCCCCCCCCCCC(=O)[O-]
REMARK SMILES IDX 10 1 11 2 12 3 13 4 14 5 15 6 16 7 17 8 18 9 19 10 20 11
REMARK SMILES IDX 9 12 8 13 7 14 6 15 5 16 4 17 3 18 2 19 1 20
REMARK H PARENT
REMARK Flexibility Score: inf
ROOT
ATOM      1  C   UNL     1      15.630  17.730  17.272  1.00  0.00     0.000 C 
ENDROOT
BRANCH   1   2
ATOM      2  C   UNL     1      15.754  17.033  15.907  1.00  0.00     0.000 C 
BRANCH   2   3
ATOM      3  C   UNL     1      16.785  17.703  14.987  1.00  0.00     0.000 C 
BRANCH   3   4
ATOM      4  C   UNL     1      17.709  18.634  15.786  1.00  0.00     0.000 C 
BRANCH   4   5
ATOM      5  C   UNL     1      19.170  18.560  15.313  1.00  0.00     0.000 C 
BRANCH   5   6
ATOM      6  C   UNL     1      20.051  17.722  16.256  1.00  0.00     0.000 C 
BRANCH   6   7
ATOM      7  C   UNL     1      19.357  17.425  17.597  1.00  0.00     0.006 C 
BRANCH   7   8
ATOM      8  C   UNL     1      20.271  17.695  18.800  1.00  0.00     0.053 C 
BRANCH   8   9
ATOM      9  C   UNL     1      20.941  16.431  19.241  1.00  0.00     0.041 C 
ATOM     10  O   UNL     1      20.258  15.485  19.714  1.00  0.00    -0.550 OA
ATOM     11  O   UNL     1      22.324  16.315  19.175  1.00  0.00    -0.550 OA
ENDBRANCH   8   9
ENDBRANCH   7   8
ENDBRANCH   6   7
ENDBRANCH   5   6
ENDBRANCH   4   5
ENDBRANCH   3   4
ENDBRANCH   2   3
ENDBRANCH   1   2
BRANCH   1  12
ATOM     12  C   UNL     1      14.314  18.503  17.492  1.00  0.00     0.000 C 
BRANCH  12  13
ATOM     13  C   UNL     1      14.260  19.865  16.767  1.00  0.00    -0.000 C 
BRANCH  13  14
ATOM     14  C   UNL     1      12.993  20.019  15.904  1.00  0.00    -0.000 C 
BRANCH  14  15
ATOM     15  C   UNL     1      13.029  19.141  14.643  1.00  0.00    -0.000 C 
BRANCH  15  16
ATOM     16  C   UNL     1      11.625  18.722  14.178  1.00  0.00    -0.000 C 
BRANCH  16  17
ATOM     17  C   UNL     1      11.168  17.381  14.779  1.00  0.00    -0.000 C 
BRANCH  17  18
ATOM     18  C   UNL     1      12.299  16.490  15.324  1.00  0.00    -0.000 C 
BRANCH  18  19
ATOM     19  C   UNL     1      11.914  15.753  16.615  1.00  0.00    -0.003 C 
ATOM     20  C   UNL     1      10.423  15.900  16.906  1.00  0.00     0.004 C 
ENDBRANCH  18  19
ENDBRANCH  17  18
ENDBRANCH  16  17
ENDBRANCH  15  16
ENDBRANCH  14  15
ENDBRANCH  13  14
ENDBRANCH  12  13
ENDBRANCH   1  12
TORSDOF 16
ENDMDL
MODEL 8
REMARK VINA RESULT:    -3.755      5.306      8.555
REMARK INTER + INTRA:          -9.547
REMARK INTER:                  -7.234
REMARK INTRA:                  -2.313
REMARK UNBOUND:                -2.280
REMARK SMILES CCCCCCCCCCCCCCCCCC(=O)[O-]
REMARK SMILES IDX 10 1 11 2 12 3 13 4 14 5 15 6 16 7 17 8 18 9 19 10 20 11
REMARK SMILES IDX 9 12 8 13 7 14 6 15 5 16 4 17 3 18 2 19 1 20
REMARK H PARENT
REMARK Flexibility Score: inf
ROOT
ATOM      1  C   UNL     1      13.536  16.251  16.661  1.00  0.00     0.000 C 
ENDROOT
BRANCH   1   2
ATOM      2  C   UNL     1      12.137  15.777  17.089  1.00  0.00     0.000 C 
BRANCH   2   3
ATOM      3  C   UNL     1      11.026  16.277  16.153  1.00  0.00     0.000 C 
BRANCH   3   4
ATOM      4  C   UNL     1      11.621  16.926  14.895  1.00  0.00     0.000 C 
BRANCH   4   5
ATOM      5  C   UNL     1      11.122  18.365  14.685  1.00  0.00     0.000 C 
BRANCH   5   6
ATOM      6  C   UNL     1      10.366  18.536  13.356  1.00  0.00     0.000 C 
BRANCH   6   7
ATOM      7  C   UNL     1      10.419  17.271  12.484  1.00  0.00     0.006 C 
BRANCH   7   8
ATOM      8  C   UNL     1       9.774  17.481  11.108  1.00  0.00     0.053 C 
BRANCH   8   9
ATOM      9  C   UNL     1       8.364  16.977  11.110  1.00  0.00     0.041 C 
ATOM     10  O   UNL     1       7.418  17.744  11.432  1.00  0.00    -0.550 OA
ATOM     11  O   UNL     1       8.098  15.647  10.806  1.00  0.00    -0.550 OA
ENDBRANCH   8   9
ENDBRANCH   7   8
ENDBRANCH   6   7
ENDBRANCH   5   6
ENDBRANCH   4   5
ENDBRANCH   3   4
ENDBRANCH   2   3
ENDBRANCH   1   2
BRANCH   1  12
ATOM     12  C   UNL     1      14.211  17.245  17.626  1.00  0.00     0.000 C 
BRANCH  12  13
ATOM     13  C   UNL     1      13.594  18.660  17.600  1.00  0.00    -0.000 C 
BRANCH  13  14
ATOM     14  C   UNL     1      14.592  19.725  17.108  1.00  0.00    -0.000 C 
BRANCH  14  15
ATOM     15  C   UNL     1      14.272  20.221  15.688  1.00  0.00    -0.000 C 
BRANCH  15  16
ATOM     16  C   UNL     1      14.613  19.178  14.611  1.00  0.00    -0.000 C 
BRANCH  16  17
ATOM     17  C   UNL     1      16.115  19.133  14.272  1.00  0.00    -0.000 C 
BRANCH  17  18
ATOM     18  C   UNL     1      16.801  17.779  14.526  1.00  0.00    -0.000 C 
BRANCH  18  19
ATOM     19  C   UNL     1      17.428  17.677  15.925  1.00  0.00    -0.003 C 
ATOM     20  C   UNL     1      18.124  18.981  16.310  1.00  0.00     0.004 C 
ENDBRANCH  18  19
ENDBRANCH  17  18
ENDBRANCH  16  17
ENDBRANCH  15  16
ENDBRANCH  14  15
ENDBRANCH  13  14
ENDBRANCH  12  13
ENDBRANCH   1  12
TORSDOF 16
ENDMDL
MODEL 9
REMARK VINA RESULT:    -3.741      1.154      2.353
REMARK INTER + INTRA:          -9.520
REMARK INTER:                  -7.113
REMARK INTRA:                  -2.407
REMARK UNBOUND:                -2.280
REMARK SMILES CCCCCCCCCCCCCCCCCC(=O)[O-]
REMARK SMILES IDX 10 1 11 2 12 3 13 4 14 5 15 6 16 7 17 8 18 9 19 10 20 11
REMARK SMILES IDX 9 12 8 13 7 14 6 15 5 16 4 17 3 18 2 19 1 20
REMARK H PARENT
REMARK Flexibility Score: inf
ROOT
ATOM      1  C   UNL     1      15.759  17.008  15.507  1.00  0.00     0.000 C 
ENDROOT
BRANCH   1   2
ATOM      2  C   UNL     1      16.784  17.738  14.624  1.00  0.00     0.000 C 
BRANCH   2   3
ATOM      3  C   UNL     1      16.697  19.267  14.749  1.00  0.00     0.000 C 
BRANCH   3   4
ATOM      4  C   UNL     1      17.974  19.838  15.384  1.00  0.00     0.000 C 
BRANCH   4   5
ATOM      5  C   UNL     1      19.248  19.373  14.661  1.00  0.00     0.000 C 
BRANCH   5   6
ATOM      6  C   UNL     1      20.244  18.684  15.611  1.00  0.00     0.000 C 
BRANCH   6   7
ATOM      7  C   UNL     1      19.625  18.375  16.985  1.00  0.00     0.006 C 
BRANCH   7   8
ATOM      8  C   UNL     1      19.828  16.913  17.403  1.00  0.00     0.053 C 
BRANCH   8   9
ATOM      9  C   UNL     1      20.496  16.841  18.741  1.00  0.00     0.041 C 
ATOM     10  O   UNL     1      19.827  17.016  19.793  1.00  0.00    -0.550 OA
ATOM     11  O   UNL     1      21.867  16.630  18.826  1.00  0.00    -0.550 OA
ENDBRANCH   8   9
ENDBRANCH   7   8
ENDBRANCH   6   7
ENDBRANCH   5   6
ENDBRANCH   4   5
ENDBRANCH   3   4
ENDBRANCH   2   3
ENDBRANCH   1   2
BRANCH   1  12
ATOM     12  C   UNL     1      15.529  17.638  16.896  1.00  0.00     0.000 C 
BRANCH  12  13
ATOM     13  C   UNL     1      14.333  17.038  17.665  1.00  0.00    -0.000 C 
BRANCH  13  14
ATOM     14  C   UNL     1      13.438  16.164  16.767  1.00  0.00    -0.000 C 
BRANCH  14  15
ATOM     15  C   UNL     1      11.945  16.301  17.112  1.00  0.00    -0.000 C 
BRANCH  15  16
ATOM     16  C   UNL     1      11.061  16.418  15.860  1.00  0.00    -0.000 C 
BRANCH  16  17
ATOM     17  C   UNL     1      11.763  17.141  14.695  1.00  0.00    -0.000 C 
BRANCH  17  18
ATOM     18  C   UNL     1      11.628  18.674  14.702  1.00  0.00    -0.000 C 
BRANCH  18  19
ATOM     19  C   UNL     1      12.978  19.396  14.572  1.00  0.00    -0.003 C 
ATOM     20  C   UNL     1      13.217  20.329  15.757  1.00  0.00     0.004 C 
ENDBRANCH  18  19
ENDBRANCH  17  18
ENDBRANCH  16  17
ENDBRANCH  15  16
ENDBRANCH  14  15
ENDBRANCH  13  14
ENDBRANCH  12  13
ENDBRANCH   1  12
TORSDOF 16
ENDMDL
