MODEL 1
REMARK VINA RESULT:    -3.756      0.000      0.000
REMARK INTER + INTRA:          -4.841
REMARK INTER:                  -4.634
REMARK INTRA:                  -0.207
REMARK UNBOUND:                -0.207
REMARK SMILES C=CC[C@H](C)C(=O)CC
REMARK SMILES IDX 4 1 5 2 6 3 7 4 8 5 9 6 3 7 2 8 1 9
REMARK H PARENT
REMARK Flexibility Score: inf
ROOT
ATOM      1  C   UNL     1       8.098  -8.757  42.916  1.00  0.00     0.057 C 
ATOM      2  C   UNL     1       7.479  -9.755  43.906  1.00  0.00     0.016 C 
ENDROOT
BRANCH   1   3
ATOM      3  C   UNL     1       7.995  -7.335  43.433  1.00  0.00     0.135 C 
ATOM      4  O   UNL     1       7.915  -7.130  44.636  1.00  0.00    -0.299 OA
BRANCH   3   5
ATOM      5  C   UNL     1       7.997  -6.162  42.490  1.00  0.00     0.072 C 
ATOM      6  C   UNL     1       7.213  -4.994  43.080  1.00  0.00     0.012 C 
ENDBRANCH   3   5
ENDBRANCH   1   3
BRANCH   1   7
ATOM      7  C   UNL     1       7.501  -8.892  41.499  1.00  0.00     0.038 C 
BRANCH   7   8
ATOM      8  C   UNL     1       6.603 -10.092  41.337  1.00  0.00    -0.034 C 
ATOM      9  C   UNL     1       6.487 -10.732  40.170  1.00  0.00     0.004 C 
ENDBRANCH   7   8
ENDBRANCH   1   7
TORSDOF 4
ENDMDL
MODEL 2
REMARK VINA RESULT:    -3.690      1.945      4.287
REMARK INTER + INTRA:          -4.760
REMARK INTER:                  -4.568
REMARK INTRA:                  -0.192
REMARK UNBOUND:                -0.207
REMARK SMILES C=CC[C@H](C)C(=O)CC
REMARK SMILES IDX 4 1 5 2 6 3 7 4 8 5 9 6 3 7 2 8 1 9
REMARK H PARENT
REMARK Flexibility Score: inf
ROOT
ATOM      1  C   UNL     1       8.738  -7.880  42.913  1.00  0.00     0.057 C 
ATOM      2  C   UNL     1       9.266  -7.580  41.503  1.00  0.00     0.016 C 
ENDROOT
BRANCH   1   3
ATOM      3  C   UNL     1       7.762  -9.041  42.898  1.00  0.00     0.135 C 
ATOM      4  O   UNL     1       7.193  -9.344  41.860  1.00  0.00    -0.299 OA
BRANCH   3   5
ATOM      5  C   UNL     1       7.485  -9.840  44.144  1.00  0.00     0.072 C 
ATOM      6  C   UNL     1       6.479 -10.951  43.858  1.00  0.00     0.012 C 
ENDBRANCH   3   5
ENDBRANCH   1   3
BRANCH   1   7
ATOM      7  C   UNL     1       8.128  -6.633  43.587  1.00  0.00     0.038 C 
BRANCH   7   8
ATOM      8  C   UNL     1       7.546  -5.645  42.608  1.00  0.00    -0.034 C 
ATOM      9  C   UNL     1       7.853  -4.345  42.652  1.00  0.00     0.004 C 
ENDBRANCH   7   8
ENDBRANCH   1   7
TORSDOF 4
ENDMDL
MODEL 3
REMARK VINA RESULT:    -3.640      1.691      2.103
REMARK INTER + INTRA:          -4.698
REMARK INTER:                  -4.523
REMARK INTRA:                  -0.175
REMARK UNBOUND:                -0.207
REMARK SMILES C=CC[C@H](C)C(=O)CC
REMARK SMILES IDX 4 1 5 2 6 3 7 4 8 5 9 6 3 7 2 8 1 9
REMARK H PARENT
REMARK Flexibility Score: inf
ROOT
ATOM      1  C   UNL     1       8.744  -7.067  42.734  1.00  0.00     0.057 C 
ATOM      2  C   UNL     1       8.196  -7.413  44.126  1.00  0.00     0.016 C 
ENDROOT
BRANCH   1   3
ATOM      3  C   UNL     1       8.964  -5.574  42.587  1.00  0.00     0.135 C 
ATOM      4  O   UNL     1      10.101  -5.124  42.585  1.00  0.00    -0.299 OA
BRANCH   3   5
ATOM      5  C   UNL     1       7.803  -4.627  42.433  1.00  0.00     0.072 C 
ATOM      6  C   UNL     1       8.242  -3.190  42.694  1.00  0.00     0.012 C 
ENDBRANCH   3   5
ENDBRANCH   1   3
BRANCH   1   7
ATOM      7  C   UNL     1       7.858  -7.626  41.600  1.00  0.00     0.038 C 
BRANCH   7   8
ATOM      8  C   UNL     1       7.794  -9.132  41.576  1.00  0.00    -0.034 C 
ATOM      9  C   UNL     1       6.778  -9.785  41.003  1.00  0.00     0.004 C 
ENDBRANCH   7   8
ENDBRANCH   1   7
TORSDOF 4
ENDMDL
MODEL 4
REMARK VINA RESULT:    -3.602      2.279      4.516
REMARK INTER + INTRA:          -4.651
REMARK INTER:                  -4.469
REMARK INTRA:                  -0.182
REMARK UNBOUND:                -0.207
REMARK SMILES C=CC[C@H](C)C(=O)CC
REMARK SMILES IDX 4 1 5 2 6 3 7 4 8 5 9 6 3 7 2 8 1 9
REMARK H PARENT
REMARK Flexibility Score: inf
ROOT
ATOM      1  C   UNL     1       7.491  -5.987  41.862  1.00  0.00     0.057 C 
ATOM      2  C   UNL     1       7.263  -5.139  43.122  1.00  0.00     0.016 C 
ENDROOT
BRANCH   1   3
ATOM      3  C   UNL     1       8.108  -7.328  42.208  1.00  0.00     0.135 C 
ATOM      4  O   UNL     1       8.336  -8.140  41.323  1.00  0.00    -0.299 OA
BRANCH   3   5
ATOM      5  C   UNL     1       8.457  -7.680  43.630  1.00  0.00     0.072 C 
ATOM      6  C   UNL     1       7.915  -9.059  43.992  1.00  0.00     0.012 C 
ENDBRANCH   3   5
ENDBRANCH   1   3
BRANCH   1   7
ATOM      7  C   UNL     1       8.317  -5.239  40.794  1.00  0.00     0.038 C 
BRANCH   7   8
ATOM      8  C   UNL     1       8.080  -3.750  40.786  1.00  0.00    -0.034 C 
ATOM      9  C   UNL     1       7.694  -3.104  39.682  1.00  0.00     0.004 C 
ENDBRANCH   7   8
ENDBRANCH   1   7
TORSDOF 4
ENDMDL
MODEL 5
REMARK VINA RESULT:    -3.594      3.213      5.669
REMARK INTER + INTRA:          -4.641
REMARK INTER:                  -4.218
REMARK INTRA:                  -0.423
REMARK UNBOUND:                -0.207
REMARK SMILES C=CC[C@H](C)C(=O)CC
REMARK SMILES IDX 4 1 5 2 6 3 7 4 8 5 9 6 3 7 2 8 1 9
REMARK H PARENT
REMARK Flexibility Score: inf
ROOT
ATOM      1  C   UNL     1       8.404  -2.717  42.320  1.00  0.00     0.057 C 
ATOM      2  C   UNL     1       9.116  -1.839  43.360  1.00  0.00     0.016 C 
ENDROOT
BRANCH   1   3
ATOM      3  C   UNL     1       8.676  -4.188  42.567  1.00  0.00     0.135 C 
ATOM      4  O   UNL     1       9.827  -4.599  42.589  1.00  0.00    -0.299 OA
BRANCH   3   5
ATOM      5  C   UNL     1       7.549  -5.161  42.796  1.00  0.00     0.072 C 
ATOM      6  C   UNL     1       7.506  -6.206  41.686  1.00  0.00     0.012 C 
ENDBRANCH   3   5
ENDBRANCH   1   3
BRANCH   1   7
ATOM      7  C   UNL     1       8.750  -2.309  40.873  1.00  0.00     0.038 C 
BRANCH   7   8
ATOM      8  C   UNL     1       7.733  -2.769  39.860  1.00  0.00    -0.034 C 
ATOM      9  C   UNL     1       8.040  -3.652  38.904  1.00  0.00     0.004 C 
ENDBRANCH   7   8
ENDBRANCH   1   7
TORSDOF 4
ENDMDL
MODEL 6
REMARK VINA RESULT:    -3.593      2.156      4.622
REMARK INTER + INTRA:          -4.640
REMARK INTER:                  -4.400
REMARK INTRA:                  -0.240
REMARK UNBOUND:                -0.207
REMARK SMILES C=CC[C@H](C)C(=O)CC
REMARK SMILES IDX 4 1 5 2 6 3 7 4 8 5 9 6 3 7 2 8 1 9
REMARK H PARENT
REMARK Flexibility Score: inf
ROOT
ATOM      1  C   UNL     1       7.898  -6.116  41.720  1.00  0.00     0.057 C 
ATOM      2  C   UNL     1       7.290  -5.244  42.828  1.00  0.00     0.016 C 
ENDROOT
BRANCH   1   3
ATOM      3  C   UNL     1       7.893  -7.581  42.110  1.00  0.00     0.135 C 
ATOM      4  O   UNL     1       7.405  -8.411  41.357  1.00  0.00    -0.299 OA
BRANCH   3   5
ATOM      5  C   UNL     1       8.492  -8.041  43.414  1.00  0.00     0.072 C 
ATOM      6  C   UNL     1       7.782  -9.292  43.921  1.00  0.00     0.012 C 
ENDBRANCH   3   5
ENDBRANCH   1   3
BRANCH   1   7
ATOM      7  C   UNL     1       9.308  -5.641  41.308  1.00  0.00     0.038 C 
BRANCH   7   8
ATOM      8  C   UNL     1       9.994  -4.813  42.364  1.00  0.00    -0.034 C 
ATOM      9  C   UNL     1      11.018  -4.006  42.071  1.00  0.00     0.004 C 
ENDBRANCH   7   8
ENDBRANCH   1   7
TORSDOF 4
ENDMDL
MODEL 7
REMARK VINA RESULT:    -3.580      9.014     10.096
REMARK INTER + INTRA:          -4.625
REMARK INTER:                  -4.460
REMARK INTRA:                  -0.165
REMARK UNBOUND:                -0.207
REMARK SMILES C=CC[C@H](C)C(=O)CC
REMARK SMILES IDX 4 1 5 2 6 3 7 4 8 5 9 6 3 7 2 8 1 9
REMARK H PARENT
REMARK Flexibility Score: inf
ROOT
ATOM      1  C   UNL     1       6.575  -1.743  36.089  1.00  0.00     0.057 C 
ATOM      2  C   UNL     1       5.709  -1.409  37.312  1.00  0.00     0.016 C 
ENDROOT
BRANCH   1   3
ATOM      3  C   UNL     1       6.024  -1.094  34.834  1.00  0.00     0.135 C 
ATOM      4  O   UNL     1       5.220  -1.698  34.139  1.00  0.00    -0.299 OA
BRANCH   3   5
ATOM      5  C   UNL     1       6.444   0.294  34.427  1.00  0.00     0.072 C 
ATOM      6  C   UNL     1       5.232   1.125  34.019  1.00  0.00     0.012 C 
ENDBRANCH   3   5
ENDBRANCH   1   3
BRANCH   1   7
ATOM      7  C   UNL     1       6.768  -3.264  35.906  1.00  0.00     0.038 C 
BRANCH   7   8
ATOM      8  C   UNL     1       8.209  -3.668  35.728  1.00  0.00    -0.034 C 
ATOM      9  C   UNL     1       8.562  -4.696  34.950  1.00  0.00     0.004 C 
ENDBRANCH   7   8
ENDBRANCH   1   7
TORSDOF 4
ENDMDL
MODEL 8
REMARK VINA RESULT:    -3.529      7.414      9.157
REMARK INTER + INTRA:          -4.561
REMARK INTER:                  -4.226
REMARK INTRA:                  -0.336
REMARK UNBOUND:                -0.207
REMARK SMILES C=CC[C@H](C)C(=O)CC
REMARK SMILES IDX 4 1 5 2 6 3 7 4 8 5 9 6 3 7 2 8 1 9
REMARK H PARENT
REMARK Flexibility Score: inf
ROOT
ATOM      1  C   UNL     1       6.590  -1.475  36.832  1.00  0.00     0.057 C 
ATOM      2  C   UNL     1       5.560  -0.345  36.688  1.00  0.00     0.016 C 
ENDROOT
BRANCH   1   3
ATOM      3  C   UNL     1       6.661  -2.316  35.573  1.00  0.00     0.135 C 
ATOM      4  O   UNL     1       6.255  -1.861  34.513  1.00  0.00    -0.299 OA
BRANCH   3   5
ATOM      5  C   UNL     1       7.235  -3.708  35.598  1.00  0.00     0.072 C 
ATOM      6  C   UNL     1       8.748  -3.670  35.408  1.00  0.00     0.012 C 
ENDBRANCH   3   5
ENDBRANCH   1   3
BRANCH   1   7
ATOM      7  C   UNL     1       6.336  -2.343  38.083  1.00  0.00     0.038 C 
BRANCH   7   8
ATOM      8  C   UNL     1       7.452  -2.278  39.095  1.00  0.00    -0.034 C 
ATOM      9  C   UNL     1       7.821  -3.348  39.806  1.00  0.00     0.004 C 
ENDBRANCH   7   8
ENDBRANCH   1   7
TORSDOF 4
ENDMDL
MODEL 9
REMARK VINA RESULT:    -3.494      1.804      4.298
REMARK INTER + INTRA:          -4.519
REMARK INTER:                  -4.248
REMARK INTRA:                  -0.270
REMARK UNBOUND:                -0.207
REMARK SMILES C=CC[C@H](C)C(=O)CC
REMARK SMILES IDX 4 1 5 2 6 3 7 4 8 5 9 6 3 7 2 8 1 9
REMARK H PARENT
REMARK Flexibility Score: inf
ROOT
ATOM      1  C   UNL     1       7.704  -7.341  42.403  1.00  0.00     0.057 C 
ATOM      2  C   UNL     1       8.159  -7.263  43.868  1.00  0.00     0.016 C 
ENDROOT
BRANCH   1   3
ATOM      3  C   UNL     1       8.634  -8.216  41.586  1.00  0.00     0.135 C 
ATOM      4  O   UNL     1       9.712  -7.776  41.213  1.00  0.00    -0.299 OA
BRANCH   3   5
ATOM      5  C   UNL     1       8.259  -9.630  41.229  1.00  0.00     0.072 C 
ATOM      6  C   UNL     1       6.751  -9.753  41.032  1.00  0.00     0.012 C 
ENDBRANCH   3   5
ENDBRANCH   1   3
BRANCH   1   7
ATOM      7  C   UNL     1       7.531  -5.945  41.769  1.00  0.00     0.038 C 
BRANCH   7   8
ATOM      8  C   UNL     1       7.926  -4.815  42.686  1.00  0.00    -0.034 C 
ATOM      9  C   UNL     1       8.962  -4.017  42.415  1.00  0.00     0.004 C 
ENDBRANCH   7   8
ENDBRANCH   1   7
TORSDOF 4
ENDMDL
