MODEL 1
REMARK VINA RESULT:     0.000      0.000      0.000
REMARK INTER + INTRA:          -5.769
REMARK INTER:                   0.000
REMARK INTRA:                  -5.769
REMARK UNBOUND:                -5.769
REMARK SMILES CCCCCCCCCCCCCCCCCCCCCCCC(=O)[O-]
REMARK SMILES IDX 13 1 14 2 15 3 16 4 17 5 18 6 19 7 20 8 21 9 22 10 23 11
REMARK SMILES IDX 24 12 25 13 26 14 12 15 11 16 10 17 9 18 8 19 7 20 6 21 5 22
REMARK SMILES IDX 4 23 3 24 2 25 1 26
REMARK H PARENT
REMARK Flexibility Score: inf
ROOT
ATOM      1  C   UNL     1      30.872  58.001 182.131  1.00  0.00     0.000 C 
ENDROOT
BRANCH   1   2
ATOM      2  C   UNL     1      32.162  57.376 182.690  1.00  0.00     0.000 C 
BRANCH   2   3
ATOM      3  C   UNL     1      32.541  57.928 184.074  1.00  0.00     0.000 C 
BRANCH   3   4
ATOM      4  C   UNL     1      33.881  58.685 184.074  1.00  0.00     0.000 C 
BRANCH   4   5
ATOM      5  C   UNL     1      33.780  60.209 184.285  1.00  0.00     0.000 C 
BRANCH   5   6
ATOM      6  C   UNL     1      32.680  60.661 185.261  1.00  0.00     0.000 C 
BRANCH   6   7
ATOM      7  C   UNL     1      31.828  61.812 184.707  1.00  0.00     0.000 C 
BRANCH   7   8
ATOM      8  C   UNL     1      30.336  61.565 184.983  1.00  0.00     0.000 C 
BRANCH   8   9
ATOM      9  C   UNL     1      30.077  60.221 185.682  1.00  0.00     0.000 C 
BRANCH   9  10
ATOM     10  C   UNL     1      28.838  59.496 185.125  1.00  0.00     0.006 C 
BRANCH  10  11
ATOM     11  C   UNL     1      28.938  57.971 185.271  1.00  0.00     0.053 C 
BRANCH  11  12
ATOM     12  C   UNL     1      27.966  57.263 184.376  1.00  0.00     0.041 C 
ATOM     13  O   UNL     1      27.536  57.825 183.335  1.00  0.00    -0.550 OA
ATOM     14  O   UNL     1      27.521  55.989 184.705  1.00  0.00    -0.550 OA
ENDBRANCH  11  12
ENDBRANCH  10  11
ENDBRANCH   9  10
ENDBRANCH   8   9
ENDBRANCH   7   8
ENDBRANCH   6   7
ENDBRANCH   5   6
ENDBRANCH   4   5
ENDBRANCH   3   4
ENDBRANCH   2   3
ENDBRANCH   1   2
BRANCH   1  15
ATOM     15  C   UNL     1      30.951  59.532 181.951  1.00  0.00     0.000 C 
BRANCH  15  16
ATOM     16  C   UNL     1      29.594  60.140 181.552  1.00  0.00     0.000 C 
BRANCH  16  17
ATOM     17  C   UNL     1      29.685  61.648 181.266  1.00  0.00     0.000 C 
BRANCH  17  18
ATOM     18  C   UNL     1      30.947  62.013 180.462  1.00  0.00    -0.000 C 
BRANCH  18  19
ATOM     19  C   UNL     1      31.874  62.979 181.214  1.00  0.00    -0.000 C 
BRANCH  19  20
ATOM     20  C   UNL     1      33.317  62.456 181.326  1.00  0.00    -0.000 C 
BRANCH  20  21
ATOM     21  C   UNL     1      33.685  61.508 180.171  1.00  0.00    -0.000 C 
BRANCH  21  22
ATOM     22  C   UNL     1      34.345  60.206 180.662  1.00  0.00    -0.000 C 
BRANCH  22  23
ATOM     23  C   UNL     1      33.940  58.990 179.800  1.00  0.00    -0.000 C 
BRANCH  23  24
ATOM     24  C   UNL     1      32.882  59.315 178.732  1.00  0.00    -0.000 C 
BRANCH  24  25
ATOM     25  C   UNL     1      31.854  58.188 178.551  1.00  0.00    -0.003 C 
ATOM     26  C   UNL     1      30.466  58.750 178.251  1.00  0.00     0.004 C 
ENDBRANCH  24  25
ENDBRANCH  23  24
ENDBRANCH  22  23
ENDBRANCH  21  22
ENDBRANCH  20  21
ENDBRANCH  19  20
ENDBRANCH  18  19
ENDBRANCH  17  18
ENDBRANCH  16  17
ENDBRANCH  15  16
ENDBRANCH   1  15
TORSDOF 22
ENDMDL
MODEL 2
REMARK VINA RESULT:     0.001     10.130     13.437
REMARK INTER + INTRA:          -5.766
REMARK INTER:                   0.000
REMARK INTRA:                  -5.766
REMARK UNBOUND:                -5.769
REMARK SMILES CCCCCCCCCCCCCCCCCCCCCCCC(=O)[O-]
REMARK SMILES IDX 13 1 14 2 15 3 16 4 17 5 18 6 19 7 20 8 21 9 22 10 23 11
REMARK SMILES IDX 24 12 25 13 26 14 12 15 11 16 10 17 9 18 8 19 7 20 6 21 5 22
REMARK SMILES IDX 4 23 3 24 2 25 1 26
REMARK H PARENT
REMARK Flexibility Score: inf
ROOT
ATOM      1  C   UNL     1      39.107  54.550 171.798  1.00  0.00     0.000 C 
ENDROOT
BRANCH   1   2
ATOM      2  C   UNL     1      38.010  53.476 171.704  1.00  0.00     0.000 C 
BRANCH   2   3
ATOM      3  C   UNL     1      37.250  53.283 173.026  1.00  0.00     0.000 C 
BRANCH   3   4
ATOM      4  C   UNL     1      35.721  53.287 172.846  1.00  0.00     0.000 C 
BRANCH   4   5
ATOM      5  C   UNL     1      35.138  54.544 172.170  1.00  0.00     0.000 C 
BRANCH   5   6
ATOM      6  C   UNL     1      35.310  55.851 172.962  1.00  0.00     0.000 C 
BRANCH   6   7
ATOM      7  C   UNL     1      35.732  57.034 172.078  1.00  0.00     0.000 C 
BRANCH   7   8
ATOM      8  C   UNL     1      36.041  56.560 170.649  1.00  0.00     0.000 C 
BRANCH   8   9
ATOM      9  C   UNL     1      37.306  57.213 170.068  1.00  0.00     0.000 C 
BRANCH   9  10
ATOM     10  C   UNL     1      37.843  58.351 170.955  1.00  0.00     0.006 C 
BRANCH  10  11
ATOM     11  C   UNL     1      39.271  58.765 170.572  1.00  0.00     0.053 C 
BRANCH  11  12
ATOM     12  C   UNL     1      39.819  59.800 171.508  1.00  0.00     0.041 C 
ATOM     13  O   UNL     1      41.056  59.858 171.736  1.00  0.00    -0.550 OA
ATOM     14  O   UNL     1      38.959  60.687 172.144  1.00  0.00    -0.550 OA
ENDBRANCH  11  12
ENDBRANCH  10  11
ENDBRANCH   9  10
ENDBRANCH   8   9
ENDBRANCH   7   8
ENDBRANCH   6   7
ENDBRANCH   5   6
ENDBRANCH   4   5
ENDBRANCH   3   4
ENDBRANCH   2   3
ENDBRANCH   1   2
BRANCH   1  15
ATOM     15  C   UNL     1      38.970  55.472 173.029  1.00  0.00     0.000 C 
BRANCH  15  16
ATOM     16  C   UNL     1      40.232  56.323 173.259  1.00  0.00     0.000 C 
BRANCH  16  17
ATOM     17  C   UNL     1      40.005  57.447 174.285  1.00  0.00     0.000 C 
BRANCH  17  18
ATOM     18  C   UNL     1      38.510  57.702 174.548  1.00  0.00    -0.000 C 
BRANCH  18  19
ATOM     19  C   UNL     1      38.230  58.191 175.977  1.00  0.00    -0.000 C 
BRANCH  19  20
ATOM     20  C   UNL     1      37.757  57.063 176.911  1.00  0.00    -0.000 C 
BRANCH  20  21
ATOM     21  C   UNL     1      37.185  55.864 176.135  1.00  0.00    -0.000 C 
BRANCH  21  22
ATOM     22  C   UNL     1      37.917  54.548 176.458  1.00  0.00    -0.000 C 
BRANCH  22  23
ATOM     23  C   UNL     1      39.320  54.796 177.056  1.00  0.00    -0.000 C 
BRANCH  23  24
ATOM     24  C   UNL     1      40.454  54.114 176.272  1.00  0.00    -0.000 C 
BRANCH  24  25
ATOM     25  C   UNL     1      39.978  52.883 175.487  1.00  0.00    -0.003 C 
ATOM     26  C   UNL     1      40.947  52.541 174.357  1.00  0.00     0.004 C 
ENDBRANCH  24  25
ENDBRANCH  23  24
ENDBRANCH  22  23
ENDBRANCH  21  22
ENDBRANCH  20  21
ENDBRANCH  19  20
ENDBRANCH  18  19
ENDBRANCH  17  18
ENDBRANCH  16  17
ENDBRANCH  15  16
ENDBRANCH   1  15
TORSDOF 22
ENDMDL
MODEL 3
REMARK VINA RESULT:     0.057      4.495      8.111
REMARK INTER + INTRA:          -5.637
REMARK INTER:                   0.000
REMARK INTRA:                  -5.637
REMARK UNBOUND:                -5.769
REMARK SMILES CCCCCCCCCCCCCCCCCCCCCCCC(=O)[O-]
REMARK SMILES IDX 13 1 14 2 15 3 16 4 17 5 18 6 19 7 20 8 21 9 22 10 23 11
REMARK SMILES IDX 24 12 25 13 26 14 12 15 11 16 10 17 9 18 8 19 7 20 6 21 5 22
REMARK SMILES IDX 4 23 3 24 2 25 1 26
REMARK H PARENT
REMARK Flexibility Score: inf
ROOT
ATOM      1  C   UNL     1      29.077  55.213 182.350  1.00  0.00     0.000 C 
ENDROOT
BRANCH   1   2
ATOM      2  C   UNL     1      27.705  54.792 181.796  1.00  0.00     0.000 C 
BRANCH   2   3
ATOM      3  C   UNL     1      27.532  53.266 181.732  1.00  0.00     0.000 C 
BRANCH   3   4
ATOM      4  C   UNL     1      28.761  52.498 182.251  1.00  0.00     0.000 C 
BRANCH   4   5
ATOM      5  C   UNL     1      29.372  51.483 181.263  1.00  0.00     0.000 C 
BRANCH   5   6
ATOM      6  C   UNL     1      29.105  51.777 179.777  1.00  0.00     0.000 C 
BRANCH   6   7
ATOM      7  C   UNL     1      30.379  52.150 179.004  1.00  0.00     0.000 C 
BRANCH   7   8
ATOM      8  C   UNL     1      30.159  53.426 178.178  1.00  0.00     0.000 C 
BRANCH   8   9
ATOM      9  C   UNL     1      28.714  53.945 178.259  1.00  0.00     0.000 C 
BRANCH   9  10
ATOM     10  C   UNL     1      28.637  55.482 178.236  1.00  0.00     0.006 C 
BRANCH  10  11
ATOM     11  C   UNL     1      29.810  56.114 177.473  1.00  0.00     0.053 C 
BRANCH  11  12
ATOM     12  C   UNL     1      29.929  57.582 177.754  1.00  0.00     0.041 C 
ATOM     13  O   UNL     1      29.058  58.167 178.450  1.00  0.00    -0.550 OA
ATOM     14  O   UNL     1      30.991  58.306 177.228  1.00  0.00    -0.550 OA
ENDBRANCH  11  12
ENDBRANCH  10  11
ENDBRANCH   9  10
ENDBRANCH   8   9
ENDBRANCH   7   8
ENDBRANCH   6   7
ENDBRANCH   5   6
ENDBRANCH   4   5
ENDBRANCH   3   4
ENDBRANCH   2   3
ENDBRANCH   1   2
BRANCH   1  15
ATOM     15  C   UNL     1      29.617  56.525 181.741  1.00  0.00     0.000 C 
BRANCH  15  16
ATOM     16  C   UNL     1      30.969  56.322 181.032  1.00  0.00     0.000 C 
BRANCH  16  17
ATOM     17  C   UNL     1      31.493  54.881 181.164  1.00  0.00     0.000 C 
BRANCH  17  18
ATOM     18  C   UNL     1      32.982  54.766 180.790  1.00  0.00    -0.000 C 
BRANCH  18  19
ATOM     19  C   UNL     1      33.627  53.469 181.299  1.00  0.00    -0.000 C 
BRANCH  19  20
ATOM     20  C   UNL     1      32.636  52.568 182.058  1.00  0.00    -0.000 C 
BRANCH  20  21
ATOM     21  C   UNL     1      33.285  51.877 183.270  1.00  0.00    -0.000 C 
BRANCH  21  22
ATOM     22  C   UNL     1      32.895  52.536 184.606  1.00  0.00    -0.000 C 
BRANCH  22  23
ATOM     23  C   UNL     1      31.594  53.360 184.488  1.00  0.00    -0.000 C 
BRANCH  23  24
ATOM     24  C   UNL     1      31.753  54.831 184.907  1.00  0.00    -0.000 C 
BRANCH  24  25
ATOM     25  C   UNL     1      33.136  55.401 184.558  1.00  0.00    -0.003 C 
ATOM     26  C   UNL     1      33.026  56.832 184.034  1.00  0.00     0.004 C 
ENDBRANCH  24  25
ENDBRANCH  23  24
ENDBRANCH  22  23
ENDBRANCH  21  22
ENDBRANCH  20  21
ENDBRANCH  19  20
ENDBRANCH  18  19
ENDBRANCH  17  18
ENDBRANCH  16  17
ENDBRANCH  15  16
ENDBRANCH   1  15
TORSDOF 22
ENDMDL
MODEL 4
REMARK VINA RESULT:     0.059      5.299      8.191
REMARK INTER + INTRA:          -5.633
REMARK INTER:                   0.000
REMARK INTRA:                  -5.633
REMARK UNBOUND:                -5.769
REMARK SMILES CCCCCCCCCCCCCCCCCCCCCCCC(=O)[O-]
REMARK SMILES IDX 13 1 14 2 15 3 16 4 17 5 18 6 19 7 20 8 21 9 22 10 23 11
REMARK SMILES IDX 24 12 25 13 26 14 12 15 11 16 10 17 9 18 8 19 7 20 6 21 5 22
REMARK SMILES IDX 4 23 3 24 2 25 1 26
REMARK H PARENT
REMARK Flexibility Score: inf
ROOT
ATOM      1  C   UNL     1      29.963  56.281 180.491  1.00  0.00     0.000 C 
ENDROOT
BRANCH   1   2
ATOM      2  C   UNL     1      29.144  56.545 181.766  1.00  0.00     0.000 C 
BRANCH   2   3
ATOM      3  C   UNL     1      29.359  55.472 182.846  1.00  0.00     0.000 C 
BRANCH   3   4
ATOM      4  C   UNL     1      30.020  54.193 182.299  1.00  0.00     0.000 C 
BRANCH   4   5
ATOM      5  C   UNL     1      29.087  52.972 182.167  1.00  0.00     0.000 C 
BRANCH   5   6
ATOM      6  C   UNL     1      27.660  53.179 182.704  1.00  0.00     0.000 C 
BRANCH   6   7
ATOM      7  C   UNL     1      26.577  52.806 181.681  1.00  0.00     0.000 C 
BRANCH   7   8
ATOM      8  C   UNL     1      25.638  53.995 181.426  1.00  0.00     0.000 C 
BRANCH   8   9
ATOM      9  C   UNL     1      25.665  55.027 182.565  1.00  0.00     0.000 C 
BRANCH   9  10
ATOM     10  C   UNL     1      25.455  56.467 182.060  1.00  0.00     0.006 C 
BRANCH  10  11
ATOM     11  C   UNL     1      25.362  56.541 180.530  1.00  0.00     0.053 C 
BRANCH  11  12
ATOM     12  C   UNL     1      24.009  57.004 180.078  1.00  0.00     0.041 C 
ATOM     13  O   UNL     1      23.872  58.134 179.540  1.00  0.00    -0.550 OA
ATOM     14  O   UNL     1      22.897  56.193 180.270  1.00  0.00    -0.550 OA
ENDBRANCH  11  12
ENDBRANCH  10  11
ENDBRANCH   9  10
ENDBRANCH   8   9
ENDBRANCH   7   8
ENDBRANCH   6   7
ENDBRANCH   5   6
ENDBRANCH   4   5
ENDBRANCH   3   4
ENDBRANCH   2   3
ENDBRANCH   1   2
BRANCH   1  15
ATOM     15  C   UNL     1      29.112  56.240 179.203  1.00  0.00     0.000 C 
BRANCH  15  16
ATOM     16  C   UNL     1      28.280  54.948 179.099  1.00  0.00     0.000 C 
BRANCH  16  17
ATOM     17  C   UNL     1      29.070  53.789 178.467  1.00  0.00     0.000 C 
BRANCH  17  18
ATOM     18  C   UNL     1      28.253  52.484 178.422  1.00  0.00    -0.000 C 
BRANCH  18  19
ATOM     19  C   UNL     1      27.876  52.066 176.993  1.00  0.00    -0.000 C 
BRANCH  19  20
ATOM     20  C   UNL     1      26.374  52.230 176.700  1.00  0.00    -0.000 C 
BRANCH  20  21
ATOM     21  C   UNL     1      25.575  52.629 177.953  1.00  0.00    -0.000 C 
BRANCH  21  22
ATOM     22  C   UNL     1      24.865  53.986 177.795  1.00  0.00    -0.000 C 
BRANCH  22  23
ATOM     23  C   UNL     1      25.347  54.749 176.541  1.00  0.00    -0.000 C 
BRANCH  23  24
ATOM     24  C   UNL     1      25.699  56.222 176.812  1.00  0.00    -0.000 C 
BRANCH  24  25
ATOM     25  C   UNL     1      26.960  56.679 176.064  1.00  0.00    -0.003 C 
ATOM     26  C   UNL     1      27.674  55.496 175.412  1.00  0.00     0.004 C 
ENDBRANCH  24  25
ENDBRANCH  23  24
ENDBRANCH  22  23
ENDBRANCH  21  22
ENDBRANCH  20  21
ENDBRANCH  19  20
ENDBRANCH  18  19
ENDBRANCH  17  18
ENDBRANCH  16  17
ENDBRANCH  15  16
ENDBRANCH   1  15
TORSDOF 22
ENDMDL
MODEL 5
REMARK VINA RESULT:     0.063     10.219     12.776
REMARK INTER + INTRA:          -5.624
REMARK INTER:                   0.000
REMARK INTRA:                  -5.624
REMARK UNBOUND:                -5.769
REMARK SMILES CCCCCCCCCCCCCCCCCCCCCCCC(=O)[O-]
REMARK SMILES IDX 13 1 14 2 15 3 16 4 17 5 18 6 19 7 20 8 21 9 22 10 23 11
REMARK SMILES IDX 24 12 25 13 26 14 12 15 11 16 10 17 9 18 8 19 7 20 6 21 5 22
REMARK SMILES IDX 4 23 3 24 2 25 1 26
REMARK H PARENT
REMARK Flexibility Score: inf
ROOT
ATOM      1  C   UNL     1      36.069  49.344 176.768  1.00  0.00     0.000 C 
ENDROOT
BRANCH   1   2
ATOM      2  C   UNL     1      36.662  48.218 177.631  1.00  0.00     0.000 C 
BRANCH   2   3
ATOM      3  C   UNL     1      35.959  46.868 177.415  1.00  0.00     0.000 C 
BRANCH   3   4
ATOM      4  C   UNL     1      35.244  46.352 178.677  1.00  0.00     0.000 C 
BRANCH   4   5
ATOM      5  C   UNL     1      35.150  47.360 179.841  1.00  0.00     0.000 C 
BRANCH   5   6
ATOM      6  C   UNL     1      33.798  48.082 179.971  1.00  0.00     0.000 C 
BRANCH   6   7
ATOM      7  C   UNL     1      33.871  49.327 180.869  1.00  0.00     0.000 C 
BRANCH   7   8
ATOM      8  C   UNL     1      32.587  50.162 180.743  1.00  0.00     0.000 C 
BRANCH   8   9
ATOM      9  C   UNL     1      31.510  49.470 179.892  1.00  0.00     0.000 C 
BRANCH   9  10
ATOM     10  C   UNL     1      30.104  50.047 180.138  1.00  0.00     0.006 C 
BRANCH  10  11
ATOM     11  C   UNL     1      29.002  49.194 179.494  1.00  0.00     0.053 C 
BRANCH  11  12
ATOM     12  C   UNL     1      28.478  49.821 178.237  1.00  0.00     0.041 C 
ATOM     13  O   UNL     1      28.812  50.995 177.926  1.00  0.00    -0.550 OA
ATOM     14  O   UNL     1      27.603  49.115 177.420  1.00  0.00    -0.550 OA
ENDBRANCH  11  12
ENDBRANCH  10  11
ENDBRANCH   9  10
ENDBRANCH   8   9
ENDBRANCH   7   8
ENDBRANCH   6   7
ENDBRANCH   5   6
ENDBRANCH   4   5
ENDBRANCH   3   4
ENDBRANCH   2   3
ENDBRANCH   1   2
BRANCH   1  15
ATOM     15  C   UNL     1      35.373  50.454 177.586  1.00  0.00     0.000 C 
BRANCH  15  16
ATOM     16  C   UNL     1      33.888  50.607 177.208  1.00  0.00     0.000 C 
BRANCH  16  17
ATOM     17  C   UNL     1      33.353  49.399 176.422  1.00  0.00     0.000 C 
BRANCH  17  18
ATOM     18  C   UNL     1      31.815  49.394 176.338  1.00  0.00    -0.000 C 
BRANCH  18  19
ATOM     19  C   UNL     1      31.210  47.999 176.557  1.00  0.00    -0.000 C 
BRANCH  19  20
ATOM     20  C   UNL     1      32.276  46.893 176.639  1.00  0.00    -0.000 C 
BRANCH  20  21
ATOM     21  C   UNL     1      31.800  45.684 177.463  1.00  0.00    -0.000 C 
BRANCH  21  22
ATOM     22  C   UNL     1      30.811  46.078 178.575  1.00  0.00    -0.000 C 
BRANCH  22  23
ATOM     23  C   UNL     1      31.228  45.510 179.950  1.00  0.00    -0.000 C 
BRANCH  23  24
ATOM     24  C   UNL     1      30.468  46.134 181.132  1.00  0.00    -0.000 C 
BRANCH  24  25
ATOM     25  C   UNL     1      31.396  46.547 182.284  1.00  0.00    -0.003 C 
ATOM     26  C   UNL     1      30.819  47.728 183.062  1.00  0.00     0.004 C 
ENDBRANCH  24  25
ENDBRANCH  23  24
ENDBRANCH  22  23
ENDBRANCH  21  22
ENDBRANCH  20  21
ENDBRANCH  19  20
ENDBRANCH  18  19
ENDBRANCH  17  18
ENDBRANCH  16  17
ENDBRANCH  15  16
ENDBRANCH   1  15
TORSDOF 22
ENDMDL
MODEL 6
REMARK VINA RESULT:     0.072      5.604      7.644
REMARK INTER + INTRA:          -5.605
REMARK INTER:                   0.000
REMARK INTRA:                  -5.605
REMARK UNBOUND:                -5.769
REMARK SMILES CCCCCCCCCCCCCCCCCCCCCCCC(=O)[O-]
REMARK SMILES IDX 13 1 14 2 15 3 16 4 17 5 18 6 19 7 20 8 21 9 22 10 23 11
REMARK SMILES IDX 24 12 25 13 26 14 12 15 11 16 10 17 9 18 8 19 7 20 6 21 5 22
REMARK SMILES IDX 4 23 3 24 2 25 1 26
REMARK H PARENT
REMARK Flexibility Score: inf
ROOT
ATOM      1  C   UNL     1      23.890  57.232 179.493  1.00  0.00     0.000 C 
ENDROOT
BRANCH   1   2
ATOM      2  C   UNL     1      25.305  57.536 178.970  1.00  0.00     0.000 C 
BRANCH   2   3
ATOM      3  C   UNL     1      25.645  59.034 179.009  1.00  0.00     0.000 C 
BRANCH   3   4
ATOM      4  C   UNL     1      27.117  59.326 178.665  1.00  0.00     0.000 C 
BRANCH   4   5
ATOM      5  C   UNL     1      27.806  60.383 179.552  1.00  0.00     0.000 C 
BRANCH   5   6
ATOM      6  C   UNL     1      26.876  61.478 180.103  1.00  0.00     0.000 C 
BRANCH   6   7
ATOM      7  C   UNL     1      26.773  61.458 181.635  1.00  0.00     0.000 C 
BRANCH   7   8
ATOM      8  C   UNL     1      25.342  61.115 182.078  1.00  0.00     0.000 C 
BRANCH   8   9
ATOM      9  C   UNL     1      25.228  59.701 182.672  1.00  0.00     0.000 C 
BRANCH   9  10
ATOM     10  C   UNL     1      26.603  59.063 182.943  1.00  0.00     0.006 C 
BRANCH  10  11
ATOM     11  C   UNL     1      26.710  57.643 182.369  1.00  0.00     0.053 C 
BRANCH  11  12
ATOM     12  C   UNL     1      28.039  57.406 181.718  1.00  0.00     0.041 C 
ATOM     13  O   UNL     1      29.037  58.102 182.043  1.00  0.00    -0.550 OA
ATOM     14  O   UNL     1      28.169  56.431 180.737  1.00  0.00    -0.550 OA
ENDBRANCH  11  12
ENDBRANCH  10  11
ENDBRANCH   9  10
ENDBRANCH   8   9
ENDBRANCH   7   8
ENDBRANCH   6   7
ENDBRANCH   5   6
ENDBRANCH   4   5
ENDBRANCH   3   4
ENDBRANCH   2   3
ENDBRANCH   1   2
BRANCH   1  15
ATOM     15  C   UNL     1      23.113  58.486 179.948  1.00  0.00     0.000 C 
BRANCH  15  16
ATOM     16  C   UNL     1      21.943  58.817 179.004  1.00  0.00     0.000 C 
BRANCH  16  17
ATOM     17  C   UNL     1      21.974  60.276 178.516  1.00  0.00     0.000 C 
BRANCH  17  18
ATOM     18  C   UNL     1      22.616  61.221 179.548  1.00  0.00    -0.000 C 
BRANCH  18  19
ATOM     19  C   UNL     1      23.587  62.228 178.912  1.00  0.00    -0.000 C 
BRANCH  19  20
ATOM     20  C   UNL     1      23.013  62.892 177.648  1.00  0.00    -0.000 C 
BRANCH  20  21
ATOM     21  C   UNL     1      24.009  62.876 176.476  1.00  0.00    -0.000 C 
BRANCH  21  22
ATOM     22  C   UNL     1      25.236  61.988 176.756  1.00  0.00    -0.000 C 
BRANCH  22  23
ATOM     23  C   UNL     1      25.382  60.856 175.715  1.00  0.00    -0.000 C 
BRANCH  23  24
ATOM     24  C   UNL     1      24.140  59.956 175.603  1.00  0.00    -0.000 C 
BRANCH  24  25
ATOM     25  C   UNL     1      24.495  58.465 175.507  1.00  0.00    -0.003 C 
ATOM     26  C   UNL     1      23.272  57.588 175.776  1.00  0.00     0.004 C 
ENDBRANCH  24  25
ENDBRANCH  23  24
ENDBRANCH  22  23
ENDBRANCH  21  22
ENDBRANCH  20  21
ENDBRANCH  19  20
ENDBRANCH  18  19
ENDBRANCH  17  18
ENDBRANCH  16  17
ENDBRANCH  15  16
ENDBRANCH   1  15
TORSDOF 22
ENDMDL
MODEL 7
REMARK VINA RESULT:     0.078      5.134      8.277
REMARK INTER + INTRA:          -5.591
REMARK INTER:                   0.000
REMARK INTRA:                  -5.591
REMARK UNBOUND:                -5.769
REMARK SMILES CCCCCCCCCCCCCCCCCCCCCCCC(=O)[O-]
REMARK SMILES IDX 13 1 14 2 15 3 16 4 17 5 18 6 19 7 20 8 21 9 22 10 23 11
REMARK SMILES IDX 24 12 25 13 26 14 12 15 11 16 10 17 9 18 8 19 7 20 6 21 5 22
REMARK SMILES IDX 4 23 3 24 2 25 1 26
REMARK H PARENT
REMARK Flexibility Score: inf
ROOT
ATOM      1  C   UNL     1      33.839  59.832 177.854  1.00  0.00     0.000 C 
ENDROOT
BRANCH   1   2
ATOM      2  C   UNL     1      34.183  58.571 177.043  1.00  0.00     0.000 C 
BRANCH   2   3
ATOM      3  C   UNL     1      35.096  58.866 175.841  1.00  0.00     0.000 C 
BRANCH   3   4
ATOM      4  C   UNL     1      35.504  57.597 175.071  1.00  0.00     0.000 C 
BRANCH   4   5
ATOM      5  C   UNL     1      35.263  57.643 173.548  1.00  0.00     0.000 C 
BRANCH   5   6
ATOM      6  C   UNL     1      34.600  56.387 172.955  1.00  0.00     0.000 C 
BRANCH   6   7
ATOM      7  C   UNL     1      34.223  55.350 174.023  1.00  0.00     0.000 C 
BRANCH   7   8
ATOM      8  C   UNL     1      32.787  54.847 173.808  1.00  0.00     0.000 C 
BRANCH   8   9
ATOM      9  C   UNL     1      32.008  54.696 175.125  1.00  0.00     0.000 C 
BRANCH   9  10
ATOM     10  C   UNL     1      32.709  55.387 176.308  1.00  0.00     0.006 C 
BRANCH  10  11
ATOM     11  C   UNL     1      32.677  54.535 177.585  1.00  0.00     0.053 C 
BRANCH  11  12
ATOM     12  C   UNL     1      31.748  55.109 178.612  1.00  0.00     0.041 C 
ATOM     13  O   UNL     1      30.501  55.035 178.451  1.00  0.00    -0.550 OA
ATOM     14  O   UNL     1      32.261  55.743 179.736  1.00  0.00    -0.550 OA
ENDBRANCH  11  12
ENDBRANCH  10  11
ENDBRANCH   9  10
ENDBRANCH   8   9
ENDBRANCH   7   8
ENDBRANCH   6   7
ENDBRANCH   5   6
ENDBRANCH   4   5
ENDBRANCH   3   4
ENDBRANCH   2   3
ENDBRANCH   1   2
BRANCH   1  15
ATOM     15  C   UNL     1      32.415  59.818 178.452  1.00  0.00     0.000 C 
BRANCH  15  16
ATOM     16  C   UNL     1      31.557  58.677 177.876  1.00  0.00     0.000 C 
BRANCH  16  17
ATOM     17  C   UNL     1      30.071  58.810 178.253  1.00  0.00     0.000 C 
BRANCH  17  18
ATOM     18  C   UNL     1      29.140  58.504 177.065  1.00  0.00    -0.000 C 
BRANCH  18  19
ATOM     19  C   UNL     1      29.756  57.515 176.064  1.00  0.00    -0.000 C 
BRANCH  19  20
ATOM     20  C   UNL     1      29.252  57.730 174.626  1.00  0.00    -0.000 C 
BRANCH  20  21
ATOM     21  C   UNL     1      30.405  57.856 173.616  1.00  0.00    -0.000 C 
BRANCH  21  22
ATOM     22  C   UNL     1      31.708  58.357 174.266  1.00  0.00    -0.000 C 
BRANCH  22  23
ATOM     23  C   UNL     1      32.107  59.761 173.759  1.00  0.00    -0.000 C 
BRANCH  23  24
ATOM     24  C   UNL     1      31.995  60.859 174.830  1.00  0.00    -0.000 C 
BRANCH  24  25
ATOM     25  C   UNL     1      30.543  61.277 175.103  1.00  0.00    -0.003 C 
ATOM     26  C   UNL     1      30.440  62.115 176.376  1.00  0.00     0.004 C 
ENDBRANCH  24  25
ENDBRANCH  23  24
ENDBRANCH  22  23
ENDBRANCH  21  22
ENDBRANCH  20  21
ENDBRANCH  19  20
ENDBRANCH  18  19
ENDBRANCH  17  18
ENDBRANCH  16  17
ENDBRANCH  15  16
ENDBRANCH   1  15
TORSDOF 22
ENDMDL
MODEL 8
REMARK VINA RESULT:     0.082      7.133      9.993
REMARK INTER + INTRA:          -5.580
REMARK INTER:                   0.000
REMARK INTRA:                  -5.580
REMARK UNBOUND:                -5.769
REMARK SMILES CCCCCCCCCCCCCCCCCCCCCCCC(=O)[O-]
REMARK SMILES IDX 13 1 14 2 15 3 16 4 17 5 18 6 19 7 20 8 21 9 22 10 23 11
REMARK SMILES IDX 24 12 25 13 26 14 12 15 11 16 10 17 9 18 8 19 7 20 6 21 5 22
REMARK SMILES IDX 4 23 3 24 2 25 1 26
REMARK H PARENT
REMARK Flexibility Score: inf
ROOT
ATOM      1  C   UNL     1      27.279  53.093 178.348  1.00  0.00     0.000 C 
ENDROOT
BRANCH   1   2
ATOM      2  C   UNL     1      27.409  53.850 179.680  1.00  0.00     0.000 C 
BRANCH   2   3
ATOM      3  C   UNL     1      26.445  53.329 180.759  1.00  0.00     0.000 C 
BRANCH   3   4
ATOM      4  C   UNL     1      27.142  53.047 182.102  1.00  0.00     0.000 C 
BRANCH   4   5
ATOM      5  C   UNL     1      28.507  53.738 182.297  1.00  0.00     0.000 C 
BRANCH   5   6
ATOM      6  C   UNL     1      29.550  52.916 183.074  1.00  0.00     0.000 C 
BRANCH   6   7
ATOM      7  C   UNL     1      30.960  53.023 182.474  1.00  0.00     0.000 C 
BRANCH   7   8
ATOM      8  C   UNL     1      30.963  53.963 181.259  1.00  0.00     0.000 C 
BRANCH   8   9
ATOM      9  C   UNL     1      31.675  53.355 180.040  1.00  0.00     0.000 C 
BRANCH   9  10
ATOM     10  C   UNL     1      31.026  53.777 178.708  1.00  0.00     0.006 C 
BRANCH  10  11
ATOM     11  C   UNL     1      30.652  55.265 178.686  1.00  0.00     0.053 C 
BRANCH  11  12
ATOM     12  C   UNL     1      30.029  55.662 177.382  1.00  0.00     0.041 C 
ATOM     13  O   UNL     1      30.662  55.508 176.304  1.00  0.00    -0.550 OA
ATOM     14  O   UNL     1      28.758  56.222 177.360  1.00  0.00    -0.550 OA
ENDBRANCH  11  12
ENDBRANCH  10  11
ENDBRANCH   9  10
ENDBRANCH   8   9
ENDBRANCH   7   8
ENDBRANCH   6   7
ENDBRANCH   5   6
ENDBRANCH   4   5
ENDBRANCH   3   4
ENDBRANCH   2   3
ENDBRANCH   1   2
BRANCH   1  15
ATOM     15  C   UNL     1      26.006  52.223 178.250  1.00  0.00     0.000 C 
BRANCH  15  16
ATOM     16  C   UNL     1      26.258  50.913 177.481  1.00  0.00     0.000 C 
BRANCH  16  17
ATOM     17  C   UNL     1      26.096  49.668 178.370  1.00  0.00     0.000 C 
BRANCH  17  18
ATOM     18  C   UNL     1      25.302  49.969 179.654  1.00  0.00    -0.000 C 
BRANCH  18  19
ATOM     19  C   UNL     1      26.080  49.622 180.932  1.00  0.00    -0.000 C 
BRANCH  19  20
ATOM     20  C   UNL     1      27.418  48.918 180.643  1.00  0.00    -0.000 C 
BRANCH  20  21
ATOM     21  C   UNL     1      28.620  49.697 181.204  1.00  0.00    -0.000 C 
BRANCH  21  22
ATOM     22  C   UNL     1      29.234  50.660 180.171  1.00  0.00    -0.000 C 
BRANCH  22  23
ATOM     23  C   UNL     1      30.127  49.921 179.149  1.00  0.00    -0.000 C 
BRANCH  23  24
ATOM     24  C   UNL     1      29.892  50.359 177.693  1.00  0.00    -0.000 C 
BRANCH  24  25
ATOM     25  C   UNL     1      29.502  49.190 176.777  1.00  0.00    -0.003 C 
ATOM     26  C   UNL     1      29.320  47.900 177.575  1.00  0.00     0.004 C 
ENDBRANCH  24  25
ENDBRANCH  23  24
ENDBRANCH  22  23
ENDBRANCH  21  22
ENDBRANCH  20  21
ENDBRANCH  19  20
ENDBRANCH  18  19
ENDBRANCH  17  18
ENDBRANCH  16  17
ENDBRANCH  15  16
ENDBRANCH   1  15
TORSDOF 22
ENDMDL
MODEL 9
REMARK VINA RESULT:     0.083      8.944     12.178
REMARK INTER + INTRA:          -5.578
REMARK INTER:                   0.000
REMARK INTRA:                  -5.578
REMARK UNBOUND:                -5.769
REMARK SMILES CCCCCCCCCCCCCCCCCCCCCCCC(=O)[O-]
REMARK SMILES IDX 13 1 14 2 15 3 16 4 17 5 18 6 19 7 20 8 21 9 22 10 23 11
REMARK SMILES IDX 24 12 25 13 26 14 12 15 11 16 10 17 9 18 8 19 7 20 6 21 5 22
REMARK SMILES IDX 4 23 3 24 2 25 1 26
REMARK H PARENT
REMARK Flexibility Score: inf
ROOT
ATOM      1  C   UNL     1      27.278  49.852 180.297  1.00  0.00     0.000 C 
ENDROOT
BRANCH   1   2
ATOM      2  C   UNL     1      26.252  48.772 180.682  1.00  0.00     0.000 C 
BRANCH   2   3
ATOM      3  C   UNL     1      25.726  48.934 182.117  1.00  0.00     0.000 C 
BRANCH   3   4
ATOM      4  C   UNL     1      25.959  47.687 182.988  1.00  0.00     0.000 C 
BRANCH   4   5
ATOM      5  C   UNL     1      24.795  47.307 183.925  1.00  0.00     0.000 C 
BRANCH   5   6
ATOM      6  C   UNL     1      23.595  48.270 183.898  1.00  0.00     0.000 C 
BRANCH   6   7
ATOM      7  C   UNL     1      23.534  49.182 185.133  1.00  0.00     0.000 C 
BRANCH   7   8
ATOM      8  C   UNL     1      23.655  50.658 184.724  1.00  0.00     0.000 C 
BRANCH   8   9
ATOM      9  C   UNL     1      24.861  51.356 185.371  1.00  0.00     0.000 C 
BRANCH   9  10
ATOM     10  C   UNL     1      25.901  50.357 185.911  1.00  0.00     0.006 C 
BRANCH  10  11
ATOM     11  C   UNL     1      27.235  50.436 185.154  1.00  0.00     0.053 C 
BRANCH  11  12
ATOM     12  C   UNL     1      28.091  51.561 185.654  1.00  0.00     0.041 C 
ATOM     13  O   UNL     1      28.053  51.896 186.868  1.00  0.00    -0.550 OA
ATOM     14  O   UNL     1      28.916  52.251 184.775  1.00  0.00    -0.550 OA
ENDBRANCH  11  12
ENDBRANCH  10  11
ENDBRANCH   9  10
ENDBRANCH   8   9
ENDBRANCH   7   8
ENDBRANCH   6   7
ENDBRANCH   5   6
ENDBRANCH   4   5
ENDBRANCH   3   4
ENDBRANCH   2   3
ENDBRANCH   1   2
BRANCH   1  15
ATOM     15  C   UNL     1      27.721  50.738 181.482  1.00  0.00     0.000 C 
BRANCH  15  16
ATOM     16  C   UNL     1      27.390  52.224 181.251  1.00  0.00     0.000 C 
BRANCH  16  17
ATOM     17  C   UNL     1      26.423  52.783 182.310  1.00  0.00     0.000 C 
BRANCH  17  18
ATOM     18  C   UNL     1      24.950  52.636 181.888  1.00  0.00    -0.000 C 
BRANCH  18  19
ATOM     19  C   UNL     1      24.761  52.656 180.363  1.00  0.00    -0.000 C 
BRANCH  19  20
ATOM     20  C   UNL     1      23.814  51.550 179.865  1.00  0.00    -0.000 C 
BRANCH  20  21
ATOM     21  C   UNL     1      22.935  50.983 180.993  1.00  0.00    -0.000 C 
BRANCH  21  22
ATOM     22  C   UNL     1      22.359  49.595 180.653  1.00  0.00    -0.000 C 
BRANCH  22  23
ATOM     23  C   UNL     1      22.794  49.115 179.250  1.00  0.00    -0.000 C 
BRANCH  23  24
ATOM     24  C   UNL     1      23.031  47.598 179.163  1.00  0.00    -0.000 C 
BRANCH  24  25
ATOM     25  C   UNL     1      22.941  46.903 180.530  1.00  0.00    -0.003 C 
ATOM     26  C   UNL     1      23.886  45.705 180.603  1.00  0.00     0.004 C 
ENDBRANCH  24  25
ENDBRANCH  23  24
ENDBRANCH  22  23
ENDBRANCH  21  22
ENDBRANCH  20  21
ENDBRANCH  19  20
ENDBRANCH  18  19
ENDBRANCH  17  18
ENDBRANCH  16  17
ENDBRANCH  15  16
ENDBRANCH   1  15
TORSDOF 22
ENDMDL
