MODEL 1
REMARK VINA RESULT:     5.883      0.000      0.000
REMARK INTER + INTRA:          10.830
REMARK INTER:                  10.699
REMARK INTRA:                   0.132
REMARK UNBOUND:                 0.132
REMARK SMILES CCCCCCCCCCCCCC[C@@H](C)C(=O)[O-]
REMARK SMILES IDX 9 1 10 2 11 3 12 4 13 5 14 6 15 7 16 8 17 9 18 10 19 11 8 12
REMARK SMILES IDX 7 13 6 14 5 15 4 16 3 17 2 18 1 19
REMARK H PARENT
REMARK Flexibility Score: inf
ROOT
ATOM      1  C   UNL     1      69.205  76.563  98.061  1.00  0.00     0.000 C 
ENDROOT
BRANCH   1   2
ATOM      2  C   UNL     1      67.890  76.549  97.266  1.00  0.00     0.000 C 
BRANCH   2   3
ATOM      3  C   UNL     1      67.948  77.430  96.008  1.00  0.00     0.000 C 
BRANCH   3   4
ATOM      4  C   UNL     1      67.969  76.570  94.737  1.00  0.00     0.000 C 
BRANCH   4   5
ATOM      5  C   UNL     1      67.904  77.448  93.478  1.00  0.00     0.001 C 
BRANCH   5   6
ATOM      6  C   UNL     1      67.876  76.625  92.176  1.00  0.00     0.009 C 
BRANCH   6   7
ATOM      7  C   UNL     1      69.180  75.846  91.890  1.00  0.00     0.032 C 
ATOM      8  C   UNL     1      70.249  76.188  92.933  1.00  0.00     0.014 C 
BRANCH   7   9
ATOM      9  C   UNL     1      68.944  74.359  91.865  1.00  0.00     0.044 C 
ATOM     10  O   UNL     1      67.892  73.869  92.355  1.00  0.00    -0.550 OA
ATOM     11  O   UNL     1      69.890  73.518  91.293  1.00  0.00    -0.550 OA
ENDBRANCH   7   9
ENDBRANCH   6   7
ENDBRANCH   5   6
ENDBRANCH   4   5
ENDBRANCH   3   4
ENDBRANCH   2   3
ENDBRANCH   1   2
BRANCH   1  12
ATOM     12  C   UNL     1      69.278  77.727  99.063  1.00  0.00     0.000 C 
BRANCH  12  13
ATOM     13  C   UNL     1      69.028  79.092  98.403  1.00  0.00    -0.000 C 
BRANCH  13  14
ATOM     14  C   UNL     1      68.428  80.119  99.375  1.00  0.00    -0.000 C 
BRANCH  14  15
ATOM     15  C   UNL     1      69.123  80.053 100.741  1.00  0.00    -0.000 C 
BRANCH  15  16
ATOM     16  C   UNL     1      68.189  79.458 101.806  1.00  0.00    -0.000 C 
BRANCH  16  17
ATOM     17  C   UNL     1      68.955  78.777 102.951  1.00  0.00    -0.000 C 
BRANCH  17  18
ATOM     18  C   UNL     1      68.727  77.259 102.994  1.00  0.00    -0.003 C 
ATOM     19  C   UNL     1      68.875  76.721 104.414  1.00  0.00     0.004 C 
ENDBRANCH  17  18
ENDBRANCH  16  17
ENDBRANCH  15  16
ENDBRANCH  14  15
ENDBRANCH  13  14
ENDBRANCH  12  13
ENDBRANCH   1  12
TORSDOF 14
ENDMDL
MODEL 2
REMARK VINA RESULT:     6.024      1.267      2.104
REMARK INTER + INTRA:          11.085
REMARK INTER:                   9.040
REMARK INTRA:                   2.046
REMARK UNBOUND:                 0.132
REMARK SMILES CCCCCCCCCCCCCC[C@@H](C)C(=O)[O-]
REMARK SMILES IDX 9 1 10 2 11 3 12 4 13 5 14 6 15 7 16 8 17 9 18 10 19 11 8 12
REMARK SMILES IDX 7 13 6 14 5 15 4 16 3 17 2 18 1 19
REMARK H PARENT
REMARK Flexibility Score: inf
ROOT
ATOM      1  C   UNL     1      68.027  75.779  96.693  1.00  0.00     0.000 C 
ENDROOT
BRANCH   1   2
ATOM      2  C   UNL     1      67.945  76.403  95.290  1.00  0.00     0.000 C 
BRANCH   2   3
ATOM      3  C   UNL     1      68.500  75.477  94.197  1.00  0.00     0.000 C 
BRANCH   3   4
ATOM      4  C   UNL     1      69.128  76.290  93.057  1.00  0.00     0.000 C 
BRANCH   4   5
ATOM      5  C   UNL     1      68.129  76.486  91.906  1.00  0.00     0.001 C 
BRANCH   5   6
ATOM      6  C   UNL     1      68.154  75.329  90.889  1.00  0.00     0.009 C 
BRANCH   6   7
ATOM      7  C   UNL     1      69.407  74.430  90.982  1.00  0.00     0.032 C 
ATOM      8  C   UNL     1      70.382  74.975  92.030  1.00  0.00     0.014 C 
BRANCH   7   9
ATOM      9  C   UNL     1      69.046  73.006  91.310  1.00  0.00     0.044 C 
ATOM     10  O   UNL     1      69.753  72.052  90.891  1.00  0.00    -0.550 OA
ATOM     11  O   UNL     1      67.924  72.737  92.085  1.00  0.00    -0.550 OA
ENDBRANCH   7   9
ENDBRANCH   6   7
ENDBRANCH   5   6
ENDBRANCH   4   5
ENDBRANCH   3   4
ENDBRANCH   2   3
ENDBRANCH   1   2
BRANCH   1  12
ATOM     12  C   UNL     1      68.536  76.771  97.753  1.00  0.00     0.000 C 
BRANCH  12  13
ATOM     13  C   UNL     1      67.898  78.163  97.614  1.00  0.00    -0.000 C 
BRANCH  13  14
ATOM     14  C   UNL     1      68.942  79.287  97.529  1.00  0.00    -0.000 C 
BRANCH  14  15
ATOM     15  C   UNL     1      69.111  79.983  98.886  1.00  0.00    -0.000 C 
BRANCH  15  16
ATOM     16  C   UNL     1      67.876  79.764  99.774  1.00  0.00    -0.000 C 
BRANCH  16  17
ATOM     17  C   UNL     1      68.135  80.125 101.245  1.00  0.00    -0.000 C 
BRANCH  17  18
ATOM     18  C   UNL     1      69.299  79.330 101.853  1.00  0.00    -0.003 C 
ATOM     19  C   UNL     1      68.936  77.856 102.007  1.00  0.00     0.004 C 
ENDBRANCH  17  18
ENDBRANCH  16  17
ENDBRANCH  15  16
ENDBRANCH  14  15
ENDBRANCH  13  14
ENDBRANCH  12  13
ENDBRANCH   1  12
TORSDOF 14
ENDMDL
