MODEL 1
REMARK VINA RESULT:    -3.669      0.000      0.000
REMARK INTER + INTRA:          -4.955
REMARK INTER:                  -4.742
REMARK INTRA:                  -0.213
REMARK UNBOUND:                -0.213
REMARK SMILES CCCCCCC(=O)[O-]
REMARK SMILES IDX 5 1 6 2 7 3 8 4 9 5 4 6 3 7 2 8 1 9
REMARK H PARENT
REMARK Flexibility Score: inf
ROOT
ATOM      1  C   UNL     1       4.043  12.480   6.766  1.00  0.00     0.006 C 
ENDROOT
BRANCH   1   2
ATOM      2  C   UNL     1       4.693  13.821   6.412  1.00  0.00     0.053 C 
BRANCH   2   3
ATOM      3  C   UNL     1       5.590  14.276   7.519  1.00  0.00     0.041 C 
ATOM      4  O   UNL     1       5.102  14.657   8.616  1.00  0.00    -0.550 OA
ATOM      5  O   UNL     1       6.969  14.234   7.358  1.00  0.00    -0.550 OA
ENDBRANCH   2   3
ENDBRANCH   1   2
BRANCH   1   6
ATOM      6  C   UNL     1       4.863  11.307   6.208  1.00  0.00     0.000 C 
BRANCH   6   7
ATOM      7  C   UNL     1       5.289  10.311   7.297  1.00  0.00    -0.000 C 
BRANCH   7   8
ATOM      8  C   UNL     1       4.192  10.076   8.346  1.00  0.00    -0.003 C 
ATOM      9  C   UNL     1       4.141   8.611   8.769  1.00  0.00     0.004 C 
ENDBRANCH   7   8
ENDBRANCH   6   7
ENDBRANCH   1   6
TORSDOF 5
ENDMDL
MODEL 2
REMARK VINA RESULT:    -3.563      1.027      1.615
REMARK INTER + INTRA:          -4.817
REMARK INTER:                  -4.366
REMARK INTRA:                  -0.451
REMARK UNBOUND:                -0.213
REMARK SMILES CCCCCCC(=O)[O-]
REMARK SMILES IDX 5 1 6 2 7 3 8 4 9 5 4 6 3 7 2 8 1 9
REMARK H PARENT
REMARK Flexibility Score: inf
ROOT
ATOM      1  C   UNL     1       4.821  13.840   6.512  1.00  0.00     0.006 C 
ENDROOT
BRANCH   1   2
ATOM      2  C   UNL     1       5.210  14.450   7.862  1.00  0.00     0.053 C 
BRANCH   2   3
ATOM      3  C   UNL     1       6.312  13.663   8.495  1.00  0.00     0.041 C 
ATOM      4  O   UNL     1       6.226  13.306   9.700  1.00  0.00    -0.550 OA
ATOM      5  O   UNL     1       7.414  13.278   7.742  1.00  0.00    -0.550 OA
ENDBRANCH   2   3
ENDBRANCH   1   2
BRANCH   1   6
ATOM      6  C   UNL     1       4.111  12.491   6.703  1.00  0.00     0.000 C 
BRANCH   6   7
ATOM      7  C   UNL     1       4.895  11.318   6.094  1.00  0.00    -0.000 C 
BRANCH   7   8
ATOM      8  C   UNL     1       5.197  10.214   7.118  1.00  0.00    -0.003 C 
ATOM      9  C   UNL     1       4.382  10.410   8.393  1.00  0.00     0.004 C 
ENDBRANCH   7   8
ENDBRANCH   6   7
ENDBRANCH   1   6
TORSDOF 5
ENDMDL
MODEL 3
REMARK VINA RESULT:    -3.538      1.106      1.817
REMARK INTER + INTRA:          -4.785
REMARK INTER:                  -4.340
REMARK INTRA:                  -0.445
REMARK UNBOUND:                -0.213
REMARK SMILES CCCCCCC(=O)[O-]
REMARK SMILES IDX 5 1 6 2 7 3 8 4 9 5 4 6 3 7 2 8 1 9
REMARK H PARENT
REMARK Flexibility Score: inf
ROOT
ATOM      1  C   UNL     1       4.108  12.524   6.757  1.00  0.00     0.006 C 
ENDROOT
BRANCH   1   2
ATOM      2  C   UNL     1       4.722  13.880   6.396  1.00  0.00     0.053 C 
BRANCH   2   3
ATOM      3  C   UNL     1       5.703  14.306   7.440  1.00  0.00     0.041 C 
ATOM      4  O   UNL     1       5.577  13.910   8.629  1.00  0.00    -0.550 OA
ATOM      5  O   UNL     1       6.788  15.102   7.093  1.00  0.00    -0.550 OA
ENDBRANCH   2   3
ENDBRANCH   1   2
BRANCH   1   6
ATOM      6  C   UNL     1       4.910  11.373   6.130  1.00  0.00     0.000 C 
BRANCH   6   7
ATOM      7  C   UNL     1       5.265  10.276   7.146  1.00  0.00    -0.000 C 
BRANCH   7   8
ATOM      8  C   UNL     1       6.577  10.562   7.891  1.00  0.00    -0.003 C 
ATOM      9  C   UNL     1       7.631  11.134   6.947  1.00  0.00     0.004 C 
ENDBRANCH   7   8
ENDBRANCH   6   7
ENDBRANCH   1   6
TORSDOF 5
ENDMDL
MODEL 4
REMARK VINA RESULT:    -3.462      2.395      4.107
REMARK INTER + INTRA:          -4.687
REMARK INTER:                  -4.359
REMARK INTRA:                  -0.328
REMARK UNBOUND:                -0.213
REMARK SMILES CCCCCCC(=O)[O-]
REMARK SMILES IDX 5 1 6 2 7 3 8 4 9 5 4 6 3 7 2 8 1 9
REMARK H PARENT
REMARK Flexibility Score: inf
ROOT
ATOM      1  C   UNL     1       4.708  12.343   6.185  1.00  0.00     0.006 C 
ENDROOT
BRANCH   1   2
ATOM      2  C   UNL     1       3.757  11.557   7.093  1.00  0.00     0.053 C 
BRANCH   2   3
ATOM      3  C   UNL     1       4.519  10.580   7.929  1.00  0.00     0.041 C 
ATOM      4  O   UNL     1       4.805   9.441   7.472  1.00  0.00    -0.550 OA
ATOM      5  O   UNL     1       4.958  10.942   9.196  1.00  0.00    -0.550 OA
ENDBRANCH   2   3
ENDBRANCH   1   2
BRANCH   1   6
ATOM      6  C   UNL     1       4.592  13.853   6.443  1.00  0.00     0.000 C 
BRANCH   6   7
ATOM      7  C   UNL     1       5.381  14.304   7.683  1.00  0.00    -0.000 C 
BRANCH   7   8
ATOM      8  C   UNL     1       6.897  14.335   7.439  1.00  0.00    -0.003 C 
ATOM      9  C   UNL     1       7.604  13.245   8.239  1.00  0.00     0.004 C 
ENDBRANCH   7   8
ENDBRANCH   6   7
ENDBRANCH   1   6
TORSDOF 5
ENDMDL
MODEL 5
REMARK VINA RESULT:    -3.422      1.938      4.008
REMARK INTER + INTRA:          -4.635
REMARK INTER:                  -4.216
REMARK INTRA:                  -0.418
REMARK UNBOUND:                -0.213
REMARK SMILES CCCCCCC(=O)[O-]
REMARK SMILES IDX 5 1 6 2 7 3 8 4 9 5 4 6 3 7 2 8 1 9
REMARK H PARENT
REMARK Flexibility Score: inf
ROOT
ATOM      1  C   UNL     1       4.982  11.202   6.336  1.00  0.00     0.006 C 
ENDROOT
BRANCH   1   2
ATOM      2  C   UNL     1       5.096  10.150   7.443  1.00  0.00     0.053 C 
BRANCH   2   3
ATOM      3  C   UNL     1       5.840  10.702   8.617  1.00  0.00     0.041 C 
ATOM      4  O   UNL     1       7.083  10.893   8.548  1.00  0.00    -0.550 OA
ATOM      5  O   UNL     1       5.154  11.054   9.773  1.00  0.00    -0.550 OA
ENDBRANCH   2   3
ENDBRANCH   1   2
BRANCH   1   6
ATOM      6  C   UNL     1       4.048  12.346   6.759  1.00  0.00     0.000 C 
BRANCH   6   7
ATOM      7  C   UNL     1       4.647  13.734   6.480  1.00  0.00    -0.000 C 
BRANCH   7   8
ATOM      8  C   UNL     1       5.405  14.304   7.688  1.00  0.00    -0.003 C 
ATOM      9  C   UNL     1       6.914  14.248   7.466  1.00  0.00     0.004 C 
ENDBRANCH   7   8
ENDBRANCH   6   7
ENDBRANCH   1   6
TORSDOF 5
ENDMDL
MODEL 6
REMARK VINA RESULT:    -3.330      3.686      5.320
REMARK INTER + INTRA:          -4.516
REMARK INTER:                  -4.305
REMARK INTRA:                  -0.211
REMARK UNBOUND:                -0.213
REMARK SMILES CCCCCCC(=O)[O-]
REMARK SMILES IDX 5 1 6 2 7 3 8 4 9 5 4 6 3 7 2 8 1 9
REMARK H PARENT
REMARK Flexibility Score: inf
ROOT
ATOM      1  C   UNL     1       3.883   9.850   8.276  1.00  0.00     0.006 C 
ENDROOT
BRANCH   1   2
ATOM      2  C   UNL     1       4.158   9.076   9.569  1.00  0.00     0.053 C 
BRANCH   2   3
ATOM      3  C   UNL     1       4.574   7.673   9.261  1.00  0.00     0.041 C 
ATOM      4  O   UNL     1       5.600   7.183   9.802  1.00  0.00    -0.550 OA
ATOM      5  O   UNL     1       3.802   6.888   8.414  1.00  0.00    -0.550 OA
ENDBRANCH   2   3
ENDBRANCH   1   2
BRANCH   1   6
ATOM      6  C   UNL     1       5.193  10.204   7.557  1.00  0.00     0.000 C 
BRANCH   6   7
ATOM      7  C   UNL     1       4.986  11.195   6.401  1.00  0.00    -0.000 C 
BRANCH   7   8
ATOM      8  C   UNL     1       4.050  12.353   6.776  1.00  0.00    -0.003 C 
ATOM      9  C   UNL     1       4.805  13.679   6.814  1.00  0.00     0.004 C 
ENDBRANCH   7   8
ENDBRANCH   6   7
ENDBRANCH   1   6
TORSDOF 5
ENDMDL
MODEL 7
REMARK VINA RESULT:    -3.277     17.808     18.753
REMARK INTER + INTRA:          -4.448
REMARK INTER:                  -4.348
REMARK INTRA:                  -0.100
REMARK UNBOUND:                -0.213
REMARK SMILES CCCCCCC(=O)[O-]
REMARK SMILES IDX 5 1 6 2 7 3 8 4 9 5 4 6 3 7 2 8 1 9
REMARK H PARENT
REMARK Flexibility Score: inf
ROOT
ATOM      1  C   UNL     1       4.799   2.504  -7.915  1.00  0.00     0.006 C 
ENDROOT
BRANCH   1   2
ATOM      2  C   UNL     1       4.944   0.991  -7.722  1.00  0.00     0.053 C 
BRANCH   2   3
ATOM      3  C   UNL     1       4.631   0.611  -6.310  1.00  0.00     0.041 C 
ATOM      4  O   UNL     1       3.695  -0.195  -6.063  1.00  0.00    -0.550 OA
ATOM      5  O   UNL     1       5.404   1.106  -5.268  1.00  0.00    -0.550 OA
ENDBRANCH   2   3
ENDBRANCH   1   2
BRANCH   1   6
ATOM      6  C   UNL     1       4.387   2.837  -9.356  1.00  0.00     0.000 C 
BRANCH   6   7
ATOM      7  C   UNL     1       3.939   4.298  -9.522  1.00  0.00    -0.000 C 
BRANCH   7   8
ATOM      8  C   UNL     1       2.413   4.441  -9.620  1.00  0.00    -0.003 C 
ATOM      9  C   UNL     1       1.980   5.883  -9.373  1.00  0.00     0.004 C 
ENDBRANCH   7   8
ENDBRANCH   6   7
ENDBRANCH   1   6
TORSDOF 5
ENDMDL
MODEL 8
REMARK VINA RESULT:    -3.265      2.498      3.823
REMARK INTER + INTRA:          -4.433
REMARK INTER:                  -4.076
REMARK INTRA:                  -0.357
REMARK UNBOUND:                -0.213
REMARK SMILES CCCCCCC(=O)[O-]
REMARK SMILES IDX 5 1 6 2 7 3 8 4 9 5 4 6 3 7 2 8 1 9
REMARK H PARENT
REMARK Flexibility Score: inf
ROOT
ATOM      1  C   UNL     1       5.314  14.389   7.737  1.00  0.00     0.006 C 
ENDROOT
BRANCH   1   2
ATOM      2  C   UNL     1       4.606  13.790   6.518  1.00  0.00     0.053 C 
BRANCH   2   3
ATOM      3  C   UNL     1       4.581  12.297   6.608  1.00  0.00     0.041 C 
ATOM      4  O   UNL     1       4.383  11.731   7.716  1.00  0.00    -0.550 OA
ATOM      5  O   UNL     1       4.726  11.529   5.460  1.00  0.00    -0.550 OA
ENDBRANCH   2   3
ENDBRANCH   1   2
BRANCH   1   6
ATOM      6  C   UNL     1       6.794  14.666   7.431  1.00  0.00     0.000 C 
BRANCH   6   7
ATOM      7  C   UNL     1       7.745  13.789   8.261  1.00  0.00    -0.000 C 
BRANCH   7   8
ATOM      8  C   UNL     1       8.719  12.984   7.389  1.00  0.00    -0.003 C 
ATOM      9  C   UNL     1       8.101  11.658   6.954  1.00  0.00     0.004 C 
ENDBRANCH   7   8
ENDBRANCH   6   7
ENDBRANCH   1   6
TORSDOF 5
ENDMDL
MODEL 9
REMARK VINA RESULT:    -3.234     16.895     17.492
REMARK INTER + INTRA:          -4.392
REMARK INTER:                  -4.228
REMARK INTRA:                  -0.164
REMARK UNBOUND:                -0.213
REMARK SMILES CCCCCCC(=O)[O-]
REMARK SMILES IDX 5 1 6 2 7 3 8 4 9 5 4 6 3 7 2 8 1 9
REMARK H PARENT
REMARK Flexibility Score: inf
ROOT
ATOM      1  C   UNL     1       4.925   3.040  -8.352  1.00  0.00     0.006 C 
ENDROOT
BRANCH   1   2
ATOM      2  C   UNL     1       6.415   3.376  -8.472  1.00  0.00     0.053 C 
BRANCH   2   3
ATOM      3  C   UNL     1       6.881   4.132  -7.269  1.00  0.00     0.041 C 
ATOM      4  O   UNL     1       6.732   5.382  -7.208  1.00  0.00    -0.550 OA
ATOM      5  O   UNL     1       7.435   3.453  -6.192  1.00  0.00    -0.550 OA
ENDBRANCH   2   3
ENDBRANCH   1   2
BRANCH   1   6
ATOM      6  C   UNL     1       4.726   1.598  -7.860  1.00  0.00     0.000 C 
BRANCH   6   7
ATOM      7  C   UNL     1       4.432   1.521  -6.354  1.00  0.00    -0.000 C 
BRANCH   7   8
ATOM      8  C   UNL     1       3.825   0.173  -5.938  1.00  0.00    -0.003 C 
ATOM      9  C   UNL     1       4.835  -0.667  -5.161  1.00  0.00     0.004 C 
ENDBRANCH   7   8
ENDBRANCH   6   7
ENDBRANCH   1   6
TORSDOF 5
ENDMDL
