MODEL 1
REMARK VINA RESULT:    -3.632      0.000      0.000
REMARK INTER + INTRA:          -3.978
REMARK INTER:                  -3.951
REMARK INTRA:                  -0.028
REMARK UNBOUND:                -0.028
REMARK SMILES COc1ccccc1O
REMARK SMILES IDX 3 1 4 2 5 3 6 4 7 5 8 6 2 7 1 8 9 9
REMARK H PARENT 9 10
REMARK Flexibility Score: inf
ROOT
ATOM      1  C   UNL     1      30.518  -6.780 -24.323  1.00  0.00     0.160 A 
ATOM      2  C   UNL     1      31.245  -6.397 -23.177  1.00  0.00     0.050 A 
ATOM      3  C   UNL     1      32.436  -7.052 -22.847  1.00  0.00     0.004 A 
ATOM      4  C   UNL     1      32.912  -8.088 -23.651  1.00  0.00     0.004 A 
ATOM      5  C   UNL     1      32.199  -8.474 -24.789  1.00  0.00     0.050 A 
ATOM      6  C   UNL     1      31.003  -7.823 -25.127  1.00  0.00     0.157 A 
ENDROOT
BRANCH   1   7
ATOM      7  O   UNL     1      29.319  -6.151 -24.693  1.00  0.00    -0.493 OA
ATOM      8  C   UNL     1      28.930  -4.849 -24.267  1.00  0.00     0.278 C 
ENDBRANCH   1   7
BRANCH   6   9
ATOM      9  O   UNL     1      30.291  -8.207 -26.262  1.00  0.00    -0.504 OA
ATOM     10  H   UNL     1      30.011  -7.535 -26.965  1.00  0.00     0.293 HD
ENDBRANCH   6   9
TORSDOF 2
ENDMDL
MODEL 2
REMARK VINA RESULT:    -3.471      2.431      3.259
REMARK INTER + INTRA:          -3.804
REMARK INTER:                  -3.757
REMARK INTRA:                  -0.046
REMARK UNBOUND:                -0.028
REMARK SMILES COc1ccccc1O
REMARK SMILES IDX 3 1 4 2 5 3 6 4 7 5 8 6 2 7 1 8 9 9
REMARK H PARENT 9 10
REMARK Flexibility Score: inf
ROOT
ATOM      1  C   UNL     1      32.215  -6.605 -22.918  1.00  0.00     0.160 A 
ATOM      2  C   UNL     1      30.938  -6.188 -23.344  1.00  0.00     0.050 A 
ATOM      3  C   UNL     1      30.323  -6.806 -24.438  1.00  0.00     0.004 A 
ATOM      4  C   UNL     1      30.972  -7.840 -25.114  1.00  0.00     0.004 A 
ATOM      5  C   UNL     1      32.238  -8.261 -24.699  1.00  0.00     0.050 A 
ATOM      6  C   UNL     1      32.861  -7.646 -23.603  1.00  0.00     0.157 A 
ENDROOT
BRANCH   1   7
ATOM      7  O   UNL     1      32.870  -6.015 -21.826  1.00  0.00    -0.493 OA
ATOM      8  C   UNL     1      33.493  -4.735 -21.858  1.00  0.00     0.278 C 
ENDBRANCH   1   7
BRANCH   6   9
ATOM      9  O   UNL     1      34.124  -8.066 -23.188  1.00  0.00    -0.504 OA
ATOM     10  H   UNL     1      34.926  -8.029 -23.806  1.00  0.00     0.293 HD
ENDBRANCH   6   9
TORSDOF 2
ENDMDL
MODEL 3
REMARK VINA RESULT:    -3.359      2.165      2.337
REMARK INTER + INTRA:          -3.682
REMARK INTER:                  -3.641
REMARK INTRA:                  -0.041
REMARK UNBOUND:                -0.028
REMARK SMILES COc1ccccc1O
REMARK SMILES IDX 3 1 4 2 5 3 6 4 7 5 8 6 2 7 1 8 9 9
REMARK H PARENT 9 10
REMARK Flexibility Score: inf
ROOT
ATOM      1  C   UNL     1      32.228  -5.816 -24.207  1.00  0.00     0.160 A 
ATOM      2  C   UNL     1      31.896  -6.227 -22.901  1.00  0.00     0.050 A 
ATOM      3  C   UNL     1      31.956  -7.580 -22.551  1.00  0.00     0.004 A 
ATOM      4  C   UNL     1      32.348  -8.531 -23.495  1.00  0.00     0.004 A 
ATOM      5  C   UNL     1      32.680  -8.133 -24.791  1.00  0.00     0.050 A 
ATOM      6  C   UNL     1      32.621  -6.778 -25.151  1.00  0.00     0.157 A 
ENDROOT
BRANCH   1   7
ATOM      7  O   UNL     1      32.181  -4.470 -24.603  1.00  0.00    -0.493 OA
ATOM      8  C   UNL     1      32.930  -3.425 -23.989  1.00  0.00     0.278 C 
ENDBRANCH   1   7
BRANCH   6   9
ATOM      9  O   UNL     1      32.952  -6.380 -26.445  1.00  0.00    -0.504 OA
ATOM     10  H   UNL     1      33.916  -6.279 -26.738  1.00  0.00     0.293 HD
ENDBRANCH   6   9
TORSDOF 2
ENDMDL
MODEL 4
REMARK VINA RESULT:    -3.301      2.187      2.678
REMARK INTER + INTRA:          -3.618
REMARK INTER:                  -3.574
REMARK INTRA:                  -0.044
REMARK UNBOUND:                -0.028
REMARK SMILES COc1ccccc1O
REMARK SMILES IDX 3 1 4 2 5 3 6 4 7 5 8 6 2 7 1 8 9 9
REMARK H PARENT 9 10
REMARK Flexibility Score: inf
ROOT
ATOM      1  C   UNL     1      29.228  -5.395 -25.066  1.00  0.00     0.160 A 
ATOM      2  C   UNL     1      30.629  -5.485 -25.197  1.00  0.00     0.050 A 
ATOM      3  C   UNL     1      31.267  -6.727 -25.107  1.00  0.00     0.004 A 
ATOM      4  C   UNL     1      30.518  -7.884 -24.887  1.00  0.00     0.004 A 
ATOM      5  C   UNL     1      29.130  -7.805 -24.757  1.00  0.00     0.050 A 
ATOM      6  C   UNL     1      28.483  -6.564 -24.846  1.00  0.00     0.157 A 
ENDROOT
BRANCH   1   7
ATOM      7  O   UNL     1      28.546  -4.171 -25.150  1.00  0.00    -0.493 OA
ATOM      8  C   UNL     1      28.672  -3.114 -24.204  1.00  0.00     0.278 C 
ENDBRANCH   1   7
BRANCH   6   9
ATOM      9  O   UNL     1      27.097  -6.484 -24.716  1.00  0.00    -0.504 OA
ATOM     10  H   UNL     1      26.479  -6.708 -25.486  1.00  0.00     0.293 HD
ENDBRANCH   6   9
TORSDOF 2
ENDMDL
MODEL 5
REMARK VINA RESULT:    -3.246      1.367      3.181
REMARK INTER + INTRA:          -3.558
REMARK INTER:                  -3.529
REMARK INTRA:                  -0.029
REMARK UNBOUND:                -0.028
REMARK SMILES COc1ccccc1O
REMARK SMILES IDX 3 1 4 2 5 3 6 4 7 5 8 6 2 7 1 8 9 9
REMARK H PARENT 9 10
REMARK Flexibility Score: inf
ROOT
ATOM      1  C   UNL     1      31.361  -7.062 -24.393  1.00  0.00     0.160 A 
ATOM      2  C   UNL     1      31.310  -6.009 -23.457  1.00  0.00     0.050 A 
ATOM      3  C   UNL     1      30.213  -5.141 -23.433  1.00  0.00     0.004 A 
ATOM      4  C   UNL     1      29.162  -5.315 -24.334  1.00  0.00     0.004 A 
ATOM      5  C   UNL     1      29.203  -6.357 -25.263  1.00  0.00     0.050 A 
ATOM      6  C   UNL     1      30.300  -7.231 -25.296  1.00  0.00     0.157 A 
ENDROOT
BRANCH   1   7
ATOM      7  O   UNL     1      32.441  -7.957 -24.454  1.00  0.00    -0.493 OA
ATOM      8  C   UNL     1      33.780  -7.626 -24.101  1.00  0.00     0.278 C 
ENDBRANCH   1   7
BRANCH   6   9
ATOM      9  O   UNL     1      30.341  -8.271 -26.222  1.00  0.00    -0.504 OA
ATOM     10  H   UNL     1      29.631  -8.993 -26.243  1.00  0.00     0.293 HD
ENDBRANCH   6   9
TORSDOF 2
ENDMDL
MODEL 6
REMARK VINA RESULT:    -3.242      2.026      3.479
REMARK INTER + INTRA:          -3.555
REMARK INTER:                  -3.512
REMARK INTRA:                  -0.043
REMARK UNBOUND:                -0.028
REMARK SMILES COc1ccccc1O
REMARK SMILES IDX 3 1 4 2 5 3 6 4 7 5 8 6 2 7 1 8 9 9
REMARK H PARENT 9 10
REMARK Flexibility Score: inf
ROOT
ATOM      1  C   UNL     1      32.463  -6.632 -23.066  1.00  0.00     0.160 A 
ATOM      2  C   UNL     1      33.012  -7.709 -23.791  1.00  0.00     0.050 A 
ATOM      3  C   UNL     1      32.258  -8.350 -24.780  1.00  0.00     0.004 A 
ATOM      4  C   UNL     1      30.958  -7.924 -25.055  1.00  0.00     0.004 A 
ATOM      5  C   UNL     1      30.406  -6.857 -24.344  1.00  0.00     0.050 A 
ATOM      6  C   UNL     1      31.155  -6.209 -23.350  1.00  0.00     0.157 A 
ENDROOT
BRANCH   1   7
ATOM      7  O   UNL     1      33.182  -5.959 -22.066  1.00  0.00    -0.493 OA
ATOM      8  C   UNL     1      34.124  -4.920 -22.314  1.00  0.00     0.278 C 
ENDBRANCH   1   7
BRANCH   6   9
ATOM      9  O   UNL     1      30.605  -5.144 -22.639  1.00  0.00    -0.504 OA
ATOM     10  H   UNL     1      30.358  -4.273 -23.094  1.00  0.00     0.293 HD
ENDBRANCH   6   9
TORSDOF 2
ENDMDL
MODEL 7
REMARK VINA RESULT:    -3.235     16.121     18.052
REMARK INTER + INTRA:          -3.547
REMARK INTER:                  -3.501
REMARK INTRA:                  -0.046
REMARK UNBOUND:                -0.028
REMARK SMILES COc1ccccc1O
REMARK SMILES IDX 3 1 4 2 5 3 6 4 7 5 8 6 2 7 1 8 9 9
REMARK H PARENT 9 10
REMARK Flexibility Score: inf
ROOT
ATOM      1  C   UNL     1      21.830   5.446 -31.998  1.00  0.00     0.160 A 
ATOM      2  C   UNL     1      22.227   6.574 -32.744  1.00  0.00     0.050 A 
ATOM      3  C   UNL     1      21.427   7.043 -33.792  1.00  0.00     0.004 A 
ATOM      4  C   UNL     1      20.231   6.396 -34.103  1.00  0.00     0.004 A 
ATOM      5  C   UNL     1      19.828   5.278 -33.369  1.00  0.00     0.050 A 
ATOM      6  C   UNL     1      20.625   4.801 -32.317  1.00  0.00     0.157 A 
ENDROOT
BRANCH   1   7
ATOM      7  O   UNL     1      22.600   4.941 -30.938  1.00  0.00    -0.493 OA
ATOM      8  C   UNL     1      22.627   5.498 -29.627  1.00  0.00     0.278 C 
ENDBRANCH   1   7
BRANCH   6   9
ATOM      9  O   UNL     1      20.225   3.685 -31.583  1.00  0.00    -0.504 OA
ATOM     10  H   UNL     1      19.598   3.768 -30.792  1.00  0.00     0.293 HD
ENDBRANCH   6   9
TORSDOF 2
ENDMDL
MODEL 8
REMARK VINA RESULT:    -3.230      1.871      2.025
REMARK INTER + INTRA:          -3.542
REMARK INTER:                  -3.499
REMARK INTRA:                  -0.042
REMARK UNBOUND:                -0.028
REMARK SMILES COc1ccccc1O
REMARK SMILES IDX 3 1 4 2 5 3 6 4 7 5 8 6 2 7 1 8 9 9
REMARK H PARENT 9 10
REMARK Flexibility Score: inf
ROOT
ATOM      1  C   UNL     1      31.260  -6.627 -25.137  1.00  0.00     0.160 A 
ATOM      2  C   UNL     1      30.720  -7.245 -23.992  1.00  0.00     0.050 A 
ATOM      3  C   UNL     1      31.531  -8.028 -23.163  1.00  0.00     0.004 A 
ATOM      4  C   UNL     1      32.883  -8.199 -23.467  1.00  0.00     0.004 A 
ATOM      5  C   UNL     1      33.428  -7.590 -24.599  1.00  0.00     0.050 A 
ATOM      6  C   UNL     1      32.620  -6.805 -25.436  1.00  0.00     0.157 A 
ENDROOT
BRANCH   1   7
ATOM      7  O   UNL     1      30.484  -5.834 -25.996  1.00  0.00    -0.493 OA
ATOM      8  C   UNL     1      29.662  -6.347 -27.041  1.00  0.00     0.278 C 
ENDBRANCH   1   7
BRANCH   6   9
ATOM      9  O   UNL     1      33.164  -6.196 -26.566  1.00  0.00    -0.504 OA
ATOM     10  H   UNL     1      33.886  -6.645 -27.115  1.00  0.00     0.293 HD
ENDBRANCH   6   9
TORSDOF 2
ENDMDL
MODEL 9
REMARK VINA RESULT:    -3.213      3.279      3.884
REMARK INTER + INTRA:          -3.523
REMARK INTER:                  -3.479
REMARK INTRA:                  -0.044
REMARK UNBOUND:                -0.028
REMARK SMILES COc1ccccc1O
REMARK SMILES IDX 3 1 4 2 5 3 6 4 7 5 8 6 2 7 1 8 9 9
REMARK H PARENT 9 10
REMARK Flexibility Score: inf
ROOT
ATOM      1  C   UNL     1      33.212  -5.540 -23.230  1.00  0.00     0.160 A 
ATOM      2  C   UNL     1      32.910  -6.900 -23.016  1.00  0.00     0.050 A 
ATOM      3  C   UNL     1      33.207  -7.850 -23.998  1.00  0.00     0.004 A 
ATOM      4  C   UNL     1      33.807  -7.456 -25.195  1.00  0.00     0.004 A 
ATOM      5  C   UNL     1      34.111  -6.111 -25.416  1.00  0.00     0.050 A 
ATOM      6  C   UNL     1      33.815  -5.151 -24.436  1.00  0.00     0.157 A 
ENDROOT
BRANCH   1   7
ATOM      7  O   UNL     1      32.932  -4.552 -22.273  1.00  0.00    -0.493 OA
ATOM      8  C   UNL     1      33.758  -4.263 -21.149  1.00  0.00     0.278 C 
ENDBRANCH   1   7
BRANCH   6   9
ATOM      9  O   UNL     1      34.119  -3.809 -24.655  1.00  0.00    -0.504 OA
ATOM     10  H   UNL     1      35.066  -3.502 -24.843  1.00  0.00     0.293 HD
ENDBRANCH   6   9
TORSDOF 2
ENDMDL
