MODEL 1
REMARK VINA RESULT:    -3.386      0.000      0.000
REMARK INTER + INTRA:          -3.150
REMARK INTER:                  -4.574
REMARK INTRA:                   1.424
REMARK UNBOUND:                 1.424
REMARK SMILES C=C1C(=O)O[C@H]2[C@@H]1CCC(C)=CCC[C@]1(C)O[C@@H]21
REMARK SMILES IDX 6 1 7 2 2 3 1 4 3 5 4 6 5 7 8 8 9 9 10 10 11 11 12 12 18 14
REMARK SMILES IDX 15 15 17 16 16 17 14 18 13 19
REMARK H PARENT
REMARK Flexibility Score: 70.00
ROOT
ATOM      1  C   UNL     1     -16.776 -22.114 -39.099  1.00  0.00     0.216 C 
ATOM      2  C   UNL     1     -16.090 -21.163 -40.146  1.00  0.00     0.070 C 
ATOM      3  C   UNL     1     -15.315 -20.242 -39.247  1.00  0.00     0.037 C 
ATOM      4  C   UNL     1     -14.760 -19.083 -39.600  1.00  0.00     0.021 C 
ATOM      5  C   UNL     1     -15.281 -20.826 -37.924  1.00  0.00     0.334 C 
ATOM      6  O   UNL     1     -14.626 -20.386 -36.942  1.00  0.00    -0.247 OA
ATOM      7  O   UNL     1     -16.061 -21.960 -37.875  1.00  0.00    -0.455 OA
ENDROOT
BRANCH   2   8
ATOM      8  C   UNL     1     -15.113 -21.837 -41.139  1.00  0.00     0.017 C 
BRANCH   8   9
ATOM      9  C   UNL     1     -15.796 -22.712 -42.210  1.00  0.00     0.031 C 
BRANCH   9  10
ATOM     10  C   UNL     1     -14.905 -23.885 -42.589  1.00  0.00    -0.077 C 
ATOM     11  C   UNL     1     -13.602 -23.583 -43.286  1.00  0.00     0.039 C 
ATOM     12  C   UNL     1     -15.174 -25.180 -42.288  1.00  0.00    -0.028 CG0
ATOM     13  G   UNL     1     -16.429 -25.708 -41.632  1.00  0.00     0.000 G0
ENDBRANCH   9  10
ENDBRANCH   8   9
ENDBRANCH   2   8
BRANCH   1  14
ATOM     14  C   UNL     1     -17.017 -23.577 -39.517  1.00  0.00     0.192 C 
ATOM     15  C   UNL     1     -16.040 -24.689 -39.289  1.00  0.00     0.096 C 
ATOM     16  O   UNL     1     -17.125 -24.444 -38.414  1.00  0.00    -0.362 OA
ATOM     17  C   UNL     1     -14.723 -24.583 -38.509  1.00  0.00     0.045 C 
BRANCH  15  18
ATOM     18  C   UNL     1     -16.259 -25.969 -40.119  1.00  0.00     0.042 C 
BRANCH  18  19
ATOM     19  C   UNL     1     -16.432 -25.692 -41.622  1.00  0.00     0.030 CG0
ATOM     20  G   UNL     1     -15.172 -25.174 -42.276  1.00  0.00     0.000 G0
ENDBRANCH  18  19
ENDBRANCH  15  18
ENDBRANCH   1  14
TORSDOF 0
ENDMDL
MODEL 2
REMARK VINA RESULT:    -3.359      1.264      1.590
REMARK INTER + INTRA:          -3.113
REMARK INTER:                  -4.367
REMARK INTRA:                   1.255
REMARK UNBOUND:                 1.424
REMARK SMILES C=C1C(=O)O[C@H]2[C@@H]1CCC(C)=CCC[C@]1(C)O[C@@H]21
REMARK SMILES IDX 6 1 7 2 2 3 1 4 3 5 4 6 5 7 8 8 9 9 10 10 11 11 12 12 18 14
REMARK SMILES IDX 15 15 17 16 16 17 14 18 13 19
REMARK H PARENT
REMARK Flexibility Score: 70.00
ROOT
ATOM      1  C   UNL     1     -16.783 -23.162 -40.444  1.00  0.00     0.216 C 
ATOM      2  C   UNL     1     -15.784 -22.141 -41.099  1.00  0.00     0.070 C 
ATOM      3  C   UNL     1     -15.535 -21.197 -39.956  1.00  0.00     0.037 C 
ATOM      4  C   UNL     1     -14.965 -19.995 -40.041  1.00  0.00     0.021 C 
ATOM      5  C   UNL     1     -16.031 -21.813 -38.745  1.00  0.00     0.334 C 
ATOM      6  O   UNL     1     -15.893 -21.357 -37.579  1.00  0.00    -0.247 OA
ATOM      7  O   UNL     1     -16.676 -22.996 -39.033  1.00  0.00    -0.455 OA
ENDROOT
BRANCH   2   8
ATOM      8  C   UNL     1     -14.430 -22.724 -41.572  1.00  0.00     0.017 C 
BRANCH   8   9
ATOM      9  C   UNL     1     -14.510 -23.532 -42.884  1.00  0.00     0.031 C 
BRANCH   9  10
ATOM     10  C   UNL     1     -13.473 -24.645 -42.889  1.00  0.00    -0.077 C 
ATOM     11  C   UNL     1     -12.020 -24.252 -42.993  1.00  0.00     0.039 C 
ATOM     12  C   UNL     1     -13.762 -25.962 -42.745  1.00  0.00    -0.028 CG0
ATOM     13  G   UNL     1     -15.140 -26.576 -42.663  1.00  0.00     0.000 G0
ENDBRANCH   9  10
ENDBRANCH   8   9
ENDBRANCH   2   8
BRANCH   1  14
ATOM     14  C   UNL     1     -16.720 -24.626 -40.920  1.00  0.00     0.192 C 
ATOM     15  C   UNL     1     -15.778 -25.651 -40.365  1.00  0.00     0.096 C 
ATOM     16  O   UNL     1     -17.118 -25.537 -39.924  1.00  0.00    -0.362 OA
ATOM     17  C   UNL     1     -14.831 -25.451 -39.175  1.00  0.00     0.045 C 
BRANCH  15  18
ATOM     18  C   UNL     1     -15.568 -26.916 -41.219  1.00  0.00     0.042 C 
BRANCH  18  19
ATOM     19  C   UNL     1     -15.136 -26.605 -42.663  1.00  0.00     0.030 CG0
ATOM     20  G   UNL     1     -13.773 -25.959 -42.746  1.00  0.00     0.000 G0
ENDBRANCH  18  19
ENDBRANCH  15  18
ENDBRANCH   1  14
TORSDOF 0
ENDMDL
MODEL 3
REMARK VINA RESULT:    -3.296      3.871      5.591
REMARK INTER + INTRA:          -3.028
REMARK INTER:                  -4.368
REMARK INTRA:                   1.340
REMARK UNBOUND:                 1.424
REMARK SMILES C=C1C(=O)O[C@H]2[C@@H]1CCC(C)=CCC[C@]1(C)O[C@@H]21
REMARK SMILES IDX 6 1 7 2 2 3 1 4 3 5 4 6 5 7 8 8 9 9 10 10 11 11 12 12 18 14
REMARK SMILES IDX 15 15 17 16 16 17 14 18 13 19
REMARK H PARENT
REMARK Flexibility Score: 70.00
ROOT
ATOM      1  C   UNL     1     -11.682 -24.883 -40.670  1.00  0.00     0.216 C 
ATOM      2  C   UNL     1     -10.476 -25.017 -41.668  1.00  0.00     0.070 C 
ATOM      3  C   UNL     1      -9.619 -26.030 -40.963  1.00  0.00     0.037 C 
ATOM      4  C   UNL     1      -8.348 -26.314 -41.244  1.00  0.00     0.021 C 
ATOM      5  C   UNL     1     -10.409 -26.639 -39.916  1.00  0.00     0.334 C 
ATOM      6  O   UNL     1     -10.051 -27.606 -39.193  1.00  0.00    -0.247 OA
ATOM      7  O   UNL     1     -11.637 -26.023 -39.815  1.00  0.00    -0.455 OA
ENDROOT
BRANCH   2   8
ATOM      8  C   UNL     1     -10.820 -25.546 -43.082  1.00  0.00     0.017 C 
BRANCH   8   9
ATOM      9  C   UNL     1     -11.553 -24.530 -43.981  1.00  0.00     0.031 C 
BRANCH   9  10
ATOM     10  C   UNL     1     -12.498 -25.245 -44.934  1.00  0.00    -0.077 C 
ATOM     11  C   UNL     1     -11.892 -26.112 -46.009  1.00  0.00     0.039 C 
ATOM     12  C   UNL     1     -13.851 -25.204 -44.845  1.00  0.00    -0.028 CG0
ATOM     13  G   UNL     1     -14.664 -24.377 -43.876  1.00  0.00     0.000 G0
ENDBRANCH   9  10
ENDBRANCH   8   9
ENDBRANCH   2   8
BRANCH   1  14
ATOM     14  C   UNL     1     -13.072 -24.588 -41.266  1.00  0.00     0.192 C 
ATOM     15  C   UNL     1     -14.028 -25.644 -41.732  1.00  0.00     0.096 C 
ATOM     16  O   UNL     1     -14.120 -25.052 -40.450  1.00  0.00    -0.362 OA
ATOM     17  C   UNL     1     -13.839 -27.159 -41.580  1.00  0.00     0.045 C 
BRANCH  15  18
ATOM     18  C   UNL     1     -15.165 -25.172 -42.658  1.00  0.00     0.042 C 
BRANCH  18  19
ATOM     19  C   UNL     1     -14.662 -24.374 -43.873  1.00  0.00     0.030 CG0
ATOM     20  G   UNL     1     -13.839 -25.207 -44.828  1.00  0.00     0.000 G0
ENDBRANCH  18  19
ENDBRANCH  15  18
ENDBRANCH   1  14
TORSDOF 0
ENDMDL
MODEL 4
REMARK VINA RESULT:    -3.208      3.577      5.251
REMARK INTER + INTRA:          -2.909
REMARK INTER:                  -4.202
REMARK INTRA:                   1.293
REMARK UNBOUND:                 1.424
REMARK SMILES C=C1C(=O)O[C@H]2[C@@H]1CCC(C)=CCC[C@]1(C)O[C@@H]21
REMARK SMILES IDX 6 1 7 2 2 3 1 4 3 5 4 6 5 7 8 8 9 9 10 10 11 11 12 12 18 14
REMARK SMILES IDX 15 15 17 16 16 17 14 18 13 19
REMARK H PARENT
REMARK Flexibility Score: 70.00
ROOT
ATOM      1  C   UNL     1     -14.463 -23.975 -43.488  1.00  0.00     0.216 C 
ATOM      2  C   UNL     1     -13.502 -23.439 -42.366  1.00  0.00     0.070 C 
ATOM      3  C   UNL     1     -14.466 -23.207 -41.236  1.00  0.00     0.037 C 
ATOM      4  C   UNL     1     -14.224 -22.509 -40.128  1.00  0.00     0.021 C 
ATOM      5  C   UNL     1     -15.711 -23.867 -41.564  1.00  0.00     0.334 C 
ATOM      6  O   UNL     1     -16.708 -23.977 -40.801  1.00  0.00    -0.247 OA
ATOM      7  O   UNL     1     -15.664 -24.385 -42.839  1.00  0.00    -0.455 OA
ENDROOT
BRANCH   2   8
ATOM      8  C   UNL     1     -12.398 -24.415 -41.893  1.00  0.00     0.017 C 
BRANCH   8   9
ATOM      9  C   UNL     1     -11.234 -24.590 -42.889  1.00  0.00     0.031 C 
BRANCH   9  10
ATOM     10  C   UNL     1     -10.653 -25.992 -42.789  1.00  0.00    -0.077 C 
ATOM     11  C   UNL     1      -9.907 -26.356 -41.529  1.00  0.00     0.039 C 
ATOM     12  C   UNL     1     -10.811 -26.956 -43.730  1.00  0.00    -0.028 CG0
ATOM     13  G   UNL     1     -11.485 -26.799 -45.073  1.00  0.00     0.000 G0
ENDBRANCH   9  10
ENDBRANCH   8   9
ENDBRANCH   2   8
BRANCH   1  14
ATOM     14  C   UNL     1     -13.892 -25.005 -44.481  1.00  0.00     0.192 C 
ATOM     15  C   UNL     1     -13.886 -26.486 -44.248  1.00  0.00     0.096 C 
ATOM     16  O   UNL     1     -14.885 -25.845 -45.020  1.00  0.00    -0.362 OA
ATOM     17  C   UNL     1     -14.544 -27.212 -43.068  1.00  0.00     0.045 C 
BRANCH  15  18
ATOM     18  C   UNL     1     -12.930 -27.310 -45.130  1.00  0.00     0.042 C 
BRANCH  18  19
ATOM     19  C   UNL     1     -11.480 -26.797 -45.092  1.00  0.00     0.030 CG0
ATOM     20  G   UNL     1     -10.828 -26.967 -43.739  1.00  0.00     0.000 G0
ENDBRANCH  18  19
ENDBRANCH  15  18
ENDBRANCH   1  14
TORSDOF 0
ENDMDL
MODEL 5
REMARK VINA RESULT:    -3.168      4.620      6.351
REMARK INTER + INTRA:          -2.855
REMARK INTER:                  -4.158
REMARK INTRA:                   1.303
REMARK UNBOUND:                 1.424
REMARK SMILES C=C1C(=O)O[C@H]2[C@@H]1CCC(C)=CCC[C@]1(C)O[C@@H]21
REMARK SMILES IDX 6 1 7 2 2 3 1 4 3 5 4 6 5 7 8 8 9 9 10 10 11 11 12 12 18 14
REMARK SMILES IDX 15 15 17 16 16 17 14 18 13 19
REMARK H PARENT
REMARK Flexibility Score: 70.00
ROOT
ATOM      1  C   UNL     1     -12.521 -24.412 -43.609  1.00  0.00     0.216 C 
ATOM      2  C   UNL     1     -12.563 -23.837 -42.148  1.00  0.00     0.070 C 
ATOM      3  C   UNL     1     -14.031 -23.565 -41.978  1.00  0.00     0.037 C 
ATOM      4  C   UNL     1     -14.588 -22.828 -41.017  1.00  0.00     0.021 C 
ATOM      5  C   UNL     1     -14.740 -24.235 -43.046  1.00  0.00     0.334 C 
ATOM      6  O   UNL     1     -15.992 -24.317 -43.159  1.00  0.00    -0.247 OA
ATOM      7  O   UNL     1     -13.854 -24.797 -43.937  1.00  0.00    -0.455 OA
ENDROOT
BRANCH   2   8
ATOM      8  C   UNL     1     -12.097 -24.796 -41.026  1.00  0.00     0.017 C 
BRANCH   8   9
ATOM      9  C   UNL     1     -10.569 -24.996 -40.955  1.00  0.00     0.031 C 
BRANCH   9  10
ATOM     10  C   UNL     1     -10.236 -26.388 -40.440  1.00  0.00    -0.077 C 
ATOM     11  C   UNL     1     -10.570 -26.706 -39.004  1.00  0.00     0.039 C 
ATOM     12  C   UNL     1      -9.715 -27.382 -41.202  1.00  0.00    -0.028 CG0
ATOM     13  G   UNL     1      -9.275 -27.273 -42.643  1.00  0.00     0.000 G0
ENDBRANCH   9  10
ENDBRANCH   8   9
ENDBRANCH   2   8
BRANCH   1  14
ATOM     14  C   UNL     1     -11.454 -25.477 -43.926  1.00  0.00     0.192 C 
ATOM     15  C   UNL     1     -11.620 -26.941 -43.655  1.00  0.00     0.096 C 
ATOM     16  O   UNL     1     -11.866 -26.374 -44.929  1.00  0.00    -0.362 OA
ATOM     17  C   UNL     1     -12.898 -27.622 -43.148  1.00  0.00     0.045 C 
BRANCH  15  18
ATOM     18  C   UNL     1     -10.330 -27.783 -43.648  1.00  0.00     0.042 C 
BRANCH  18  19
ATOM     19  C   UNL     1      -9.279 -27.269 -42.650  1.00  0.00     0.030 CG0
ATOM     20  G   UNL     1      -9.719 -27.395 -41.210  1.00  0.00     0.000 G0
ENDBRANCH  18  19
ENDBRANCH  15  18
ENDBRANCH   1  14
TORSDOF 0
ENDMDL
MODEL 6
REMARK VINA RESULT:    -3.054      4.466      6.273
REMARK INTER + INTRA:          -2.700
REMARK INTER:                  -4.013
REMARK INTRA:                   1.313
REMARK UNBOUND:                 1.424
REMARK SMILES C=C1C(=O)O[C@H]2[C@@H]1CCC(C)=CCC[C@]1(C)O[C@@H]21
REMARK SMILES IDX 6 1 7 2 2 3 1 4 3 5 4 6 5 7 8 8 9 9 10 10 11 11 12 12 18 14
REMARK SMILES IDX 15 15 17 16 16 17 14 18 13 19
REMARK H PARENT
REMARK Flexibility Score: 70.00
ROOT
ATOM      1  C   UNL     1     -11.271 -26.999 -42.114  1.00  0.00     0.216 C 
ATOM      2  C   UNL     1     -11.605 -26.757 -40.598  1.00  0.00     0.070 C 
ATOM      3  C   UNL     1     -10.231 -26.573 -40.017  1.00  0.00     0.037 C 
ATOM      4  C   UNL     1      -9.917 -26.596 -38.722  1.00  0.00     0.021 C 
ATOM      5  C   UNL     1      -9.303 -26.374 -41.108  1.00  0.00     0.334 C 
ATOM      6  O   UNL     1      -8.084 -26.080 -40.992  1.00  0.00    -0.247 OA
ATOM      7  O   UNL     1      -9.938 -26.537 -42.320  1.00  0.00    -0.455 OA
ENDROOT
BRANCH   2   8
ATOM      8  C   UNL     1     -12.456 -25.503 -40.283  1.00  0.00     0.017 C 
BRANCH   8   9
ATOM      9  C   UNL     1     -13.947 -25.635 -40.657  1.00  0.00     0.031 C 
BRANCH   9  10
ATOM     10  C   UNL     1     -14.517 -24.285 -41.061  1.00  0.00    -0.077 C 
ATOM     11  C   UNL     1     -14.651 -23.229 -39.992  1.00  0.00     0.039 C 
ATOM     12  C   UNL     1     -14.858 -23.945 -42.329  1.00  0.00    -0.028 CG0
ATOM     13  G   UNL     1     -14.840 -24.851 -43.538  1.00  0.00     0.000 G0
ENDBRANCH   9  10
ENDBRANCH   8   9
ENDBRANCH   2   8
BRANCH   1  14
ATOM     14  C   UNL     1     -12.287 -26.498 -43.157  1.00  0.00     0.192 C 
ATOM     15  C   UNL     1     -12.290 -25.113 -43.731  1.00  0.00     0.096 C 
ATOM     16  O   UNL     1     -11.690 -26.208 -44.399  1.00  0.00    -0.362 OA
ATOM     17  C   UNL     1     -11.233 -24.032 -43.475  1.00  0.00     0.045 C 
BRANCH  15  18
ATOM     18  C   UNL     1     -13.590 -24.668 -44.427  1.00  0.00     0.042 C 
BRANCH  18  19
ATOM     19  C   UNL     1     -14.841 -24.860 -43.552  1.00  0.00     0.030 CG0
ATOM     20  G   UNL     1     -14.856 -23.961 -42.337  1.00  0.00     0.000 G0
ENDBRANCH  18  19
ENDBRANCH  15  18
ENDBRANCH   1  14
TORSDOF 0
ENDMDL
MODEL 7
REMARK VINA RESULT:    -3.037      3.353      5.007
REMARK INTER + INTRA:          -2.677
REMARK INTER:                  -3.965
REMARK INTRA:                   1.287
REMARK UNBOUND:                 1.424
REMARK SMILES C=C1C(=O)O[C@H]2[C@@H]1CCC(C)=CCC[C@]1(C)O[C@@H]21
REMARK SMILES IDX 6 1 7 2 2 3 1 4 3 5 4 6 5 7 8 8 9 9 10 10 11 11 12 12 18 14
REMARK SMILES IDX 15 15 17 16 16 17 14 18 13 19
REMARK H PARENT
REMARK Flexibility Score: 70.00
ROOT
ATOM      1  C   UNL     1     -13.923 -24.933 -41.407  1.00  0.00     0.216 C 
ATOM      2  C   UNL     1     -15.186 -24.915 -42.341  1.00  0.00     0.070 C 
ATOM      3  C   UNL     1     -15.779 -23.573 -42.012  1.00  0.00     0.037 C 
ATOM      4  C   UNL     1     -17.005 -23.157 -42.328  1.00  0.00     0.021 C 
ATOM      5  C   UNL     1     -14.790 -22.811 -41.282  1.00  0.00     0.334 C 
ATOM      6  O   UNL     1     -14.899 -21.604 -40.939  1.00  0.00    -0.247 OA
ATOM      7  O   UNL     1     -13.683 -23.584 -41.014  1.00  0.00    -0.455 OA
ENDROOT
BRANCH   2   8
ATOM      8  C   UNL     1     -14.907 -24.981 -43.862  1.00  0.00     0.017 C 
BRANCH   8   9
ATOM      9  C   UNL     1     -14.554 -26.389 -44.384  1.00  0.00     0.031 C 
BRANCH   9  10
ATOM     10  C   UNL     1     -13.634 -26.295 -45.591  1.00  0.00    -0.077 C 
ATOM     11  C   UNL     1     -14.209 -25.749 -46.874  1.00  0.00     0.039 C 
ATOM     12  C   UNL     1     -12.315 -26.613 -45.576  1.00  0.00    -0.028 CG0
ATOM     13  G   UNL     1     -11.547 -27.207 -44.418  1.00  0.00     0.000 G0
ENDBRANCH   9  10
ENDBRANCH   8   9
ENDBRANCH   2   8
BRANCH   1  14
ATOM     14  C   UNL     1     -12.675 -25.683 -41.911  1.00  0.00     0.192 C 
ATOM     15  C   UNL     1     -11.698 -25.120 -42.899  1.00  0.00     0.096 C 
ATOM     16  O   UNL     1     -11.475 -25.072 -41.502  1.00  0.00    -0.362 OA
ATOM     17  C   UNL     1     -11.710 -23.694 -43.462  1.00  0.00     0.045 C 
BRANCH  15  18
ATOM     18  C   UNL     1     -10.766 -26.135 -43.587  1.00  0.00     0.042 C 
BRANCH  18  19
ATOM     19  C   UNL     1     -11.524 -27.192 -44.409  1.00  0.00     0.030 CG0
ATOM     20  G   UNL     1     -12.310 -26.598 -45.554  1.00  0.00     0.000 G0
ENDBRANCH  18  19
ENDBRANCH  15  18
ENDBRANCH   1  14
TORSDOF 0
ENDMDL
MODEL 8
REMARK VINA RESULT:    -2.836      3.950      5.716
REMARK INTER + INTRA:          -2.407
REMARK INTER:                  -3.723
REMARK INTRA:                   1.317
REMARK UNBOUND:                 1.424
REMARK SMILES C=C1C(=O)O[C@H]2[C@@H]1CCC(C)=CCC[C@]1(C)O[C@@H]21
REMARK SMILES IDX 6 1 7 2 2 3 1 4 3 5 4 6 5 7 8 8 9 9 10 10 11 11 12 12 18 14
REMARK SMILES IDX 15 15 17 16 16 17 14 18 13 19
REMARK H PARENT
REMARK Flexibility Score: 70.00
ROOT
ATOM      1  C   UNL     1     -11.965 -24.247 -42.642  1.00  0.00     0.216 C 
ATOM      2  C   UNL     1     -11.186 -25.345 -43.453  1.00  0.00     0.070 C 
ATOM      3  C   UNL     1     -10.375 -25.995 -42.367  1.00  0.00     0.037 C 
ATOM      4  C   UNL     1      -9.342 -26.817 -42.545  1.00  0.00     0.021 C 
ATOM      5  C   UNL     1     -10.904 -25.567 -41.091  1.00  0.00     0.334 C 
ATOM      6  O   UNL     1     -10.542 -25.997 -39.964  1.00  0.00    -0.247 OA
ATOM      7  O   UNL     1     -11.886 -24.618 -41.268  1.00  0.00    -0.455 OA
ENDROOT
BRANCH   2   8
ATOM      8  C   UNL     1     -12.055 -26.423 -44.145  1.00  0.00     0.017 C 
BRANCH   8   9
ATOM      9  C   UNL     1     -12.800 -25.928 -45.402  1.00  0.00     0.031 C 
BRANCH   9  10
ATOM     10  C   UNL     1     -14.119 -26.667 -45.565  1.00  0.00    -0.077 C 
ATOM     11  C   UNL     1     -14.067 -28.137 -45.899  1.00  0.00     0.039 C 
ATOM     12  C   UNL     1     -15.340 -26.107 -45.371  1.00  0.00    -0.028 CG0
ATOM     13  G   UNL     1     -15.624 -24.654 -45.070  1.00  0.00     0.000 G0
ENDBRANCH   9  10
ENDBRANCH   8   9
ENDBRANCH   2   8
BRANCH   1  14
ATOM     14  C   UNL     1     -13.381 -23.878 -43.122  1.00  0.00     0.192 C 
ATOM     15  C   UNL     1     -14.627 -24.595 -42.699  1.00  0.00     0.096 C 
ATOM     16  O   UNL     1     -14.197 -23.396 -42.082  1.00  0.00    -0.362 OA
ATOM     17  C   UNL     1     -14.710 -25.707 -41.646  1.00  0.00     0.045 C 
BRANCH  15  18
ATOM     18  C   UNL     1     -15.875 -24.367 -43.574  1.00  0.00     0.042 C 
BRANCH  18  19
ATOM     19  C   UNL     1     -15.624 -24.642 -45.067  1.00  0.00     0.030 CG0
ATOM     20  G   UNL     1     -15.345 -26.098 -45.360  1.00  0.00     0.000 G0
ENDBRANCH  18  19
ENDBRANCH  15  18
ENDBRANCH   1  14
TORSDOF 0
ENDMDL
