MODEL 1
REMARK VINA RESULT:    -4.618      0.000      0.000
REMARK INTER + INTRA:         -11.048
REMARK INTER:                  -8.668
REMARK INTRA:                  -2.380
REMARK UNBOUND:                -2.380
REMARK SMILES O=C([O-])CCCCCCCCCCCCCCC(=O)[O-]
REMARK SMILES IDX 10 1 9 2 8 3 7 4 6 5 5 6 4 7 2 8 1 9 3 10 11 11 12 12 13 13
REMARK SMILES IDX 14 14 15 15 16 16 17 17 18 18 19 19 20 20
REMARK H PARENT
REMARK Flexibility Score: inf
ROOT
ATOM      1  C   UNL     1      17.055 -33.423  24.328  1.00  0.00     0.000 C 
ENDROOT
BRANCH   1   2
ATOM      2  C   UNL     1      15.785 -33.915  23.616  1.00  0.00     0.000 C 
BRANCH   2   3
ATOM      3  C   UNL     1      14.686 -32.839  23.562  1.00  0.00     0.000 C 
BRANCH   3   4
ATOM      4  C   UNL     1      14.179 -32.586  22.133  1.00  0.00     0.000 C 
BRANCH   4   5
ATOM      5  C   UNL     1      13.913 -31.099  21.852  1.00  0.00     0.000 C 
BRANCH   5   6
ATOM      6  C   UNL     1      14.118 -30.256  23.120  1.00  0.00     0.006 C 
BRANCH   6   7
ATOM      7  C   UNL     1      13.926 -28.756  22.859  1.00  0.00     0.053 C 
BRANCH   7   8
ATOM      8  C   UNL     1      13.017 -28.128  23.870  1.00  0.00     0.041 C 
ATOM      9  O   UNL     1      11.894 -28.641  24.117  1.00  0.00    -0.550 OA
ATOM     10  O   UNL     1      13.423 -26.996  24.565  1.00  0.00    -0.550 OA
ENDBRANCH   7   8
ENDBRANCH   6   7
ENDBRANCH   5   6
ENDBRANCH   4   5
ENDBRANCH   3   4
ENDBRANCH   2   3
ENDBRANCH   1   2
BRANCH   1  11
ATOM     11  C   UNL     1      17.245 -31.900  24.216  1.00  0.00     0.000 C 
BRANCH  11  12
ATOM     12  C   UNL     1      18.263 -31.510  23.132  1.00  0.00     0.000 C 
BRANCH  12  13
ATOM     13  C   UNL     1      17.600 -30.878  21.899  1.00  0.00     0.000 C 
BRANCH  13  14
ATOM     14  C   UNL     1      17.561 -31.871  20.727  1.00  0.00     0.000 C 
BRANCH  14  15
ATOM     15  C   UNL     1      18.571 -33.018  20.887  1.00  0.00     0.000 C 
BRANCH  15  16
ATOM     16  C   UNL     1      18.311 -34.175  19.912  1.00  0.00     0.006 C 
BRANCH  16  17
ATOM     17  C   UNL     1      16.888 -34.108  19.350  1.00  0.00     0.053 C 
BRANCH  17  18
ATOM     18  C   UNL     1      16.116 -35.333  19.729  1.00  0.00     0.041 C 
ATOM     19  O   UNL     1      14.962 -35.227  20.223  1.00  0.00    -0.550 OA
ATOM     20  O   UNL     1      16.650 -36.592  19.493  1.00  0.00    -0.550 OA
ENDBRANCH  17  18
ENDBRANCH  16  17
ENDBRANCH  15  16
ENDBRANCH  14  15
ENDBRANCH  13  14
ENDBRANCH  12  13
ENDBRANCH  11  12
ENDBRANCH   1  11
TORSDOF 15
ENDMDL
MODEL 2
REMARK VINA RESULT:    -4.567      3.110      5.541
REMARK INTER + INTRA:         -10.952
REMARK INTER:                  -8.504
REMARK INTRA:                  -2.448
REMARK UNBOUND:                -2.380
REMARK SMILES O=C([O-])CCCCCCCCCCCCCCC(=O)[O-]
REMARK SMILES IDX 10 1 9 2 8 3 7 4 6 5 5 6 4 7 2 8 1 9 3 10 11 11 12 12 13 13
REMARK SMILES IDX 14 14 15 15 16 16 17 17 18 18 19 19 20 20
REMARK H PARENT
REMARK Flexibility Score: inf
ROOT
ATOM      1  C   UNL     1      16.374 -29.500  21.687  1.00  0.00     0.000 C 
ENDROOT
BRANCH   1   2
ATOM      2  C   UNL     1      16.951 -30.868  21.287  1.00  0.00     0.000 C 
BRANCH   2   3
ATOM      3  C   UNL     1      17.782 -31.508  22.413  1.00  0.00     0.000 C 
BRANCH   3   4
ATOM      4  C   UNL     1      17.342 -31.040  23.810  1.00  0.00     0.000 C 
BRANCH   4   5
ATOM      5  C   UNL     1      17.938 -31.897  24.938  1.00  0.00     0.000 C 
BRANCH   5   6
ATOM      6  C   UNL     1      18.023 -33.372  24.519  1.00  0.00     0.006 C 
BRANCH   6   7
ATOM      7  C   UNL     1      17.174 -34.282  25.416  1.00  0.00     0.053 C 
BRANCH   7   8
ATOM      8  C   UNL     1      17.519 -35.727  25.229  1.00  0.00     0.041 C 
ATOM      9  O   UNL     1      17.282 -36.559  26.144  1.00  0.00    -0.550 OA
ATOM     10  O   UNL     1      18.071 -36.162  24.030  1.00  0.00    -0.550 OA
ENDBRANCH   7   8
ENDBRANCH   6   7
ENDBRANCH   5   6
ENDBRANCH   4   5
ENDBRANCH   3   4
ENDBRANCH   2   3
ENDBRANCH   1   2
BRANCH   1  11
ATOM     11  C   UNL     1      14.835 -29.472  21.653  1.00  0.00     0.000 C 
BRANCH  11  12
ATOM     12  C   UNL     1      14.224 -29.010  22.985  1.00  0.00     0.000 C 
BRANCH  12  13
ATOM     13  C   UNL     1      13.152 -29.976  23.510  1.00  0.00     0.000 C 
BRANCH  13  14
ATOM     14  C   UNL     1      13.290 -31.359  22.855  1.00  0.00     0.000 C 
BRANCH  14  15
ATOM     15  C   UNL     1      13.900 -32.406  23.800  1.00  0.00     0.000 C 
BRANCH  15  16
ATOM     16  C   UNL     1      14.661 -33.509  23.049  1.00  0.00     0.006 C 
BRANCH  16  17
ATOM     17  C   UNL     1      14.484 -33.361  21.535  1.00  0.00     0.053 C 
BRANCH  17  18
ATOM     18  C   UNL     1      15.388 -34.307  20.807  1.00  0.00     0.041 C 
ATOM     19  O   UNL     1      16.127 -35.098  21.449  1.00  0.00    -0.550 OA
ATOM     20  O   UNL     1      15.377 -34.348  19.419  1.00  0.00    -0.550 OA
ENDBRANCH  17  18
ENDBRANCH  16  17
ENDBRANCH  15  16
ENDBRANCH  14  15
ENDBRANCH  13  14
ENDBRANCH  12  13
ENDBRANCH  11  12
ENDBRANCH   1  11
TORSDOF 15
ENDMDL
MODEL 3
REMARK VINA RESULT:    -4.475      4.321      6.433
REMARK INTER + INTRA:         -10.778
REMARK INTER:                  -9.461
REMARK INTRA:                  -1.317
REMARK UNBOUND:                -2.380
REMARK SMILES O=C([O-])CCCCCCCCCCCCCCC(=O)[O-]
REMARK SMILES IDX 10 1 9 2 8 3 7 4 6 5 5 6 4 7 2 8 1 9 3 10 11 11 12 12 13 13
REMARK SMILES IDX 14 14 15 15 16 16 17 17 18 18 19 19 20 20
REMARK H PARENT
REMARK Flexibility Score: inf
ROOT
ATOM      1  C   UNL     1      16.556 -30.172  22.395  1.00  0.00     0.000 C 
ENDROOT
BRANCH   1   2
ATOM      2  C   UNL     1      17.481 -30.627  21.255  1.00  0.00     0.000 C 
BRANCH   2   3
ATOM      3  C   UNL     1      18.818 -29.865  21.243  1.00  0.00     0.000 C 
BRANCH   3   4
ATOM      4  C   UNL     1      18.654 -28.391  20.838  1.00  0.00     0.000 C 
BRANCH   4   5
ATOM      5  C   UNL     1      19.999 -27.662  20.694  1.00  0.00     0.000 C 
BRANCH   5   6
ATOM      6  C   UNL     1      21.170 -28.604  21.009  1.00  0.00     0.006 C 
BRANCH   6   7
ATOM      7  C   UNL     1      22.296 -27.898  21.776  1.00  0.00     0.053 C 
BRANCH   7   8
ATOM      8  C   UNL     1      22.939 -26.822  20.955  1.00  0.00     0.041 C 
ATOM      9  O   UNL     1      23.086 -25.666  21.430  1.00  0.00    -0.550 OA
ATOM     10  O   UNL     1      23.406 -27.107  19.678  1.00  0.00    -0.550 OA
ENDBRANCH   7   8
ENDBRANCH   6   7
ENDBRANCH   5   6
ENDBRANCH   4   5
ENDBRANCH   3   4
ENDBRANCH   2   3
ENDBRANCH   1   2
BRANCH   1  11
ATOM     11  C   UNL     1      15.221 -29.601  21.884  1.00  0.00     0.000 C 
BRANCH  11  12
ATOM     12  C   UNL     1      14.342 -29.051  23.019  1.00  0.00     0.000 C 
BRANCH  12  13
ATOM     13  C   UNL     1      12.986 -29.766  23.116  1.00  0.00     0.000 C 
BRANCH  13  14
ATOM     14  C   UNL     1      13.109 -31.236  22.689  1.00  0.00     0.000 C 
BRANCH  14  15
ATOM     15  C   UNL     1      13.618 -32.143  23.821  1.00  0.00     0.000 C 
BRANCH  15  16
ATOM     16  C   UNL     1      14.627 -33.192  23.330  1.00  0.00     0.006 C 
BRANCH  16  17
ATOM     17  C   UNL     1      14.631 -33.272  21.800  1.00  0.00     0.053 C 
BRANCH  17  18
ATOM     18  C   UNL     1      15.399 -34.472  21.341  1.00  0.00     0.041 C 
ATOM     19  O   UNL     1      16.367 -34.904  22.021  1.00  0.00    -0.550 OA
ATOM     20  O   UNL     1      15.017 -35.142  20.186  1.00  0.00    -0.550 OA
ENDBRANCH  17  18
ENDBRANCH  16  17
ENDBRANCH  15  16
ENDBRANCH  14  15
ENDBRANCH  13  14
ENDBRANCH  12  13
ENDBRANCH  11  12
ENDBRANCH   1  11
TORSDOF 15
ENDMDL
MODEL 4
REMARK VINA RESULT:    -4.463      2.119      6.262
REMARK INTER + INTRA:         -10.756
REMARK INTER:                  -8.433
REMARK INTRA:                  -2.323
REMARK UNBOUND:                -2.380
REMARK SMILES O=C([O-])CCCCCCCCCCCCCCC(=O)[O-]
REMARK SMILES IDX 10 1 9 2 8 3 7 4 6 5 5 6 4 7 2 8 1 9 3 10 11 11 12 12 13 13
REMARK SMILES IDX 14 14 15 15 16 16 17 17 18 18 19 19 20 20
REMARK H PARENT
REMARK Flexibility Score: inf
ROOT
ATOM      1  C   UNL     1      17.932 -34.177  21.206  1.00  0.00     0.000 C 
ENDROOT
BRANCH   1   2
ATOM      2  C   UNL     1      17.635 -33.113  20.137  1.00  0.00     0.000 C 
BRANCH   2   3
ATOM      3  C   UNL     1      17.732 -31.680  20.689  1.00  0.00     0.000 C 
BRANCH   3   4
ATOM      4  C   UNL     1      18.245 -31.640  22.138  1.00  0.00     0.000 C 
BRANCH   4   5
ATOM      5  C   UNL     1      17.230 -31.017  23.110  1.00  0.00     0.000 C 
BRANCH   5   6
ATOM      6  C   UNL     1      16.767 -32.045  24.153  1.00  0.00     0.006 C 
BRANCH   6   7
ATOM      7  C   UNL     1      17.936 -32.853  24.732  1.00  0.00     0.053 C 
BRANCH   7   8
ATOM      8  C   UNL     1      17.507 -34.224  25.159  1.00  0.00     0.041 C 
ATOM      9  O   UNL     1      18.330 -35.002  25.708  1.00  0.00    -0.550 OA
ATOM     10  O   UNL     1      16.189 -34.628  24.983  1.00  0.00    -0.550 OA
ENDBRANCH   7   8
ENDBRANCH   6   7
ENDBRANCH   5   6
ENDBRANCH   4   5
ENDBRANCH   3   4
ENDBRANCH   2   3
ENDBRANCH   1   2
BRANCH   1  11
ATOM     11  C   UNL     1      16.699 -35.031  21.552  1.00  0.00     0.000 C 
BRANCH  11  12
ATOM     12  C   UNL     1      15.419 -34.522  20.871  1.00  0.00     0.000 C 
BRANCH  12  13
ATOM     13  C   UNL     1      14.622 -33.554  21.758  1.00  0.00     0.000 C 
BRANCH  13  14
ATOM     14  C   UNL     1      13.878 -32.515  20.905  1.00  0.00     0.000 C 
BRANCH  14  15
ATOM     15  C   UNL     1      13.933 -31.102  21.509  1.00  0.00     0.000 C 
BRANCH  15  16
ATOM     16  C   UNL     1      12.704 -30.780  22.373  1.00  0.00     0.006 C 
BRANCH  16  17
ATOM     17  C   UNL     1      13.120 -30.108  23.685  1.00  0.00     0.053 C 
BRANCH  17  18
ATOM     18  C   UNL     1      12.437 -28.785  23.836  1.00  0.00     0.041 C 
ATOM     19  O   UNL     1      13.054 -27.807  24.336  1.00  0.00    -0.550 OA
ATOM     20  O   UNL     1      11.137 -28.617  23.379  1.00  0.00    -0.550 OA
ENDBRANCH  17  18
ENDBRANCH  16  17
ENDBRANCH  15  16
ENDBRANCH  14  15
ENDBRANCH  13  14
ENDBRANCH  12  13
ENDBRANCH  11  12
ENDBRANCH   1  11
TORSDOF 15
ENDMDL
MODEL 5
REMARK VINA RESULT:    -4.453      1.979      3.557
REMARK INTER + INTRA:         -10.737
REMARK INTER:                  -8.715
REMARK INTRA:                  -2.022
REMARK UNBOUND:                -2.380
REMARK SMILES O=C([O-])CCCCCCCCCCCCCCC(=O)[O-]
REMARK SMILES IDX 10 1 9 2 8 3 7 4 6 5 5 6 4 7 2 8 1 9 3 10 11 11 12 12 13 13
REMARK SMILES IDX 14 14 15 15 16 16 17 17 18 18 19 19 20 20
REMARK H PARENT
REMARK Flexibility Score: inf
ROOT
ATOM      1  C   UNL     1      15.128 -34.417  20.922  1.00  0.00     0.000 C 
ENDROOT
BRANCH   1   2
ATOM      2  C   UNL     1      14.235 -33.356  20.259  1.00  0.00     0.000 C 
BRANCH   2   3
ATOM      3  C   UNL     1      13.834 -32.233  21.232  1.00  0.00     0.000 C 
BRANCH   3   4
ATOM      4  C   UNL     1      14.273 -32.520  22.678  1.00  0.00     0.000 C 
BRANCH   4   5
ATOM      5  C   UNL     1      14.516 -31.239  23.489  1.00  0.00     0.000 C 
BRANCH   5   6
ATOM      6  C   UNL     1      13.677 -30.075  22.942  1.00  0.00     0.006 C 
BRANCH   6   7
ATOM      7  C   UNL     1      12.723 -29.498  23.996  1.00  0.00     0.053 C 
BRANCH   7   8
ATOM      8  C   UNL     1      12.329 -28.088  23.679  1.00  0.00     0.041 C 
ATOM      9  O   UNL     1      13.118 -27.139  23.928  1.00  0.00    -0.550 OA
ATOM     10  O   UNL     1      11.105 -27.826  23.077  1.00  0.00    -0.550 OA
ENDBRANCH   7   8
ENDBRANCH   6   7
ENDBRANCH   5   6
ENDBRANCH   4   5
ENDBRANCH   3   4
ENDBRANCH   2   3
ENDBRANCH   1   2
BRANCH   1  11
ATOM     11  C   UNL     1      15.599 -35.498  19.933  1.00  0.00     0.000 C 
BRANCH  11  12
ATOM     12  C   UNL     1      17.109 -35.425  19.654  1.00  0.00     0.000 C 
BRANCH  12  13
ATOM     13  C   UNL     1      17.550 -34.042  19.151  1.00  0.00     0.000 C 
BRANCH  13  14
ATOM     14  C   UNL     1      18.498 -33.370  20.156  1.00  0.00     0.000 C 
BRANCH  14  15
ATOM     15  C   UNL     1      17.900 -32.099  20.779  1.00  0.00     0.000 C 
BRANCH  15  16
ATOM     16  C   UNL     1      17.901 -32.135  22.314  1.00  0.00     0.006 C 
BRANCH  16  17
ATOM     17  C   UNL     1      18.203 -33.546  22.828  1.00  0.00     0.053 C 
BRANCH  17  18
ATOM     18  C   UNL     1      17.429 -33.826  24.078  1.00  0.00     0.041 C 
ATOM     19  O   UNL     1      16.642 -34.807  24.129  1.00  0.00    -0.550 OA
ATOM     20  O   UNL     1      17.615 -33.033  25.203  1.00  0.00    -0.550 OA
ENDBRANCH  17  18
ENDBRANCH  16  17
ENDBRANCH  15  16
ENDBRANCH  14  15
ENDBRANCH  13  14
ENDBRANCH  12  13
ENDBRANCH  11  12
ENDBRANCH   1  11
TORSDOF 15
ENDMDL
MODEL 6
REMARK VINA RESULT:    -4.441      2.481      6.494
REMARK INTER + INTRA:         -10.715
REMARK INTER:                  -8.589
REMARK INTRA:                  -2.126
REMARK UNBOUND:                -2.380
REMARK SMILES O=C([O-])CCCCCCCCCCCCCCC(=O)[O-]
REMARK SMILES IDX 10 1 9 2 8 3 7 4 6 5 5 6 4 7 2 8 1 9 3 10 11 11 12 12 13 13
REMARK SMILES IDX 14 14 15 15 16 16 17 17 18 18 19 19 20 20
REMARK H PARENT
REMARK Flexibility Score: inf
ROOT
ATOM      1  C   UNL     1      18.239 -33.176  19.943  1.00  0.00     0.000 C 
ENDROOT
BRANCH   1   2
ATOM      2  C   UNL     1      17.393 -34.028  18.984  1.00  0.00     0.000 C 
BRANCH   2   3
ATOM      3  C   UNL     1      15.980 -34.301  19.528  1.00  0.00     0.000 C 
BRANCH   3   4
ATOM      4  C   UNL     1      15.821 -35.734  20.065  1.00  0.00     0.000 C 
BRANCH   4   5
ATOM      5  C   UNL     1      16.971 -36.659  19.639  1.00  0.00     0.000 C 
BRANCH   5   6
ATOM      6  C   UNL     1      17.697 -37.230  20.866  1.00  0.00     0.006 C 
BRANCH   6   7
ATOM      7  C   UNL     1      17.818 -36.205  22.001  1.00  0.00     0.053 C 
BRANCH   7   8
ATOM      8  C   UNL     1      18.785 -36.653  23.054  1.00  0.00     0.041 C 
ATOM      9  O   UNL     1      18.858 -36.036  24.150  1.00  0.00    -0.550 OA
ATOM     10  O   UNL     1      19.581 -37.771  22.839  1.00  0.00    -0.550 OA
ENDBRANCH   7   8
ENDBRANCH   6   7
ENDBRANCH   5   6
ENDBRANCH   4   5
ENDBRANCH   3   4
ENDBRANCH   2   3
ENDBRANCH   1   2
BRANCH   1  11
ATOM     11  C   UNL     1      17.379 -32.318  20.889  1.00  0.00     0.000 C 
BRANCH  11  12
ATOM     12  C   UNL     1      17.906 -32.324  22.333  1.00  0.00     0.000 C 
BRANCH  12  13
ATOM     13  C   UNL     1      16.794 -32.106  23.370  1.00  0.00     0.000 C 
BRANCH  13  14
ATOM     14  C   UNL     1      16.025 -33.410  23.631  1.00  0.00     0.000 C 
BRANCH  14  15
ATOM     15  C   UNL     1      14.511 -33.262  23.410  1.00  0.00     0.000 C 
BRANCH  15  16
ATOM     16  C   UNL     1      14.000 -31.854  23.748  1.00  0.00     0.006 C 
BRANCH  16  17
ATOM     17  C   UNL     1      12.959 -31.390  22.724  1.00  0.00     0.053 C 
BRANCH  17  18
ATOM     18  C   UNL     1      13.578 -31.270  21.366  1.00  0.00     0.041 C 
ATOM     19  O   UNL     1      13.210 -32.032  20.433  1.00  0.00    -0.550 OA
ATOM     20  O   UNL     1      14.524 -30.285  21.117  1.00  0.00    -0.550 OA
ENDBRANCH  17  18
ENDBRANCH  16  17
ENDBRANCH  15  16
ENDBRANCH  14  15
ENDBRANCH  13  14
ENDBRANCH  12  13
ENDBRANCH  11  12
ENDBRANCH   1  11
TORSDOF 15
ENDMDL
MODEL 7
REMARK VINA RESULT:    -4.402      2.335      3.990
REMARK INTER + INTRA:         -10.642
REMARK INTER:                  -8.556
REMARK INTRA:                  -2.086
REMARK UNBOUND:                -2.380
REMARK SMILES O=C([O-])CCCCCCCCCCCCCCC(=O)[O-]
REMARK SMILES IDX 10 1 9 2 8 3 7 4 6 5 5 6 4 7 2 8 1 9 3 10 11 11 12 12 13 13
REMARK SMILES IDX 14 14 15 15 16 16 17 17 18 18 19 19 20 20
REMARK H PARENT
REMARK Flexibility Score: inf
ROOT
ATOM      1  C   UNL     1      17.092 -34.162  20.233  1.00  0.00     0.000 C 
ENDROOT
BRANCH   1   2
ATOM      2  C   UNL     1      15.714 -34.843  20.255  1.00  0.00     0.000 C 
BRANCH   2   3
ATOM      3  C   UNL     1      14.567 -33.860  19.962  1.00  0.00     0.000 C 
BRANCH   3   4
ATOM      4  C   UNL     1      14.186 -33.016  21.190  1.00  0.00     0.000 C 
BRANCH   4   5
ATOM      5  C   UNL     1      13.414 -31.741  20.818  1.00  0.00     0.000 C 
BRANCH   5   6
ATOM      6  C   UNL     1      12.679 -31.169  22.039  1.00  0.00     0.006 C 
BRANCH   6   7
ATOM      7  C   UNL     1      13.199 -29.780  22.434  1.00  0.00     0.053 C 
BRANCH   7   8
ATOM      8  C   UNL     1      12.240 -29.062  23.333  1.00  0.00     0.041 C 
ATOM      9  O   UNL     1      12.608 -28.680  24.475  1.00  0.00    -0.550 OA
ATOM     10  O   UNL     1      10.951 -28.784  22.897  1.00  0.00    -0.550 OA
ENDBRANCH   7   8
ENDBRANCH   6   7
ENDBRANCH   5   6
ENDBRANCH   4   5
ENDBRANCH   3   4
ENDBRANCH   2   3
ENDBRANCH   1   2
BRANCH   1  11
ATOM     11  C   UNL     1      17.861 -34.337  21.555  1.00  0.00     0.000 C 
BRANCH  11  12
ATOM     12  C   UNL     1      17.047 -35.095  22.615  1.00  0.00     0.000 C 
BRANCH  12  13
ATOM     13  C   UNL     1      17.024 -34.373  23.971  1.00  0.00     0.000 C 
BRANCH  13  14
ATOM     14  C   UNL     1      16.290 -33.027  23.863  1.00  0.00     0.000 C 
BRANCH  14  15
ATOM     15  C   UNL     1      17.244 -31.824  23.935  1.00  0.00     0.000 C 
BRANCH  15  16
ATOM     16  C   UNL     1      16.694 -30.588  23.207  1.00  0.00     0.006 C 
BRANCH  16  17
ATOM     17  C   UNL     1      16.929 -30.694  21.697  1.00  0.00     0.053 C 
BRANCH  17  18
ATOM     18  C   UNL     1      18.278 -30.157  21.337  1.00  0.00     0.041 C 
ATOM     19  O   UNL     1      19.270 -30.930  21.268  1.00  0.00    -0.550 OA
ATOM     20  O   UNL     1      18.432 -28.812  21.029  1.00  0.00    -0.550 OA
ENDBRANCH  17  18
ENDBRANCH  16  17
ENDBRANCH  15  16
ENDBRANCH  14  15
ENDBRANCH  13  14
ENDBRANCH  12  13
ENDBRANCH  11  12
ENDBRANCH   1  11
TORSDOF 15
ENDMDL
MODEL 8
REMARK VINA RESULT:    -4.394      1.611      2.640
REMARK INTER + INTRA:         -10.627
REMARK INTER:                  -8.693
REMARK INTRA:                  -1.934
REMARK UNBOUND:                -2.380
REMARK SMILES O=C([O-])CCCCCCCCCCCCCCC(=O)[O-]
REMARK SMILES IDX 10 1 9 2 8 3 7 4 6 5 5 6 4 7 2 8 1 9 3 10 11 11 12 12 13 13
REMARK SMILES IDX 14 14 15 15 16 16 17 17 18 18 19 19 20 20
REMARK H PARENT
REMARK Flexibility Score: inf
ROOT
ATOM      1  C   UNL     1      16.966 -31.239  23.859  1.00  0.00     0.000 C 
ENDROOT
BRANCH   1   2
ATOM      2  C   UNL     1      17.648 -31.099  22.489  1.00  0.00     0.000 C 
BRANCH   2   3
ATOM      3  C   UNL     1      16.811 -30.275  21.496  1.00  0.00     0.000 C 
BRANCH   3   4
ATOM      4  C   UNL     1      15.718 -29.446  22.191  1.00  0.00     0.000 C 
BRANCH   4   5
ATOM      5  C   UNL     1      14.306 -29.786  21.690  1.00  0.00     0.000 C 
BRANCH   5   6
ATOM      6  C   UNL     1      13.452 -30.382  22.819  1.00  0.00     0.006 C 
BRANCH   6   7
ATOM      7  C   UNL     1      12.015 -29.845  22.807  1.00  0.00     0.053 C 
BRANCH   7   8
ATOM      8  C   UNL     1      11.902 -28.540  23.533  1.00  0.00     0.041 C 
ATOM      9  O   UNL     1      11.035 -27.695  23.187  1.00  0.00    -0.550 OA
ATOM     10  O   UNL     1      12.732 -28.270  24.615  1.00  0.00    -0.550 OA
ENDBRANCH   7   8
ENDBRANCH   6   7
ENDBRANCH   5   6
ENDBRANCH   4   5
ENDBRANCH   3   4
ENDBRANCH   2   3
ENDBRANCH   1   2
BRANCH   1  11
ATOM     11  C   UNL     1      16.409 -32.653  24.103  1.00  0.00     0.000 C 
BRANCH  11  12
ATOM     12  C   UNL     1      16.478 -33.539  22.848  1.00  0.00     0.000 C 
BRANCH  12  13
ATOM     13  C   UNL     1      15.093 -34.004  22.376  1.00  0.00     0.000 C 
BRANCH  13  14
ATOM     14  C   UNL     1      14.695 -33.305  21.067  1.00  0.00     0.000 C 
BRANCH  14  15
ATOM     15  C   UNL     1      14.761 -34.241  19.850  1.00  0.00     0.000 C 
BRANCH  15  16
ATOM     16  C   UNL     1      16.198 -34.477  19.362  1.00  0.00     0.006 C 
BRANCH  16  17
ATOM     17  C   UNL     1      16.547 -35.968  19.388  1.00  0.00     0.053 C 
BRANCH  17  18
ATOM     18  C   UNL     1      17.611 -36.241  20.404  1.00  0.00     0.041 C 
ATOM     19  O   UNL     1      18.401 -35.325  20.755  1.00  0.00    -0.550 OA
ATOM     20  O   UNL     1      17.698 -37.491  21.001  1.00  0.00    -0.550 OA
ENDBRANCH  17  18
ENDBRANCH  16  17
ENDBRANCH  15  16
ENDBRANCH  14  15
ENDBRANCH  13  14
ENDBRANCH  12  13
ENDBRANCH  11  12
ENDBRANCH   1  11
TORSDOF 15
ENDMDL
MODEL 9
REMARK VINA RESULT:    -4.373      3.148      5.160
REMARK INTER + INTRA:         -10.588
REMARK INTER:                  -8.069
REMARK INTRA:                  -2.519
REMARK UNBOUND:                -2.380
REMARK SMILES O=C([O-])CCCCCCCCCCCCCCC(=O)[O-]
REMARK SMILES IDX 10 1 9 2 8 3 7 4 6 5 5 6 4 7 2 8 1 9 3 10 11 11 12 12 13 13
REMARK SMILES IDX 14 14 15 15 16 16 17 17 18 18 19 19 20 20
REMARK H PARENT
REMARK Flexibility Score: inf
ROOT
ATOM      1  C   UNL     1      15.581 -30.246  23.131  1.00  0.00     0.000 C 
ENDROOT
BRANCH   1   2
ATOM      2  C   UNL     1      16.139 -29.939  21.733  1.00  0.00     0.000 C 
BRANCH   2   3
ATOM      3  C   UNL     1      17.627 -30.307  21.599  1.00  0.00     0.000 C 
BRANCH   3   4
ATOM      4  C   UNL     1      17.856 -31.522  20.685  1.00  0.00     0.000 C 
BRANCH   4   5
ATOM      5  C   UNL     1      18.693 -32.621  21.356  1.00  0.00     0.000 C 
BRANCH   5   6
ATOM      6  C   UNL     1      18.364 -32.724  22.853  1.00  0.00     0.006 C 
BRANCH   6   7
ATOM      7  C   UNL     1      19.071 -33.909  23.525  1.00  0.00     0.053 C 
BRANCH   7   8
ATOM      8  C   UNL     1      18.123 -35.033  23.811  1.00  0.00     0.041 C 
ATOM      9  O   UNL     1      17.487 -35.064  24.897  1.00  0.00    -0.550 OA
ATOM     10  O   UNL     1      17.916 -36.028  22.864  1.00  0.00    -0.550 OA
ENDBRANCH   7   8
ENDBRANCH   6   7
ENDBRANCH   5   6
ENDBRANCH   4   5
ENDBRANCH   3   4
ENDBRANCH   2   3
ENDBRANCH   1   2
BRANCH   1  11
ATOM     11  C   UNL     1      14.047 -30.376  23.142  1.00  0.00     0.000 C 
BRANCH  11  12
ATOM     12  C   UNL     1      13.577 -31.834  23.014  1.00  0.00     0.000 C 
BRANCH  12  13
ATOM     13  C   UNL     1      14.626 -32.839  23.513  1.00  0.00     0.000 C 
BRANCH  13  14
ATOM     14  C   UNL     1      14.990 -33.845  22.411  1.00  0.00     0.000 C 
BRANCH  14  15
ATOM     15  C   UNL     1      14.500 -33.406  21.021  1.00  0.00     0.000 C 
BRANCH  15  16
ATOM     16  C   UNL     1      15.370 -33.964  19.884  1.00  0.00     0.006 C 
BRANCH  16  17
ATOM     17  C   UNL     1      15.739 -35.427  20.146  1.00  0.00     0.053 C 
BRANCH  17  18
ATOM     18  C   UNL     1      16.983 -35.796  19.399  1.00  0.00     0.041 C 
ATOM     19  O   UNL     1      17.306 -37.005  19.266  1.00  0.00    -0.550 OA
ATOM     20  O   UNL     1      17.758 -34.807  18.809  1.00  0.00    -0.550 OA
ENDBRANCH  17  18
ENDBRANCH  16  17
ENDBRANCH  15  16
ENDBRANCH  14  15
ENDBRANCH  13  14
ENDBRANCH  12  13
ENDBRANCH  11  12
ENDBRANCH   1  11
TORSDOF 15
ENDMDL
