MODEL 1
REMARK VINA RESULT:    -4.023      0.000      0.000
REMARK INTER + INTRA:          -5.490
REMARK INTER:                  -5.199
REMARK INTRA:                  -0.291
REMARK UNBOUND:                -0.291
REMARK SMILES CCCCCCC(=O)[O-]
REMARK SMILES IDX 5 1 6 2 7 3 8 4 9 5 4 6 3 7 2 8 1 9
REMARK H PARENT
REMARK Flexibility Score: inf
ROOT
ATOM      1  C   UNL     1      10.530 -15.590 -21.699  1.00  0.00     0.006 C 
ENDROOT
BRANCH   1   2
ATOM      2  C   UNL     1       9.760 -14.760 -20.668  1.00  0.00     0.053 C 
BRANCH   2   3
ATOM      3  C   UNL     1      10.631 -14.443 -19.494  1.00  0.00     0.041 C 
ATOM      4  O   UNL     1      10.817 -13.247 -19.148  1.00  0.00    -0.550 OA
ATOM      5  O   UNL     1      11.198 -15.472 -18.751  1.00  0.00    -0.550 OA
ENDBRANCH   2   3
ENDBRANCH   1   2
BRANCH   1   6
ATOM      6  C   UNL     1      11.236 -14.686 -22.717  1.00  0.00     0.000 C 
BRANCH   6   7
ATOM      7  C   UNL     1      10.502 -14.695 -24.064  1.00  0.00    -0.000 C 
BRANCH   7   8
ATOM      8  C   UNL     1       9.641 -13.438 -24.229  1.00  0.00    -0.003 C 
ATOM      9  C   UNL     1      10.279 -12.237 -23.537  1.00  0.00     0.004 C 
ENDBRANCH   7   8
ENDBRANCH   6   7
ENDBRANCH   1   6
TORSDOF 5
ENDMDL
MODEL 2
REMARK VINA RESULT:    -3.922      1.098      2.295
REMARK INTER + INTRA:          -5.358
REMARK INTER:                  -5.100
REMARK INTRA:                  -0.258
REMARK UNBOUND:                -0.291
REMARK SMILES CCCCCCC(=O)[O-]
REMARK SMILES IDX 5 1 6 2 7 3 8 4 9 5 4 6 3 7 2 8 1 9
REMARK H PARENT
REMARK Flexibility Score: inf
ROOT
ATOM      1  C   UNL     1      10.113 -13.652 -21.831  1.00  0.00     0.006 C 
ENDROOT
BRANCH   1   2
ATOM      2  C   UNL     1       9.861 -14.735 -20.779  1.00  0.00     0.053 C 
BRANCH   2   3
ATOM      3  C   UNL     1      10.614 -14.432 -19.522  1.00  0.00     0.041 C 
ATOM      4  O   UNL     1      11.092 -15.367 -18.829  1.00  0.00    -0.550 OA
ATOM      5  O   UNL     1      10.832 -13.113 -19.144  1.00  0.00    -0.550 OA
ENDBRANCH   2   3
ENDBRANCH   1   2
BRANCH   1   6
ATOM      6  C   UNL     1      11.082 -14.149 -22.911  1.00  0.00     0.000 C 
BRANCH   6   7
ATOM      7  C   UNL     1      10.322 -14.772 -24.088  1.00  0.00    -0.000 C 
BRANCH   7   8
ATOM      8  C   UNL     1      10.991 -16.071 -24.550  1.00  0.00    -0.003 C 
ATOM      9  C   UNL     1      11.282 -16.992 -23.368  1.00  0.00     0.004 C 
ENDBRANCH   7   8
ENDBRANCH   6   7
ENDBRANCH   1   6
TORSDOF 5
ENDMDL
MODEL 3
REMARK VINA RESULT:    -3.774      1.907      3.236
REMARK INTER + INTRA:          -5.168
REMARK INTER:                  -4.991
REMARK INTRA:                  -0.177
REMARK UNBOUND:                -0.291
REMARK SMILES CCCCCCC(=O)[O-]
REMARK SMILES IDX 5 1 6 2 7 3 8 4 9 5 4 6 3 7 2 8 1 9
REMARK H PARENT
REMARK Flexibility Score: inf
ROOT
ATOM      1  C   UNL     1      10.494 -16.042 -21.501  1.00  0.00     0.006 C 
ENDROOT
BRANCH   1   2
ATOM      2  C   UNL     1       9.837 -14.908 -20.709  1.00  0.00     0.053 C 
BRANCH   2   3
ATOM      3  C   UNL     1      10.651 -14.572 -19.500  1.00  0.00     0.041 C 
ATOM      4  O   UNL     1      11.190 -15.487 -18.826  1.00  0.00    -0.550 OA
ATOM      5  O   UNL     1      10.855 -13.244 -19.146  1.00  0.00    -0.550 OA
ENDBRANCH   2   3
ENDBRANCH   1   2
BRANCH   1   6
ATOM      6  C   UNL     1      10.770 -15.616 -22.948  1.00  0.00     0.000 C 
BRANCH   6   7
ATOM      7  C   UNL     1      11.302 -16.791 -23.776  1.00  0.00    -0.000 C 
BRANCH   7   8
ATOM      8  C   UNL     1      11.577 -18.010 -22.889  1.00  0.00    -0.003 C 
ATOM      9  C   UNL     1      11.179 -19.305 -23.591  1.00  0.00     0.004 C 
ENDBRANCH   7   8
ENDBRANCH   6   7
ENDBRANCH   1   6
TORSDOF 5
ENDMDL
MODEL 4
REMARK VINA RESULT:    -3.663      1.726      2.992
REMARK INTER + INTRA:          -5.025
REMARK INTER:                  -4.688
REMARK INTRA:                  -0.337
REMARK UNBOUND:                -0.291
REMARK SMILES CCCCCCC(=O)[O-]
REMARK SMILES IDX 5 1 6 2 7 3 8 4 9 5 4 6 3 7 2 8 1 9
REMARK H PARENT
REMARK Flexibility Score: inf
ROOT
ATOM      1  C   UNL     1      11.237 -14.646 -22.328  1.00  0.00     0.006 C 
ENDROOT
BRANCH   1   2
ATOM      2  C   UNL     1      10.176 -13.844 -21.567  1.00  0.00     0.053 C 
BRANCH   2   3
ATOM      3  C   UNL     1      10.089 -14.306 -20.147  1.00  0.00     0.041 C 
ATOM      4  O   UNL     1       9.403 -15.319 -19.852  1.00  0.00    -0.550 OA
ATOM      5  O   UNL     1      10.807 -13.647 -19.156  1.00  0.00    -0.550 OA
ENDBRANCH   2   3
ENDBRANCH   1   2
BRANCH   1   6
ATOM      6  C   UNL     1      10.649 -15.267 -23.601  1.00  0.00     0.000 C 
BRANCH   6   7
ATOM      7  C   UNL     1       9.883 -16.556 -23.282  1.00  0.00    -0.000 C 
BRANCH   7   8
ATOM      8  C   UNL     1      10.719 -17.489 -22.399  1.00  0.00    -0.003 C 
ATOM      9  C   UNL     1      11.699 -18.306 -23.233  1.00  0.00     0.004 C 
ENDBRANCH   7   8
ENDBRANCH   6   7
ENDBRANCH   1   6
TORSDOF 5
ENDMDL
MODEL 5
REMARK VINA RESULT:    -3.582      2.158      4.003
REMARK INTER + INTRA:          -4.920
REMARK INTER:                  -4.618
REMARK INTRA:                  -0.302
REMARK UNBOUND:                -0.291
REMARK SMILES CCCCCCC(=O)[O-]
REMARK SMILES IDX 5 1 6 2 7 3 8 4 9 5 4 6 3 7 2 8 1 9
REMARK H PARENT
REMARK Flexibility Score: inf
ROOT
ATOM      1  C   UNL     1      10.988 -14.360 -23.213  1.00  0.00     0.006 C 
ENDROOT
BRANCH   1   2
ATOM      2  C   UNL     1      10.143 -13.354 -24.000  1.00  0.00     0.053 C 
BRANCH   2   3
ATOM      3  C   UNL     1       9.748 -12.205 -23.127  1.00  0.00     0.041 C 
ATOM      4  O   UNL     1      10.093 -12.180 -21.917  1.00  0.00    -0.550 OA
ATOM      5  O   UNL     1       9.040 -11.136 -23.664  1.00  0.00    -0.550 OA
ENDBRANCH   2   3
ENDBRANCH   1   2
BRANCH   1   6
ATOM      6  C   UNL     1      10.273 -15.712 -23.102  1.00  0.00     0.000 C 
BRANCH   6   7
ATOM      7  C   UNL     1      10.447 -16.314 -21.703  1.00  0.00    -0.000 C 
BRANCH   7   8
ATOM      8  C   UNL     1       9.859 -15.390 -20.630  1.00  0.00    -0.003 C 
ATOM      9  C   UNL     1      10.904 -15.033 -19.577  1.00  0.00     0.004 C 
ENDBRANCH   7   8
ENDBRANCH   6   7
ENDBRANCH   1   6
TORSDOF 5
ENDMDL
MODEL 6
REMARK VINA RESULT:    -3.576      2.188      3.430
REMARK INTER + INTRA:          -4.912
REMARK INTER:                  -4.736
REMARK INTRA:                  -0.176
REMARK UNBOUND:                -0.291
REMARK SMILES CCCCCCC(=O)[O-]
REMARK SMILES IDX 5 1 6 2 7 3 8 4 9 5 4 6 3 7 2 8 1 9
REMARK H PARENT
REMARK Flexibility Score: inf
ROOT
ATOM      1  C   UNL     1      10.467 -16.282 -21.266  1.00  0.00     0.006 C 
ENDROOT
BRANCH   1   2
ATOM      2  C   UNL     1      10.312 -14.779 -21.016  1.00  0.00     0.053 C 
BRANCH   2   3
ATOM      3  C   UNL     1      10.735 -14.433 -19.623  1.00  0.00     0.041 C 
ATOM      4  O   UNL     1      10.676 -13.242 -19.221  1.00  0.00    -0.550 OA
ATOM      5  O   UNL     1      11.148 -15.434 -18.753  1.00  0.00    -0.550 OA
ENDBRANCH   2   3
ENDBRANCH   1   2
BRANCH   1   6
ATOM      6  C   UNL     1      10.800 -16.564 -22.737  1.00  0.00     0.000 C 
BRANCH   6   7
ATOM      7  C   UNL     1      10.465 -18.013 -23.109  1.00  0.00    -0.000 C 
BRANCH   7   8
ATOM      8  C   UNL     1       9.061 -18.394 -22.628  1.00  0.00    -0.003 C 
ATOM      9  C   UNL     1       8.983 -19.875 -22.270  1.00  0.00     0.004 C 
ENDBRANCH   7   8
ENDBRANCH   6   7
ENDBRANCH   1   6
TORSDOF 5
ENDMDL
MODEL 7
REMARK VINA RESULT:    -3.439     16.324     17.475
REMARK INTER + INTRA:          -4.735
REMARK INTER:                  -4.421
REMARK INTRA:                  -0.314
REMARK UNBOUND:                -0.291
REMARK SMILES CCCCCCC(=O)[O-]
REMARK SMILES IDX 5 1 6 2 7 3 8 4 9 5 4 6 3 7 2 8 1 9
REMARK H PARENT
REMARK Flexibility Score: inf
ROOT
ATOM      1  C   UNL     1      23.772  -5.518 -28.465  1.00  0.00     0.006 C 
ENDROOT
BRANCH   1   2
ATOM      2  C   UNL     1      22.868  -5.827 -27.268  1.00  0.00     0.053 C 
BRANCH   2   3
ATOM      3  C   UNL     1      23.511  -6.840 -26.373  1.00  0.00     0.041 C 
ATOM      4  O   UNL     1      23.751  -7.999 -26.800  1.00  0.00    -0.550 OA
ATOM      5  O   UNL     1      23.889  -6.487 -25.084  1.00  0.00    -0.550 OA
ENDBRANCH   2   3
ENDBRANCH   1   2
BRANCH   1   6
ATOM      6  C   UNL     1      23.768  -4.019 -28.786  1.00  0.00     0.000 C 
BRANCH   6   7
ATOM      7  C   UNL     1      24.995  -3.323 -28.185  1.00  0.00    -0.000 C 
BRANCH   7   8
ATOM      8  C   UNL     1      24.602  -2.457 -26.983  1.00  0.00    -0.003 C 
ATOM      9  C   UNL     1      25.100  -3.067 -25.677  1.00  0.00     0.004 C 
ENDBRANCH   7   8
ENDBRANCH   6   7
ENDBRANCH   1   6
TORSDOF 5
ENDMDL
MODEL 8
REMARK VINA RESULT:    -3.361      2.821      4.245
REMARK INTER + INTRA:          -4.633
REMARK INTER:                  -4.347
REMARK INTRA:                  -0.286
REMARK UNBOUND:                -0.291
REMARK SMILES CCCCCCC(=O)[O-]
REMARK SMILES IDX 5 1 6 2 7 3 8 4 9 5 4 6 3 7 2 8 1 9
REMARK H PARENT
REMARK Flexibility Score: inf
ROOT
ATOM      1  C   UNL     1      10.420 -15.660 -23.557  1.00  0.00     0.006 C 
ENDROOT
BRANCH   1   2
ATOM      2  C   UNL     1      11.404 -16.684 -24.129  1.00  0.00     0.053 C 
BRANCH   2   3
ATOM      3  C   UNL     1      11.434 -17.915 -23.279  1.00  0.00     0.041 C 
ATOM      4  O   UNL     1      12.111 -18.914 -23.635  1.00  0.00    -0.550 OA
ATOM      5  O   UNL     1      10.755 -17.939 -22.067  1.00  0.00    -0.550 OA
ENDBRANCH   2   3
ENDBRANCH   1   2
BRANCH   1   6
ATOM      6  C   UNL     1      11.159 -14.547 -22.805  1.00  0.00     0.000 C 
BRANCH   6   7
ATOM      7  C   UNL     1      10.212 -13.797 -21.860  1.00  0.00    -0.000 C 
BRANCH   7   8
ATOM      8  C   UNL     1       9.748 -14.702 -20.714  1.00  0.00    -0.003 C 
ATOM      9  C   UNL     1      10.902 -15.041 -19.777  1.00  0.00     0.004 C 
ENDBRANCH   7   8
ENDBRANCH   6   7
ENDBRANCH   1   6
TORSDOF 5
ENDMDL
