MODEL 1
REMARK VINA RESULT:    -3.244      0.000      0.000
REMARK INTER + INTRA:          -3.986
REMARK INTER:                  -3.908
REMARK INTRA:                  -0.078
REMARK UNBOUND:                -0.078
REMARK SMILES CC[C@@H](C)[C@@H]([NH3+])C(=O)[O-]
REMARK SMILES IDX 3 1 4 2 5 3 6 4 7 8 8 9 9 10 2 11 1 12
REMARK H PARENT 6 5 6 6 6 7
REMARK Flexibility Score: inf
ROOT
ATOM      1  C   UNL     1      73.940  -8.664 -25.280  1.00  0.00     0.050 C 
ATOM      2  C   UNL     1      72.766  -7.677 -25.422  1.00  0.00     0.014 C 
ENDROOT
BRANCH   1   3
ATOM      3  C   UNL     1      75.155  -8.362 -26.220  1.00  0.00     0.230 C 
BRANCH   3   4
ATOM      4  N   UNL     1      76.428  -8.493 -25.495  1.00  0.00    -0.350 N 
ATOM      5  H   UNL     1      77.222  -8.527 -26.175  1.00  0.00     0.345 HD
ATOM      6  H   UNL     1      76.441  -9.363 -24.915  1.00  0.00     0.345 HD
ATOM      7  H   UNL     1      76.573  -7.665 -24.874  1.00  0.00     0.345 HD
ENDBRANCH   3   4
BRANCH   3   8
ATOM      8  C   UNL     1      75.192  -9.216 -27.468  1.00  0.00     0.099 C 
ATOM      9  O   UNL     1      74.605 -10.330 -27.491  1.00  0.00    -0.544 OA
ATOM     10  O   UNL     1      75.821  -8.757 -28.620  1.00  0.00    -0.544 OA
ENDBRANCH   3   8
ENDBRANCH   1   3
BRANCH   1  11
ATOM     11  C   UNL     1      74.339  -8.881 -23.798  1.00  0.00     0.006 C 
ATOM     12  C   UNL     1      73.172  -9.065 -22.826  1.00  0.00     0.004 C 
ENDBRANCH   1  11
TORSDOF 4
ENDMDL
MODEL 2
REMARK VINA RESULT:    -3.146      1.754      2.453
REMARK INTER + INTRA:          -3.868
REMARK INTER:                  -3.827
REMARK INTRA:                  -0.041
REMARK UNBOUND:                -0.078
REMARK SMILES CC[C@@H](C)[C@@H]([NH3+])C(=O)[O-]
REMARK SMILES IDX 3 1 4 2 5 3 6 4 7 8 8 9 9 10 2 11 1 12
REMARK H PARENT 6 5 6 6 6 7
REMARK Flexibility Score: inf
ROOT
ATOM      1  C   UNL     1      75.132  -9.107 -26.412  1.00  0.00     0.050 C 
ATOM      2  C   UNL     1      74.828  -9.697 -27.801  1.00  0.00     0.014 C 
ENDROOT
BRANCH   1   3
ATOM      3  C   UNL     1      76.421  -8.219 -26.355  1.00  0.00     0.230 C 
BRANCH   3   4
ATOM      4  N   UNL     1      77.479  -8.876 -25.574  1.00  0.00    -0.350 N 
ATOM      5  H   UNL     1      77.054  -9.432 -24.797  1.00  0.00     0.345 HD
ATOM      6  H   UNL     1      78.137  -8.172 -25.167  1.00  0.00     0.345 HD
ATOM      7  H   UNL     1      78.017  -9.535 -26.183  1.00  0.00     0.345 HD
ENDBRANCH   3   4
BRANCH   3   8
ATOM      8  C   UNL     1      76.959  -7.830 -27.713  1.00  0.00     0.099 C 
ATOM      9  O   UNL     1      76.578  -6.764 -28.265  1.00  0.00    -0.544 OA
ATOM     10  O   UNL     1      77.923  -8.611 -28.341  1.00  0.00    -0.544 OA
ENDBRANCH   3   8
ENDBRANCH   1   3
BRANCH   1  11
ATOM     11  C   UNL     1      73.886  -8.435 -25.781  1.00  0.00     0.006 C 
ATOM     12  C   UNL     1      73.913  -8.304 -24.257  1.00  0.00     0.004 C 
ENDBRANCH   1  11
TORSDOF 4
ENDMDL
MODEL 3
REMARK VINA RESULT:    -2.970      2.584      3.792
REMARK INTER + INTRA:          -3.656
REMARK INTER:                  -3.539
REMARK INTRA:                  -0.117
REMARK UNBOUND:                -0.078
REMARK SMILES CC[C@@H](C)[C@@H]([NH3+])C(=O)[O-]
REMARK SMILES IDX 3 1 4 2 5 3 6 4 7 8 8 9 9 10 2 11 1 12
REMARK H PARENT 6 5 6 6 6 7
REMARK Flexibility Score: inf
ROOT
ATOM      1  C   UNL     1      76.223  -8.244 -26.814  1.00  0.00     0.050 C 
ATOM      2  C   UNL     1      76.641  -7.307 -27.962  1.00  0.00     0.014 C 
ENDROOT
BRANCH   1   3
ATOM      3  C   UNL     1      74.685  -8.533 -26.743  1.00  0.00     0.230 C 
BRANCH   3   4
ATOM      4  N   UNL     1      74.386  -9.902 -27.187  1.00  0.00    -0.350 N 
ATOM      5  H   UNL     1      75.254 -10.352 -27.559  1.00  0.00     0.345 HD
ATOM      6  H   UNL     1      73.657  -9.902 -27.937  1.00  0.00     0.345 HD
ATOM      7  H   UNL     1      74.047 -10.475 -26.381  1.00  0.00     0.345 HD
ENDBRANCH   3   4
BRANCH   3   8
ATOM      8  C   UNL     1      74.079  -8.299 -25.377  1.00  0.00     0.099 C 
ATOM      9  O   UNL     1      74.754  -8.519 -24.338  1.00  0.00    -0.544 OA
ATOM     10  O   UNL     1      72.794  -7.781 -25.254  1.00  0.00    -0.544 OA
ENDBRANCH   3   8
ENDBRANCH   1   3
BRANCH   1  11
ATOM     11  C   UNL     1      77.099  -9.520 -26.758  1.00  0.00     0.006 C 
ATOM     12  C   UNL     1      78.125  -9.562 -25.624  1.00  0.00     0.004 C 
ENDBRANCH   1  11
TORSDOF 4
ENDMDL
MODEL 4
REMARK VINA RESULT:    -2.942      2.053      2.703
REMARK INTER + INTRA:          -3.622
REMARK INTER:                  -3.550
REMARK INTRA:                  -0.072
REMARK UNBOUND:                -0.078
REMARK SMILES CC[C@@H](C)[C@@H]([NH3+])C(=O)[O-]
REMARK SMILES IDX 3 1 4 2 5 3 6 4 7 8 8 9 9 10 2 11 1 12
REMARK H PARENT 6 5 6 6 6 7
REMARK Flexibility Score: inf
ROOT
ATOM      1  C   UNL     1      75.137  -8.817 -26.810  1.00  0.00     0.050 C 
ATOM      2  C   UNL     1      76.427  -8.466 -26.044  1.00  0.00     0.014 C 
ENDROOT
BRANCH   1   3
ATOM      3  C   UNL     1      75.139 -10.242 -27.460  1.00  0.00     0.230 C 
BRANCH   3   4
ATOM      4  N   UNL     1      74.164 -10.321 -28.558  1.00  0.00    -0.350 N 
ATOM      5  H   UNL     1      73.590  -9.446 -28.587  1.00  0.00     0.345 HD
ATOM      6  H   UNL     1      73.527 -11.141 -28.435  1.00  0.00     0.345 HD
ATOM      7  H   UNL     1      74.661 -10.408 -29.474  1.00  0.00     0.345 HD
ENDBRANCH   3   4
BRANCH   3   8
ATOM      8  C   UNL     1      76.497 -10.689 -27.954  1.00  0.00     0.099 C 
ATOM      9  O   UNL     1      77.087 -11.653 -27.400  1.00  0.00    -0.544 OA
ATOM     10  O   UNL     1      77.081 -10.082 -29.061  1.00  0.00    -0.544 OA
ENDBRANCH   3   8
ENDBRANCH   1   3
BRANCH   1  11
ATOM     11  C   UNL     1      73.867  -8.516 -25.976  1.00  0.00     0.006 C 
ATOM     12  C   UNL     1      74.085  -8.409 -24.465  1.00  0.00     0.004 C 
ENDBRANCH   1  11
TORSDOF 4
ENDMDL
MODEL 5
REMARK VINA RESULT:    -2.889      2.879      4.299
REMARK INTER + INTRA:          -3.558
REMARK INTER:                  -3.578
REMARK INTRA:                   0.020
REMARK UNBOUND:                -0.078
REMARK SMILES CC[C@@H](C)[C@@H]([NH3+])C(=O)[O-]
REMARK SMILES IDX 3 1 4 2 5 3 6 4 7 8 8 9 9 10 2 11 1 12
REMARK H PARENT 6 5 6 6 6 7
REMARK Flexibility Score: inf
ROOT
ATOM      1  C   UNL     1      75.071 -10.688 -27.852  1.00  0.00     0.050 C 
ATOM      2  C   UNL     1      76.558 -11.087 -27.886  1.00  0.00     0.014 C 
ENDROOT
BRANCH   1   3
ATOM      3  C   UNL     1      74.808  -9.211 -27.404  1.00  0.00     0.230 C 
BRANCH   3   4
ATOM      4  N   UNL     1      73.905  -9.165 -26.245  1.00  0.00    -0.350 N 
ATOM      5  H   UNL     1      74.395  -8.728 -25.430  1.00  0.00     0.345 HD
ATOM      6  H   UNL     1      73.590 -10.126 -25.976  1.00  0.00     0.345 HD
ATOM      7  H   UNL     1      73.067  -8.580 -26.466  1.00  0.00     0.345 HD
ENDBRANCH   3   4
BRANCH   3   8
ATOM      8  C   UNL     1      76.066  -8.430 -27.098  1.00  0.00     0.099 C 
ATOM      9  O   UNL     1      76.563  -7.663 -27.965  1.00  0.00    -0.544 OA
ATOM     10  O   UNL     1      76.653  -8.501 -25.840  1.00  0.00    -0.544 OA
ENDBRANCH   3   8
ENDBRANCH   1   3
BRANCH   1  11
ATOM     11  C   UNL     1      74.335 -11.083 -29.157  1.00  0.00     0.006 C 
ATOM     12  C   UNL     1      74.322 -12.580 -29.475  1.00  0.00     0.004 C 
ENDBRANCH   1  11
TORSDOF 4
ENDMDL
MODEL 6
REMARK VINA RESULT:    -2.867      2.134      4.105
REMARK INTER + INTRA:          -3.532
REMARK INTER:                  -3.441
REMARK INTRA:                  -0.091
REMARK UNBOUND:                -0.078
REMARK SMILES CC[C@@H](C)[C@@H]([NH3+])C(=O)[O-]
REMARK SMILES IDX 3 1 4 2 5 3 6 4 7 8 8 9 9 10 2 11 1 12
REMARK H PARENT 6 5 6 6 6 7
REMARK Flexibility Score: inf
ROOT
ATOM      1  C   UNL     1      75.164  -8.848 -27.510  1.00  0.00     0.050 C 
ATOM      2  C   UNL     1      74.801 -10.158 -28.236  1.00  0.00     0.014 C 
ENDROOT
BRANCH   1   3
ATOM      3  C   UNL     1      75.370  -9.001 -25.965  1.00  0.00     0.230 C 
BRANCH   3   4
ATOM      4  N   UNL     1      76.638  -8.391 -25.540  1.00  0.00    -0.350 N 
ATOM      5  H   UNL     1      77.115  -9.012 -24.845  1.00  0.00     0.345 HD
ATOM      6  H   UNL     1      76.476  -7.455 -25.103  1.00  0.00     0.345 HD
ATOM      7  H   UNL     1      77.276  -8.279 -26.361  1.00  0.00     0.345 HD
ENDBRANCH   3   4
BRANCH   3   8
ATOM      8  C   UNL     1      74.235  -8.443 -25.137  1.00  0.00     0.099 C 
ATOM      9  O   UNL     1      73.197  -8.003 -25.698  1.00  0.00    -0.544 OA
ATOM     10  O   UNL     1      74.297  -8.465 -23.748  1.00  0.00    -0.544 OA
ENDBRANCH   3   8
ENDBRANCH   1   3
BRANCH   1  11
ATOM     11  C   UNL     1      76.316  -8.092 -28.219  1.00  0.00     0.006 C 
ATOM     12  C   UNL     1      76.669  -8.601 -29.619  1.00  0.00     0.004 C 
ENDBRANCH   1  11
TORSDOF 4
ENDMDL
MODEL 7
REMARK VINA RESULT:    -2.833      1.878      2.643
REMARK INTER + INTRA:          -3.491
REMARK INTER:                  -3.388
REMARK INTRA:                  -0.103
REMARK UNBOUND:                -0.078
REMARK SMILES CC[C@@H](C)[C@@H]([NH3+])C(=O)[O-]
REMARK SMILES IDX 3 1 4 2 5 3 6 4 7 8 8 9 9 10 2 11 1 12
REMARK H PARENT 6 5 6 6 6 7
REMARK Flexibility Score: inf
ROOT
ATOM      1  C   UNL     1      75.461  -8.485 -26.866  1.00  0.00     0.050 C 
ATOM      2  C   UNL     1      76.709  -8.729 -25.996  1.00  0.00     0.014 C 
ENDROOT
BRANCH   1   3
ATOM      3  C   UNL     1      75.555  -9.080 -28.311  1.00  0.00     0.230 C 
BRANCH   3   4
ATOM      4  N   UNL     1      76.943  -9.070 -28.796  1.00  0.00    -0.350 N 
ATOM      5  H   UNL     1      77.322 -10.046 -28.806  1.00  0.00     0.345 HD
ATOM      6  H   UNL     1      77.549  -8.477 -28.184  1.00  0.00     0.345 HD
ATOM      7  H   UNL     1      76.979  -8.702 -29.774  1.00  0.00     0.345 HD
ENDBRANCH   3   4
BRANCH   3   8
ATOM      8  C   UNL     1      74.982 -10.474 -28.440  1.00  0.00     0.099 C 
ATOM      9  O   UNL     1      73.995 -10.687 -29.192  1.00  0.00    -0.544 OA
ATOM     10  O   UNL     1      75.575 -11.544 -27.780  1.00  0.00    -0.544 OA
ENDBRANCH   3   8
ENDBRANCH   1   3
BRANCH   1  11
ATOM     11  C   UNL     1      74.154  -8.859 -26.122  1.00  0.00     0.006 C 
ATOM     12  C   UNL     1      74.097  -8.447 -24.650  1.00  0.00     0.004 C 
ENDBRANCH   1  11
TORSDOF 4
ENDMDL
MODEL 8
REMARK VINA RESULT:    -2.730      2.324      3.156
REMARK INTER + INTRA:          -3.367
REMARK INTER:                  -3.220
REMARK INTRA:                  -0.147
REMARK UNBOUND:                -0.078
REMARK SMILES CC[C@@H](C)[C@@H]([NH3+])C(=O)[O-]
REMARK SMILES IDX 3 1 4 2 5 3 6 4 7 8 8 9 9 10 2 11 1 12
REMARK H PARENT 6 5 6 6 6 7
REMARK Flexibility Score: inf
ROOT
ATOM      1  C   UNL     1      75.225  -9.198 -26.674  1.00  0.00     0.050 C 
ATOM      2  C   UNL     1      74.021  -8.538 -25.976  1.00  0.00     0.014 C 
ENDROOT
BRANCH   1   3
ATOM      3  C   UNL     1      74.938  -9.684 -28.135  1.00  0.00     0.230 C 
BRANCH   3   4
ATOM      4  N   UNL     1      75.818  -9.005 -29.098  1.00  0.00    -0.350 N 
ATOM      5  H   UNL     1      75.943  -9.604 -29.947  1.00  0.00     0.345 HD
ATOM      6  H   UNL     1      76.756  -8.813 -28.677  1.00  0.00     0.345 HD
ATOM      7  H   UNL     1      75.388  -8.103 -29.403  1.00  0.00     0.345 HD
ENDBRANCH   3   4
BRANCH   3   8
ATOM      8  C   UNL     1      75.048 -11.181 -28.315  1.00  0.00     0.099 C 
ATOM      9  O   UNL     1      75.878 -11.843 -27.638  1.00  0.00    -0.544 OA
ATOM     10  O   UNL     1      74.193 -11.852 -29.183  1.00  0.00    -0.544 OA
ENDBRANCH   3   8
ENDBRANCH   1   3
BRANCH   1  11
ATOM     11  C   UNL     1      76.511  -8.342 -26.544  1.00  0.00     0.006 C 
ATOM     12  C   UNL     1      77.721  -9.065 -25.949  1.00  0.00     0.004 C 
ENDBRANCH   1  11
TORSDOF 4
ENDMDL
MODEL 9
REMARK VINA RESULT:    -2.705      3.148      4.745
REMARK INTER + INTRA:          -3.337
REMARK INTER:                  -3.256
REMARK INTRA:                  -0.081
REMARK UNBOUND:                -0.078
REMARK SMILES CC[C@@H](C)[C@@H]([NH3+])C(=O)[O-]
REMARK SMILES IDX 3 1 4 2 5 3 6 4 7 8 8 9 9 10 2 11 1 12
REMARK H PARENT 6 5 6 6 6 7
REMARK Flexibility Score: inf
ROOT
ATOM      1  C   UNL     1      75.171 -11.580 -28.277  1.00  0.00     0.050 C 
ATOM      2  C   UNL     1      76.264 -12.498 -27.699  1.00  0.00     0.014 C 
ENDROOT
BRANCH   1   3
ATOM      3  C   UNL     1      75.647 -10.120 -28.582  1.00  0.00     0.230 C 
BRANCH   3   4
ATOM      4  N   UNL     1      75.149  -9.665 -29.889  1.00  0.00    -0.350 N 
ATOM      5  H   UNL     1      75.586 -10.232 -30.652  1.00  0.00     0.345 HD
ATOM      6  H   UNL     1      75.374  -8.656 -30.045  1.00  0.00     0.345 HD
ATOM      7  H   UNL     1      74.113  -9.798 -29.944  1.00  0.00     0.345 HD
ENDBRANCH   3   4
BRANCH   3   8
ATOM      8  C   UNL     1      75.268  -9.116 -27.517  1.00  0.00     0.099 C 
ATOM      9  O   UNL     1      74.410  -9.411 -26.644  1.00  0.00    -0.544 OA
ATOM     10  O   UNL     1      75.904  -7.881 -27.452  1.00  0.00    -0.544 OA
ENDBRANCH   3   8
ENDBRANCH   1   3
BRANCH   1  11
ATOM     11  C   UNL     1      74.417 -12.248 -29.455  1.00  0.00     0.006 C 
ATOM     12  C   UNL     1      74.138 -13.743 -29.291  1.00  0.00     0.004 C 
ENDBRANCH   1  11
TORSDOF 4
ENDMDL
