MODEL 1
REMARK VINA RESULT:    67.280      0.000      0.000
REMARK INTER + INTRA:          86.268
REMARK INTER:                  84.980
REMARK INTRA:                   1.289
REMARK UNBOUND:                 1.289
REMARK SMILES CC(C)[C@@H](C)C=C[C@H](C)[C@@H]1CC[C@@H]2C3=CC=C4C[C@@H](O)CC[C@]4(C)[C@H]3CC[C@]21C
REMARK SMILES IDX 8 1 9 2 7 3 6 4 4 5 5 6 2 7 1 8 3 9 10 10 11 11 28 12 12 13
REMARK SMILES IDX 13 14 27 15 29 16 14 17 26 18 25 19 15 20 23 21 16 22 17 23
REMARK SMILES IDX 22 24 24 25 18 26 21 27 19 28 20 29
REMARK H PARENT 20 30
REMARK Flexibility Score: inf
ROOT
ATOM      1  C   UNL     1     -18.877  25.795  -5.844  1.00  0.00     0.012 C 
ATOM      2  C   UNL     1     -19.175  26.365  -4.449  1.00  0.00     0.012 C 
ENDROOT
BRANCH   1   3
ATOM      3  C   UNL     1     -19.205  24.316  -5.838  1.00  0.00    -0.028 C 
ATOM      4  C   UNL     1     -18.919  23.531  -6.889  1.00  0.00    -0.028 C 
BRANCH   4   5
ATOM      5  C   UNL     1     -19.222  22.047  -6.871  1.00  0.00     0.011 C 
ATOM      6  C   UNL     1     -19.477  21.585  -8.315  1.00  0.00     0.012 C 
BRANCH   5   7
ATOM      7  C   UNL     1     -20.425  21.738  -5.928  1.00  0.00    -0.011 C 
ATOM      8  C   UNL     1     -21.654  22.587  -6.304  1.00  0.00     0.008 C 
ATOM      9  C   UNL     1     -20.082  21.986  -4.449  1.00  0.00     0.008 C 
ENDBRANCH   5   7
ENDBRANCH   4   5
ENDBRANCH   1   3
BRANCH   1  10
ATOM     10  C   UNL     1     -19.680  26.518  -6.976  1.00  0.00     0.002 C 
ATOM     11  C   UNL     1     -18.877  27.702  -7.581  1.00  0.00     0.005 C 
ATOM     12  C   UNL     1     -21.059  27.149  -6.617  1.00  0.00    -0.023 C 
ATOM     13  C   UNL     1     -19.889  28.790  -7.956  1.00  0.00     0.009 C 
ATOM     14  C   UNL     1     -21.242  28.111  -7.794  1.00  0.00     0.021 C 
ATOM     15  C   UNL     1     -22.257  26.178  -6.671  1.00  0.00     0.008 C 
ATOM     16  C   UNL     1     -20.994  27.881  -5.240  1.00  0.00     0.012 C 
ATOM     17  C   UNL     1     -22.480  28.961  -7.672  1.00  0.00    -0.063 C 
ATOM     18  C   UNL     1     -23.624  26.892  -6.522  1.00  0.00     0.009 C 
ATOM     19  C   UNL     1     -23.735  28.383  -7.019  1.00  0.00     0.025 C 
ATOM     20  C   UNL     1     -22.561  30.153  -8.283  1.00  0.00    -0.000 C 
ATOM     21  C   UNL     1     -25.015  28.694  -7.881  1.00  0.00    -0.005 C 
ATOM     22  C   UNL     1     -23.857  30.837  -8.437  1.00  0.00    -0.000 C 
ATOM     23  C   UNL     1     -25.019  30.192  -8.227  1.00  0.00    -0.061 C 
ATOM     24  C   UNL     1     -26.291  28.338  -7.057  1.00  0.00     0.014 C 
ATOM     25  C   UNL     1     -24.994  27.892  -9.209  1.00  0.00     0.017 C 
ATOM     26  C   UNL     1     -26.308  30.880  -8.613  1.00  0.00     0.063 C 
ATOM     27  C   UNL     1     -27.579  28.948  -7.623  1.00  0.00     0.033 C 
ATOM     28  C   UNL     1     -27.466  30.471  -7.696  1.00  0.00     0.118 C 
BRANCH  28  29
ATOM     29  O   UNL     1     -28.672  30.995  -8.189  1.00  0.00    -0.393 OA
ATOM     30  H   UNL     1     -28.572  31.067  -9.175  1.00  0.00     0.210 HD
ENDBRANCH  28  29
ENDBRANCH   1  10
TORSDOF 5
ENDMDL
MODEL 2
REMARK VINA RESULT:    68.222      2.745      7.617
REMARK INTER + INTRA:          87.458
REMARK INTER:                  85.705
REMARK INTRA:                   1.752
REMARK UNBOUND:                 1.289
REMARK SMILES CC(C)[C@@H](C)C=C[C@H](C)[C@@H]1CC[C@@H]2C3=CC=C4C[C@@H](O)CC[C@]4(C)[C@H]3CC[C@]21C
REMARK SMILES IDX 8 1 9 2 7 3 6 4 4 5 5 6 2 7 1 8 3 9 10 10 11 11 28 12 12 13
REMARK SMILES IDX 13 14 27 15 29 16 14 17 26 18 25 19 15 20 23 21 16 22 17 23
REMARK SMILES IDX 22 24 24 25 18 26 21 27 19 28 20 29
REMARK H PARENT 20 30
REMARK Flexibility Score: inf
ROOT
ATOM      1  C   UNL     1     -25.596  31.707  -8.989  1.00  0.00     0.012 C 
ATOM      2  C   UNL     1     -25.738  31.085 -10.387  1.00  0.00     0.012 C 
ENDROOT
BRANCH   1   3
ATOM      3  C   UNL     1     -26.744  31.219  -8.128  1.00  0.00    -0.028 C 
ATOM      4  C   UNL     1     -26.711  30.016  -7.534  1.00  0.00    -0.028 C 
BRANCH   4   5
ATOM      5  C   UNL     1     -27.847  29.542  -6.650  1.00  0.00     0.011 C 
ATOM      6  C   UNL     1     -27.444  29.761  -5.182  1.00  0.00     0.012 C 
BRANCH   5   7
ATOM      7  C   UNL     1     -28.200  28.053  -6.952  1.00  0.00    -0.011 C 
ATOM      8  C   UNL     1     -28.830  27.374  -5.721  1.00  0.00     0.008 C 
ATOM      9  C   UNL     1     -26.969  27.242  -7.393  1.00  0.00     0.008 C 
ENDBRANCH   5   7
ENDBRANCH   4   5
ENDBRANCH   1   3
BRANCH   1  10
ATOM     10  C   UNL     1     -24.231  31.358  -8.309  1.00  0.00     0.002 C 
ATOM     11  C   UNL     1     -23.042  32.067  -9.014  1.00  0.00     0.005 C 
ATOM     12  C   UNL     1     -23.792  29.864  -8.255  1.00  0.00    -0.023 C 
ATOM     13  C   UNL     1     -21.840  31.119  -8.939  1.00  0.00     0.009 C 
ATOM     14  C   UNL     1     -22.292  30.021  -7.987  1.00  0.00     0.021 C 
ATOM     15  C   UNL     1     -24.354  29.059  -7.064  1.00  0.00     0.008 C 
ATOM     16  C   UNL     1     -24.093  29.145  -9.607  1.00  0.00     0.012 C 
ATOM     17  C   UNL     1     -21.555  28.707  -7.979  1.00  0.00    -0.063 C 
ATOM     18  C   UNL     1     -23.722  27.651  -6.930  1.00  0.00     0.009 C 
ATOM     19  C   UNL     1     -22.248  27.452  -7.449  1.00  0.00     0.025 C 
ATOM     20  C   UNL     1     -20.244  28.650  -8.260  1.00  0.00    -0.000 C 
ATOM     21  C   UNL     1     -21.308  26.659  -6.467  1.00  0.00    -0.005 C 
ATOM     22  C   UNL     1     -19.456  27.446  -7.948  1.00  0.00    -0.000 C 
ATOM     23  C   UNL     1     -19.937  26.484  -7.139  1.00  0.00    -0.061 C 
ATOM     24  C   UNL     1     -21.934  25.260  -6.170  1.00  0.00     0.014 C 
ATOM     25  C   UNL     1     -21.101  27.445  -5.146  1.00  0.00     0.017 C 
ATOM     26  C   UNL     1     -19.001  25.387  -6.684  1.00  0.00     0.063 C 
ATOM     27  C   UNL     1     -20.946  24.263  -5.553  1.00  0.00     0.033 C 
ATOM     28  C   UNL     1     -19.740  24.062  -6.471  1.00  0.00     0.118 C 
BRANCH  28  29
ATOM     29  O   UNL     1     -18.875  23.122  -5.889  1.00  0.00    -0.393 OA
ATOM     30  H   UNL     1     -19.119  22.236  -6.266  1.00  0.00     0.210 HD
ENDBRANCH  28  29
ENDBRANCH   1  10
TORSDOF 5
ENDMDL
