MODEL 1
REMARK VINA RESULT:    -5.817      0.000      0.000
REMARK INTER + INTRA:          -6.726
REMARK INTER:                  -6.497
REMARK INTRA:                  -0.229
REMARK UNBOUND:                -0.229
REMARK SMILES O=C([O-])c1ccccc1C(=O)[O-]
REMARK SMILES IDX 4 1 9 2 5 3 8 4 6 5 7 6 2 7 1 8 3 9 10 10 11 11 12 12
REMARK H PARENT
REMARK Flexibility Score: inf
ROOT
ATOM      1  C   UNL     1     149.709 170.042 151.060  1.00  0.00     0.006 A 
ATOM      2  C   UNL     1     150.852 169.196 151.004  1.00  0.00     0.006 A 
ATOM      3  C   UNL     1     148.802 170.040 149.985  1.00  0.00     0.010 A 
ATOM      4  C   UNL     1     151.077 168.428 149.846  1.00  0.00     0.010 A 
ATOM      5  C   UNL     1     149.034 169.253 148.856  1.00  0.00     0.001 A 
ATOM      6  C   UNL     1     150.175 168.458 148.783  1.00  0.00     0.001 A 
ENDROOT
BRANCH   1   7
ATOM      7  C   UNL     1     149.468 170.987 152.175  1.00  0.00     0.072 C 
ATOM      8  O   UNL     1     150.009 172.125 152.169  1.00  0.00    -0.545 OA
ATOM      9  O   UNL     1     148.698 170.611 153.270  1.00  0.00    -0.545 OA
ENDBRANCH   1   7
BRANCH   2  10
ATOM     10  C   UNL     1     151.788 169.028 152.139  1.00  0.00     0.072 C 
ATOM     11  O   UNL     1     152.885 169.647 152.168  1.00  0.00    -0.545 OA
ATOM     12  O   UNL     1     151.433 168.234 153.224  1.00  0.00    -0.545 OA
ENDBRANCH   2  10
TORSDOF 2
ENDMDL
MODEL 2
REMARK VINA RESULT:    -5.759      0.135      3.002
REMARK INTER + INTRA:          -6.660
REMARK INTER:                  -6.447
REMARK INTRA:                  -0.214
REMARK UNBOUND:                -0.229
REMARK SMILES O=C([O-])c1ccccc1C(=O)[O-]
REMARK SMILES IDX 4 1 9 2 5 3 8 4 6 5 7 6 2 7 1 8 3 9 10 10 11 11 12 12
REMARK H PARENT
REMARK Flexibility Score: inf
ROOT
ATOM      1  C   UNL     1     150.865 169.158 151.075  1.00  0.00     0.006 A 
ATOM      2  C   UNL     1     149.707 169.986 151.083  1.00  0.00     0.006 A 
ATOM      3  C   UNL     1     151.152 168.392 149.930  1.00  0.00     0.010 A 
ATOM      4  C   UNL     1     148.847 169.967 149.970  1.00  0.00     0.010 A 
ATOM      5  C   UNL     1     150.295 168.407 148.828  1.00  0.00     0.001 A 
ATOM      6  C   UNL     1     149.139 169.184 148.854  1.00  0.00     0.001 A 
ENDROOT
BRANCH   1   7
ATOM      7  C   UNL     1     151.749 169.008 152.255  1.00  0.00     0.072 C 
ATOM      8  O   UNL     1     152.894 169.534 152.259  1.00  0.00    -0.545 OA
ATOM      9  O   UNL     1     151.357 168.235 153.342  1.00  0.00    -0.545 OA
ENDBRANCH   1   7
BRANCH   2  10
ATOM     10  C   UNL     1     149.397 170.926 152.184  1.00  0.00     0.072 C 
ATOM     11  O   UNL     1     148.548 170.629 153.065  1.00  0.00    -0.545 OA
ATOM     12  O   UNL     1     150.092 172.125 152.295  1.00  0.00    -0.545 OA
ENDBRANCH   2  10
TORSDOF 2
ENDMDL
MODEL 3
REMARK VINA RESULT:    -5.682      0.384      1.356
REMARK INTER + INTRA:          -6.575
REMARK INTER:                  -6.461
REMARK INTRA:                  -0.114
REMARK UNBOUND:                -0.229
REMARK SMILES O=C([O-])c1ccccc1C(=O)[O-]
REMARK SMILES IDX 4 1 9 2 5 3 8 4 6 5 7 6 2 7 1 8 3 9 10 10 11 11 12 12
REMARK H PARENT
REMARK Flexibility Score: inf
ROOT
ATOM      1  C   UNL     1     149.661 170.110 151.332  1.00  0.00     0.006 A 
ATOM      2  C   UNL     1     150.746 169.221 151.093  1.00  0.00     0.006 A 
ATOM      3  C   UNL     1     148.671 170.263 150.345  1.00  0.00     0.010 A 
ATOM      4  C   UNL     1     150.833 168.567 149.850  1.00  0.00     0.010 A 
ATOM      5  C   UNL     1     148.765 169.587 149.128  1.00  0.00     0.001 A 
ATOM      6  C   UNL     1     149.850 168.750 148.877  1.00  0.00     0.001 A 
ENDROOT
BRANCH   1   7
ATOM      7  C   UNL     1     149.566 170.945 152.553  1.00  0.00     0.072 C 
ATOM      8  O   UNL     1     148.777 170.621 153.481  1.00  0.00    -0.545 OA
ATOM      9  O   UNL     1     150.291 172.125 152.664  1.00  0.00    -0.545 OA
ENDBRANCH   1   7
BRANCH   2  10
ATOM     10  C   UNL     1     151.760 168.892 152.121  1.00  0.00     0.072 C 
ATOM     11  O   UNL     1     151.429 168.322 153.195  1.00  0.00    -0.545 OA
ATOM     12  O   UNL     1     153.106 169.148 151.881  1.00  0.00    -0.545 OA
ENDBRANCH   2  10
TORSDOF 2
ENDMDL
MODEL 4
REMARK VINA RESULT:    -5.564     14.061     15.504
REMARK INTER + INTRA:          -6.443
REMARK INTER:                  -6.492
REMARK INTRA:                   0.049
REMARK UNBOUND:                -0.229
REMARK SMILES O=C([O-])c1ccccc1C(=O)[O-]
REMARK SMILES IDX 4 1 9 2 5 3 8 4 6 5 7 6 2 7 1 8 3 9 10 10 11 11 12 12
REMARK H PARENT
REMARK Flexibility Score: inf
ROOT
ATOM      1  C   UNL     1     150.884 156.716 159.932  1.00  0.00     0.006 A 
ATOM      2  C   UNL     1     151.320 157.155 158.651  1.00  0.00     0.006 A 
ATOM      3  C   UNL     1     149.653 157.180 160.432  1.00  0.00     0.010 A 
ATOM      4  C   UNL     1     150.540 158.091 157.947  1.00  0.00     0.010 A 
ATOM      5  C   UNL     1     148.885 158.091 159.707  1.00  0.00     0.001 A 
ATOM      6  C   UNL     1     149.334 158.555 158.472  1.00  0.00     0.001 A 
ENDROOT
BRANCH   1   7
ATOM      7  C   UNL     1     151.707 155.844 160.801  1.00  0.00     0.072 C 
ATOM      8  O   UNL     1     152.119 156.266 161.915  1.00  0.00    -0.545 OA
ATOM      9  O   UNL     1     152.088 154.576 160.377  1.00  0.00    -0.545 OA
ENDBRANCH   1   7
BRANCH   2  10
ATOM     10  C   UNL     1     152.529 156.620 157.984  1.00  0.00     0.072 C 
ATOM     11  O   UNL     1     153.679 156.876 158.431  1.00  0.00    -0.545 OA
ATOM     12  O   UNL     1     152.405 155.769 156.891  1.00  0.00    -0.545 OA
ENDBRANCH   2  10
TORSDOF 2
ENDMDL
MODEL 5
REMARK VINA RESULT:    -5.515     14.067     15.560
REMARK INTER + INTRA:          -6.388
REMARK INTER:                  -6.408
REMARK INTRA:                   0.020
REMARK UNBOUND:                -0.229
REMARK SMILES O=C([O-])c1ccccc1C(=O)[O-]
REMARK SMILES IDX 4 1 9 2 5 3 8 4 6 5 7 6 2 7 1 8 3 9 10 10 11 11 12 12
REMARK H PARENT
REMARK Flexibility Score: inf
ROOT
ATOM      1  C   UNL     1     151.356 157.090 158.607  1.00  0.00     0.006 A 
ATOM      2  C   UNL     1     150.954 156.638 159.895  1.00  0.00     0.006 A 
ATOM      3  C   UNL     1     150.559 158.035 157.933  1.00  0.00     0.010 A 
ATOM      4  C   UNL     1     149.737 157.099 160.432  1.00  0.00     0.010 A 
ATOM      5  C   UNL     1     149.367 158.495 158.495  1.00  0.00     0.001 A 
ATOM      6  C   UNL     1     148.952 158.018 159.736  1.00  0.00     0.001 A 
ENDROOT
BRANCH   1   7
ATOM      7  C   UNL     1     152.545 156.554 157.906  1.00  0.00     0.072 C 
ATOM      8  O   UNL     1     153.702 156.899 158.266  1.00  0.00    -0.545 OA
ATOM      9  O   UNL     1     152.403 155.716 156.806  1.00  0.00    -0.545 OA
ENDBRANCH   1   7
BRANCH   2  10
ATOM     10  C   UNL     1     151.792 155.753 160.736  1.00  0.00     0.072 C 
ATOM     11  O   UNL     1     152.152 156.110 161.888  1.00  0.00    -0.545 OA
ATOM     12  O   UNL     1     152.134 154.482 160.286  1.00  0.00    -0.545 OA
ENDBRANCH   2  10
TORSDOF 2
ENDMDL
MODEL 6
REMARK VINA RESULT:    -5.388      1.881      3.526
REMARK INTER + INTRA:          -6.246
REMARK INTER:                  -6.034
REMARK INTRA:                  -0.213
REMARK UNBOUND:                -0.229
REMARK SMILES O=C([O-])c1ccccc1C(=O)[O-]
REMARK SMILES IDX 4 1 9 2 5 3 8 4 6 5 7 6 2 7 1 8 3 9 10 10 11 11 12 12
REMARK H PARENT
REMARK Flexibility Score: inf
ROOT
ATOM      1  C   UNL     1     150.752 169.621 151.699  1.00  0.00     0.006 A 
ATOM      2  C   UNL     1     150.085 169.185 150.520  1.00  0.00     0.006 A 
ATOM      3  C   UNL     1     150.322 170.803 152.331  1.00  0.00     0.010 A 
ATOM      4  C   UNL     1     149.055 169.981 149.983  1.00  0.00     0.010 A 
ATOM      5  C   UNL     1     149.284 171.564 151.793  1.00  0.00     0.001 A 
ATOM      6  C   UNL     1     148.661 171.160 150.615  1.00  0.00     0.001 A 
ENDROOT
BRANCH   1   7
ATOM      7  C   UNL     1     151.934 168.923 152.253  1.00  0.00     0.072 C 
ATOM      8  O   UNL     1     151.835 168.257 153.318  1.00  0.00    -0.545 OA
ATOM      9  O   UNL     1     153.179 169.043 151.646  1.00  0.00    -0.545 OA
ENDBRANCH   1   7
BRANCH   2  10
ATOM     10  C   UNL     1     150.374 167.891 149.862  1.00  0.00     0.072 C 
ATOM     11  O   UNL     1     149.759 166.844 150.200  1.00  0.00    -0.545 OA
ATOM     12  O   UNL     1     151.284 167.829 148.813  1.00  0.00    -0.545 OA
ENDBRANCH   2  10
TORSDOF 2
ENDMDL
MODEL 7
REMARK VINA RESULT:    -5.387      1.916      3.324
REMARK INTER + INTRA:          -6.246
REMARK INTER:                  -6.024
REMARK INTRA:                  -0.222
REMARK UNBOUND:                -0.229
REMARK SMILES O=C([O-])c1ccccc1C(=O)[O-]
REMARK SMILES IDX 4 1 9 2 5 3 8 4 6 5 7 6 2 7 1 8 3 9 10 10 11 11 12 12
REMARK H PARENT
REMARK Flexibility Score: inf
ROOT
ATOM      1  C   UNL     1     150.121 169.220 150.602  1.00  0.00     0.006 A 
ATOM      2  C   UNL     1     150.808 169.643 151.774  1.00  0.00     0.006 A 
ATOM      3  C   UNL     1     149.111 170.041 150.065  1.00  0.00     0.010 A 
ATOM      4  C   UNL     1     150.416 170.840 152.401  1.00  0.00     0.010 A 
ATOM      5  C   UNL     1     148.755 171.236 150.692  1.00  0.00     0.001 A 
ATOM      6  C   UNL     1     149.398 171.627 151.863  1.00  0.00     0.001 A 
ENDROOT
BRANCH   1   7
ATOM      7  C   UNL     1     150.370 167.909 149.958  1.00  0.00     0.072 C 
ATOM      8  O   UNL     1     149.710 166.895 150.310  1.00  0.00    -0.545 OA
ATOM      9  O   UNL     1     151.373 167.765 149.007  1.00  0.00    -0.545 OA
ENDBRANCH   1   7
BRANCH   2  10
ATOM     10  C   UNL     1     151.971 168.916 152.333  1.00  0.00     0.072 C 
ATOM     11  O   UNL     1     151.842 168.169 153.338  1.00  0.00    -0.545 OA
ATOM     12  O   UNL     1     153.211 168.998 151.708  1.00  0.00    -0.545 OA
ENDBRANCH   2  10
TORSDOF 2
ENDMDL
MODEL 8
REMARK VINA RESULT:    -5.240      1.977      4.354
REMARK INTER + INTRA:          -6.082
REMARK INTER:                  -6.027
REMARK INTRA:                  -0.055
REMARK UNBOUND:                -0.229
REMARK SMILES O=C([O-])c1ccccc1C(=O)[O-]
REMARK SMILES IDX 4 1 9 2 5 3 8 4 6 5 7 6 2 7 1 8 3 9 10 10 11 11 12 12
REMARK H PARENT
REMARK Flexibility Score: inf
ROOT
ATOM      1  C   UNL     1     150.973 169.782 151.891  1.00  0.00     0.006 A 
ATOM      2  C   UNL     1     150.060 170.874 151.884  1.00  0.00     0.006 A 
ATOM      3  C   UNL     1     152.149 169.878 152.658  1.00  0.00     0.010 A 
ATOM      4  C   UNL     1     150.388 172.044 152.593  1.00  0.00     0.010 A 
ATOM      5  C   UNL     1     152.443 171.040 153.371  1.00  0.00     0.001 A 
ATOM      6  C   UNL     1     151.570 172.125 153.328  1.00  0.00     0.001 A 
ENDROOT
BRANCH   1   7
ATOM      7  C   UNL     1     150.776 168.570 151.063  1.00  0.00     0.072 C 
ATOM      8  O   UNL     1     151.379 168.449 149.963  1.00  0.00    -0.545 OA
ATOM      9  O   UNL     1     149.879 167.582 151.453  1.00  0.00    -0.545 OA
ENDBRANCH   1   7
BRANCH   2  10
ATOM     10  C   UNL     1     148.738 170.815 151.219  1.00  0.00     0.072 C 
ATOM     11  O   UNL     1     147.677 170.991 151.876  1.00  0.00    -0.545 OA
ATOM     12  O   UNL     1     148.656 170.630 149.843  1.00  0.00    -0.545 OA
ENDBRANCH   2  10
TORSDOF 2
ENDMDL
MODEL 9
REMARK VINA RESULT:    -5.189      1.948      3.294
REMARK INTER + INTRA:          -6.024
REMARK INTER:                  -5.809
REMARK INTRA:                  -0.216
REMARK UNBOUND:                -0.229
REMARK SMILES O=C([O-])c1ccccc1C(=O)[O-]
REMARK SMILES IDX 4 1 9 2 5 3 8 4 6 5 7 6 2 7 1 8 3 9 10 10 11 11 12 12
REMARK H PARENT
REMARK Flexibility Score: inf
ROOT
ATOM      1  C   UNL     1     150.356 170.622 152.184  1.00  0.00     0.006 A 
ATOM      2  C   UNL     1     151.030 169.486 151.654  1.00  0.00     0.006 A 
ATOM      3  C   UNL     1     151.067 171.521 153.000  1.00  0.00     0.010 A 
ATOM      4  C   UNL     1     152.371 169.259 152.013  1.00  0.00     0.010 A 
ATOM      5  C   UNL     1     152.403 171.287 153.325  1.00  0.00     0.001 A 
ATOM      6  C   UNL     1     153.049 170.152 152.843  1.00  0.00     0.001 A 
ENDROOT
BRANCH   1   7
ATOM      7  C   UNL     1     148.909 170.864 151.973  1.00  0.00     0.072 C 
ATOM      8  O   UNL     1     148.522 171.603 151.028  1.00  0.00    -0.545 OA
ATOM      9  O   UNL     1     147.967 170.336 152.847  1.00  0.00    -0.545 OA
ENDBRANCH   1   7
BRANCH   2  10
ATOM     10  C   UNL     1     150.407 168.561 150.680  1.00  0.00     0.072 C 
ATOM     11  O   UNL     1     149.739 167.567 151.070  1.00  0.00    -0.545 OA
ATOM     12  O   UNL     1     150.496 168.820 149.317  1.00  0.00    -0.545 OA
ENDBRANCH   2  10
TORSDOF 2
ENDMDL
