MODEL 1
REMARK VINA RESULT:     3.528      0.000      0.000
REMARK INTER + INTRA:           5.542
REMARK INTER:                   6.415
REMARK INTRA:                  -0.873
REMARK UNBOUND:                -0.873
REMARK SMILES CCCCCC=CCC=CCCCCCCCC(=O)[O-]
REMARK SMILES IDX 11 1 12 2 13 3 14 4 15 5 16 6 17 7 18 8 19 9 20 10 10 11
REMARK SMILES IDX 9 12 8 13 7 14 6 15 5 16 4 17 3 18 2 19 1 20
REMARK H PARENT
REMARK Flexibility Score: inf
ROOT
ATOM      1  C   UNL     1      31.044  17.410   5.665  1.00  0.00     0.027 C 
ENDROOT
BRANCH   1   2
ATOM      2  C   UNL     1      29.792  17.101   6.501  1.00  0.00     0.004 C 
BRANCH   2   3
ATOM      3  C   UNL     1      29.758  15.638   6.977  1.00  0.00     0.000 C 
BRANCH   3   4
ATOM      4  C   UNL     1      29.749  15.525   8.517  1.00  0.00     0.000 C 
BRANCH   4   5
ATOM      5  C   UNL     1      29.706  16.887   9.239  1.00  0.00     0.000 C 
BRANCH   5   6
ATOM      6  C   UNL     1      28.355  17.233   9.884  1.00  0.00     0.006 C 
BRANCH   6   7
ATOM      7  C   UNL     1      28.441  18.431  10.840  1.00  0.00     0.053 C 
BRANCH   7   8
ATOM      8  C   UNL     1      27.598  19.560  10.339  1.00  0.00     0.041 C 
ATOM      9  O   UNL     1      27.548  20.644  10.978  1.00  0.00    -0.550 OA
ATOM     10  O   UNL     1      26.914  19.438   9.136  1.00  0.00    -0.550 OA
ENDBRANCH   7   8
ENDBRANCH   6   7
ENDBRANCH   5   6
ENDBRANCH   4   5
ENDBRANCH   3   4
ENDBRANCH   2   3
ENDBRANCH   1   2
BRANCH   1  11
ATOM     11  C   UNL     1      30.728  18.213   4.432  1.00  0.00    -0.031 C 
ATOM     12  C   UNL     1      29.474  18.331   3.970  1.00  0.00    -0.027 C 
BRANCH  12  13
ATOM     13  C   UNL     1      29.165  19.129   2.734  1.00  0.00     0.054 C 
BRANCH  13  14
ATOM     14  C   UNL     1      28.918  18.228   1.558  1.00  0.00    -0.027 C 
ATOM     15  C   UNL     1      28.216  18.645   0.493  1.00  0.00    -0.031 C 
BRANCH  15  16
ATOM     16  C   UNL     1      27.964  17.748  -0.689  1.00  0.00     0.027 C 
BRANCH  16  17
ATOM     17  C   UNL     1      28.764  16.438  -0.612  1.00  0.00     0.004 C 
BRANCH  17  18
ATOM     18  C   UNL     1      28.512  15.535  -1.832  1.00  0.00     0.000 C 
BRANCH  18  19
ATOM     19  C   UNL     1      29.713  15.488  -2.788  1.00  0.00    -0.003 C 
ATOM     20  C   UNL     1      31.051  15.387  -2.054  1.00  0.00     0.004 C 
ENDBRANCH  18  19
ENDBRANCH  17  18
ENDBRANCH  16  17
ENDBRANCH  15  16
ENDBRANCH  13  14
ENDBRANCH  12  13
ENDBRANCH   1  11
TORSDOF 14
ENDMDL
MODEL 2
REMARK VINA RESULT:     4.207      2.394      2.957
REMARK INTER + INTRA:           6.777
REMARK INTER:                   7.333
REMARK INTRA:                  -0.556
REMARK UNBOUND:                -0.873
REMARK SMILES CCCCCC=CCC=CCCCCCCCC(=O)[O-]
REMARK SMILES IDX 11 1 12 2 13 3 14 4 15 5 16 6 17 7 18 8 19 9 20 10 10 11
REMARK SMILES IDX 9 12 8 13 7 14 6 15 5 16 4 17 3 18 2 19 1 20
REMARK H PARENT
REMARK Flexibility Score: inf
ROOT
ATOM      1  C   UNL     1      30.988  17.347   6.082  1.00  0.00     0.027 C 
ENDROOT
BRANCH   1   2
ATOM      2  C   UNL     1      29.802  16.438   6.438  1.00  0.00     0.004 C 
BRANCH   2   3
ATOM      3  C   UNL     1      29.997  15.729   7.790  1.00  0.00     0.000 C 
BRANCH   3   4
ATOM      4  C   UNL     1      29.578  16.617   8.981  1.00  0.00     0.000 C 
BRANCH   4   5
ATOM      5  C   UNL     1      28.121  16.399   9.435  1.00  0.00     0.000 C 
BRANCH   5   6
ATOM      6  C   UNL     1      27.719  14.928   9.628  1.00  0.00     0.006 C 
BRANCH   6   7
ATOM      7  C   UNL     1      27.175  14.286   8.344  1.00  0.00     0.053 C 
BRANCH   7   8
ATOM      8  C   UNL     1      25.772  13.814   8.551  1.00  0.00     0.041 C 
ATOM      9  O   UNL     1      24.950  14.527   9.185  1.00  0.00    -0.550 OA
ATOM     10  O   UNL     1      25.353  12.612   7.994  1.00  0.00    -0.550 OA
ENDBRANCH   7   8
ENDBRANCH   6   7
ENDBRANCH   5   6
ENDBRANCH   4   5
ENDBRANCH   3   4
ENDBRANCH   2   3
ENDBRANCH   1   2
BRANCH   1  11
ATOM     11  C   UNL     1      30.755  18.129   4.818  1.00  0.00    -0.031 C 
ATOM     12  C   UNL     1      29.528  18.274   4.296  1.00  0.00    -0.027 C 
BRANCH  12  13
ATOM     13  C   UNL     1      29.301  19.051   3.029  1.00  0.00     0.054 C 
BRANCH  13  14
ATOM     14  C   UNL     1      28.721  18.175   1.955  1.00  0.00    -0.027 C 
ATOM     15  C   UNL     1      28.554  18.623   0.701  1.00  0.00    -0.031 C 
BRANCH  15  16
ATOM     16  C   UNL     1      27.973  17.752  -0.380  1.00  0.00     0.027 C 
BRANCH  16  17
ATOM     17  C   UNL     1      28.849  16.524  -0.676  1.00  0.00     0.004 C 
BRANCH  17  18
ATOM     18  C   UNL     1      28.334  15.726  -1.886  1.00  0.00     0.000 C 
BRANCH  18  19
ATOM     19  C   UNL     1      29.466  15.032  -2.659  1.00  0.00    -0.003 C 
ATOM     20  C   UNL     1      30.855  15.417  -2.148  1.00  0.00     0.004 C 
ENDBRANCH  18  19
ENDBRANCH  17  18
ENDBRANCH  16  17
ENDBRANCH  15  16
ENDBRANCH  13  14
ENDBRANCH  12  13
ENDBRANCH   1  11
TORSDOF 14
ENDMDL
MODEL 3
REMARK VINA RESULT:     4.545      4.425      9.980
REMARK INTER + INTRA:           7.391
REMARK INTER:                   7.641
REMARK INTRA:                  -0.250
REMARK UNBOUND:                -0.873
REMARK SMILES CCCCCC=CCC=CCCCCCCCC(=O)[O-]
REMARK SMILES IDX 11 1 12 2 13 3 14 4 15 5 16 6 17 7 18 8 19 9 20 10 10 11
REMARK SMILES IDX 9 12 8 13 7 14 6 15 5 16 4 17 3 18 2 19 1 20
REMARK H PARENT
REMARK Flexibility Score: inf
ROOT
ATOM      1  C   UNL     1      29.462  18.905   3.459  1.00  0.00     0.027 C 
ENDROOT
BRANCH   1   2
ATOM      2  C   UNL     1      28.757  18.197   2.292  1.00  0.00     0.004 C 
BRANCH   2   3
ATOM      3  C   UNL     1      28.806  19.024   0.996  1.00  0.00     0.000 C 
BRANCH   3   4
ATOM      4  C   UNL     1      28.066  18.330  -0.168  1.00  0.00     0.000 C 
BRANCH   4   5
ATOM      5  C   UNL     1      28.408  16.834  -0.317  1.00  0.00     0.000 C 
BRANCH   5   6
ATOM      6  C   UNL     1      28.032  16.219  -1.674  1.00  0.00     0.006 C 
BRANCH   6   7
ATOM      7  C   UNL     1      28.897  15.004  -2.037  1.00  0.00     0.053 C 
BRANCH   7   8
ATOM      8  C   UNL     1      30.237  15.447  -2.532  1.00  0.00     0.041 C 
ATOM      9  O   UNL     1      30.323  16.370  -3.384  1.00  0.00    -0.550 OA
ATOM     10  O   UNL     1      31.394  14.882  -2.010  1.00  0.00    -0.550 OA
ENDBRANCH   7   8
ENDBRANCH   6   7
ENDBRANCH   5   6
ENDBRANCH   4   5
ENDBRANCH   3   4
ENDBRANCH   2   3
ENDBRANCH   1   2
BRANCH   1  11
ATOM     11  C   UNL     1      29.701  17.987   4.628  1.00  0.00    -0.031 C 
ATOM     12  C   UNL     1      30.915  17.856   5.184  1.00  0.00    -0.027 C 
BRANCH  12  13
ATOM     13  C   UNL     1      31.150  16.934   6.348  1.00  0.00     0.054 C 
BRANCH  13  14
ATOM     14  C   UNL     1      29.850  16.471   6.942  1.00  0.00    -0.027 C 
ATOM     15  C   UNL     1      29.812  15.517   7.884  1.00  0.00    -0.031 C 
BRANCH  15  16
ATOM     16  C   UNL     1      28.514  15.047   8.483  1.00  0.00     0.027 C 
BRANCH  16  17
ATOM     17  C   UNL     1      27.994  15.998   9.572  1.00  0.00     0.004 C 
BRANCH  17  18
ATOM     18  C   UNL     1      28.627  17.397   9.468  1.00  0.00     0.000 C 
BRANCH  18  19
ATOM     19  C   UNL     1      28.519  18.191  10.778  1.00  0.00    -0.003 C 
ATOM     20  C   UNL     1      27.686  19.465  10.632  1.00  0.00     0.004 C 
ENDBRANCH  18  19
ENDBRANCH  17  18
ENDBRANCH  16  17
ENDBRANCH  15  16
ENDBRANCH  13  14
ENDBRANCH  12  13
ENDBRANCH   1  11
TORSDOF 14
ENDMDL
MODEL 4
REMARK VINA RESULT:     5.074      4.548      9.755
REMARK INTER + INTRA:           8.354
REMARK INTER:                   9.080
REMARK INTRA:                  -0.726
REMARK UNBOUND:                -0.873
REMARK SMILES CCCCCC=CCC=CCCCCCCCC(=O)[O-]
REMARK SMILES IDX 11 1 12 2 13 3 14 4 15 5 16 6 17 7 18 8 19 9 20 10 10 11
REMARK SMILES IDX 9 12 8 13 7 14 6 15 5 16 4 17 3 18 2 19 1 20
REMARK H PARENT
REMARK Flexibility Score: inf
ROOT
ATOM      1  C   UNL     1      29.151  19.028   3.323  1.00  0.00     0.027 C 
ENDROOT
BRANCH   1   2
ATOM      2  C   UNL     1      28.808  18.200   2.075  1.00  0.00     0.004 C 
BRANCH   2   3
ATOM      3  C   UNL     1      28.603  19.081   0.831  1.00  0.00     0.000 C 
BRANCH   3   4
ATOM      4  C   UNL     1      27.941  18.308  -0.331  1.00  0.00     0.000 C 
BRANCH   4   5
ATOM      5  C   UNL     1      28.361  16.826  -0.408  1.00  0.00     0.000 C 
BRANCH   5   6
ATOM      6  C   UNL     1      27.992  16.119  -1.722  1.00  0.00     0.006 C 
BRANCH   6   7
ATOM      7  C   UNL     1      28.911  14.932  -2.037  1.00  0.00     0.053 C 
BRANCH   7   8
ATOM      8  C   UNL     1      30.231  15.414  -2.548  1.00  0.00     0.041 C 
ATOM      9  O   UNL     1      30.278  16.311  -3.431  1.00  0.00    -0.550 OA
ATOM     10  O   UNL     1      31.410  14.916  -2.009  1.00  0.00    -0.550 OA
ENDBRANCH   7   8
ENDBRANCH   6   7
ENDBRANCH   5   6
ENDBRANCH   4   5
ENDBRANCH   3   4
ENDBRANCH   2   3
ENDBRANCH   1   2
BRANCH   1  11
ATOM     11  C   UNL     1      29.607  18.172   4.473  1.00  0.00    -0.031 C 
ATOM     12  C   UNL     1      30.907  18.038   4.780  1.00  0.00    -0.027 C 
BRANCH  12  13
ATOM     13  C   UNL     1      31.358  17.176   5.926  1.00  0.00     0.054 C 
BRANCH  13  14
ATOM     14  C   UNL     1      30.196  16.772   6.789  1.00  0.00    -0.027 C 
ATOM     15  C   UNL     1      30.273  16.805   8.127  1.00  0.00    -0.031 C 
BRANCH  15  16
ATOM     16  C   UNL     1      29.113  16.401   8.998  1.00  0.00     0.027 C 
BRANCH  16  17
ATOM     17  C   UNL     1      28.579  15.003   8.650  1.00  0.00     0.004 C 
BRANCH  17  18
ATOM     18  C   UNL     1      27.238  14.708   9.343  1.00  0.00     0.000 C 
BRANCH  18  19
ATOM     19  C   UNL     1      26.400  13.667   8.585  1.00  0.00    -0.003 C 
ATOM     20  C   UNL     1      24.896  13.916   8.704  1.00  0.00     0.004 C 
ENDBRANCH  18  19
ENDBRANCH  17  18
ENDBRANCH  16  17
ENDBRANCH  15  16
ENDBRANCH  13  14
ENDBRANCH  12  13
ENDBRANCH   1  11
TORSDOF 14
ENDMDL
MODEL 5
REMARK VINA RESULT:     5.365      4.505      9.536
REMARK INTER + INTRA:           8.882
REMARK INTER:                   9.581
REMARK INTRA:                  -0.698
REMARK UNBOUND:                -0.873
REMARK SMILES CCCCCC=CCC=CCCCCCCCC(=O)[O-]
REMARK SMILES IDX 11 1 12 2 13 3 14 4 15 5 16 6 17 7 18 8 19 9 20 10 10 11
REMARK SMILES IDX 9 12 8 13 7 14 6 15 5 16 4 17 3 18 2 19 1 20
REMARK H PARENT
REMARK Flexibility Score: inf
ROOT
ATOM      1  C   UNL     1      30.497  18.662   3.787  1.00  0.00     0.027 C 
ENDROOT
BRANCH   1   2
ATOM      2  C   UNL     1      28.975  18.543   3.616  1.00  0.00     0.004 C 
BRANCH   2   3
ATOM      3  C   UNL     1      28.592  17.787   2.331  1.00  0.00     0.000 C 
BRANCH   3   4
ATOM      4  C   UNL     1      28.866  18.620   1.060  1.00  0.00     0.000 C 
BRANCH   4   5
ATOM      5  C   UNL     1      27.901  18.313  -0.103  1.00  0.00     0.000 C 
BRANCH   5   6
ATOM      6  C   UNL     1      28.115  16.947  -0.774  1.00  0.00     0.006 C 
BRANCH   6   7
ATOM      7  C   UNL     1      29.578  16.697  -1.165  1.00  0.00     0.053 C 
BRANCH   7   8
ATOM      8  C   UNL     1      29.677  15.539  -2.106  1.00  0.00     0.041 C 
ATOM      9  O   UNL     1      28.633  14.974  -2.526  1.00  0.00    -0.550 OA
ATOM     10  O   UNL     1      30.919  15.120  -2.566  1.00  0.00    -0.550 OA
ENDBRANCH   7   8
ENDBRANCH   6   7
ENDBRANCH   5   6
ENDBRANCH   4   5
ENDBRANCH   3   4
ENDBRANCH   2   3
ENDBRANCH   1   2
BRANCH   1  11
ATOM     11  C   UNL     1      30.950  18.297   5.175  1.00  0.00    -0.031 C 
ATOM     12  C   UNL     1      30.400  17.276   5.850  1.00  0.00    -0.027 C 
BRANCH  12  13
ATOM     13  C   UNL     1      30.851  16.919   7.238  1.00  0.00     0.054 C 
BRANCH  13  14
ATOM     14  C   UNL     1      29.759  16.224   8.000  1.00  0.00    -0.027 C 
ATOM     15  C   UNL     1      29.080  16.847   8.975  1.00  0.00    -0.031 C 
BRANCH  15  16
ATOM     16  C   UNL     1      27.984  16.157   9.743  1.00  0.00     0.027 C 
BRANCH  16  17
ATOM     17  C   UNL     1      28.067  14.627   9.633  1.00  0.00     0.004 C 
BRANCH  17  18
ATOM     18  C   UNL     1      27.142  14.076   8.534  1.00  0.00     0.000 C 
BRANCH  18  19
ATOM     19  C   UNL     1      25.654  14.227   8.887  1.00  0.00    -0.003 C 
ATOM     20  C   UNL     1      24.771  13.195   8.185  1.00  0.00     0.004 C 
ENDBRANCH  18  19
ENDBRANCH  17  18
ENDBRANCH  16  17
ENDBRANCH  15  16
ENDBRANCH  13  14
ENDBRANCH  12  13
ENDBRANCH   1  11
TORSDOF 14
ENDMDL
MODEL 6
REMARK VINA RESULT:     5.425      6.493      8.212
REMARK INTER + INTRA:           8.993
REMARK INTER:                   9.475
REMARK INTRA:                  -0.483
REMARK UNBOUND:                -0.873
REMARK SMILES CCCCCC=CCC=CCCCCCCCC(=O)[O-]
REMARK SMILES IDX 11 1 12 2 13 3 14 4 15 5 16 6 17 7 18 8 19 9 20 10 10 11
REMARK SMILES IDX 9 12 8 13 7 14 6 15 5 16 4 17 3 18 2 19 1 20
REMARK H PARENT
REMARK Flexibility Score: inf
ROOT
ATOM      1  C   UNL     1      26.823  13.852   9.097  1.00  0.00     0.027 C 
ENDROOT
BRANCH   1   2
ATOM      2  C   UNL     1      25.582  13.712   8.203  1.00  0.00     0.004 C 
BRANCH   2   3
ATOM      3  C   UNL     1      24.302  13.459   9.019  1.00  0.00     0.000 C 
BRANCH   3   4
ATOM      4  C   UNL     1      23.600  12.145   8.613  1.00  0.00     0.000 C 
BRANCH   4   5
ATOM      5  C   UNL     1      22.612  11.617   9.672  1.00  0.00     0.000 C 
BRANCH   5   6
ATOM      6  C   UNL     1      21.790  10.394   9.234  1.00  0.00     0.006 C 
BRANCH   6   7
ATOM      7  C   UNL     1      21.614   9.362  10.356  1.00  0.00     0.053 C 
BRANCH   7   8
ATOM      8  C   UNL     1      22.012   8.001   9.881  1.00  0.00     0.041 C 
ATOM      9  O   UNL     1      22.634   7.220  10.648  1.00  0.00    -0.550 OA
ATOM     10  O   UNL     1      21.644   7.572   8.612  1.00  0.00    -0.550 OA
ENDBRANCH   7   8
ENDBRANCH   6   7
ENDBRANCH   5   6
ENDBRANCH   4   5
ENDBRANCH   3   4
ENDBRANCH   2   3
ENDBRANCH   1   2
BRANCH   1  11
ATOM     11  C   UNL     1      27.652  15.058   8.747  1.00  0.00    -0.031 C 
ATOM     12  C   UNL     1      28.990  15.043   8.836  1.00  0.00    -0.027 C 
BRANCH  12  13
ATOM     13  C   UNL     1      29.813  16.252   8.491  1.00  0.00     0.054 C 
BRANCH  13  14
ATOM     14  C   UNL     1      29.965  16.397   7.003  1.00  0.00    -0.027 C 
ATOM     15  C   UNL     1      30.646  17.420   6.466  1.00  0.00    -0.031 C 
BRANCH  15  16
ATOM     16  C   UNL     1      30.801  17.572   4.976  1.00  0.00     0.027 C 
BRANCH  16  17
ATOM     17  C   UNL     1      29.841  18.619   4.391  1.00  0.00     0.004 C 
BRANCH  17  18
ATOM     18  C   UNL     1      28.956  18.032   3.277  1.00  0.00     0.000 C 
BRANCH  18  19
ATOM     19  C   UNL     1      28.997  18.869   1.990  1.00  0.00    -0.003 C 
ATOM     20  C   UNL     1      28.714  18.042   0.736  1.00  0.00     0.004 C 
ENDBRANCH  18  19
ENDBRANCH  17  18
ENDBRANCH  16  17
ENDBRANCH  15  16
ENDBRANCH  13  14
ENDBRANCH  12  13
ENDBRANCH   1  11
TORSDOF 14
ENDMDL
MODEL 7
REMARK VINA RESULT:     5.435      4.777      9.553
REMARK INTER + INTRA:           9.010
REMARK INTER:                   9.594
REMARK INTRA:                  -0.583
REMARK UNBOUND:                -0.873
REMARK SMILES CCCCCC=CCC=CCCCCCCCC(=O)[O-]
REMARK SMILES IDX 11 1 12 2 13 3 14 4 15 5 16 6 17 7 18 8 19 9 20 10 10 11
REMARK SMILES IDX 9 12 8 13 7 14 6 15 5 16 4 17 3 18 2 19 1 20
REMARK H PARENT
REMARK Flexibility Score: inf
ROOT
ATOM      1  C   UNL     1      30.781  17.856   4.441  1.00  0.00     0.027 C 
ENDROOT
BRANCH   1   2
ATOM      2  C   UNL     1      29.570  18.698   4.013  1.00  0.00     0.004 C 
BRANCH   2   3
ATOM      3  C   UNL     1      28.738  18.006   2.919  1.00  0.00     0.000 C 
BRANCH   3   4
ATOM      4  C   UNL     1      29.149  18.454   1.500  1.00  0.00     0.000 C 
BRANCH   4   5
ATOM      5  C   UNL     1      27.960  18.630   0.535  1.00  0.00     0.000 C 
BRANCH   5   6
ATOM      6  C   UNL     1      27.972  17.693  -0.683  1.00  0.00     0.006 C 
BRANCH   6   7
ATOM      7  C   UNL     1      28.954  16.524  -0.525  1.00  0.00     0.053 C 
BRANCH   7   8
ATOM      8  C   UNL     1      29.070  15.762  -1.806  1.00  0.00     0.041 C 
ATOM      9  O   UNL     1      28.068  15.166  -2.280  1.00  0.00    -0.550 OA
ATOM     10  O   UNL     1      30.269  15.758  -2.508  1.00  0.00    -0.550 OA
ENDBRANCH   7   8
ENDBRANCH   6   7
ENDBRANCH   5   6
ENDBRANCH   4   5
ENDBRANCH   3   4
ENDBRANCH   2   3
ENDBRANCH   1   2
BRANCH   1  11
ATOM     11  C   UNL     1      30.893  17.727   5.936  1.00  0.00    -0.031 C 
ATOM     12  C   UNL     1      30.197  16.804   6.617  1.00  0.00    -0.027 C 
BRANCH  12  13
ATOM     13  C   UNL     1      30.306  16.683   8.111  1.00  0.00     0.054 C 
BRANCH  13  14
ATOM     14  C   UNL     1      29.002  16.248   8.716  1.00  0.00    -0.027 C 
ATOM     15  C   UNL     1      28.693  14.949   8.853  1.00  0.00    -0.031 C 
BRANCH  15  16
ATOM     16  C   UNL     1      27.388  14.505   9.457  1.00  0.00     0.027 C 
BRANCH  16  17
ATOM     17  C   UNL     1      26.530  13.700   8.468  1.00  0.00     0.004 C 
BRANCH  17  18
ATOM     18  C   UNL     1      25.032  13.775   8.811  1.00  0.00     0.000 C 
BRANCH  18  19
ATOM     19  C   UNL     1      24.206  12.708   8.077  1.00  0.00    -0.003 C 
ATOM     20  C   UNL     1      23.222  11.984   8.997  1.00  0.00     0.004 C 
ENDBRANCH  18  19
ENDBRANCH  17  18
ENDBRANCH  16  17
ENDBRANCH  15  16
ENDBRANCH  13  14
ENDBRANCH  12  13
ENDBRANCH   1  11
TORSDOF 14
ENDMDL
MODEL 8
REMARK VINA RESULT:     6.020      1.283      2.119
REMARK INTER + INTRA:          10.074
REMARK INTER:                  10.899
REMARK INTRA:                  -0.825
REMARK UNBOUND:                -0.873
REMARK SMILES CCCCCC=CCC=CCCCCCCCC(=O)[O-]
REMARK SMILES IDX 11 1 12 2 13 3 14 4 15 5 16 6 17 7 18 8 19 9 20 10 10 11
REMARK SMILES IDX 9 12 8 13 7 14 6 15 5 16 4 17 3 18 2 19 1 20
REMARK H PARENT
REMARK Flexibility Score: inf
ROOT
ATOM      1  C   UNL     1      29.485  18.045   4.650  1.00  0.00     0.027 C 
ENDROOT
BRANCH   1   2
ATOM      2  C   UNL     1      30.866  17.935   5.313  1.00  0.00     0.004 C 
BRANCH   2   3
ATOM      3  C   UNL     1      30.965  16.720   6.252  1.00  0.00     0.000 C 
BRANCH   3   4
ATOM      4  C   UNL     1      29.580  16.247   6.744  1.00  0.00     0.000 C 
BRANCH   4   5
ATOM      5  C   UNL     1      29.629  14.963   7.596  1.00  0.00     0.000 C 
BRANCH   5   6
ATOM      6  C   UNL     1      29.210  15.146   9.063  1.00  0.00     0.006 C 
BRANCH   6   7
ATOM      7  C   UNL     1      28.192  16.278   9.255  1.00  0.00     0.053 C 
BRANCH   7   8
ATOM      8  C   UNL     1      28.825  17.437   9.956  1.00  0.00     0.041 C 
ATOM      9  O   UNL     1      30.075  17.482  10.102  1.00  0.00    -0.550 OA
ATOM     10  O   UNL     1      28.042  18.496  10.397  1.00  0.00    -0.550 OA
ENDBRANCH   7   8
ENDBRANCH   6   7
ENDBRANCH   5   6
ENDBRANCH   4   5
ENDBRANCH   3   4
ENDBRANCH   2   3
ENDBRANCH   1   2
BRANCH   1  11
ATOM     11  C   UNL     1      29.543  18.732   3.312  1.00  0.00    -0.031 C 
ATOM     12  C   UNL     1      28.772  18.341   2.286  1.00  0.00    -0.027 C 
BRANCH  12  13
ATOM     13  C   UNL     1      28.838  19.025   0.949  1.00  0.00     0.054 C 
BRANCH  13  14
ATOM     14  C   UNL     1      28.023  18.288  -0.076  1.00  0.00    -0.027 C 
ATOM     15  C   UNL     1      28.371  17.063  -0.496  1.00  0.00    -0.031 C 
BRANCH  15  16
ATOM     16  C   UNL     1      27.560  16.318  -1.523  1.00  0.00     0.027 C 
BRANCH  16  17
ATOM     17  C   UNL     1      28.406  15.313  -2.319  1.00  0.00     0.004 C 
BRANCH  17  18
ATOM     18  C   UNL     1      29.834  15.189  -1.760  1.00  0.00     0.000 C 
BRANCH  18  19
ATOM     19  C   UNL     1      30.908  15.541  -2.801  1.00  0.00    -0.003 C 
ATOM     20  C   UNL     1      32.059  14.535  -2.830  1.00  0.00     0.004 C 
ENDBRANCH  18  19
ENDBRANCH  17  18
ENDBRANCH  16  17
ENDBRANCH  15  16
ENDBRANCH  13  14
ENDBRANCH  12  13
ENDBRANCH   1  11
TORSDOF 14
ENDMDL
