MODEL 1
REMARK VINA RESULT:    -4.742      0.000      0.000
REMARK INTER + INTRA:          -5.182
REMARK INTER:                  -5.019
REMARK INTRA:                  -0.163
REMARK UNBOUND:                -0.163
REMARK SMILES C=C(C)[C@@H]1CC=C(C)CC1
REMARK SMILES IDX 8 1 7 2 6 3 5 4 4 5 10 6 9 7 2 8 1 9 3 10
REMARK H PARENT
REMARK Flexibility Score: inf
ROOT
ATOM      1  C   UNL     1      33.050  11.832  31.221  1.00  0.00     0.039 C 
ATOM      2  C   UNL     1      32.811  10.822  32.308  1.00  0.00    -0.077 C 
ATOM      3  C   UNL     1      32.267   9.630  32.014  1.00  0.00    -0.027 C 
ATOM      4  C   UNL     1      31.990   8.651  33.121  1.00  0.00     0.035 C 
ATOM      5  C   UNL     1      31.304   9.365  34.312  1.00  0.00     0.018 C 
ATOM      6  C   UNL     1      31.939  10.753  34.656  1.00  0.00     0.013 C 
ATOM      7  C   UNL     1      33.125  11.135  33.753  1.00  0.00     0.031 C 
ENDROOT
BRANCH   5   8
ATOM      8  C   UNL     1      31.267   8.448  35.527  1.00  0.00    -0.077 C 
ATOM      9  C   UNL     1      31.267   7.115  35.372  1.00  0.00     0.008 C 
ATOM     10  C   UNL     1      31.255   9.019  36.923  1.00  0.00     0.039 C 
ENDBRANCH   5   8
TORSDOF 1
ENDMDL
MODEL 2
REMARK VINA RESULT:    -4.556      1.046      4.288
REMARK INTER + INTRA:          -4.985
REMARK INTER:                  -4.822
REMARK INTRA:                  -0.163
REMARK UNBOUND:                -0.163
REMARK SMILES C=C(C)[C@@H]1CC=C(C)CC1
REMARK SMILES IDX 8 1 7 2 6 3 5 4 4 5 10 6 9 7 2 8 1 9 3 10
REMARK H PARENT
REMARK Flexibility Score: inf
ROOT
ATOM      1  C   UNL     1      31.277   7.168  36.058  1.00  0.00     0.039 C 
ATOM      2  C   UNL     1      31.319   7.957  34.779  1.00  0.00    -0.077 C 
ATOM      3  C   UNL     1      31.728   7.375  33.640  1.00  0.00    -0.027 C 
ATOM      4  C   UNL     1      31.809   8.193  32.381  1.00  0.00     0.035 C 
ATOM      5  C   UNL     1      32.501   9.549  32.663  1.00  0.00     0.018 C 
ATOM      6  C   UNL     1      32.024  10.228  33.989  1.00  0.00     0.013 C 
ATOM      7  C   UNL     1      30.955   9.424  34.750  1.00  0.00     0.031 C 
ENDROOT
BRANCH   5   8
ATOM      8  C   UNL     1      32.347  10.480  31.468  1.00  0.00    -0.077 C 
ATOM      9  C   UNL     1      31.512  10.165  30.465  1.00  0.00     0.008 C 
ATOM     10  C   UNL     1      33.105  11.781  31.403  1.00  0.00     0.039 C 
ENDBRANCH   5   8
TORSDOF 1
ENDMDL
MODEL 3
REMARK VINA RESULT:    -4.456      2.250      5.169
REMARK INTER + INTRA:          -4.880
REMARK INTER:                  -4.721
REMARK INTRA:                  -0.158
REMARK UNBOUND:                -0.163
REMARK SMILES C=C(C)[C@@H]1CC=C(C)CC1
REMARK SMILES IDX 8 1 7 2 6 3 5 4 4 5 10 6 9 7 2 8 1 9 3 10
REMARK H PARENT
REMARK Flexibility Score: inf
ROOT
ATOM      1  C   UNL     1      32.673  11.162  34.202  1.00  0.00     0.039 C 
ATOM      2  C   UNL     1      32.679  10.853  32.730  1.00  0.00    -0.077 C 
ATOM      3  C   UNL     1      32.858  11.837  31.834  1.00  0.00    -0.027 C 
ATOM      4  C   UNL     1      32.812  11.517  30.366  1.00  0.00     0.035 C 
ATOM      5  C   UNL     1      31.598  10.609  30.051  1.00  0.00     0.018 C 
ATOM      6  C   UNL     1      31.390   9.461  31.093  1.00  0.00     0.013 C 
ATOM      7  C   UNL     1      32.436   9.451  32.223  1.00  0.00     0.031 C 
ENDROOT
BRANCH   5   8
ATOM      8  C   UNL     1      31.697  10.067  28.632  1.00  0.00    -0.077 C 
ATOM      9  C   UNL     1      31.255   8.833  28.344  1.00  0.00     0.008 C 
ATOM     10  C   UNL     1      32.267  10.914  27.522  1.00  0.00     0.039 C 
ENDBRANCH   5   8
TORSDOF 1
ENDMDL
MODEL 4
REMARK VINA RESULT:    -4.295      1.553      3.227
REMARK INTER + INTRA:          -4.709
REMARK INTER:                  -4.549
REMARK INTRA:                  -0.160
REMARK UNBOUND:                -0.163
REMARK SMILES C=C(C)[C@@H]1CC=C(C)CC1
REMARK SMILES IDX 8 1 7 2 6 3 5 4 4 5 10 6 9 7 2 8 1 9 3 10
REMARK H PARENT
REMARK Flexibility Score: inf
ROOT
ATOM      1  C   UNL     1      32.430  11.439  28.139  1.00  0.00     0.039 C 
ATOM      2  C   UNL     1      32.164  11.236  29.605  1.00  0.00    -0.077 C 
ATOM      3  C   UNL     1      32.941  11.838  30.521  1.00  0.00    -0.027 C 
ATOM      4  C   UNL     1      32.690  11.586  31.982  1.00  0.00     0.035 C 
ATOM      5  C   UNL     1      32.490  10.072  32.240  1.00  0.00     0.018 C 
ATOM      6  C   UNL     1      31.584   9.372  31.175  1.00  0.00     0.013 C 
ATOM      7  C   UNL     1      31.060  10.322  30.083  1.00  0.00     0.031 C 
ENDROOT
BRANCH   5   8
ATOM      8  C   UNL     1      31.975   9.841  33.654  1.00  0.00    -0.077 C 
ATOM      9  C   UNL     1      32.020  10.827  34.563  1.00  0.00     0.008 C 
ATOM     10  C   UNL     1      31.381   8.513  34.050  1.00  0.00     0.039 C 
ENDBRANCH   5   8
TORSDOF 1
ENDMDL
MODEL 5
REMARK VINA RESULT:    -4.291      1.037      4.531
REMARK INTER + INTRA:          -4.705
REMARK INTER:                  -4.547
REMARK INTRA:                  -0.158
REMARK UNBOUND:                -0.163
REMARK SMILES C=C(C)[C@@H]1CC=C(C)CC1
REMARK SMILES IDX 8 1 7 2 6 3 5 4 4 5 10 6 9 7 2 8 1 9 3 10
REMARK H PARENT
REMARK Flexibility Score: inf
ROOT
ATOM      1  C   UNL     1      30.343   9.266  38.759  1.00  0.00     0.039 C 
ATOM      2  C   UNL     1      31.041   9.329  37.429  1.00  0.00    -0.077 C 
ATOM      3  C   UNL     1      31.385  10.515  36.902  1.00  0.00    -0.027 C 
ATOM      4  C   UNL     1      32.039  10.560  35.549  1.00  0.00     0.035 C 
ATOM      5  C   UNL     1      31.288   9.640  34.557  1.00  0.00     0.018 C 
ATOM      6  C   UNL     1      30.888   8.257  35.169  1.00  0.00     0.013 C 
ATOM      7  C   UNL     1      31.327   8.076  36.634  1.00  0.00     0.031 C 
ENDROOT
BRANCH   5   8
ATOM      8  C   UNL     1      32.093   9.474  33.276  1.00  0.00    -0.077 C 
ATOM      9  C   UNL     1      32.011   8.339  32.564  1.00  0.00     0.008 C 
ATOM     10  C   UNL     1      32.973  10.589  32.769  1.00  0.00     0.039 C 
ENDBRANCH   5   8
TORSDOF 1
ENDMDL
MODEL 6
REMARK VINA RESULT:    -4.211      2.422      5.511
REMARK INTER + INTRA:          -4.620
REMARK INTER:                  -4.456
REMARK INTRA:                  -0.164
REMARK UNBOUND:                -0.163
REMARK SMILES C=C(C)[C@@H]1CC=C(C)CC1
REMARK SMILES IDX 8 1 7 2 6 3 5 4 4 5 10 6 9 7 2 8 1 9 3 10
REMARK H PARENT
REMARK Flexibility Score: inf
ROOT
ATOM      1  C   UNL     1      32.742  11.139  34.033  1.00  0.00     0.039 C 
ATOM      2  C   UNL     1      32.329  11.156  32.587  1.00  0.00    -0.077 C 
ATOM      3  C   UNL     1      32.281  10.012  31.885  1.00  0.00    -0.027 C 
ATOM      4  C   UNL     1      31.913  10.054  30.429  1.00  0.00     0.035 C 
ATOM      5  C   UNL     1      32.688  11.185  29.710  1.00  0.00     0.018 C 
ATOM      6  C   UNL     1      32.743  12.519  30.526  1.00  0.00     0.013 C 
ATOM      7  C   UNL     1      32.010  12.452  31.877  1.00  0.00     0.031 C 
ENDROOT
BRANCH   5   8
ATOM      8  C   UNL     1      32.127  11.406  28.312  1.00  0.00    -0.077 C 
ATOM      9  C   UNL     1      31.959  10.369  27.477  1.00  0.00     0.008 C 
ATOM     10  C   UNL     1      31.726  12.784  27.851  1.00  0.00     0.039 C 
ENDBRANCH   5   8
TORSDOF 1
ENDMDL
MODEL 7
REMARK VINA RESULT:    -4.107      2.543      4.054
REMARK INTER + INTRA:          -4.510
REMARK INTER:                  -4.351
REMARK INTRA:                  -0.159
REMARK UNBOUND:                -0.163
REMARK SMILES C=C(C)[C@@H]1CC=C(C)CC1
REMARK SMILES IDX 8 1 7 2 6 3 5 4 4 5 10 6 9 7 2 8 1 9 3 10
REMARK H PARENT
REMARK Flexibility Score: inf
ROOT
ATOM      1  C   UNL     1      30.601  10.962  27.070  1.00  0.00     0.039 C 
ATOM      2  C   UNL     1      31.187  10.432  28.349  1.00  0.00    -0.077 C 
ATOM      3  C   UNL     1      30.611   9.392  28.975  1.00  0.00    -0.027 C 
ATOM      4  C   UNL     1      31.182   8.906  30.278  1.00  0.00     0.035 C 
ATOM      5  C   UNL     1      31.480  10.102  31.215  1.00  0.00     0.018 C 
ATOM      6  C   UNL     1      32.152  11.312  30.487  1.00  0.00     0.013 C 
ATOM      7  C   UNL     1      32.396  11.077  28.986  1.00  0.00     0.031 C 
ENDROOT
BRANCH   5   8
ATOM      8  C   UNL     1      32.298   9.644  32.414  1.00  0.00    -0.077 C 
ATOM      9  C   UNL     1      33.121  10.499  33.041  1.00  0.00     0.008 C 
ATOM     10  C   UNL     1      32.178   8.234  32.935  1.00  0.00     0.039 C 
ENDBRANCH   5   8
TORSDOF 1
ENDMDL
MODEL 8
REMARK VINA RESULT:    -4.054      1.850      5.033
REMARK INTER + INTRA:          -4.454
REMARK INTER:                  -4.296
REMARK INTRA:                  -0.158
REMARK UNBOUND:                -0.163
REMARK SMILES C=C(C)[C@@H]1CC=C(C)CC1
REMARK SMILES IDX 8 1 7 2 6 3 5 4 4 5 10 6 9 7 2 8 1 9 3 10
REMARK H PARENT
REMARK Flexibility Score: inf
ROOT
ATOM      1  C   UNL     1      31.261   7.405  34.682  1.00  0.00     0.039 C 
ATOM      2  C   UNL     1      31.623   8.070  33.383  1.00  0.00    -0.077 C 
ATOM      3  C   UNL     1      32.115   9.320  33.378  1.00  0.00    -0.027 C 
ATOM      4  C   UNL     1      32.426   9.986  32.067  1.00  0.00     0.035 C 
ATOM      5  C   UNL     1      31.262   9.777  31.067  1.00  0.00     0.018 C 
ATOM      6  C   UNL     1      30.691   8.321  31.071  1.00  0.00     0.013 C 
ATOM      7  C   UNL     1      31.400   7.377  32.058  1.00  0.00     0.031 C 
ENDROOT
BRANCH   5   8
ATOM      8  C   UNL     1      31.681  10.212  29.670  1.00  0.00    -0.077 C 
ATOM      9  C   UNL     1      31.305   9.499  28.596  1.00  0.00     0.008 C 
ATOM     10  C   UNL     1      32.499  11.462  29.464  1.00  0.00     0.039 C 
ENDBRANCH   5   8
TORSDOF 1
ENDMDL
MODEL 9
REMARK VINA RESULT:    -3.960      1.833      3.294
REMARK INTER + INTRA:          -4.355
REMARK INTER:                  -4.197
REMARK INTRA:                  -0.158
REMARK UNBOUND:                -0.163
REMARK SMILES C=C(C)[C@@H]1CC=C(C)CC1
REMARK SMILES IDX 8 1 7 2 6 3 5 4 4 5 10 6 9 7 2 8 1 9 3 10
REMARK H PARENT
REMARK Flexibility Score: inf
ROOT
ATOM      1  C   UNL     1      32.038  12.320  27.884  1.00  0.00     0.039 C 
ATOM      2  C   UNL     1      32.173  11.489  29.129  1.00  0.00    -0.077 C 
ATOM      3  C   UNL     1      31.454  10.363  29.271  1.00  0.00    -0.027 C 
ATOM      4  C   UNL     1      31.566   9.571  30.543  1.00  0.00     0.035 C 
ATOM      5  C   UNL     1      31.488  10.511  31.771  1.00  0.00     0.018 C 
ATOM      6  C   UNL     1      32.326  11.821  31.608  1.00  0.00     0.013 C 
ATOM      7  C   UNL     1      33.072  11.919  30.265  1.00  0.00     0.031 C 
ENDROOT
BRANCH   5   8
ATOM      8  C   UNL     1      31.866   9.757  33.039  1.00  0.00    -0.077 C 
ATOM      9  C   UNL     1      31.932  10.399  34.216  1.00  0.00     0.008 C 
ATOM     10  C   UNL     1      32.146   8.277  33.000  1.00  0.00     0.039 C 
ENDBRANCH   5   8
TORSDOF 1
ENDMDL
