MODEL 1
REMARK VINA RESULT:    -3.876      0.000      0.000
REMARK INTER + INTRA:          -5.256
REMARK INTER:                  -5.009
REMARK INTRA:                  -0.247
REMARK UNBOUND:                -0.247
REMARK SMILES CCCCCCC(=O)[O-]
REMARK SMILES IDX 5 1 6 2 7 3 8 4 9 5 4 6 3 7 2 8 1 9
REMARK H PARENT
REMARK Flexibility Score: inf
ROOT
ATOM      1  C   UNL     1       8.889   2.902  -5.100  1.00  0.00     0.006 C 
ENDROOT
BRANCH   1   2
ATOM      2  C   UNL     1       9.467   1.637  -4.458  1.00  0.00     0.053 C 
BRANCH   2   3
ATOM      3  C   UNL     1       9.040   0.421  -5.218  1.00  0.00     0.041 C 
ATOM      4  O   UNL     1       8.414   0.541  -6.304  1.00  0.00    -0.550 OA
ATOM      5  O   UNL     1       9.291  -0.844  -4.704  1.00  0.00    -0.550 OA
ENDBRANCH   2   3
ENDBRANCH   1   2
BRANCH   1   6
ATOM      6  C   UNL     1       7.836   3.548  -4.191  1.00  0.00     0.000 C 
BRANCH   6   7
ATOM      7  C   UNL     1       6.809   4.335  -5.013  1.00  0.00    -0.000 C 
BRANCH   7   8
ATOM      8  C   UNL     1       5.792   3.393  -5.668  1.00  0.00    -0.003 C 
ATOM      9  C   UNL     1       5.927   3.407  -7.188  1.00  0.00     0.004 C 
ENDBRANCH   7   8
ENDBRANCH   6   7
ENDBRANCH   1   6
TORSDOF 5
ENDMDL
MODEL 2
REMARK VINA RESULT:    -3.821      1.260      1.907
REMARK INTER + INTRA:          -5.184
REMARK INTER:                  -4.890
REMARK INTRA:                  -0.294
REMARK UNBOUND:                -0.247
REMARK SMILES CCCCCCC(=O)[O-]
REMARK SMILES IDX 5 1 6 2 7 3 8 4 9 5 4 6 3 7 2 8 1 9
REMARK H PARENT
REMARK Flexibility Score: inf
ROOT
ATOM      1  C   UNL     1       8.570   2.517  -6.487  1.00  0.00     0.006 C 
ENDROOT
BRANCH   1   2
ATOM      2  C   UNL     1       9.090   1.077  -6.440  1.00  0.00     0.053 C 
BRANCH   2   3
ATOM      3  C   UNL     1       9.072   0.559  -5.036  1.00  0.00     0.041 C 
ATOM      4  O   UNL     1       8.914   1.351  -4.070  1.00  0.00    -0.550 OA
ATOM      5  O   UNL     1       9.277  -0.792  -4.791  1.00  0.00    -0.550 OA
ENDBRANCH   2   3
ENDBRANCH   1   2
BRANCH   1   6
ATOM      6  C   UNL     1       7.076   2.550  -6.833  1.00  0.00     0.000 C 
BRANCH   6   7
ATOM      7  C   UNL     1       6.249   3.070  -5.652  1.00  0.00    -0.000 C 
BRANCH   7   8
ATOM      8  C   UNL     1       6.897   4.314  -5.033  1.00  0.00    -0.003 C 
ATOM      9  C   UNL     1       6.577   5.565  -5.848  1.00  0.00     0.004 C 
ENDBRANCH   7   8
ENDBRANCH   6   7
ENDBRANCH   1   6
TORSDOF 5
ENDMDL
MODEL 3
REMARK VINA RESULT:    -3.672      1.563      2.725
REMARK INTER + INTRA:          -4.992
REMARK INTER:                  -4.634
REMARK INTRA:                  -0.358
REMARK UNBOUND:                -0.247
REMARK SMILES CCCCCCC(=O)[O-]
REMARK SMILES IDX 5 1 6 2 7 3 8 4 9 5 4 6 3 7 2 8 1 9
REMARK H PARENT
REMARK Flexibility Score: inf
ROOT
ATOM      1  C   UNL     1       6.866   4.447  -5.082  1.00  0.00     0.006 C 
ENDROOT
BRANCH   1   2
ATOM      2  C   UNL     1       7.734   3.767  -4.019  1.00  0.00     0.053 C 
BRANCH   2   3
ATOM      3  C   UNL     1       8.575   2.695  -4.637  1.00  0.00     0.041 C 
ATOM      4  O   UNL     1       8.623   1.549  -4.117  1.00  0.00    -0.550 OA
ATOM      5  O   UNL     1       9.345   2.974  -5.758  1.00  0.00    -0.550 OA
ENDBRANCH   2   3
ENDBRANCH   1   2
BRANCH   1   6
ATOM      6  C   UNL     1       5.827   3.471  -5.649  1.00  0.00     0.000 C 
BRANCH   6   7
ATOM      7  C   UNL     1       5.919   3.397  -7.178  1.00  0.00    -0.000 C 
BRANCH   7   8
ATOM      8  C   UNL     1       6.764   4.549  -7.733  1.00  0.00    -0.003 C 
ATOM      9  C   UNL     1       6.043   5.261  -8.874  1.00  0.00     0.004 C 
ENDBRANCH   7   8
ENDBRANCH   6   7
ENDBRANCH   1   6
TORSDOF 5
ENDMDL
MODEL 4
REMARK VINA RESULT:    -3.663      0.858      1.597
REMARK INTER + INTRA:          -4.981
REMARK INTER:                  -4.651
REMARK INTRA:                  -0.329
REMARK UNBOUND:                -0.247
REMARK SMILES CCCCCCC(=O)[O-]
REMARK SMILES IDX 5 1 6 2 7 3 8 4 9 5 4 6 3 7 2 8 1 9
REMARK H PARENT
REMARK Flexibility Score: inf
ROOT
ATOM      1  C   UNL     1       7.938   3.225  -4.343  1.00  0.00     0.006 C 
ENDROOT
BRANCH   1   2
ATOM      2  C   UNL     1       8.757   2.379  -5.322  1.00  0.00     0.053 C 
BRANCH   2   3
ATOM      3  C   UNL     1       8.398   0.932  -5.192  1.00  0.00     0.041 C 
ATOM      4  O   UNL     1       9.234   0.111  -4.732  1.00  0.00    -0.550 OA
ATOM      5  O   UNL     1       7.158   0.483  -5.624  1.00  0.00    -0.550 OA
ENDBRANCH   2   3
ENDBRANCH   1   2
BRANCH   1   6
ATOM      6  C   UNL     1       7.080   4.253  -5.090  1.00  0.00     0.000 C 
BRANCH   6   7
ATOM      7  C   UNL     1       5.797   3.609  -5.631  1.00  0.00    -0.000 C 
BRANCH   7   8
ATOM      8  C   UNL     1       5.836   3.506  -7.160  1.00  0.00    -0.003 C 
ATOM      9  C   UNL     1       6.764   4.560  -7.759  1.00  0.00     0.004 C 
ENDBRANCH   7   8
ENDBRANCH   6   7
ENDBRANCH   1   6
TORSDOF 5
ENDMDL
MODEL 5
REMARK VINA RESULT:    -3.562     13.353     14.885
REMARK INTER + INTRA:          -4.850
REMARK INTER:                  -4.686
REMARK INTRA:                  -0.164
REMARK UNBOUND:                -0.247
REMARK SMILES CCCCCCC(=O)[O-]
REMARK SMILES IDX 5 1 6 2 7 3 8 4 9 5 4 6 3 7 2 8 1 9
REMARK H PARENT
REMARK Flexibility Score: inf
ROOT
ATOM      1  C   UNL     1      -2.878  12.465  -6.987  1.00  0.00     0.006 C 
ENDROOT
BRANCH   1   2
ATOM      2  C   UNL     1      -2.862  11.728  -8.330  1.00  0.00     0.053 C 
BRANCH   2   3
ATOM      3  C   UNL     1      -1.533  11.081  -8.557  1.00  0.00     0.041 C 
ATOM      4  O   UNL     1      -0.532  11.781  -8.866  1.00  0.00    -0.550 OA
ATOM      5  O   UNL     1      -1.408   9.700  -8.477  1.00  0.00    -0.550 OA
ENDBRANCH   2   3
ENDBRANCH   1   2
BRANCH   1   6
ATOM      6  C   UNL     1      -3.742  11.721  -5.962  1.00  0.00     0.000 C 
BRANCH   6   7
ATOM      7  C   UNL     1      -3.797  12.483  -4.633  1.00  0.00    -0.000 C 
BRANCH   7   8
ATOM      8  C   UNL     1      -5.202  12.424  -4.023  1.00  0.00    -0.003 C 
ATOM      9  C   UNL     1      -6.083  11.423  -4.764  1.00  0.00     0.004 C 
ENDBRANCH   7   8
ENDBRANCH   6   7
ENDBRANCH   1   6
TORSDOF 5
ENDMDL
MODEL 6
REMARK VINA RESULT:    -3.496      1.343      1.931
REMARK INTER + INTRA:          -4.765
REMARK INTER:                  -4.402
REMARK INTRA:                  -0.363
REMARK UNBOUND:                -0.247
REMARK SMILES CCCCCCC(=O)[O-]
REMARK SMILES IDX 5 1 6 2 7 3 8 4 9 5 4 6 3 7 2 8 1 9
REMARK H PARENT
REMARK Flexibility Score: inf
ROOT
ATOM      1  C   UNL     1       7.277   3.645  -4.815  1.00  0.00     0.006 C 
ENDROOT
BRANCH   1   2
ATOM      2  C   UNL     1       8.274   2.773  -5.585  1.00  0.00     0.053 C 
BRANCH   2   3
ATOM      3  C   UNL     1       7.994   1.323  -5.348  1.00  0.00     0.041 C 
ATOM      4  O   UNL     1       6.916   0.812  -5.751  1.00  0.00    -0.550 OA
ATOM      5  O   UNL     1       8.900   0.546  -4.640  1.00  0.00    -0.550 OA
ENDBRANCH   2   3
ENDBRANCH   1   2
BRANCH   1   6
ATOM      6  C   UNL     1       6.622   4.678  -5.740  1.00  0.00     0.000 C 
BRANCH   6   7
ATOM      7  C   UNL     1       7.282   4.674  -7.124  1.00  0.00    -0.000 C 
BRANCH   7   8
ATOM      8  C   UNL     1       6.233   4.534  -8.233  1.00  0.00    -0.003 C 
ATOM      9  C   UNL     1       5.837   3.074  -8.435  1.00  0.00     0.004 C 
ENDBRANCH   7   8
ENDBRANCH   6   7
ENDBRANCH   1   6
TORSDOF 5
ENDMDL
MODEL 7
REMARK VINA RESULT:    -3.481     16.247     17.464
REMARK INTER + INTRA:          -4.745
REMARK INTER:                  -4.618
REMARK INTRA:                  -0.127
REMARK UNBOUND:                -0.247
REMARK SMILES CCCCCCC(=O)[O-]
REMARK SMILES IDX 5 1 6 2 7 3 8 4 9 5 4 6 3 7 2 8 1 9
REMARK H PARENT
REMARK Flexibility Score: inf
ROOT
ATOM      1  C   UNL     1      -7.062  11.011  -5.946  1.00  0.00     0.006 C 
ENDROOT
BRANCH   1   2
ATOM      2  C   UNL     1      -8.162  10.083  -5.422  1.00  0.00     0.053 C 
BRANCH   2   3
ATOM      3  C   UNL     1      -8.644   9.176  -6.509  1.00  0.00     0.041 C 
ATOM      4  O   UNL     1      -8.458   7.933  -6.426  1.00  0.00    -0.550 OA
ATOM      5  O   UNL     1      -9.255   9.705  -7.638  1.00  0.00    -0.550 OA
ENDBRANCH   2   3
ENDBRANCH   1   2
BRANCH   1   6
ATOM      6  C   UNL     1      -6.015  11.291  -4.861  1.00  0.00     0.000 C 
BRANCH   6   7
ATOM      7  C   UNL     1      -4.770  11.959  -5.456  1.00  0.00    -0.000 C 
BRANCH   7   8
ATOM      8  C   UNL     1      -3.895  12.570  -4.356  1.00  0.00    -0.003 C 
ATOM      9  C   UNL     1      -4.738  13.014  -3.164  1.00  0.00     0.004 C 
ENDBRANCH   7   8
ENDBRANCH   6   7
ENDBRANCH   1   6
TORSDOF 5
ENDMDL
MODEL 8
REMARK VINA RESULT:    -3.267     16.754     18.182
REMARK INTER + INTRA:          -4.468
REMARK INTER:                  -4.247
REMARK INTRA:                  -0.222
REMARK UNBOUND:                -0.247
REMARK SMILES CCCCCCC(=O)[O-]
REMARK SMILES IDX 5 1 6 2 7 3 8 4 9 5 4 6 3 7 2 8 1 9
REMARK H PARENT
REMARK Flexibility Score: inf
ROOT
ATOM      1  C   UNL     1      -5.310  13.739  -2.667  1.00  0.00     0.006 C 
ENDROOT
BRANCH   1   2
ATOM      2  C   UNL     1      -6.565  14.086  -3.473  1.00  0.00     0.053 C 
BRANCH   2   3
ATOM      3  C   UNL     1      -7.797  13.812  -2.669  1.00  0.00     0.041 C 
ATOM      4  O   UNL     1      -7.840  14.122  -1.450  1.00  0.00    -0.550 OA
ATOM      5  O   UNL     1      -8.880  13.169  -3.254  1.00  0.00    -0.550 OA
ENDBRANCH   2   3
ENDBRANCH   1   2
BRANCH   1   6
ATOM      6  C   UNL     1      -4.434  12.732  -3.422  1.00  0.00     0.000 C 
BRANCH   6   7
ATOM      7  C   UNL     1      -3.243  13.431  -4.089  1.00  0.00    -0.000 C 
BRANCH   7   8
ATOM      8  C   UNL     1      -3.284  13.252  -5.611  1.00  0.00    -0.003 C 
ATOM      9  C   UNL     1      -3.796  11.865  -5.990  1.00  0.00     0.004 C 
ENDBRANCH   7   8
ENDBRANCH   6   7
ENDBRANCH   1   6
TORSDOF 5
ENDMDL
MODEL 9
REMARK VINA RESULT:    -3.178     15.541     16.421
REMARK INTER + INTRA:          -4.354
REMARK INTER:                  -4.063
REMARK INTRA:                  -0.291
REMARK UNBOUND:                -0.247
REMARK SMILES CCCCCCC(=O)[O-]
REMARK SMILES IDX 5 1 6 2 7 3 8 4 9 5 4 6 3 7 2 8 1 9
REMARK H PARENT
REMARK Flexibility Score: inf
ROOT
ATOM      1  C   UNL     1      -3.711  12.646  -3.945  1.00  0.00     0.006 C 
ENDROOT
BRANCH   1   2
ATOM      2  C   UNL     1      -3.173  13.847  -4.727  1.00  0.00     0.053 C 
BRANCH   2   3
ATOM      3  C   UNL     1      -2.602  13.406  -6.038  1.00  0.00     0.041 C 
ATOM      4  O   UNL     1      -3.178  12.509  -6.710  1.00  0.00    -0.550 OA
ATOM      5  O   UNL     1      -1.408  13.948  -6.494  1.00  0.00    -0.550 OA
ENDBRANCH   2   3
ENDBRANCH   1   2
BRANCH   1   6
ATOM      6  C   UNL     1      -5.041  12.987  -3.261  1.00  0.00     0.000 C 
BRANCH   6   7
ATOM      7  C   UNL     1      -6.205  12.922  -4.258  1.00  0.00    -0.000 C 
BRANCH   7   8
ATOM      8  C   UNL     1      -6.181  11.607  -5.045  1.00  0.00    -0.003 C 
ATOM      9  C   UNL     1      -7.258  10.647  -4.548  1.00  0.00     0.004 C 
ENDBRANCH   7   8
ENDBRANCH   6   7
ENDBRANCH   1   6
TORSDOF 5
ENDMDL
