MODEL 1
REMARK VINA RESULT:     3.432      0.000      0.000
REMARK INTER + INTRA:           3.432
REMARK INTER:                   3.432
REMARK INTRA:                   0.000
REMARK UNBOUND:                 0.000
REMARK SMILES CC1(C)[C@@H]2CC[C@@]1(C)C(=O)C2
REMARK SMILES IDX 1 1 2 2 4 3 5 4 6 5 7 6 9 7 10 8 11 9 8 10 3 11
REMARK H PARENT
REMARK Flexibility Score: inf
ROOT
ATOM      1  C   UNL     1      -6.133   3.100  13.471  1.00  0.00     0.012 C 
ATOM      2  C   UNL     1      -5.752   3.504  14.926  1.00  0.00    -0.020 C 
ATOM      3  C   UNL     1      -6.333   2.563  16.009  1.00  0.00     0.003 C 
ATOM      4  C   UNL     1      -7.865   2.776  15.860  1.00  0.00     0.005 C 
ATOM      5  C   UNL     1      -7.974   4.281  15.508  1.00  0.00     0.015 C 
ATOM      6  C   UNL     1      -6.495   4.733  15.492  1.00  0.00     0.032 C 
ATOM      7  C   UNL     1      -6.060   4.683  16.935  1.00  0.00     0.139 C 
ATOM      8  O   UNL     1      -5.924   5.643  17.678  1.00  0.00    -0.299 OA
ATOM      9  C   UNL     1      -5.924   3.248  17.343  1.00  0.00     0.080 C 
ATOM     10  C   UNL     1      -6.240   6.070  14.786  1.00  0.00     0.020 C 
ATOM     11  C   UNL     1      -4.195   3.611  14.962  1.00  0.00     0.012 C 
ENDROOT
TORSDOF 0
ENDMDL
MODEL 2
REMARK VINA RESULT:     3.777      1.738      3.188
REMARK INTER + INTRA:           3.777
REMARK INTER:                   3.777
REMARK INTRA:                   0.000
REMARK UNBOUND:                 0.000
REMARK SMILES CC1(C)[C@@H]2CC[C@@]1(C)C(=O)C2
REMARK SMILES IDX 1 1 2 2 4 3 5 4 6 5 7 6 9 7 10 8 11 9 8 10 3 11
REMARK H PARENT
REMARK Flexibility Score: inf
ROOT
ATOM      1  C   UNL     1      -6.174   5.144  17.420  1.00  0.00     0.012 C 
ATOM      2  C   UNL     1      -6.382   4.905  15.894  1.00  0.00    -0.020 C 
ATOM      3  C   UNL     1      -7.808   4.431  15.524  1.00  0.00     0.003 C 
ATOM      4  C   UNL     1      -7.899   3.046  16.222  1.00  0.00     0.005 C 
ATOM      5  C   UNL     1      -6.460   2.488  16.077  1.00  0.00     0.015 C 
ATOM      6  C   UNL     1      -5.730   3.626  15.326  1.00  0.00     0.032 C 
ATOM      7  C   UNL     1      -6.315   3.609  13.935  1.00  0.00     0.139 C 
ATOM      8  O   UNL     1      -5.778   3.153  12.937  1.00  0.00    -0.299 OA
ATOM      9  C   UNL     1      -7.711   4.146  13.998  1.00  0.00     0.080 C 
ATOM     10  C   UNL     1      -4.199   3.556  15.385  1.00  0.00     0.020 C 
ATOM     11  C   UNL     1      -5.958   6.225  15.178  1.00  0.00     0.012 C 
ENDROOT
TORSDOF 0
ENDMDL
MODEL 3
REMARK VINA RESULT:     4.389      1.542      2.783
REMARK INTER + INTRA:           4.389
REMARK INTER:                   4.389
REMARK INTRA:                   0.000
REMARK UNBOUND:                 0.000
REMARK SMILES CC1(C)[C@@H]2CC[C@@]1(C)C(=O)C2
REMARK SMILES IDX 1 1 2 2 4 3 5 4 6 5 7 6 9 7 10 8 11 9 8 10 3 11
REMARK H PARENT
REMARK Flexibility Score: inf
ROOT
ATOM      1  C   UNL     1      -6.044   6.218  15.022  1.00  0.00     0.012 C 
ATOM      2  C   UNL     1      -6.078   4.891  15.840  1.00  0.00    -0.020 C 
ATOM      3  C   UNL     1      -4.853   3.976  15.598  1.00  0.00     0.003 C 
ATOM      4  C   UNL     1      -5.001   3.596  14.099  1.00  0.00     0.005 C 
ATOM      5  C   UNL     1      -6.536   3.483  13.919  1.00  0.00     0.015 C 
ATOM      6  C   UNL     1      -7.069   3.822  15.332  1.00  0.00     0.032 C 
ATOM      7  C   UNL     1      -6.672   2.645  16.187  1.00  0.00     0.139 C 
ATOM      8  O   UNL     1      -7.412   1.749  16.564  1.00  0.00    -0.299 OA
ATOM      9  C   UNL     1      -5.192   2.695  16.410  1.00  0.00     0.080 C 
ATOM     10  C   UNL     1      -8.557   4.189  15.386  1.00  0.00     0.020 C 
ATOM     11  C   UNL     1      -6.268   5.298  17.334  1.00  0.00     0.012 C 
ENDROOT
TORSDOF 0
ENDMDL
MODEL 4
REMARK VINA RESULT:     4.925      1.514      3.017
REMARK INTER + INTRA:           4.925
REMARK INTER:                   4.925
REMARK INTRA:                   0.000
REMARK UNBOUND:                 0.000
REMARK SMILES CC1(C)[C@@H]2CC[C@@]1(C)C(=O)C2
REMARK SMILES IDX 1 1 2 2 4 3 5 4 6 5 7 6 9 7 10 8 11 9 8 10 3 11
REMARK H PARENT
REMARK Flexibility Score: inf
ROOT
ATOM      1  C   UNL     1      -4.261   3.349  15.395  1.00  0.00     0.012 C 
ATOM      2  C   UNL     1      -5.672   3.805  14.917  1.00  0.00    -0.020 C 
ATOM      3  C   UNL     1      -5.887   5.337  14.977  1.00  0.00     0.003 C 
ATOM      4  C   UNL     1      -5.800   5.635  16.500  1.00  0.00     0.005 C 
ATOM      5  C   UNL     1      -6.459   4.385  17.137  1.00  0.00     0.015 C 
ATOM      6  C   UNL     1      -6.829   3.531  15.902  1.00  0.00     0.032 C 
ATOM      7  C   UNL     1      -7.950   4.285  15.232  1.00  0.00     0.139 C 
ATOM      8  O   UNL     1      -9.137   4.000  15.280  1.00  0.00    -0.299 OA
ATOM      9  C   UNL     1      -7.381   5.509  14.583  1.00  0.00     0.080 C 
ATOM     10  C   UNL     1      -7.131   2.059  16.206  1.00  0.00     0.020 C 
ATOM     11  C   UNL     1      -5.872   3.202  13.492  1.00  0.00     0.012 C 
ENDROOT
TORSDOF 0
ENDMDL
MODEL 5
REMARK VINA RESULT:     5.270      1.441      2.771
REMARK INTER + INTRA:           5.270
REMARK INTER:                   5.270
REMARK INTRA:                   0.000
REMARK UNBOUND:                 0.000
REMARK SMILES CC1(C)[C@@H]2CC[C@@]1(C)C(=O)C2
REMARK SMILES IDX 1 1 2 2 4 3 5 4 6 5 7 6 9 7 10 8 11 9 8 10 3 11
REMARK H PARENT
REMARK Flexibility Score: inf
ROOT
ATOM      1  C   UNL     1      -8.273   4.843  15.520  1.00  0.00     0.012 C 
ATOM      2  C   UNL     1      -6.781   4.583  15.151  1.00  0.00    -0.020 C 
ATOM      3  C   UNL     1      -6.592   3.659  13.924  1.00  0.00     0.003 C 
ATOM      4  C   UNL     1      -7.184   2.310  14.419  1.00  0.00     0.005 C 
ATOM      5  C   UNL     1      -6.782   2.282  15.915  1.00  0.00     0.015 C 
ATOM      6  C   UNL     1      -6.022   3.618  16.087  1.00  0.00     0.032 C 
ATOM      7  C   UNL     1      -4.738   3.434  15.317  1.00  0.00     0.139 C 
ATOM      8  O   UNL     1      -3.638   3.213  15.798  1.00  0.00    -0.299 OA
ATOM      9  C   UNL     1      -5.052   3.460  13.853  1.00  0.00     0.080 C 
ATOM     10  C   UNL     1      -5.845   4.075  17.540  1.00  0.00     0.020 C 
ATOM     11  C   UNL     1      -6.117   5.985  14.984  1.00  0.00     0.012 C 
ENDROOT
TORSDOF 0
ENDMDL
MODEL 6
REMARK VINA RESULT:     5.500      1.482      2.728
REMARK INTER + INTRA:           5.500
REMARK INTER:                   5.500
REMARK INTRA:                   0.000
REMARK UNBOUND:                 0.000
REMARK SMILES CC1(C)[C@@H]2CC[C@@]1(C)C(=O)C2
REMARK SMILES IDX 1 1 2 2 4 3 5 4 6 5 7 6 9 7 10 8 11 9 8 10 3 11
REMARK H PARENT
REMARK Flexibility Score: inf
ROOT
ATOM      1  C   UNL     1      -8.601   4.201  15.157  1.00  0.00     0.012 C 
ATOM      2  C   UNL     1      -7.239   3.629  15.651  1.00  0.00    -0.020 C 
ATOM      3  C   UNL     1      -6.647   4.384  16.865  1.00  0.00     0.003 C 
ATOM      4  C   UNL     1      -6.368   5.798  16.285  1.00  0.00     0.005 C 
ATOM      5  C   UNL     1      -5.927   5.496  14.831  1.00  0.00     0.015 C 
ATOM      6  C   UNL     1      -6.019   3.953  14.762  1.00  0.00     0.032 C 
ATOM      7  C   UNL     1      -4.895   3.459  15.639  1.00  0.00     0.139 C 
ATOM      8  O   UNL     1      -3.828   3.008  15.253  1.00  0.00    -0.299 OA
ATOM      9  C   UNL     1      -5.260   3.713  17.069  1.00  0.00     0.080 C 
ATOM     10  C   UNL     1      -6.035   3.372  13.343  1.00  0.00     0.020 C 
ATOM     11  C   UNL     1      -7.468   2.108  15.914  1.00  0.00     0.012 C 
ENDROOT
TORSDOF 0
ENDMDL
MODEL 7
REMARK VINA RESULT:     5.809      1.131      2.922
REMARK INTER + INTRA:           5.809
REMARK INTER:                   5.809
REMARK INTRA:                   0.000
REMARK UNBOUND:                 0.000
REMARK SMILES CC1(C)[C@@H]2CC[C@@]1(C)C(=O)C2
REMARK SMILES IDX 1 1 2 2 4 3 5 4 6 5 7 6 9 7 10 8 11 9 8 10 3 11
REMARK H PARENT
REMARK Flexibility Score: inf
ROOT
ATOM      1  C   UNL     1      -7.172   2.019  15.989  1.00  0.00     0.012 C 
ATOM      2  C   UNL     1      -7.240   3.528  15.608  1.00  0.00    -0.020 C 
ATOM      3  C   UNL     1      -6.933   3.811  14.118  1.00  0.00     0.003 C 
ATOM      4  C   UNL     1      -5.449   3.370  13.986  1.00  0.00     0.005 C 
ATOM      5  C   UNL     1      -4.841   3.779  15.351  1.00  0.00     0.015 C 
ATOM      6  C   UNL     1      -6.054   4.390  16.092  1.00  0.00     0.032 C 
ATOM      7  C   UNL     1      -6.336   5.684  15.369  1.00  0.00     0.139 C 
ATOM      8  O   UNL     1      -6.046   6.803  15.762  1.00  0.00    -0.299 OA
ATOM      9  C   UNL     1      -6.937   5.364  14.035  1.00  0.00     0.080 C 
ATOM     10  C   UNL     1      -5.880   4.522  17.610  1.00  0.00     0.020 C 
ATOM     11  C   UNL     1      -8.643   4.036  16.064  1.00  0.00     0.012 C 
ENDROOT
TORSDOF 0
ENDMDL
