MODEL 1
REMARK VINA RESULT:    -4.605      0.000      0.000
REMARK INTER + INTRA:          -5.931
REMARK INTER:                  -5.682
REMARK INTRA:                  -0.249
REMARK UNBOUND:                -0.249
REMARK SMILES CCOC(=O)c1ccc(O)c(O)c1
REMARK SMILES IDX 4 1 5 2 3 3 2 4 1 5 6 6 13 7 7 8 11 9 8 10 9 11 12 12 10 14
REMARK H PARENT 12 13 10 15
REMARK Flexibility Score: inf
ROOT
ATOM      1  C   UNL     1      13.124  14.486  21.347  1.00  0.00     0.338 C 
ATOM      2  O   UNL     1      12.922  15.256  22.327  1.00  0.00    -0.246 OA
ENDROOT
BRANCH   1   3
ATOM      3  O   UNL     1      14.427  14.274  20.878  1.00  0.00    -0.462 OA
BRANCH   3   4
ATOM      4  C   UNL     1      14.937  14.858  19.682  1.00  0.00     0.230 C 
ATOM      5  C   UNL     1      15.043  16.372  19.825  1.00  0.00     0.049 C 
ENDBRANCH   3   4
ENDBRANCH   1   3
BRANCH   1   6
ATOM      6  C   UNL     1      11.984  13.813  20.687  1.00  0.00     0.064 A 
ATOM      7  C   UNL     1      11.274  14.462  19.661  1.00  0.00     0.065 A 
ATOM      8  C   UNL     1      11.595  12.518  21.070  1.00  0.00     0.020 A 
ATOM      9  C   UNL     1      10.195  13.832  19.030  1.00  0.00     0.158 A 
ATOM     10  C   UNL     1      10.519  11.886  20.442  1.00  0.00     0.051 A 
ATOM     11  C   UNL     1       9.815  12.538  19.422  1.00  0.00     0.157 A 
BRANCH   9  12
ATOM     12  O   UNL     1       9.515  14.507  18.017  1.00  0.00    -0.504 OA
ATOM     13  H   UNL     1       8.846  14.042  17.415  1.00  0.00     0.293 HD
ENDBRANCH   9  12
BRANCH  11  14
ATOM     14  O   UNL     1       8.741  11.906  18.796  1.00  0.00    -0.504 OA
ATOM     15  H   UNL     1       8.883  11.150  18.136  1.00  0.00     0.293 HD
ENDBRANCH  11  14
ENDBRANCH   1   6
TORSDOF 5
ENDMDL
MODEL 2
REMARK VINA RESULT:    -4.161      1.793      2.084
REMARK INTER + INTRA:          -5.384
REMARK INTER:                  -5.092
REMARK INTRA:                  -0.292
REMARK UNBOUND:                -0.249
REMARK SMILES CCOC(=O)c1ccc(O)c(O)c1
REMARK SMILES IDX 4 1 5 2 3 3 2 4 1 5 6 6 13 7 7 8 11 9 8 10 9 11 12 12 10 14
REMARK H PARENT 12 13 10 15
REMARK Flexibility Score: inf
ROOT
ATOM      1  C   UNL     1      12.474  14.451  23.001  1.00  0.00     0.338 C 
ATOM      2  O   UNL     1      11.738  14.826  23.955  1.00  0.00    -0.246 OA
ENDROOT
BRANCH   1   3
ATOM      3  O   UNL     1      13.867  14.447  23.147  1.00  0.00    -0.462 OA
BRANCH   3   4
ATOM      4  C   UNL     1      14.611  15.560  23.637  1.00  0.00     0.230 C 
ATOM      5  C   UNL     1      14.485  16.749  22.691  1.00  0.00     0.049 C 
ENDBRANCH   3   4
ENDBRANCH   1   3
BRANCH   1   6
ATOM      6  C   UNL     1      11.866  14.024  21.721  1.00  0.00     0.064 A 
ATOM      7  C   UNL     1      12.269  14.617  20.511  1.00  0.00     0.065 A 
ATOM      8  C   UNL     1      10.882  13.020  21.693  1.00  0.00     0.020 A 
ATOM      9  C   UNL     1      11.701  14.217  19.296  1.00  0.00     0.158 A 
ATOM     10  C   UNL     1      10.313  12.620  20.482  1.00  0.00     0.051 A 
ATOM     11  C   UNL     1      10.717  13.214  19.280  1.00  0.00     0.157 A 
BRANCH   9  12
ATOM     12  O   UNL     1      12.126  14.828  18.116  1.00  0.00    -0.504 OA
ATOM     13  H   UNL     1      12.191  15.834  18.024  1.00  0.00     0.293 HD
ENDBRANCH   9  12
BRANCH  11  14
ATOM     14  O   UNL     1      10.148  12.813  18.072  1.00  0.00    -0.504 OA
ATOM     15  H   UNL     1      10.366  11.914  17.656  1.00  0.00     0.293 HD
ENDBRANCH  11  14
ENDBRANCH   1   6
TORSDOF 5
ENDMDL
MODEL 3
REMARK VINA RESULT:    -3.799      2.248      2.893
REMARK INTER + INTRA:          -4.937
REMARK INTER:                  -4.695
REMARK INTRA:                  -0.242
REMARK UNBOUND:                -0.249
REMARK SMILES CCOC(=O)c1ccc(O)c(O)c1
REMARK SMILES IDX 4 1 5 2 3 3 2 4 1 5 6 6 13 7 7 8 11 9 8 10 9 11 12 12 10 14
REMARK H PARENT 12 13 10 15
REMARK Flexibility Score: inf
ROOT
ATOM      1  C   UNL     1      13.522  15.031  22.130  1.00  0.00     0.338 C 
ATOM      2  O   UNL     1      13.651  16.254  22.417  1.00  0.00    -0.246 OA
ENDROOT
BRANCH   1   3
ATOM      3  O   UNL     1      14.549  14.355  21.459  1.00  0.00    -0.462 OA
BRANCH   3   4
ATOM      4  C   UNL     1      14.986  14.693  20.144  1.00  0.00     0.230 C 
ATOM      5  C   UNL     1      14.919  13.477  19.227  1.00  0.00     0.049 C 
ENDBRANCH   3   4
ENDBRANCH   1   3
BRANCH   1   6
ATOM      6  C   UNL     1      12.281  14.311  22.494  1.00  0.00     0.064 A 
ATOM      7  C   UNL     1      11.627  13.501  21.548  1.00  0.00     0.065 A 
ATOM      8  C   UNL     1      11.738  14.424  23.785  1.00  0.00     0.020 A 
ATOM      9  C   UNL     1      10.454  12.816  21.884  1.00  0.00     0.158 A 
ATOM     10  C   UNL     1      10.567  13.740  24.124  1.00  0.00     0.051 A 
ATOM     11  C   UNL     1       9.920  12.935  23.178  1.00  0.00     0.157 A 
BRANCH   9  12
ATOM     12  O   UNL     1       9.834  12.021  20.920  1.00  0.00    -0.504 OA
ATOM     13  H   UNL     1       9.421  12.414  20.083  1.00  0.00     0.293 HD
ENDBRANCH   9  12
BRANCH  11  14
ATOM     14  O   UNL     1       8.752  12.255  23.517  1.00  0.00    -0.504 OA
ATOM     15  H   UNL     1       7.858  12.730  23.570  1.00  0.00     0.293 HD
ENDBRANCH  11  14
ENDBRANCH   1   6
TORSDOF 5
ENDMDL
MODEL 4
REMARK VINA RESULT:    -3.796      1.515      2.694
REMARK INTER + INTRA:          -4.933
REMARK INTER:                  -4.651
REMARK INTRA:                  -0.282
REMARK UNBOUND:                -0.249
REMARK SMILES CCOC(=O)c1ccc(O)c(O)c1
REMARK SMILES IDX 4 1 5 2 3 3 2 4 1 5 6 6 13 7 7 8 11 9 8 10 9 11 12 12 10 14
REMARK H PARENT 12 13 10 15
REMARK Flexibility Score: inf
ROOT
ATOM      1  C   UNL     1      13.900  13.967  21.526  1.00  0.00     0.338 C 
ATOM      2  O   UNL     1      14.615  12.951  21.750  1.00  0.00    -0.246 OA
ENDROOT
BRANCH   1   3
ATOM      3  O   UNL     1      14.272  15.215  22.040  1.00  0.00    -0.462 OA
BRANCH   3   4
ATOM      4  C   UNL     1      14.312  15.513  23.434  1.00  0.00     0.230 C 
ATOM      5  C   UNL     1      12.960  15.233  24.082  1.00  0.00     0.049 C 
ENDBRANCH   3   4
ENDBRANCH   1   3
BRANCH   1   6
ATOM      6  C   UNL     1      12.661  13.840  20.726  1.00  0.00     0.064 A 
ATOM      7  C   UNL     1      11.664  12.922  21.103  1.00  0.00     0.065 A 
ATOM      8  C   UNL     1      12.460  14.632  19.583  1.00  0.00     0.020 A 
ATOM      9  C   UNL     1      10.490  12.796  20.353  1.00  0.00     0.158 A 
ATOM     10  C   UNL     1      11.288  14.509  18.832  1.00  0.00     0.051 A 
ATOM     11  C   UNL     1      10.299  13.592  19.211  1.00  0.00     0.157 A 
BRANCH   9  12
ATOM     12  O   UNL     1       9.523  11.875  20.757  1.00  0.00    -0.504 OA
ATOM     13  H   UNL     1       8.560  11.937  20.452  1.00  0.00     0.293 HD
ENDBRANCH   9  12
BRANCH  11  14
ATOM     14  O   UNL     1       9.131  13.470  18.461  1.00  0.00    -0.504 OA
ATOM     15  H   UNL     1       8.650  14.284  18.093  1.00  0.00     0.293 HD
ENDBRANCH  11  14
ENDBRANCH   1   6
TORSDOF 5
ENDMDL
MODEL 5
REMARK VINA RESULT:    -3.691      2.278      5.161
REMARK INTER + INTRA:          -4.804
REMARK INTER:                  -4.731
REMARK INTRA:                  -0.072
REMARK UNBOUND:                -0.249
REMARK SMILES CCOC(=O)c1ccc(O)c(O)c1
REMARK SMILES IDX 4 1 5 2 3 3 2 4 1 5 6 6 13 7 7 8 11 9 8 10 9 11 12 12 10 14
REMARK H PARENT 12 13 10 15
REMARK Flexibility Score: inf
ROOT
ATOM      1  C   UNL     1      11.078  13.166  21.731  1.00  0.00     0.338 C 
ATOM      2  O   UNL     1      10.190  12.704  20.963  1.00  0.00    -0.246 OA
ENDROOT
BRANCH   1   3
ATOM      3  O   UNL     1      11.101  12.796  23.082  1.00  0.00    -0.462 OA
BRANCH   3   4
ATOM      4  C   UNL     1      10.365  13.474  24.097  1.00  0.00     0.230 C 
ATOM      5  C   UNL     1       8.893  13.077  24.050  1.00  0.00     0.049 C 
ENDBRANCH   3   4
ENDBRANCH   1   3
BRANCH   1   6
ATOM      6  C   UNL     1      12.093  14.108  21.208  1.00  0.00     0.064 A 
ATOM      7  C   UNL     1      12.743  15.004  22.075  1.00  0.00     0.065 A 
ATOM      8  C   UNL     1      12.425  14.120  19.842  1.00  0.00     0.020 A 
ATOM      9  C   UNL     1      13.705  15.897  21.589  1.00  0.00     0.158 A 
ATOM     10  C   UNL     1      13.385  15.010  19.354  1.00  0.00     0.051 A 
ATOM     11  C   UNL     1      14.028  15.901  20.222  1.00  0.00     0.157 A 
BRANCH   9  12
ATOM     12  O   UNL     1      14.328  16.771  22.479  1.00  0.00    -0.504 OA
ATOM     13  H   UNL     1      15.217  16.554  22.914  1.00  0.00     0.293 HD
ENDBRANCH   9  12
BRANCH  11  14
ATOM     14  O   UNL     1      14.986  16.789  19.734  1.00  0.00    -0.504 OA
ATOM     15  H   UNL     1      14.728  17.581  19.155  1.00  0.00     0.293 HD
ENDBRANCH  11  14
ENDBRANCH   1   6
TORSDOF 5
ENDMDL
MODEL 6
REMARK VINA RESULT:    -3.685     23.978     25.843
REMARK INTER + INTRA:          -4.795
REMARK INTER:                  -4.510
REMARK INTRA:                  -0.285
REMARK UNBOUND:                -0.249
REMARK SMILES CCOC(=O)c1ccc(O)c(O)c1
REMARK SMILES IDX 4 1 5 2 3 3 2 4 1 5 6 6 13 7 7 8 11 9 8 10 9 11 12 12 10 14
REMARK H PARENT 12 13 10 15
REMARK Flexibility Score: inf
ROOT
ATOM      1  C   UNL     1      -2.652  30.143   4.935  1.00  0.00     0.338 C 
ATOM      2  O   UNL     1      -3.161  30.969   4.128  1.00  0.00    -0.246 OA
ENDROOT
BRANCH   1   3
ATOM      3  O   UNL     1      -3.020  28.793   4.884  1.00  0.00    -0.462 OA
BRANCH   3   4
ATOM      4  C   UNL     1      -4.368  28.348   4.756  1.00  0.00     0.230 C 
ATOM      5  C   UNL     1      -5.122  28.533   6.069  1.00  0.00     0.049 C 
ENDBRANCH   3   4
ENDBRANCH   1   3
BRANCH   1   6
ATOM      6  C   UNL     1      -1.671  30.602   5.944  1.00  0.00     0.064 A 
ATOM      7  C   UNL     1      -1.769  30.167   7.278  1.00  0.00     0.065 A 
ATOM      8  C   UNL     1      -0.629  31.475   5.587  1.00  0.00     0.020 A 
ATOM      9  C   UNL     1      -0.845  30.595   8.239  1.00  0.00     0.158 A 
ATOM     10  C   UNL     1       0.295  31.904   6.544  1.00  0.00     0.051 A 
ATOM     11  C   UNL     1       0.192  31.468   7.871  1.00  0.00     0.157 A 
BRANCH   9  12
ATOM     12  O   UNL     1      -0.974  30.142   9.551  1.00  0.00    -0.504 OA
ATOM     13  H   UNL     1      -0.178  29.830  10.093  1.00  0.00     0.293 HD
ENDBRANCH   9  12
BRANCH  11  14
ATOM     14  O   UNL     1       1.115  31.897   8.824  1.00  0.00    -0.504 OA
ATOM     15  H   UNL     1       1.375  31.312   9.610  1.00  0.00     0.293 HD
ENDBRANCH  11  14
ENDBRANCH   1   6
TORSDOF 5
ENDMDL
MODEL 7
REMARK VINA RESULT:    -3.596      1.676      2.298
REMARK INTER + INTRA:          -4.686
REMARK INTER:                  -4.413
REMARK INTRA:                  -0.273
REMARK UNBOUND:                -0.249
REMARK SMILES CCOC(=O)c1ccc(O)c(O)c1
REMARK SMILES IDX 4 1 5 2 3 3 2 4 1 5 6 6 13 7 7 8 11 9 8 10 9 11 12 12 10 14
REMARK H PARENT 12 13 10 15
REMARK Flexibility Score: inf
ROOT
ATOM      1  C   UNL     1      13.523  14.605  19.299  1.00  0.00     0.338 C 
ATOM      2  O   UNL     1      14.111  14.013  18.352  1.00  0.00    -0.246 OA
ENDROOT
BRANCH   1   3
ATOM      3  O   UNL     1      13.878  15.918  19.636  1.00  0.00    -0.462 OA
BRANCH   3   4
ATOM      4  C   UNL     1      15.125  16.267  20.232  1.00  0.00     0.230 C 
ATOM      5  C   UNL     1      14.954  16.523  21.726  1.00  0.00     0.049 C 
ENDBRANCH   3   4
ENDBRANCH   1   3
BRANCH   1   6
ATOM      6  C   UNL     1      12.461  13.911  20.061  1.00  0.00     0.064 A 
ATOM      7  C   UNL     1      11.280  13.499  19.419  1.00  0.00     0.065 A 
ATOM      8  C   UNL     1      12.617  13.650  21.434  1.00  0.00     0.020 A 
ATOM      9  C   UNL     1      10.272  12.840  20.132  1.00  0.00     0.158 A 
ATOM     10  C   UNL     1      11.612  12.993  22.148  1.00  0.00     0.051 A 
ATOM     11  C   UNL     1      10.437  12.586  21.504  1.00  0.00     0.157 A 
BRANCH   9  12
ATOM     12  O   UNL     1       9.114  12.446  19.461  1.00  0.00    -0.504 OA
ATOM     13  H   UNL     1       8.189  12.634  19.828  1.00  0.00     0.293 HD
ENDBRANCH   9  12
BRANCH  11  14
ATOM     14  O   UNL     1       9.435  11.930  22.218  1.00  0.00    -0.504 OA
ATOM     15  H   UNL     1       8.489  11.859  21.861  1.00  0.00     0.293 HD
ENDBRANCH  11  14
ENDBRANCH   1   6
TORSDOF 5
ENDMDL
MODEL 8
REMARK VINA RESULT:    -3.557      1.911      5.336
REMARK INTER + INTRA:          -4.638
REMARK INTER:                  -4.504
REMARK INTRA:                  -0.134
REMARK UNBOUND:                -0.249
REMARK SMILES CCOC(=O)c1ccc(O)c(O)c1
REMARK SMILES IDX 4 1 5 2 3 3 2 4 1 5 6 6 13 7 7 8 11 9 8 10 9 11 12 12 10 14
REMARK H PARENT 12 13 10 15
REMARK Flexibility Score: inf
ROOT
ATOM      1  C   UNL     1      12.330  13.924  19.357  1.00  0.00     0.338 C 
ATOM      2  O   UNL     1      12.490  14.227  18.143  1.00  0.00    -0.246 OA
ENDROOT
BRANCH   1   3
ATOM      3  O   UNL     1      11.558  12.808  19.707  1.00  0.00    -0.462 OA
BRANCH   3   4
ATOM      4  C   UNL     1      10.139  12.842  19.836  1.00  0.00     0.230 C 
ATOM      5  C   UNL     1       9.470  12.516  18.505  1.00  0.00     0.049 C 
ENDBRANCH   3   4
ENDBRANCH   1   3
BRANCH   1   6
ATOM      6  C   UNL     1      12.951  14.751  20.416  1.00  0.00     0.064 A 
ATOM      7  C   UNL     1      12.527  14.630  21.751  1.00  0.00     0.065 A 
ATOM      8  C   UNL     1      13.971  15.667  20.105  1.00  0.00     0.020 A 
ATOM      9  C   UNL     1      13.109  15.408  22.759  1.00  0.00     0.158 A 
ATOM     10  C   UNL     1      14.555  16.444  21.109  1.00  0.00     0.051 A 
ATOM     11  C   UNL     1      14.128  16.320  22.437  1.00  0.00     0.157 A 
BRANCH   9  12
ATOM     12  O   UNL     1      12.663  15.260  24.072  1.00  0.00    -0.504 OA
ATOM     13  H   UNL     1      13.246  14.860  24.796  1.00  0.00     0.293 HD
ENDBRANCH   9  12
BRANCH  11  14
ATOM     14  O   UNL     1      14.711  17.097  23.437  1.00  0.00    -0.504 OA
ATOM     15  H   UNL     1      14.607  16.862  24.418  1.00  0.00     0.293 HD
ENDBRANCH  11  14
ENDBRANCH   1   6
TORSDOF 5
ENDMDL
