MODEL 1
REMARK VINA RESULT:    -4.609      0.000      0.000
REMARK INTER + INTRA:          -7.079
REMARK INTER:                  -6.765
REMARK INTRA:                  -0.314
REMARK UNBOUND:                -0.314
REMARK SMILES O=C([O-])CCCCCCCC(=O)[O-]
REMARK SMILES IDX 7 1 6 2 5 3 4 4 2 5 1 6 3 7 8 8 9 9 10 10 11 11 12 12 13 13
REMARK H PARENT
REMARK Flexibility Score: inf
ROOT
ATOM      1  C   UNL     1      35.479 105.656 263.498  1.00  0.00     0.000 C 
ENDROOT
BRANCH   1   2
ATOM      2  C   UNL     1      34.877 105.393 264.883  1.00  0.00     0.000 C 
BRANCH   2   3
ATOM      3  C   UNL     1      35.238 106.514 265.864  1.00  0.00     0.006 C 
BRANCH   3   4
ATOM      4  C   UNL     1      35.021 106.069 267.314  1.00  0.00     0.053 C 
BRANCH   4   5
ATOM      5  C   UNL     1      35.200 107.222 268.248  1.00  0.00     0.041 C 
ATOM      6  O   UNL     1      35.441 107.019 269.468  1.00  0.00    -0.550 OA
ATOM      7  O   UNL     1      35.055 108.523 267.784  1.00  0.00    -0.550 OA
ENDBRANCH   4   5
ENDBRANCH   3   4
ENDBRANCH   2   3
ENDBRANCH   1   2
BRANCH   1   8
ATOM      8  C   UNL     1      36.530 106.772 263.558  1.00  0.00     0.000 C 
BRANCH   8   9
ATOM      9  C   UNL     1      37.391 106.785 262.287  1.00  0.00     0.006 C 
BRANCH   9  10
ATOM     10  C   UNL     1      36.681 106.127 261.096  1.00  0.00     0.053 C 
BRANCH  10  11
ATOM     11  C   UNL     1      37.636 105.817 259.984  1.00  0.00     0.041 C 
ATOM     12  O   UNL     1      37.233 105.789 258.792  1.00  0.00    -0.550 OA
ATOM     13  O   UNL     1      38.978 105.589 260.263  1.00  0.00    -0.550 OA
ENDBRANCH  10  11
ENDBRANCH   9  10
ENDBRANCH   8   9
ENDBRANCH   1   8
TORSDOF 8
ENDMDL
MODEL 2
REMARK VINA RESULT:    -4.557      0.691      7.327
REMARK INTER + INTRA:          -7.002
REMARK INTER:                  -6.785
REMARK INTRA:                  -0.217
REMARK UNBOUND:                -0.314
REMARK SMILES O=C([O-])CCCCCCCC(=O)[O-]
REMARK SMILES IDX 7 1 6 2 5 3 4 4 2 5 1 6 3 7 8 8 9 9 10 10 11 11 12 12 13 13
REMARK H PARENT
REMARK Flexibility Score: inf
ROOT
ATOM      1  C   UNL     1      36.020 105.260 264.393  1.00  0.00     0.000 C 
ENDROOT
BRANCH   1   2
ATOM      2  C   UNL     1      35.680 106.460 263.503  1.00  0.00     0.000 C 
BRANCH   2   3
ATOM      3  C   UNL     1      36.739 106.653 262.411  1.00  0.00     0.006 C 
BRANCH   3   4
ATOM      4  C   UNL     1      36.435 105.780 261.189  1.00  0.00     0.053 C 
BRANCH   4   5
ATOM      5  C   UNL     1      37.263 106.210 260.020  1.00  0.00     0.041 C 
ATOM      6  O   UNL     1      36.720 106.766 259.028  1.00  0.00    -0.550 OA
ATOM      7  O   UNL     1      38.628 105.956 260.003  1.00  0.00    -0.550 OA
ENDBRANCH   4   5
ENDBRANCH   3   4
ENDBRANCH   2   3
ENDBRANCH   1   2
BRANCH   1   8
ATOM      8  C   UNL     1      34.982 105.089 265.508  1.00  0.00     0.000 C 
BRANCH   8   9
ATOM      9  C   UNL     1      34.875 106.362 266.361  1.00  0.00     0.006 C 
BRANCH   9  10
ATOM     10  C   UNL     1      34.888 106.058 267.864  1.00  0.00     0.053 C 
BRANCH  10  11
ATOM     11  C   UNL     1      35.248 107.268 268.671  1.00  0.00     0.041 C 
ATOM     12  O   UNL     1      35.588 107.147 269.877  1.00  0.00    -0.550 OA
ATOM     13  O   UNL     1      35.239 108.526 268.081  1.00  0.00    -0.550 OA
ENDBRANCH  10  11
ENDBRANCH   9  10
ENDBRANCH   8   9
ENDBRANCH   1   8
TORSDOF 8
ENDMDL
MODEL 3
REMARK VINA RESULT:    -4.517      1.162      7.091
REMARK INTER + INTRA:          -6.943
REMARK INTER:                  -6.655
REMARK INTRA:                  -0.288
REMARK UNBOUND:                -0.314
REMARK SMILES O=C([O-])CCCCCCCC(=O)[O-]
REMARK SMILES IDX 7 1 6 2 5 3 4 4 2 5 1 6 3 7 8 8 9 9 10 10 11 11 12 12 13 13
REMARK H PARENT
REMARK Flexibility Score: inf
ROOT
ATOM      1  C   UNL     1      36.473 106.806 263.112  1.00  0.00     0.000 C 
ENDROOT
BRANCH   1   2
ATOM      2  C   UNL     1      37.948 106.900 262.708  1.00  0.00     0.000 C 
BRANCH   2   3
ATOM      3  C   UNL     1      38.116 106.737 261.193  1.00  0.00     0.006 C 
BRANCH   3   4
ATOM      4  C   UNL     1      36.870 106.105 260.565  1.00  0.00     0.053 C 
BRANCH   4   5
ATOM      5  C   UNL     1      36.774 106.463 259.117  1.00  0.00     0.041 C 
ATOM      6  O   UNL     1      37.179 105.659 258.236  1.00  0.00    -0.550 OA
ATOM      7  O   UNL     1      36.280 107.705 258.739  1.00  0.00    -0.550 OA
ENDBRANCH   4   5
ENDBRANCH   3   4
ENDBRANCH   2   3
ENDBRANCH   1   2
BRANCH   1   8
ATOM      8  C   UNL     1      36.236 105.632 264.069  1.00  0.00     0.000 C 
BRANCH   8   9
ATOM      9  C   UNL     1      34.875 105.757 264.768  1.00  0.00     0.006 C 
BRANCH   9  10
ATOM     10  C   UNL     1      34.952 105.400 266.258  1.00  0.00     0.053 C 
BRANCH  10  11
ATOM     11  C   UNL     1      35.141 106.617 267.111  1.00  0.00     0.041 C 
ATOM     12  O   UNL     1      35.157 107.762 266.587  1.00  0.00    -0.550 OA
ATOM     13  O   UNL     1      35.269 106.488 268.488  1.00  0.00    -0.550 OA
ENDBRANCH  10  11
ENDBRANCH   9  10
ENDBRANCH   8   9
ENDBRANCH   1   8
TORSDOF 8
ENDMDL
MODEL 4
REMARK VINA RESULT:    -4.211      1.237      1.687
REMARK INTER + INTRA:          -6.494
REMARK INTER:                  -6.295
REMARK INTRA:                  -0.198
REMARK UNBOUND:                -0.314
REMARK SMILES O=C([O-])CCCCCCCC(=O)[O-]
REMARK SMILES IDX 7 1 6 2 5 3 4 4 2 5 1 6 3 7 8 8 9 9 10 10 11 11 12 12 13 13
REMARK H PARENT
REMARK Flexibility Score: inf
ROOT
ATOM      1  C   UNL     1      35.793 106.517 264.703  1.00  0.00     0.000 C 
ENDROOT
BRANCH   1   2
ATOM      2  C   UNL     1      35.016 107.698 265.295  1.00  0.00     0.000 C 
BRANCH   2   3
ATOM      3  C   UNL     1      35.752 108.294 266.500  1.00  0.00     0.006 C 
BRANCH   3   4
ATOM      4  C   UNL     1      34.875 108.253 267.756  1.00  0.00     0.053 C 
BRANCH   4   5
ATOM      5  C   UNL     1      35.180 107.034 268.567  1.00  0.00     0.041 C 
ATOM      6  O   UNL     1      35.420 107.137 269.799  1.00  0.00    -0.550 OA
ATOM      7  O   UNL     1      35.245 105.789 267.955  1.00  0.00    -0.550 OA
ENDBRANCH   4   5
ENDBRANCH   3   4
ENDBRANCH   2   3
ENDBRANCH   1   2
BRANCH   1   8
ATOM      8  C   UNL     1      35.001 105.844 263.576  1.00  0.00     0.000 C 
BRANCH   8   9
ATOM      9  C   UNL     1      35.924 105.446 262.415  1.00  0.00     0.006 C 
BRANCH   9  10
ATOM     10  C   UNL     1      36.987 106.512 262.125  1.00  0.00     0.053 C 
BRANCH  10  11
ATOM     11  C   UNL     1      37.393 106.512 260.683  1.00  0.00     0.041 C 
ATOM     12  O   UNL     1      36.611 106.961 259.804  1.00  0.00    -0.550 OA
ATOM     13  O   UNL     1      38.648 106.046 260.314  1.00  0.00    -0.550 OA
ENDBRANCH  10  11
ENDBRANCH   9  10
ENDBRANCH   8   9
ENDBRANCH   1   8
TORSDOF 8
ENDMDL
MODEL 5
REMARK VINA RESULT:    -3.988      1.276      1.779
REMARK INTER + INTRA:          -6.166
REMARK INTER:                  -5.968
REMARK INTRA:                  -0.199
REMARK UNBOUND:                -0.314
REMARK SMILES O=C([O-])CCCCCCCC(=O)[O-]
REMARK SMILES IDX 7 1 6 2 5 3 4 4 2 5 1 6 3 7 8 8 9 9 10 10 11 11 12 12 13 13
REMARK H PARENT
REMARK Flexibility Score: inf
ROOT
ATOM      1  C   UNL     1      36.163 107.039 263.835  1.00  0.00     0.000 C 
ENDROOT
BRANCH   1   2
ATOM      2  C   UNL     1      36.149 105.900 264.860  1.00  0.00     0.000 C 
BRANCH   2   3
ATOM      3  C   UNL     1      34.880 105.948 265.719  1.00  0.00     0.006 C 
BRANCH   3   4
ATOM      4  C   UNL     1      35.065 106.878 266.923  1.00  0.00     0.053 C 
BRANCH   4   5
ATOM      5  C   UNL     1      34.984 106.103 268.200  1.00  0.00     0.041 C 
ATOM      6  O   UNL     1      34.876 104.848 268.174  1.00  0.00    -0.550 OA
ATOM      7  O   UNL     1      34.981 106.769 269.418  1.00  0.00    -0.550 OA
ENDBRANCH   4   5
ENDBRANCH   3   4
ENDBRANCH   2   3
ENDBRANCH   1   2
BRANCH   1   8
ATOM      8  C   UNL     1      37.314 106.867 262.836  1.00  0.00     0.000 C 
BRANCH   8   9
ATOM      9  C   UNL     1      36.801 106.334 261.491  1.00  0.00     0.006 C 
BRANCH   9  10
ATOM     10  C   UNL     1      37.714 106.727 260.323  1.00  0.00     0.053 C 
BRANCH  10  11
ATOM     11  C   UNL     1      37.007 106.621 259.006  1.00  0.00     0.041 C 
ATOM     12  O   UNL     1      37.240 105.652 258.237  1.00  0.00    -0.550 OA
ATOM     13  O   UNL     1      36.066 107.577 258.643  1.00  0.00    -0.550 OA
ENDBRANCH  10  11
ENDBRANCH   9  10
ENDBRANCH   8   9
ENDBRANCH   1   8
TORSDOF 8
ENDMDL
MODEL 6
REMARK VINA RESULT:    -3.920      1.071      1.664
REMARK INTER + INTRA:          -6.067
REMARK INTER:                  -5.792
REMARK INTRA:                  -0.275
REMARK UNBOUND:                -0.314
REMARK SMILES O=C([O-])CCCCCCCC(=O)[O-]
REMARK SMILES IDX 7 1 6 2 5 3 4 4 2 5 1 6 3 7 8 8 9 9 10 10 11 11 12 12 13 13
REMARK H PARENT
REMARK Flexibility Score: inf
ROOT
ATOM      1  C   UNL     1      35.959 105.509 264.709  1.00  0.00     0.000 C 
ENDROOT
BRANCH   1   2
ATOM      2  C   UNL     1      35.243 105.014 265.971  1.00  0.00     0.000 C 
BRANCH   2   3
ATOM      3  C   UNL     1      35.253 106.086 267.066  1.00  0.00     0.006 C 
BRANCH   3   4
ATOM      4  C   UNL     1      34.876 107.457 266.498  1.00  0.00     0.053 C 
BRANCH   4   5
ATOM      5  C   UNL     1      35.000 108.513 267.550  1.00  0.00     0.041 C 
ATOM      6  O   UNL     1      35.175 108.189 268.755  1.00  0.00    -0.550 OA
ATOM      7  O   UNL     1      34.875 109.853 267.210  1.00  0.00    -0.550 OA
ENDBRANCH   4   5
ENDBRANCH   3   4
ENDBRANCH   2   3
ENDBRANCH   1   2
BRANCH   1   8
ATOM      8  C   UNL     1      35.058 105.375 263.476  1.00  0.00     0.000 C 
BRANCH   8   9
ATOM      9  C   UNL     1      35.895 105.247 262.194  1.00  0.00     0.006 C 
BRANCH   9  10
ATOM     10  C   UNL     1      36.735 106.501 261.921  1.00  0.00     0.053 C 
BRANCH  10  11
ATOM     11  C   UNL     1      37.497 106.389 260.636  1.00  0.00     0.041 C 
ATOM     12  O   UNL     1      38.749 106.263 260.649  1.00  0.00    -0.550 OA
ATOM     13  O   UNL     1      36.818 106.391 259.423  1.00  0.00    -0.550 OA
ENDBRANCH  10  11
ENDBRANCH   9  10
ENDBRANCH   8   9
ENDBRANCH   1   8
TORSDOF 8
ENDMDL
MODEL 7
REMARK VINA RESULT:    -3.589      1.654      2.820
REMARK INTER + INTRA:          -5.581
REMARK INTER:                  -5.122
REMARK INTRA:                  -0.459
REMARK UNBOUND:                -0.314
REMARK SMILES O=C([O-])CCCCCCCC(=O)[O-]
REMARK SMILES IDX 7 1 6 2 5 3 4 4 2 5 1 6 3 7 8 8 9 9 10 10 11 11 12 12 13 13
REMARK H PARENT
REMARK Flexibility Score: inf
ROOT
ATOM      1  C   UNL     1      37.807 107.254 262.098  1.00  0.00     0.000 C 
ENDROOT
BRANCH   1   2
ATOM      2  C   UNL     1      37.491 106.886 263.552  1.00  0.00     0.000 C 
BRANCH   2   3
ATOM      3  C   UNL     1      36.211 106.047 263.642  1.00  0.00     0.006 C 
BRANCH   3   4
ATOM      4  C   UNL     1      35.123 106.787 264.427  1.00  0.00     0.053 C 
BRANCH   4   5
ATOM      5  C   UNL     1      35.093 106.321 265.848  1.00  0.00     0.041 C 
ATOM      6  O   UNL     1      35.106 107.156 266.790  1.00  0.00    -0.550 OA
ATOM      7  O   UNL     1      35.097 104.962 266.133  1.00  0.00    -0.550 OA
ENDBRANCH   4   5
ENDBRANCH   3   4
ENDBRANCH   2   3
ENDBRANCH   1   2
BRANCH   1   8
ATOM      8  C   UNL     1      38.832 106.287 261.494  1.00  0.00     0.000 C 
BRANCH   8   9
ATOM      9  C   UNL     1      38.171 105.353 260.470  1.00  0.00     0.006 C 
BRANCH   9  10
ATOM     10  C   UNL     1      36.815 105.884 259.989  1.00  0.00     0.053 C 
BRANCH  10  11
ATOM     11  C   UNL     1      36.902 106.451 258.604  1.00  0.00     0.041 C 
ATOM     12  O   UNL     1      37.897 106.197 257.876  1.00  0.00    -0.550 OA
ATOM     13  O   UNL     1      35.868 107.235 258.108  1.00  0.00    -0.550 OA
ENDBRANCH  10  11
ENDBRANCH   9  10
ENDBRANCH   8   9
ENDBRANCH   1   8
TORSDOF 8
ENDMDL
MODEL 8
REMARK VINA RESULT:    -2.652      1.799      2.254
REMARK INTER + INTRA:          -4.205
REMARK INTER:                  -4.068
REMARK INTRA:                  -0.137
REMARK UNBOUND:                -0.314
REMARK SMILES O=C([O-])CCCCCCCC(=O)[O-]
REMARK SMILES IDX 7 1 6 2 5 3 4 4 2 5 1 6 3 7 8 8 9 9 10 10 11 11 12 12 13 13
REMARK H PARENT
REMARK Flexibility Score: inf
ROOT
ATOM      1  C   UNL     1      35.159 105.688 262.697  1.00  0.00     0.000 C 
ENDROOT
BRANCH   1   2
ATOM      2  C   UNL     1      35.707 105.382 264.095  1.00  0.00     0.000 C 
BRANCH   2   3
ATOM      3  C   UNL     1      36.056 106.672 264.846  1.00  0.00     0.006 C 
BRANCH   3   4
ATOM      4  C   UNL     1      34.875 107.151 265.696  1.00  0.00     0.053 C 
BRANCH   4   5
ATOM      5  C   UNL     1      35.182 106.996 267.152  1.00  0.00     0.041 C 
ATOM      6  O   UNL     1      35.085 105.868 267.704  1.00  0.00    -0.550 OA
ATOM      7  O   UNL     1      35.530 108.106 267.911  1.00  0.00    -0.550 OA
ENDBRANCH   4   5
ENDBRANCH   3   4
ENDBRANCH   2   3
ENDBRANCH   1   2
BRANCH   1   8
ATOM      8  C   UNL     1      36.078 105.122 261.609  1.00  0.00     0.000 C 
BRANCH   8   9
ATOM      9  C   UNL     1      36.801 106.248 260.857  1.00  0.00     0.006 C 
BRANCH   9  10
ATOM     10  C   UNL     1      38.326 106.090 260.900  1.00  0.00     0.053 C 
BRANCH  10  11
ATOM     11  C   UNL     1      38.930 106.852 262.040  1.00  0.00     0.041 C 
ATOM     12  O   UNL     1      40.179 106.874 262.197  1.00  0.00    -0.550 OA
ATOM     13  O   UNL     1      38.114 107.562 262.912  1.00  0.00    -0.550 OA
ENDBRANCH  10  11
ENDBRANCH   9  10
ENDBRANCH   8   9
ENDBRANCH   1   8
TORSDOF 8
ENDMDL
MODEL 9
REMARK VINA RESULT:    -2.271      2.123      3.070
REMARK INTER + INTRA:          -3.647
REMARK INTER:                  -3.138
REMARK INTRA:                  -0.509
REMARK UNBOUND:                -0.314
REMARK SMILES O=C([O-])CCCCCCCC(=O)[O-]
REMARK SMILES IDX 7 1 6 2 5 3 4 4 2 5 1 6 3 7 8 8 9 9 10 10 11 11 12 12 13 13
REMARK H PARENT
REMARK Flexibility Score: inf
ROOT
ATOM      1  C   UNL     1      34.971 104.609 266.354  1.00  0.00     0.000 C 
ENDROOT
BRANCH   1   2
ATOM      2  C   UNL     1      35.056 105.597 267.523  1.00  0.00     0.000 C 
BRANCH   2   3
ATOM      3  C   UNL     1      35.007 107.046 267.025  1.00  0.00     0.006 C 
BRANCH   3   4
ATOM      4  C   UNL     1      34.881 108.026 268.197  1.00  0.00     0.053 C 
BRANCH   4   5
ATOM      5  C   UNL     1      34.904 109.437 267.703  1.00  0.00     0.041 C 
ATOM      6  O   UNL     1      34.907 110.395 268.521  1.00  0.00    -0.550 OA
ATOM      7  O   UNL     1      34.876 109.697 266.339  1.00  0.00    -0.550 OA
ENDBRANCH   4   5
ENDBRANCH   3   4
ENDBRANCH   2   3
ENDBRANCH   1   2
BRANCH   1   8
ATOM      8  C   UNL     1      36.335 104.441 265.674  1.00  0.00     0.000 C 
BRANCH   8   9
ATOM      9  C   UNL     1      36.172 104.178 264.170  1.00  0.00     0.006 C 
BRANCH   9  10
ATOM     10  C   UNL     1      35.227 105.186 263.502  1.00  0.00     0.053 C 
BRANCH  10  11
ATOM     11  C   UNL     1      35.967 106.382 262.987  1.00  0.00     0.041 C 
ATOM     12  O   UNL     1      35.896 107.482 263.596  1.00  0.00    -0.550 OA
ATOM     13  O   UNL     1      36.761 106.273 261.852  1.00  0.00    -0.550 OA
ENDBRANCH  10  11
ENDBRANCH   9  10
ENDBRANCH   8   9
ENDBRANCH   1   8
TORSDOF 8
ENDMDL
