MODEL 1
REMARK VINA RESULT:    -5.356      0.000      0.000
REMARK INTER + INTRA:          -6.809
REMARK INTER:                  -6.295
REMARK INTRA:                  -0.514
REMARK UNBOUND:                -0.514
REMARK SMILES C=C[C@]1(C)CC[C@H](C(=C)C)C[C@H]1C(=C)C
REMARK SMILES IDX 7 1 6 2 5 3 3 4 12 5 11 6 4 7 8 8 10 9 9 10 13 11 14 12
REMARK SMILES IDX 15 13 2 14 1 15
REMARK H PARENT
REMARK Flexibility Score: inf
ROOT
ATOM      1  C   UNL     1     176.933 170.939 172.848  1.00  0.00     0.015 C 
ATOM      2  C   UNL     1     175.579 171.618 173.113  1.00  0.00     0.009 C 
ATOM      3  C   UNL     1     174.415 170.618 173.033  1.00  0.00     0.012 C 
ATOM      4  C   UNL     1     174.355 169.852 171.678  1.00  0.00    -0.008 C 
ATOM      5  C   UNL     1     175.753 169.217 171.314  1.00  0.00     0.024 C 
ATOM      6  C   UNL     1     176.933 170.202 171.495  1.00  0.00     0.017 C 
ATOM      7  C   UNL     1     173.255 168.767 171.787  1.00  0.00     0.016 C 
ENDROOT
BRANCH   1   8
ATOM      8  C   UNL     1     178.078 171.944 172.927  1.00  0.00    -0.077 C 
ATOM      9  C   UNL     1     178.042 173.055 173.946  1.00  0.00     0.039 C 
ATOM     10  C   UNL     1     179.137 171.867 172.102  1.00  0.00     0.008 C 
ENDBRANCH   1   8
BRANCH   5  11
ATOM     11  C   UNL     1     176.045 167.827 171.910  1.00  0.00    -0.077 C 
ATOM     12  C   UNL     1     176.166 167.601 173.229  1.00  0.00     0.008 C 
ATOM     13  C   UNL     1     176.209 166.640 170.990  1.00  0.00     0.039 C 
ENDBRANCH   5  11
BRANCH   4  14
ATOM     14  C   UNL     1     173.931 170.844 170.587  1.00  0.00    -0.028 C 
ATOM     15  C   UNL     1     173.896 170.537 169.282  1.00  0.00     0.004 C 
ENDBRANCH   4  14
TORSDOF 3
ENDMDL
MODEL 2
REMARK VINA RESULT:    -5.290      1.078      3.367
REMARK INTER + INTRA:          -6.732
REMARK INTER:                  -6.197
REMARK INTRA:                  -0.535
REMARK UNBOUND:                -0.514
REMARK SMILES C=C[C@]1(C)CC[C@H](C(=C)C)C[C@H]1C(=C)C
REMARK SMILES IDX 7 1 6 2 5 3 3 4 12 5 11 6 4 7 8 8 10 9 9 10 13 11 14 12
REMARK SMILES IDX 15 13 2 14 1 15
REMARK H PARENT
REMARK Flexibility Score: inf
ROOT
ATOM      1  C   UNL     1     176.699 171.435 171.884  1.00  0.00     0.015 C 
ATOM      2  C   UNL     1     177.571 170.278 171.372  1.00  0.00     0.009 C 
ATOM      3  C   UNL     1     176.769 169.309 170.489  1.00  0.00     0.012 C 
ATOM      4  C   UNL     1     175.508 168.733 171.198  1.00  0.00    -0.008 C 
ATOM      5  C   UNL     1     174.626 169.881 171.827  1.00  0.00     0.024 C 
ATOM      6  C   UNL     1     175.456 170.912 172.630  1.00  0.00     0.017 C 
ATOM      7  C   UNL     1     174.704 167.913 170.158  1.00  0.00     0.016 C 
ENDROOT
BRANCH   1   8
ATOM      8  C   UNL     1     177.506 172.387 172.761  1.00  0.00    -0.077 C 
ATOM      9  C   UNL     1     178.990 172.543 172.544  1.00  0.00     0.039 C 
ATOM     10  C   UNL     1     176.924 173.105 173.738  1.00  0.00     0.008 C 
ENDBRANCH   1   8
BRANCH   5  11
ATOM     11  C   UNL     1     173.605 170.549 170.886  1.00  0.00    -0.077 C 
ATOM     12  C   UNL     1     173.956 171.339 169.857  1.00  0.00     0.008 C 
ATOM     13  C   UNL     1     172.128 170.320 171.106  1.00  0.00     0.039 C 
ENDBRANCH   5  11
BRANCH   4  14
ATOM     14  C   UNL     1     175.973 167.770 172.298  1.00  0.00    -0.028 C 
ATOM     15  C   UNL     1     175.141 167.190 173.174  1.00  0.00     0.004 C 
ENDBRANCH   4  14
TORSDOF 3
ENDMDL
MODEL 3
REMARK VINA RESULT:    -5.233      1.354      2.496
REMARK INTER + INTRA:          -6.665
REMARK INTER:                  -6.121
REMARK INTRA:                  -0.544
REMARK UNBOUND:                -0.514
REMARK SMILES C=C[C@]1(C)CC[C@H](C(=C)C)C[C@H]1C(=C)C
REMARK SMILES IDX 7 1 6 2 5 3 3 4 12 5 11 6 4 7 8 8 10 9 9 10 13 11 14 12
REMARK SMILES IDX 15 13 2 14 1 15
REMARK H PARENT
REMARK Flexibility Score: inf
ROOT
ATOM      1  C   UNL     1     176.136 171.574 172.572  1.00  0.00     0.015 C 
ATOM      2  C   UNL     1     175.881 171.839 171.079  1.00  0.00     0.009 C 
ATOM      3  C   UNL     1     174.687 171.026 170.553  1.00  0.00     0.012 C 
ATOM      4  C   UNL     1     174.834 169.494 170.791  1.00  0.00    -0.008 C 
ATOM      5  C   UNL     1     175.194 169.176 172.294  1.00  0.00     0.024 C 
ATOM      6  C   UNL     1     176.330 170.071 172.848  1.00  0.00     0.017 C 
ATOM      7  C   UNL     1     173.507 168.813 170.374  1.00  0.00     0.016 C 
ENDROOT
BRANCH   1   8
ATOM      8  C   UNL     1     177.325 172.384 173.079  1.00  0.00    -0.077 C 
ATOM      9  C   UNL     1     178.700 172.150 172.508  1.00  0.00     0.039 C 
ATOM     10  C   UNL     1     177.181 173.318 174.036  1.00  0.00     0.008 C 
ENDBRANCH   1   8
BRANCH   5  11
ATOM     11  C   UNL     1     174.006 169.058 173.268  1.00  0.00    -0.077 C 
ATOM     12  C   UNL     1     173.249 170.105 173.640  1.00  0.00     0.008 C 
ATOM     13  C   UNL     1     173.650 167.710 173.849  1.00  0.00     0.039 C 
ENDBRANCH   5  11
BRANCH   4  14
ATOM     14  C   UNL     1     175.942 168.970 169.867  1.00  0.00    -0.028 C 
ATOM     15  C   UNL     1     176.439 167.727 169.940  1.00  0.00     0.004 C 
ENDBRANCH   4  14
TORSDOF 3
ENDMDL
MODEL 4
REMARK VINA RESULT:    -5.189      1.406      2.516
REMARK INTER + INTRA:          -6.613
REMARK INTER:                  -6.144
REMARK INTRA:                  -0.468
REMARK UNBOUND:                -0.514
REMARK SMILES C=C[C@]1(C)CC[C@H](C(=C)C)C[C@H]1C(=C)C
REMARK SMILES IDX 7 1 6 2 5 3 3 4 12 5 11 6 4 7 8 8 10 9 9 10 13 11 14 12
REMARK SMILES IDX 15 13 2 14 1 15
REMARK H PARENT
REMARK Flexibility Score: inf
ROOT
ATOM      1  C   UNL     1     177.011 171.131 172.006  1.00  0.00     0.015 C 
ATOM      2  C   UNL     1     176.847 170.235 173.244  1.00  0.00     0.009 C 
ATOM      3  C   UNL     1     176.114 168.927 172.905  1.00  0.00     0.012 C 
ATOM      4  C   UNL     1     174.724 169.155 172.242  1.00  0.00    -0.008 C 
ATOM      5  C   UNL     1     174.825 170.149 171.021  1.00  0.00     0.024 C 
ATOM      6  C   UNL     1     175.652 171.419 171.339  1.00  0.00     0.017 C 
ATOM      7  C   UNL     1     174.170 167.778 171.801  1.00  0.00     0.016 C 
ENDROOT
BRANCH   1   8
ATOM      8  C   UNL     1     177.736 172.427 172.357  1.00  0.00    -0.077 C 
ATOM      9  C   UNL     1     178.866 172.416 173.356  1.00  0.00     0.039 C 
ATOM     10  C   UNL     1     177.394 173.598 171.793  1.00  0.00     0.008 C 
ENDBRANCH   1   8
BRANCH   5  11
ATOM     11  C   UNL     1     175.200 169.525 169.663  1.00  0.00    -0.077 C 
ATOM     12  C   UNL     1     174.405 169.580 168.581  1.00  0.00     0.008 C 
ATOM     13  C   UNL     1     176.522 168.811 169.511  1.00  0.00     0.039 C 
ENDBRANCH   5  11
BRANCH   4  14
ATOM     14  C   UNL     1     173.775 169.726 173.304  1.00  0.00    -0.028 C 
ATOM     15  C   UNL     1     172.538 170.164 173.030  1.00  0.00     0.004 C 
ENDBRANCH   4  14
TORSDOF 3
ENDMDL
MODEL 5
REMARK VINA RESULT:    -4.671      1.406      2.827
REMARK INTER + INTRA:          -6.004
REMARK INTER:                  -5.519
REMARK INTRA:                  -0.486
REMARK UNBOUND:                -0.514
REMARK SMILES C=C[C@]1(C)CC[C@H](C(=C)C)C[C@H]1C(=C)C
REMARK SMILES IDX 7 1 6 2 5 3 3 4 12 5 11 6 4 7 8 8 10 9 9 10 13 11 14 12
REMARK SMILES IDX 15 13 2 14 1 15
REMARK H PARENT
REMARK Flexibility Score: inf
ROOT
ATOM      1  C   UNL     1     176.272 170.583 171.785  1.00  0.00     0.015 C 
ATOM      2  C   UNL     1     175.745 169.604 172.846  1.00  0.00     0.009 C 
ATOM      3  C   UNL     1     174.673 168.664 172.271  1.00  0.00     0.012 C 
ATOM      4  C   UNL     1     173.476 169.421 171.623  1.00  0.00    -0.008 C 
ATOM      5  C   UNL     1     173.972 170.509 170.593  1.00  0.00     0.024 C 
ATOM      6  C   UNL     1     175.123 171.386 171.144  1.00  0.00     0.017 C 
ATOM      7  C   UNL     1     172.560 168.376 170.940  1.00  0.00     0.016 C 
ENDROOT
BRANCH   1   8
ATOM      8  C   UNL     1     177.332 171.511 172.370  1.00  0.00    -0.077 C 
ATOM      9  C   UNL     1     176.978 172.450 173.496  1.00  0.00     0.039 C 
ATOM     10  C   UNL     1     178.594 171.517 171.905  1.00  0.00     0.008 C 
ENDBRANCH   1   8
BRANCH   5  11
ATOM     11  C   UNL     1     174.239 170.016 169.159  1.00  0.00    -0.077 C 
ATOM     12  C   UNL     1     175.219 169.152 168.845  1.00  0.00     0.008 C 
ATOM     13  C   UNL     1     173.370 170.512 168.026  1.00  0.00     0.039 C 
ENDBRANCH   5  11
BRANCH   4  14
ATOM     14  C   UNL     1     172.671 170.092 172.744  1.00  0.00    -0.028 C 
ATOM     15  C   UNL     1     171.411 170.525 172.592  1.00  0.00     0.004 C 
ENDBRANCH   4  14
TORSDOF 3
ENDMDL
MODEL 6
REMARK VINA RESULT:    -4.489      1.849      4.497
REMARK INTER + INTRA:          -5.790
REMARK INTER:                  -5.265
REMARK INTRA:                  -0.525
REMARK UNBOUND:                -0.514
REMARK SMILES C=C[C@]1(C)CC[C@H](C(=C)C)C[C@H]1C(=C)C
REMARK SMILES IDX 7 1 6 2 5 3 3 4 12 5 11 6 4 7 8 8 10 9 9 10 13 11 14 12
REMARK SMILES IDX 15 13 2 14 1 15
REMARK H PARENT
REMARK Flexibility Score: inf
ROOT
ATOM      1  C   UNL     1     172.496 170.071 171.880  1.00  0.00     0.015 C 
ATOM      2  C   UNL     1     173.064 170.850 170.683  1.00  0.00     0.009 C 
ATOM      3  C   UNL     1     174.423 170.292 170.234  1.00  0.00     0.012 C 
ATOM      4  C   UNL     1     175.480 170.255 171.377  1.00  0.00    -0.008 C 
ATOM      5  C   UNL     1     174.909 169.547 172.667  1.00  0.00     0.024 C 
ATOM      6  C   UNL     1     173.494 170.043 173.054  1.00  0.00     0.017 C 
ATOM      7  C   UNL     1     176.738 169.523 170.846  1.00  0.00     0.016 C 
ENDROOT
BRANCH   1   8
ATOM      8  C   UNL     1     171.149 170.638 172.318  1.00  0.00    -0.077 C 
ATOM      9  C   UNL     1     171.012 171.317 173.657  1.00  0.00     0.039 C 
ATOM     10  C   UNL     1     170.062 170.550 171.532  1.00  0.00     0.008 C 
ENDBRANCH   1   8
BRANCH   5  11
ATOM     11  C   UNL     1     175.030 168.013 172.712  1.00  0.00    -0.077 C 
ATOM     12  C   UNL     1     174.253 167.189 171.989  1.00  0.00     0.008 C 
ATOM     13  C   UNL     1     176.068 167.373 173.605  1.00  0.00     0.039 C 
ENDBRANCH   5  11
BRANCH   4  14
ATOM     14  C   UNL     1     175.880 171.699 171.707  1.00  0.00    -0.028 C 
ATOM     15  C   UNL     1     176.643 172.033 172.757  1.00  0.00     0.004 C 
ENDBRANCH   4  14
TORSDOF 3
ENDMDL
MODEL 7
REMARK VINA RESULT:    -4.478      2.110      4.211
REMARK INTER + INTRA:          -5.777
REMARK INTER:                  -5.421
REMARK INTRA:                  -0.356
REMARK UNBOUND:                -0.514
REMARK SMILES C=C[C@]1(C)CC[C@H](C(=C)C)C[C@H]1C(=C)C
REMARK SMILES IDX 7 1 6 2 5 3 3 4 12 5 11 6 4 7 8 8 10 9 9 10 13 11 14 12
REMARK SMILES IDX 15 13 2 14 1 15
REMARK H PARENT
REMARK Flexibility Score: inf
ROOT
ATOM      1  C   UNL     1     175.081 170.443 172.390  1.00  0.00     0.015 C 
ATOM      2  C   UNL     1     175.354 168.949 172.153  1.00  0.00     0.009 C 
ATOM      3  C   UNL     1     174.049 168.148 172.014  1.00  0.00     0.012 C 
ATOM      4  C   UNL     1     173.093 168.314 173.231  1.00  0.00    -0.008 C 
ATOM      5  C   UNL     1     172.858 169.837 173.575  1.00  0.00     0.024 C 
ATOM      6  C   UNL     1     174.170 170.659 173.614  1.00  0.00     0.017 C 
ATOM      7  C   UNL     1     171.759 167.602 172.896  1.00  0.00     0.016 C 
ENDROOT
BRANCH   1   8
ATOM      8  C   UNL     1     176.384 171.225 172.530  1.00  0.00    -0.077 C 
ATOM      9  C   UNL     1     176.580 172.513 171.771  1.00  0.00     0.039 C 
ATOM     10  C   UNL     1     177.379 170.793 173.324  1.00  0.00     0.008 C 
ENDBRANCH   1   8
BRANCH   5  11
ATOM     11  C   UNL     1     171.738 170.547 172.793  1.00  0.00    -0.077 C 
ATOM     12  C   UNL     1     171.701 170.612 171.451  1.00  0.00     0.008 C 
ATOM     13  C   UNL     1     170.609 171.212 173.546  1.00  0.00     0.039 C 
ENDBRANCH   5  11
BRANCH   4  14
ATOM     14  C   UNL     1     173.720 167.597 174.434  1.00  0.00    -0.028 C 
ATOM     15  C   UNL     1     173.124 166.588 175.086  1.00  0.00     0.004 C 
ENDBRANCH   4  14
TORSDOF 3
ENDMDL
MODEL 8
REMARK VINA RESULT:    -4.454      1.319      4.665
REMARK INTER + INTRA:          -5.749
REMARK INTER:                  -5.244
REMARK INTRA:                  -0.505
REMARK UNBOUND:                -0.514
REMARK SMILES C=C[C@]1(C)CC[C@H](C(=C)C)C[C@H]1C(=C)C
REMARK SMILES IDX 7 1 6 2 5 3 3 4 12 5 11 6 4 7 8 8 10 9 9 10 13 11 14 12
REMARK SMILES IDX 15 13 2 14 1 15
REMARK H PARENT
REMARK Flexibility Score: inf
ROOT
ATOM      1  C   UNL     1     176.197 167.191 170.710  1.00  0.00     0.015 C 
ATOM      2  C   UNL     1     176.254 167.162 172.246  1.00  0.00     0.009 C 
ATOM      3  C   UNL     1     175.335 168.224 172.869  1.00  0.00     0.012 C 
ATOM      4  C   UNL     1     175.634 169.667 172.366  1.00  0.00    -0.008 C 
ATOM      5  C   UNL     1     175.683 169.730 170.790  1.00  0.00     0.024 C 
ATOM      6  C   UNL     1     176.529 168.594 170.164  1.00  0.00     0.017 C 
ATOM      7  C   UNL     1     174.544 170.610 172.933  1.00  0.00     0.016 C 
ENDROOT
BRANCH   1   8
ATOM      8  C   UNL     1     177.117 166.135 170.105  1.00  0.00    -0.077 C 
ATOM      9  C   UNL     1     178.214 166.541 169.153  1.00  0.00     0.039 C 
ATOM     10  C   UNL     1     176.977 164.830 170.399  1.00  0.00     0.008 C 
ENDBRANCH   1   8
BRANCH   5  11
ATOM     11  C   UNL     1     174.334 169.925 170.074  1.00  0.00    -0.077 C 
ATOM     12  C   UNL     1     173.457 168.927 169.867  1.00  0.00     0.008 C 
ATOM     13  C   UNL     1     173.948 171.296 169.571  1.00  0.00     0.039 C 
ENDBRANCH   5  11
BRANCH   4  14
ATOM     14  C   UNL     1     176.984 170.107 172.949  1.00  0.00    -0.028 C 
ATOM     15  C   UNL     1     177.553 171.291 172.683  1.00  0.00     0.004 C 
ENDBRANCH   4  14
TORSDOF 3
ENDMDL
MODEL 9
REMARK VINA RESULT:    -4.443      1.849      4.347
REMARK INTER + INTRA:          -5.736
REMARK INTER:                  -5.215
REMARK INTRA:                  -0.521
REMARK UNBOUND:                -0.514
REMARK SMILES C=C[C@]1(C)CC[C@H](C(=C)C)C[C@H]1C(=C)C
REMARK SMILES IDX 7 1 6 2 5 3 3 4 12 5 11 6 4 7 8 8 10 9 9 10 13 11 14 12
REMARK SMILES IDX 15 13 2 14 1 15
REMARK H PARENT
REMARK Flexibility Score: inf
ROOT
ATOM      1  C   UNL     1     174.272 167.670 173.453  1.00  0.00     0.015 C 
ATOM      2  C   UNL     1     173.465 168.961 173.669  1.00  0.00     0.009 C 
ATOM      3  C   UNL     1     173.574 169.907 172.463  1.00  0.00     0.012 C 
ATOM      4  C   UNL     1     175.044 170.269 172.096  1.00  0.00    -0.008 C 
ATOM      5  C   UNL     1     175.938 168.976 171.959  1.00  0.00     0.024 C 
ATOM      6  C   UNL     1     175.746 167.979 173.128  1.00  0.00     0.017 C 
ATOM      7  C   UNL     1     175.025 171.081 170.778  1.00  0.00     0.016 C 
ENDROOT
BRANCH   1   8
ATOM      8  C   UNL     1     174.158 166.742 174.659  1.00  0.00    -0.077 C 
ATOM      9  C   UNL     1     175.390 166.357 175.438  1.00  0.00     0.039 C 
ATOM     10  C   UNL     1     172.971 166.249 175.055  1.00  0.00     0.008 C 
ENDBRANCH   1   8
BRANCH   5  11
ATOM     11  C   UNL     1     175.927 168.283 170.584  1.00  0.00    -0.077 C 
ATOM     12  C   UNL     1     174.904 167.530 170.145  1.00  0.00     0.008 C 
ATOM     13  C   UNL     1     177.112 168.441 169.660  1.00  0.00     0.039 C 
ENDBRANCH   5  11
BRANCH   4  14
ATOM     14  C   UNL     1     175.603 171.176 173.200  1.00  0.00    -0.028 C 
ATOM     15  C   UNL     1     176.870 171.617 173.224  1.00  0.00     0.004 C 
ENDBRANCH   4  14
TORSDOF 3
ENDMDL
