MODEL 1
REMARK VINA RESULT:    -5.973      0.000      0.000
REMARK INTER + INTRA:          -7.324
REMARK INTER:                  -7.195
REMARK INTRA:                  -0.128
REMARK UNBOUND:                -0.128
REMARK SMILES O=c1c(O)c(-c2ccc(O)c(O)c2)oc2cc(O)cc(O)c12
REMARK SMILES IDX 5 1 3 2 2 3 1 4 22 5 20 6 19 7 17 8 16 9 15 10 14 11 6 12
REMARK SMILES IDX 7 13 8 14 9 15 13 16 11 17 10 18 12 20 4 22 21 24 18 26
REMARK H PARENT 10 19 12 21 4 23 21 25 18 27
REMARK Flexibility Score: inf
ROOT
ATOM      1  C   UNL     1      75.523 -55.593 198.096  1.00  0.00     0.180 A 
ATOM      2  C   UNL     1      74.623 -55.523 197.015  1.00  0.00     0.208 A 
ATOM      3  C   UNL     1      75.090 -55.067 195.773  1.00  0.00     0.238 A 
ATOM      4  O   UNL     1      74.296 -55.011 194.795  1.00  0.00    -0.285 OA
ATOM      5  C   UNL     1      76.437 -54.671 195.637  1.00  0.00     0.111 A 
ATOM      6  C   UNL     1      76.985 -54.196 194.421  1.00  0.00     0.134 A 
ATOM      7  C   UNL     1      78.333 -53.811 194.369  1.00  0.00     0.093 A 
ATOM      8  C   UNL     1      79.142 -53.892 195.509  1.00  0.00     0.123 A 
ATOM      9  C   UNL     1      78.605 -54.361 196.709  1.00  0.00     0.094 A 
ATOM     10  C   UNL     1      77.265 -54.751 196.781  1.00  0.00     0.146 A 
ATOM     11  O   UNL     1      76.782 -55.197 197.935  1.00  0.00    -0.452 OA
ENDROOT
BRANCH   1  12
ATOM     12  C   UNL     1      75.111 -56.082 199.433  1.00  0.00     0.025 A 
ATOM     13  C   UNL     1      74.110 -55.430 200.174  1.00  0.00     0.016 A 
ATOM     14  C   UNL     1      73.721 -55.924 201.422  1.00  0.00     0.051 A 
ATOM     15  C   UNL     1      74.315 -57.082 201.941  1.00  0.00     0.157 A 
ATOM     16  C   UNL     1      75.688 -57.254 199.947  1.00  0.00     0.062 A 
ATOM     17  C   UNL     1      75.302 -57.751 201.198  1.00  0.00     0.158 A 
BRANCH  15  18
ATOM     18  O   UNL     1      73.927 -57.570 203.187  1.00  0.00    -0.504 OA
ATOM     19  H   UNL     1      74.595 -57.700 203.938  1.00  0.00     0.293 HD
ENDBRANCH  15  18
BRANCH  17  20
ATOM     20  O   UNL     1      75.907 -58.910 201.682  1.00  0.00    -0.504 OA
ATOM     21  H   UNL     1      76.715 -59.323 201.233  1.00  0.00     0.293 HD
ENDBRANCH  17  20
ENDBRANCH   1  12
BRANCH   2  22
ATOM     22  O   UNL     1      73.283 -55.876 197.189  1.00  0.00    -0.502 OA
ATOM     23  H   UNL     1      72.680 -55.406 197.855  1.00  0.00     0.293 HD
ENDBRANCH   2  22
BRANCH   6  24
ATOM     24  O   UNL     1      76.203 -54.102 193.269  1.00  0.00    -0.507 OA
ATOM     25  H   UNL     1      76.440 -53.468 192.515  1.00  0.00     0.293 HD
ENDBRANCH   6  24
BRANCH   8  26
ATOM     26  O   UNL     1      80.480 -53.509 195.458  1.00  0.00    -0.508 OA
ATOM     27  H   UNL     1      81.196 -54.022 195.961  1.00  0.00     0.293 HD
ENDBRANCH   8  26
TORSDOF 6
ENDMDL
MODEL 2
REMARK VINA RESULT:    -5.802      0.650      1.469
REMARK INTER + INTRA:          -7.118
REMARK INTER:                  -6.871
REMARK INTRA:                  -0.248
REMARK UNBOUND:                -0.128
REMARK SMILES O=c1c(O)c(-c2ccc(O)c(O)c2)oc2cc(O)cc(O)c12
REMARK SMILES IDX 5 1 3 2 2 3 1 4 22 5 20 6 19 7 17 8 16 9 15 10 14 11 6 12
REMARK SMILES IDX 7 13 8 14 9 15 13 16 11 17 10 18 12 20 4 22 21 24 18 26
REMARK H PARENT 10 19 12 21 4 23 21 25 18 27
REMARK Flexibility Score: inf
ROOT
ATOM      1  C   UNL     1      75.471 -55.676 198.206  1.00  0.00     0.180 A 
ATOM      2  C   UNL     1      74.590 -55.578 197.112  1.00  0.00     0.208 A 
ATOM      3  C   UNL     1      75.075 -55.082 195.892  1.00  0.00     0.238 A 
ATOM      4  O   UNL     1      74.297 -55.000 194.903  1.00  0.00    -0.285 OA
ATOM      5  C   UNL     1      76.422 -54.676 195.791  1.00  0.00     0.111 A 
ATOM      6  C   UNL     1      76.987 -54.162 194.599  1.00  0.00     0.134 A 
ATOM      7  C   UNL     1      78.334 -53.770 194.582  1.00  0.00     0.093 A 
ATOM      8  C   UNL     1      79.124 -53.881 195.732  1.00  0.00     0.123 A 
ATOM      9  C   UNL     1      78.571 -54.389 196.908  1.00  0.00     0.094 A 
ATOM     10  C   UNL     1      77.231 -54.786 196.946  1.00  0.00     0.146 A 
ATOM     11  O   UNL     1      76.731 -55.270 198.077  1.00  0.00    -0.452 OA
ENDROOT
BRANCH   1  12
ATOM     12  C   UNL     1      75.040 -56.207 199.519  1.00  0.00     0.025 A 
ATOM     13  C   UNL     1      75.465 -57.467 199.975  1.00  0.00     0.016 A 
ATOM     14  C   UNL     1      75.064 -57.936 201.229  1.00  0.00     0.051 A 
ATOM     15  C   UNL     1      74.246 -57.149 202.051  1.00  0.00     0.157 A 
ATOM     16  C   UNL     1      74.238 -55.413 200.356  1.00  0.00     0.062 A 
ATOM     17  C   UNL     1      73.833 -55.880 201.611  1.00  0.00     0.158 A 
BRANCH  15  18
ATOM     18  O   UNL     1      73.846 -57.621 203.300  1.00  0.00    -0.504 OA
ATOM     19  H   UNL     1      72.867 -57.705 203.546  1.00  0.00     0.293 HD
ENDBRANCH  15  18
BRANCH  17  20
ATOM     20  O   UNL     1      73.025 -55.070 202.408  1.00  0.00    -0.504 OA
ATOM     21  H   UNL     1      72.385 -54.394 202.011  1.00  0.00     0.293 HD
ENDBRANCH  17  20
ENDBRANCH   1  12
BRANCH   2  22
ATOM     22  O   UNL     1      73.248 -55.941 197.253  1.00  0.00    -0.502 OA
ATOM     23  H   UNL     1      72.695 -56.286 196.477  1.00  0.00     0.293 HD
ENDBRANCH   2  22
BRANCH   6  24
ATOM     24  O   UNL     1      76.224 -54.037 193.438  1.00  0.00    -0.507 OA
ATOM     25  H   UNL     1      75.440 -53.397 193.382  1.00  0.00     0.293 HD
ENDBRANCH   6  24
BRANCH   8  26
ATOM     26  O   UNL     1      80.461 -53.492 195.716  1.00  0.00    -0.508 OA
ATOM     27  H   UNL     1      81.114 -53.867 195.036  1.00  0.00     0.293 HD
ENDBRANCH   8  26
TORSDOF 6
ENDMDL
MODEL 3
REMARK VINA RESULT:    -5.349      3.784      7.680
REMARK INTER + INTRA:          -6.572
REMARK INTER:                  -6.252
REMARK INTRA:                  -0.320
REMARK UNBOUND:                -0.128
REMARK SMILES O=c1c(O)c(-c2ccc(O)c(O)c2)oc2cc(O)cc(O)c12
REMARK SMILES IDX 5 1 3 2 2 3 1 4 22 5 20 6 19 7 17 8 16 9 15 10 14 11 6 12
REMARK SMILES IDX 7 13 8 14 9 15 13 16 11 17 10 18 12 20 4 22 21 24 18 26
REMARK H PARENT 10 19 12 21 4 23 21 25 18 27
REMARK Flexibility Score: inf
ROOT
ATOM      1  C   UNL     1      72.361 -57.119 199.295  1.00  0.00     0.180 A 
ATOM      2  C   UNL     1      71.536 -57.591 198.256  1.00  0.00     0.208 A 
ATOM      3  C   UNL     1      70.757 -58.738 198.476  1.00  0.00     0.238 A 
ATOM      4  O   UNL     1      70.006 -59.163 197.556  1.00  0.00    -0.285 OA
ATOM      5  C   UNL     1      70.831 -59.403 199.717  1.00  0.00     0.111 A 
ATOM      6  C   UNL     1      70.082 -60.567 200.017  1.00  0.00     0.134 A 
ATOM      7  C   UNL     1      70.218 -61.176 201.273  1.00  0.00     0.093 A 
ATOM      8  C   UNL     1      71.088 -60.645 202.233  1.00  0.00     0.123 A 
ATOM      9  C   UNL     1      71.827 -59.498 201.941  1.00  0.00     0.094 A 
ATOM     10  C   UNL     1      71.704 -58.874 200.696  1.00  0.00     0.146 A 
ATOM     11  O   UNL     1      72.416 -57.781 200.447  1.00  0.00    -0.452 OA
ENDROOT
BRANCH   1  12
ATOM     12  C   UNL     1      73.197 -55.905 199.147  1.00  0.00     0.025 A 
ATOM     13  C   UNL     1      72.659 -54.619 199.329  1.00  0.00     0.016 A 
ATOM     14  C   UNL     1      73.473 -53.490 199.208  1.00  0.00     0.051 A 
ATOM     15  C   UNL     1      74.837 -53.629 198.918  1.00  0.00     0.157 A 
ATOM     16  C   UNL     1      74.569 -56.040 198.877  1.00  0.00     0.062 A 
ATOM     17  C   UNL     1      75.387 -54.911 198.754  1.00  0.00     0.158 A 
BRANCH  15  18
ATOM     18  O   UNL     1      75.645 -52.500 198.795  1.00  0.00    -0.504 OA
ATOM     19  H   UNL     1      76.164 -52.131 199.583  1.00  0.00     0.293 HD
ENDBRANCH  15  18
BRANCH  17  20
ATOM     20  O   UNL     1      76.741 -55.083 198.472  1.00  0.00    -0.504 OA
ATOM     21  H   UNL     1      77.067 -55.374 197.559  1.00  0.00     0.293 HD
ENDBRANCH  17  20
ENDBRANCH   1  12
BRANCH   2  22
ATOM     22  O   UNL     1      71.518 -56.941 197.019  1.00  0.00    -0.502 OA
ATOM     23  H   UNL     1      72.364 -56.756 196.491  1.00  0.00     0.293 HD
ENDBRANCH   2  22
BRANCH   6  24
ATOM     24  O   UNL     1      69.209 -61.120 199.080  1.00  0.00    -0.507 OA
ATOM     25  H   UNL     1      68.604 -61.900 199.311  1.00  0.00     0.293 HD
ENDBRANCH   6  24
BRANCH   8  26
ATOM     26  O   UNL     1      71.225 -61.251 203.480  1.00  0.00    -0.508 OA
ATOM     27  H   UNL     1      72.006 -61.037 204.089  1.00  0.00     0.293 HD
ENDBRANCH   8  26
TORSDOF 6
ENDMDL
MODEL 4
REMARK VINA RESULT:    -5.340      2.002      3.857
REMARK INTER + INTRA:          -6.561
REMARK INTER:                  -6.349
REMARK INTRA:                  -0.212
REMARK UNBOUND:                -0.128
REMARK SMILES O=c1c(O)c(-c2ccc(O)c(O)c2)oc2cc(O)cc(O)c12
REMARK SMILES IDX 5 1 3 2 2 3 1 4 22 5 20 6 19 7 17 8 16 9 15 10 14 11 6 12
REMARK SMILES IDX 7 13 8 14 9 15 13 16 11 17 10 18 12 20 4 22 21 24 18 26
REMARK H PARENT 10 19 12 21 4 23 21 25 18 27
REMARK Flexibility Score: inf
ROOT
ATOM      1  C   UNL     1      74.133 -55.416 198.239  1.00  0.00     0.180 A 
ATOM      2  C   UNL     1      75.272 -54.796 197.690  1.00  0.00     0.208 A 
ATOM      3  C   UNL     1      75.214 -54.317 196.372  1.00  0.00     0.238 A 
ATOM      4  O   UNL     1      76.225 -53.750 195.874  1.00  0.00    -0.285 OA
ATOM      5  C   UNL     1      74.033 -54.484 195.621  1.00  0.00     0.111 A 
ATOM      6  C   UNL     1      73.895 -54.035 194.286  1.00  0.00     0.134 A 
ATOM      7  C   UNL     1      72.688 -54.247 193.602  1.00  0.00     0.093 A 
ATOM      8  C   UNL     1      71.620 -54.901 194.227  1.00  0.00     0.123 A 
ATOM      9  C   UNL     1      71.752 -55.344 195.544  1.00  0.00     0.094 A 
ATOM     10  C   UNL     1      72.945 -55.140 196.243  1.00  0.00     0.146 A 
ATOM     11  O   UNL     1      73.041 -55.569 197.496  1.00  0.00    -0.452 OA
ENDROOT
BRANCH   1  12
ATOM     12  C   UNL     1      74.110 -55.929 199.629  1.00  0.00     0.025 A 
ATOM     13  C   UNL     1      73.313 -55.325 200.618  1.00  0.00     0.016 A 
ATOM     14  C   UNL     1      73.289 -55.842 201.916  1.00  0.00     0.051 A 
ATOM     15  C   UNL     1      74.046 -56.975 202.242  1.00  0.00     0.157 A 
ATOM     16  C   UNL     1      74.850 -57.077 199.954  1.00  0.00     0.062 A 
ATOM     17  C   UNL     1      74.828 -57.597 201.254  1.00  0.00     0.158 A 
BRANCH  15  18
ATOM     18  O   UNL     1      74.021 -57.487 203.538  1.00  0.00    -0.504 OA
ATOM     19  H   UNL     1      74.758 -58.090 203.885  1.00  0.00     0.293 HD
ENDBRANCH  15  18
BRANCH  17  20
ATOM     20  O   UNL     1      75.587 -58.730 201.543  1.00  0.00    -0.504 OA
ATOM     21  H   UNL     1      75.980 -58.894 202.462  1.00  0.00     0.293 HD
ENDBRANCH  17  20
ENDBRANCH   1  12
BRANCH   2  22
ATOM     22  O   UNL     1      76.446 -54.687 198.440  1.00  0.00    -0.502 OA
ATOM     23  H   UNL     1      76.877 -55.485 198.892  1.00  0.00     0.293 HD
ENDBRANCH   2  22
BRANCH   6  24
ATOM     24  O   UNL     1      74.943 -53.382 193.635  1.00  0.00    -0.507 OA
ATOM     25  H   UNL     1      75.887 -53.751 193.645  1.00  0.00     0.293 HD
ENDBRANCH   6  24
BRANCH   8  26
ATOM     26  O   UNL     1      70.422 -55.113 193.549  1.00  0.00    -0.508 OA
ATOM     27  H   UNL     1      70.354 -54.993 192.544  1.00  0.00     0.293 HD
ENDBRANCH   8  26
TORSDOF 6
ENDMDL
MODEL 5
REMARK VINA RESULT:    -5.285      1.922      6.962
REMARK INTER + INTRA:          -6.495
REMARK INTER:                  -6.168
REMARK INTRA:                  -0.327
REMARK UNBOUND:                -0.128
REMARK SMILES O=c1c(O)c(-c2ccc(O)c(O)c2)oc2cc(O)cc(O)c12
REMARK SMILES IDX 5 1 3 2 2 3 1 4 22 5 20 6 19 7 17 8 16 9 15 10 14 11 6 12
REMARK SMILES IDX 7 13 8 14 9 15 13 16 11 17 10 18 12 20 4 22 21 24 18 26
REMARK H PARENT 10 19 12 21 4 23 21 25 18 27
REMARK Flexibility Score: inf
ROOT
ATOM      1  C   UNL     1      75.709 -54.864 198.612  1.00  0.00     0.180 A 
ATOM      2  C   UNL     1      75.020 -53.720 199.061  1.00  0.00     0.208 A 
ATOM      3  C   UNL     1      74.037 -53.866 200.053  1.00  0.00     0.238 A 
ATOM      4  O   UNL     1      73.421 -52.848 200.470  1.00  0.00    -0.285 OA
ATOM      5  C   UNL     1      73.746 -55.148 200.562  1.00  0.00     0.111 A 
ATOM      6  C   UNL     1      72.768 -55.381 201.559  1.00  0.00     0.134 A 
ATOM      7  C   UNL     1      72.530 -56.689 202.007  1.00  0.00     0.093 A 
ATOM      8  C   UNL     1      73.250 -57.766 201.478  1.00  0.00     0.123 A 
ATOM      9  C   UNL     1      74.216 -57.541 200.496  1.00  0.00     0.094 A 
ATOM     10  C   UNL     1      74.469 -56.245 200.037  1.00  0.00     0.146 A 
ATOM     11  O   UNL     1      75.397 -56.059 199.105  1.00  0.00    -0.452 OA
ENDROOT
BRANCH   1  12
ATOM     12  C   UNL     1      76.772 -54.789 197.584  1.00  0.00     0.025 A 
ATOM     13  C   UNL     1      78.098 -54.466 197.924  1.00  0.00     0.016 A 
ATOM     14  C   UNL     1      79.088 -54.426 196.939  1.00  0.00     0.051 A 
ATOM     15  C   UNL     1      78.774 -54.720 195.605  1.00  0.00     0.157 A 
ATOM     16  C   UNL     1      76.466 -55.104 196.250  1.00  0.00     0.062 A 
ATOM     17  C   UNL     1      77.456 -55.062 195.261  1.00  0.00     0.158 A 
BRANCH  15  18
ATOM     18  O   UNL     1      79.764 -54.675 194.625  1.00  0.00    -0.504 OA
ATOM     19  H   UNL     1      79.986 -55.486 194.059  1.00  0.00     0.293 HD
ENDBRANCH  15  18
BRANCH  17  20
ATOM     20  O   UNL     1      77.112 -55.368 193.945  1.00  0.00    -0.504 OA
ATOM     21  H   UNL     1      76.183 -55.680 193.690  1.00  0.00     0.293 HD
ENDBRANCH  17  20
ENDBRANCH   1  12
BRANCH   2  22
ATOM     22  O   UNL     1      75.294 -52.468 198.504  1.00  0.00    -0.502 OA
ATOM     23  H   UNL     1      74.765 -52.093 197.725  1.00  0.00     0.293 HD
ENDBRANCH   2  22
BRANCH   6  24
ATOM     24  O   UNL     1      72.033 -54.328 202.103  1.00  0.00    -0.507 OA
ATOM     25  H   UNL     1      71.307 -54.486 202.793  1.00  0.00     0.293 HD
ENDBRANCH   6  24
BRANCH   8  26
ATOM     26  O   UNL     1      73.014 -59.065 201.922  1.00  0.00    -0.508 OA
ATOM     27  H   UNL     1      73.642 -59.525 202.572  1.00  0.00     0.293 HD
ENDBRANCH   8  26
TORSDOF 6
ENDMDL
MODEL 6
REMARK VINA RESULT:    -5.229      3.057      3.951
REMARK INTER + INTRA:          -6.427
REMARK INTER:                  -6.192
REMARK INTRA:                  -0.235
REMARK UNBOUND:                -0.128
REMARK SMILES O=c1c(O)c(-c2ccc(O)c(O)c2)oc2cc(O)cc(O)c12
REMARK SMILES IDX 5 1 3 2 2 3 1 4 22 5 20 6 19 7 17 8 16 9 15 10 14 11 6 12
REMARK SMILES IDX 7 13 8 14 9 15 13 16 11 17 10 18 12 20 4 22 21 24 18 26
REMARK H PARENT 10 19 12 21 4 23 21 25 18 27
REMARK Flexibility Score: inf
ROOT
ATOM      1  C   UNL     1      72.516 -56.339 198.533  1.00  0.00     0.180 A 
ATOM      2  C   UNL     1      71.497 -57.061 197.882  1.00  0.00     0.208 A 
ATOM      3  C   UNL     1      71.239 -56.797 196.528  1.00  0.00     0.238 A 
ATOM      4  O   UNL     1      70.336 -57.445 195.932  1.00  0.00    -0.285 OA
ATOM      5  C   UNL     1      71.984 -55.806 195.856  1.00  0.00     0.111 A 
ATOM      6  C   UNL     1      71.782 -55.477 194.494  1.00  0.00     0.134 A 
ATOM      7  C   UNL     1      72.559 -54.472 193.899  1.00  0.00     0.093 A 
ATOM      8  C   UNL     1      73.531 -53.790 194.640  1.00  0.00     0.123 A 
ATOM      9  C   UNL     1      73.734 -54.112 195.983  1.00  0.00     0.094 A 
ATOM     10  C   UNL     1      72.971 -55.113 196.593  1.00  0.00     0.146 A 
ATOM     11  O   UNL     1      73.188 -55.402 197.871  1.00  0.00    -0.452 OA
ENDROOT
BRANCH   1  12
ATOM     12  C   UNL     1      72.862 -56.573 199.954  1.00  0.00     0.025 A 
ATOM     13  C   UNL     1      72.002 -56.173 200.992  1.00  0.00     0.016 A 
ATOM     14  C   UNL     1      72.338 -56.427 202.325  1.00  0.00     0.051 A 
ATOM     15  C   UNL     1      73.529 -57.096 202.639  1.00  0.00     0.157 A 
ATOM     16  C   UNL     1      74.043 -57.262 200.273  1.00  0.00     0.062 A 
ATOM     17  C   UNL     1      74.384 -57.516 201.607  1.00  0.00     0.158 A 
BRANCH  15  18
ATOM     18  O   UNL     1      73.863 -57.345 203.969  1.00  0.00    -0.504 OA
ATOM     19  H   UNL     1      73.795 -58.274 204.368  1.00  0.00     0.293 HD
ENDBRANCH  15  18
BRANCH  17  20
ATOM     20  O   UNL     1      75.572 -58.190 201.885  1.00  0.00    -0.504 OA
ATOM     21  H   UNL     1      76.397 -57.710 202.223  1.00  0.00     0.293 HD
ENDBRANCH  17  20
ENDBRANCH   1  12
BRANCH   2  22
ATOM     22  O   UNL     1      70.741 -58.003 198.584  1.00  0.00    -0.502 OA
ATOM     23  H   UNL     1      70.281 -58.781 198.125  1.00  0.00     0.293 HD
ENDBRANCH   2  22
BRANCH   6  24
ATOM     24  O   UNL     1      70.819 -56.138 193.730  1.00  0.00    -0.507 OA
ATOM     25  H   UNL     1      70.947 -56.303 192.738  1.00  0.00     0.293 HD
ENDBRANCH   6  24
BRANCH   8  26
ATOM     26  O   UNL     1      74.302 -52.791 194.051  1.00  0.00    -0.508 OA
ATOM     27  H   UNL     1      74.415 -51.882 194.487  1.00  0.00     0.293 HD
ENDBRANCH   8  26
TORSDOF 6
ENDMDL
MODEL 7
REMARK VINA RESULT:    -5.167      1.575      6.465
REMARK INTER + INTRA:          -6.352
REMARK INTER:                  -6.044
REMARK INTRA:                  -0.308
REMARK UNBOUND:                -0.128
REMARK SMILES O=c1c(O)c(-c2ccc(O)c(O)c2)oc2cc(O)cc(O)c12
REMARK SMILES IDX 5 1 3 2 2 3 1 4 22 5 20 6 19 7 17 8 16 9 15 10 14 11 6 12
REMARK SMILES IDX 7 13 8 14 9 15 13 16 11 17 10 18 12 20 4 22 21 24 18 26
REMARK H PARENT 10 19 12 21 4 23 21 25 18 27
REMARK Flexibility Score: inf
ROOT
ATOM      1  C   UNL     1      76.180 -54.637 197.464  1.00  0.00     0.180 A 
ATOM      2  C   UNL     1      74.948 -54.168 196.969  1.00  0.00     0.208 A 
ATOM      3  C   UNL     1      73.759 -54.665 197.526  1.00  0.00     0.238 A 
ATOM      4  O   UNL     1      72.650 -54.244 197.098  1.00  0.00    -0.285 OA
ATOM      5  C   UNL     1      73.820 -55.633 198.549  1.00  0.00     0.111 A 
ATOM      6  C   UNL     1      72.669 -56.187 199.160  1.00  0.00     0.134 A 
ATOM      7  C   UNL     1      72.814 -57.154 200.165  1.00  0.00     0.093 A 
ATOM      8  C   UNL     1      74.085 -57.577 200.571  1.00  0.00     0.123 A 
ATOM      9  C   UNL     1      75.222 -57.032 199.972  1.00  0.00     0.094 A 
ATOM     10  C   UNL     1      75.100 -56.066 198.969  1.00  0.00     0.146 A 
ATOM     11  O   UNL     1      76.198 -55.562 198.420  1.00  0.00    -0.452 OA
ENDROOT
BRANCH   1  12
ATOM     12  C   UNL     1      77.476 -54.147 196.942  1.00  0.00     0.025 A 
ATOM     13  C   UNL     1      78.010 -52.912 197.351  1.00  0.00     0.016 A 
ATOM     14  C   UNL     1      79.247 -52.482 196.863  1.00  0.00     0.051 A 
ATOM     15  C   UNL     1      79.974 -53.283 195.973  1.00  0.00     0.157 A 
ATOM     16  C   UNL     1      78.219 -54.956 196.066  1.00  0.00     0.062 A 
ATOM     17  C   UNL     1      79.457 -54.527 195.575  1.00  0.00     0.158 A 
BRANCH  15  18
ATOM     18  O   UNL     1      81.206 -52.850 195.486  1.00  0.00    -0.504 OA
ATOM     19  H   UNL     1      81.324 -51.925 195.089  1.00  0.00     0.293 HD
ENDBRANCH  15  18
BRANCH  17  20
ATOM     20  O   UNL     1      80.159 -55.351 194.696  1.00  0.00    -0.504 OA
ATOM     21  H   UNL     1      79.852 -55.508 193.744  1.00  0.00     0.293 HD
ENDBRANCH  17  20
ENDBRANCH   1  12
BRANCH   2  22
ATOM     22  O   UNL     1      74.915 -53.244 195.921  1.00  0.00    -0.502 OA
ATOM     23  H   UNL     1      74.226 -52.502 195.873  1.00  0.00     0.293 HD
ENDBRANCH   2  22
BRANCH   6  24
ATOM     24  O   UNL     1      71.389 -55.787 198.775  1.00  0.00    -0.507 OA
ATOM     25  H   UNL     1      70.590 -55.900 199.388  1.00  0.00     0.293 HD
ENDBRANCH   6  24
BRANCH   8  26
ATOM     26  O   UNL     1      74.229 -58.538 201.569  1.00  0.00    -0.508 OA
ATOM     27  H   UNL     1      74.982 -59.217 201.546  1.00  0.00     0.293 HD
ENDBRANCH   8  26
TORSDOF 6
ENDMDL
MODEL 8
REMARK VINA RESULT:    -5.134      2.989      5.123
REMARK INTER + INTRA:          -6.313
REMARK INTER:                  -5.996
REMARK INTRA:                  -0.316
REMARK UNBOUND:                -0.128
REMARK SMILES O=c1c(O)c(-c2ccc(O)c(O)c2)oc2cc(O)cc(O)c12
REMARK SMILES IDX 5 1 3 2 2 3 1 4 22 5 20 6 19 7 17 8 16 9 15 10 14 11 6 12
REMARK SMILES IDX 7 13 8 14 9 15 13 16 11 17 10 18 12 20 4 22 21 24 18 26
REMARK H PARENT 10 19 12 21 4 23 21 25 18 27
REMARK Flexibility Score: inf
ROOT
ATOM      1  C   UNL     1      74.119 -55.007 195.492  1.00  0.00     0.180 A 
ATOM      2  C   UNL     1      74.802 -55.256 196.698  1.00  0.00     0.208 A 
ATOM      3  C   UNL     1      76.178 -54.991 196.765  1.00  0.00     0.238 A 
ATOM      4  O   UNL     1      76.798 -55.201 197.843  1.00  0.00    -0.285 OA
ATOM      5  C   UNL     1      76.851 -54.503 195.626  1.00  0.00     0.111 A 
ATOM      6  C   UNL     1      78.237 -54.215 195.610  1.00  0.00     0.134 A 
ATOM      7  C   UNL     1      78.834 -53.741 194.433  1.00  0.00     0.093 A 
ATOM      8  C   UNL     1      78.073 -53.550 193.273  1.00  0.00     0.123 A 
ATOM      9  C   UNL     1      76.707 -53.832 193.285  1.00  0.00     0.094 A 
ATOM     10  C   UNL     1      76.092 -54.304 194.449  1.00  0.00     0.146 A 
ATOM     11  O   UNL     1      74.789 -54.560 194.434  1.00  0.00    -0.452 OA
ENDROOT
BRANCH   1  12
ATOM     12  C   UNL     1      72.664 -55.242 195.348  1.00  0.00     0.025 A 
ATOM     13  C   UNL     1      71.722 -54.303 195.804  1.00  0.00     0.016 A 
ATOM     14  C   UNL     1      70.354 -54.537 195.635  1.00  0.00     0.051 A 
ATOM     15  C   UNL     1      69.908 -55.702 194.997  1.00  0.00     0.157 A 
ATOM     16  C   UNL     1      72.212 -56.398 194.690  1.00  0.00     0.062 A 
ATOM     17  C   UNL     1      70.843 -56.636 194.520  1.00  0.00     0.158 A 
BRANCH  15  18
ATOM     18  O   UNL     1      68.544 -55.933 194.833  1.00  0.00    -0.504 OA
ATOM     19  H   UNL     1      67.946 -55.266 194.359  1.00  0.00     0.293 HD
ENDBRANCH  15  18
BRANCH  17  20
ATOM     20  O   UNL     1      70.433 -57.801 193.874  1.00  0.00    -0.504 OA
ATOM     21  H   UNL     1      71.050 -58.593 193.750  1.00  0.00     0.293 HD
ENDBRANCH  17  20
ENDBRANCH   1  12
BRANCH   2  22
ATOM     22  O   UNL     1      74.121 -55.786 197.797  1.00  0.00    -0.502 OA
ATOM     23  H   UNL     1      73.318 -56.397 197.695  1.00  0.00     0.293 HD
ENDBRANCH   2  22
BRANCH   6  24
ATOM     24  O   UNL     1      79.021 -54.397 196.749  1.00  0.00    -0.507 OA
ATOM     25  H   UNL     1      80.015 -54.589 196.686  1.00  0.00     0.293 HD
ENDBRANCH   6  24
BRANCH   8  26
ATOM     26  O   UNL     1      78.666 -53.080 192.104  1.00  0.00    -0.508 OA
ATOM     27  H   UNL     1      78.215 -53.186 191.201  1.00  0.00     0.293 HD
ENDBRANCH   8  26
TORSDOF 6
ENDMDL
MODEL 9
REMARK VINA RESULT:    -5.126      4.178      7.288
REMARK INTER + INTRA:          -6.303
REMARK INTER:                  -6.135
REMARK INTRA:                  -0.168
REMARK UNBOUND:                -0.128
REMARK SMILES O=c1c(O)c(-c2ccc(O)c(O)c2)oc2cc(O)cc(O)c12
REMARK SMILES IDX 5 1 3 2 2 3 1 4 22 5 20 6 19 7 17 8 16 9 15 10 14 11 6 12
REMARK SMILES IDX 7 13 8 14 9 15 13 16 11 17 10 18 12 20 4 22 21 24 18 26
REMARK H PARENT 10 19 12 21 4 23 21 25 18 27
REMARK Flexibility Score: inf
ROOT
ATOM      1  C   UNL     1      74.245 -54.291 194.681  1.00  0.00     0.180 A 
ATOM      2  C   UNL     1      73.536 -53.082 194.543  1.00  0.00     0.208 A 
ATOM      3  C   UNL     1      72.133 -53.116 194.534  1.00  0.00     0.238 A 
ATOM      4  O   UNL     1      71.487 -52.039 194.422  1.00  0.00    -0.285 OA
ATOM      5  C   UNL     1      71.465 -54.353 194.642  1.00  0.00     0.111 A 
ATOM      6  C   UNL     1      70.054 -54.474 194.637  1.00  0.00     0.134 A 
ATOM      7  C   UNL     1      69.465 -55.743 194.739  1.00  0.00     0.093 A 
ATOM      8  C   UNL     1      70.258 -56.891 194.845  1.00  0.00     0.123 A 
ATOM      9  C   UNL     1      71.649 -56.776 194.851  1.00  0.00     0.094 A 
ATOM     10  C   UNL     1      72.256 -55.520 194.752  1.00  0.00     0.146 A 
ATOM     11  O   UNL     1      73.581 -55.440 194.766  1.00  0.00    -0.452 OA
ENDROOT
BRANCH   1  12
ATOM     12  C   UNL     1      75.725 -54.335 194.719  1.00  0.00     0.025 A 
ATOM     13  C   UNL     1      76.415 -54.769 195.865  1.00  0.00     0.016 A 
ATOM     14  C   UNL     1      77.811 -54.825 195.868  1.00  0.00     0.051 A 
ATOM     15  C   UNL     1      78.537 -54.463 194.725  1.00  0.00     0.157 A 
ATOM     16  C   UNL     1      76.456 -53.994 193.569  1.00  0.00     0.062 A 
ATOM     17  C   UNL     1      77.855 -54.048 193.570  1.00  0.00     0.158 A 
BRANCH  15  18
ATOM     18  O   UNL     1      79.930 -54.518 194.733  1.00  0.00    -0.504 OA
ATOM     19  H   UNL     1      80.426 -55.383 194.912  1.00  0.00     0.293 HD
ENDBRANCH  15  18
BRANCH  17  20
ATOM     20  O   UNL     1      78.547 -53.689 192.414  1.00  0.00    -0.504 OA
ATOM     21  H   UNL     1      79.531 -53.450 192.429  1.00  0.00     0.293 HD
ENDBRANCH  17  20
ENDBRANCH   1  12
BRANCH   2  22
ATOM     22  O   UNL     1      74.223 -51.875 194.389  1.00  0.00    -0.502 OA
ATOM     23  H   UNL     1      75.148 -51.724 194.775  1.00  0.00     0.293 HD
ENDBRANCH   2  22
BRANCH   6  24
ATOM     24  O   UNL     1      69.237 -53.348 194.530  1.00  0.00    -0.507 OA
ATOM     25  H   UNL     1      68.496 -53.291 193.841  1.00  0.00     0.293 HD
ENDBRANCH   6  24
BRANCH   8  26
ATOM     26  O   UNL     1      69.674 -58.152 194.945  1.00  0.00    -0.508 OA
ATOM     27  H   UNL     1      68.771 -58.283 195.388  1.00  0.00     0.293 HD
ENDBRANCH   8  26
TORSDOF 6
ENDMDL
