MODEL 1
REMARK VINA RESULT:    -4.769      0.000      0.000
REMARK INTER + INTRA:          -5.248
REMARK INTER:                  -5.187
REMARK INTRA:                  -0.061
REMARK UNBOUND:                -0.061
REMARK SMILES COc1cc2ccc(=O)oc2cc1O
REMARK SMILES IDX 3 1 13 2 12 3 11 4 5 5 4 6 6 7 7 8 8 9 9 10 10 11 2 12 1 13
REMARK SMILES IDX 14 14
REMARK H PARENT 14 15
REMARK Flexibility Score: inf
ROOT
ATOM      1  C   UNL     1      15.749 129.044  66.036  1.00  0.00     0.161 A 
ATOM      2  C   UNL     1      16.313 128.135  65.119  1.00  0.00     0.161 A 
ATOM      3  C   UNL     1      17.404 128.515  64.331  1.00  0.00     0.098 A 
ATOM      4  C   UNL     1      17.946 129.797  64.444  1.00  0.00     0.142 A 
ATOM      5  C   UNL     1      17.389 130.715  65.358  1.00  0.00     0.022 A 
ATOM      6  C   UNL     1      16.295 130.339  66.149  1.00  0.00     0.062 A 
ATOM      7  C   UNL     1      17.952 131.992  65.447  1.00  0.00     0.019 A 
ATOM      8  C   UNL     1      19.040 132.320  64.638  1.00  0.00     0.094 A 
ATOM      9  C   UNL     1      19.540 131.357  63.754  1.00  0.00     0.336 A 
ATOM     10  O   UNL     1      20.521 131.633  63.014  1.00  0.00    -0.246 OA
ATOM     11  O   UNL     1      18.985 130.150  63.689  1.00  0.00    -0.423 OA
ENDROOT
BRANCH   1  12
ATOM     12  O   UNL     1      14.654 128.630  66.812  1.00  0.00    -0.493 OA
ATOM     13  C   UNL     1      14.754 128.078  68.121  1.00  0.00     0.278 C 
ENDBRANCH   1  12
BRANCH   2  14
ATOM     14  O   UNL     1      15.800 126.845  64.979  1.00  0.00    -0.504 OA
ATOM     15  H   UNL     1      14.953 126.654  64.458  1.00  0.00     0.293 HD
ENDBRANCH   2  14
TORSDOF 2
ENDMDL
MODEL 2
REMARK VINA RESULT:    -4.633      2.038      4.296
REMARK INTER + INTRA:          -5.100
REMARK INTER:                  -5.055
REMARK INTRA:                  -0.045
REMARK UNBOUND:                -0.061
REMARK SMILES COc1cc2ccc(=O)oc2cc1O
REMARK SMILES IDX 3 1 13 2 12 3 11 4 5 5 4 6 6 7 7 8 8 9 9 10 10 11 2 12 1 13
REMARK SMILES IDX 14 14
REMARK H PARENT 14 15
REMARK Flexibility Score: inf
ROOT
ATOM      1  C   UNL     1      19.273 128.683  63.987  1.00  0.00     0.161 A 
ATOM      2  C   UNL     1      18.059 127.977  63.876  1.00  0.00     0.161 A 
ATOM      3  C   UNL     1      16.905 128.457  64.505  1.00  0.00     0.098 A 
ATOM      4  C   UNL     1      16.943 129.638  65.249  1.00  0.00     0.142 A 
ATOM      5  C   UNL     1      18.154 130.352  65.367  1.00  0.00     0.022 A 
ATOM      6  C   UNL     1      19.312 129.875  64.739  1.00  0.00     0.062 A 
ATOM      7  C   UNL     1      18.162 131.531  66.120  1.00  0.00     0.019 A 
ATOM      8  C   UNL     1      16.983 131.965  66.726  1.00  0.00     0.094 A 
ATOM      9  C   UNL     1      15.820 131.204  66.566  1.00  0.00     0.336 A 
ATOM     10  O   UNL     1      14.745 131.578  67.105  1.00  0.00    -0.246 OA
ATOM     11  O   UNL     1      15.840 130.086  65.844  1.00  0.00    -0.423 OA
ENDROOT
BRANCH   1  12
ATOM     12  O   UNL     1      20.412 128.173  63.343  1.00  0.00    -0.493 OA
ATOM     13  C   UNL     1      21.509 128.964  62.896  1.00  0.00     0.278 C 
ENDBRANCH   1  12
BRANCH   2  14
ATOM     14  O   UNL     1      17.980 126.794  63.141  1.00  0.00    -0.504 OA
ATOM     15  H   UNL     1      18.041 126.780  62.130  1.00  0.00     0.293 HD
ENDBRANCH   2  14
TORSDOF 2
ENDMDL
MODEL 3
REMARK VINA RESULT:    -4.379      2.420      3.713
REMARK INTER + INTRA:          -4.824
REMARK INTER:                  -4.779
REMARK INTRA:                  -0.045
REMARK UNBOUND:                -0.061
REMARK SMILES COc1cc2ccc(=O)oc2cc1O
REMARK SMILES IDX 3 1 13 2 12 3 11 4 5 5 4 6 6 7 7 8 8 9 9 10 10 11 2 12 1 13
REMARK SMILES IDX 14 14
REMARK H PARENT 14 15
REMARK Flexibility Score: inf
ROOT
ATOM      1  C   UNL     1      18.651 129.141  64.333  1.00  0.00     0.161 A 
ATOM      2  C   UNL     1      17.268 128.963  64.535  1.00  0.00     0.161 A 
ATOM      3  C   UNL     1      16.414 130.070  64.575  1.00  0.00     0.098 A 
ATOM      4  C   UNL     1      16.920 131.362  64.415  1.00  0.00     0.142 A 
ATOM      5  C   UNL     1      18.303 131.551  64.212  1.00  0.00     0.022 A 
ATOM      6  C   UNL     1      19.163 130.446  64.173  1.00  0.00     0.062 A 
ATOM      7  C   UNL     1      18.781 132.856  64.057  1.00  0.00     0.019 A 
ATOM      8  C   UNL     1      17.885 133.925  64.104  1.00  0.00     0.094 A 
ATOM      9  C   UNL     1      16.527 133.660  64.309  1.00  0.00     0.336 A 
ATOM     10  O   UNL     1      15.702 134.610  64.356  1.00  0.00    -0.246 OA
ATOM     11  O   UNL     1      16.099 132.409  64.454  1.00  0.00    -0.423 OA
ENDROOT
BRANCH   1  12
ATOM     12  O   UNL     1      19.480 128.009  64.299  1.00  0.00    -0.493 OA
ATOM     13  C   UNL     1      20.724 127.939  63.608  1.00  0.00     0.278 C 
ENDBRANCH   1  12
BRANCH   2  14
ATOM     14  O   UNL     1      16.724 127.690  64.698  1.00  0.00    -0.504 OA
ATOM     15  H   UNL     1      16.487 127.098  63.911  1.00  0.00     0.293 HD
ENDBRANCH   2  14
TORSDOF 2
ENDMDL
MODEL 4
REMARK VINA RESULT:    -4.371      7.322      9.265
REMARK INTER + INTRA:          -4.815
REMARK INTER:                  -4.771
REMARK INTRA:                  -0.044
REMARK UNBOUND:                -0.061
REMARK SMILES COc1cc2ccc(=O)oc2cc1O
REMARK SMILES IDX 3 1 13 2 12 3 11 4 5 5 4 6 6 7 7 8 8 9 9 10 10 11 2 12 1 13
REMARK SMILES IDX 14 14
REMARK H PARENT 14 15
REMARK Flexibility Score: inf
ROOT
ATOM      1  C   UNL     1      16.963 131.533  55.543  1.00  0.00     0.161 A 
ATOM      2  C   UNL     1      18.128 132.051  56.145  1.00  0.00     0.161 A 
ATOM      3  C   UNL     1      18.153 132.313  57.519  1.00  0.00     0.098 A 
ATOM      4  C   UNL     1      17.029 132.064  58.308  1.00  0.00     0.142 A 
ATOM      5  C   UNL     1      15.858 131.545  57.716  1.00  0.00     0.022 A 
ATOM      6  C   UNL     1      15.827 131.283  56.340  1.00  0.00     0.062 A 
ATOM      7  C   UNL     1      14.748 131.308  58.532  1.00  0.00     0.019 A 
ATOM      8  C   UNL     1      14.827 131.585  59.896  1.00  0.00     0.094 A 
ATOM      9  C   UNL     1      16.022 132.099  60.414  1.00  0.00     0.336 A 
ATOM     10  O   UNL     1      16.114 132.357  61.642  1.00  0.00    -0.246 OA
ATOM     11  O   UNL     1      17.063 132.316  59.615  1.00  0.00    -0.423 OA
ENDROOT
BRANCH   1  12
ATOM     12  O   UNL     1      16.971 131.283  54.161  1.00  0.00    -0.493 OA
ATOM     13  C   UNL     1      16.631 132.241  53.165  1.00  0.00     0.278 C 
ENDBRANCH   1  12
BRANCH   2  14
ATOM     14  O   UNL     1      19.271 132.312  55.390  1.00  0.00    -0.504 OA
ATOM     15  H   UNL     1      19.476 131.818  54.530  1.00  0.00     0.293 HD
ENDBRANCH   2  14
TORSDOF 2
ENDMDL
MODEL 5
REMARK VINA RESULT:    -4.340      2.612      4.147
REMARK INTER + INTRA:          -4.782
REMARK INTER:                  -4.737
REMARK INTRA:                  -0.045
REMARK UNBOUND:                -0.061
REMARK SMILES COc1cc2ccc(=O)oc2cc1O
REMARK SMILES IDX 3 1 13 2 12 3 11 4 5 5 4 6 6 7 7 8 8 9 9 10 10 11 2 12 1 13
REMARK SMILES IDX 14 14
REMARK H PARENT 14 15
REMARK Flexibility Score: inf
ROOT
ATOM      1  C   UNL     1      16.566 132.396  64.516  1.00  0.00     0.161 A 
ATOM      2  C   UNL     1      17.835 132.933  64.220  1.00  0.00     0.161 A 
ATOM      3  C   UNL     1      18.921 132.084  63.984  1.00  0.00     0.098 A 
ATOM      4  C   UNL     1      18.762 130.698  64.038  1.00  0.00     0.142 A 
ATOM      5  C   UNL     1      17.496 130.150  64.333  1.00  0.00     0.022 A 
ATOM      6  C   UNL     1      16.405 130.995  64.571  1.00  0.00     0.062 A 
ATOM      7  C   UNL     1      17.367 128.758  64.381  1.00  0.00     0.019 A 
ATOM      8  C   UNL     1      18.483 127.957  64.136  1.00  0.00     0.094 A 
ATOM      9  C   UNL     1      19.707 128.572  63.850  1.00  0.00     0.336 A 
ATOM     10  O   UNL     1      20.727 127.868  63.628  1.00  0.00    -0.246 OA
ATOM     11  O   UNL     1      19.802 129.898  63.811  1.00  0.00    -0.423 OA
ENDROOT
BRANCH   1  12
ATOM     12  O   UNL     1      15.497 133.276  64.748  1.00  0.00    -0.493 OA
ATOM     13  C   UNL     1      14.123 132.942  64.572  1.00  0.00     0.278 C 
ENDBRANCH   1  12
BRANCH   2  14
ATOM     14  O   UNL     1      18.034 134.312  64.157  1.00  0.00    -0.504 OA
ATOM     15  H   UNL     1      18.936 134.719  63.943  1.00  0.00     0.293 HD
ENDBRANCH   2  14
TORSDOF 2
ENDMDL
MODEL 6
REMARK VINA RESULT:    -4.315      1.268      5.455
REMARK INTER + INTRA:          -4.754
REMARK INTER:                  -4.708
REMARK INTRA:                  -0.046
REMARK UNBOUND:                -0.061
REMARK SMILES COc1cc2ccc(=O)oc2cc1O
REMARK SMILES IDX 3 1 13 2 12 3 11 4 5 5 4 6 6 7 7 8 8 9 9 10 10 11 2 12 1 13
REMARK SMILES IDX 14 14
REMARK H PARENT 14 15
REMARK Flexibility Score: inf
ROOT
ATOM      1  C   UNL     1      19.303 131.475  63.774  1.00  0.00     0.161 A 
ATOM      2  C   UNL     1      18.641 132.302  64.703  1.00  0.00     0.161 A 
ATOM      3  C   UNL     1      17.600 131.790  65.485  1.00  0.00     0.098 A 
ATOM      4  C   UNL     1      17.206 130.457  65.354  1.00  0.00     0.142 A 
ATOM      5  C   UNL     1      17.861 129.621  64.427  1.00  0.00     0.022 A 
ATOM      6  C   UNL     1      18.904 130.129  63.641  1.00  0.00     0.062 A 
ATOM      7  C   UNL     1      17.443 128.290  64.317  1.00  0.00     0.019 A 
ATOM      8  C   UNL     1      16.401 127.831  65.122  1.00  0.00     0.094 A 
ATOM      9  C   UNL     1      15.797 128.718  66.019  1.00  0.00     0.336 A 
ATOM     10  O   UNL     1      14.854 128.324  66.754  1.00  0.00    -0.246 OA
ATOM     11  O   UNL     1      16.214 129.978  66.103  1.00  0.00    -0.423 OA
ENDROOT
BRANCH   1  12
ATOM     12  O   UNL     1      20.343 132.021  63.005  1.00  0.00    -0.493 OA
ATOM     13  C   UNL     1      21.453 131.281  62.507  1.00  0.00     0.278 C 
ENDBRANCH   1  12
BRANCH   2  14
ATOM     14  O   UNL     1      19.006 133.638  64.864  1.00  0.00    -0.504 OA
ATOM     15  H   UNL     1      19.542 133.960  65.661  1.00  0.00     0.293 HD
ENDBRANCH   2  14
TORSDOF 2
ENDMDL
MODEL 7
REMARK VINA RESULT:    -4.286      6.210      8.890
REMARK INTER + INTRA:          -4.723
REMARK INTER:                  -4.659
REMARK INTRA:                  -0.064
REMARK UNBOUND:                -0.061
REMARK SMILES COc1cc2ccc(=O)oc2cc1O
REMARK SMILES IDX 3 1 13 2 12 3 11 4 5 5 4 6 6 7 7 8 8 9 9 10 10 11 2 12 1 13
REMARK SMILES IDX 14 14
REMARK H PARENT 14 15
REMARK Flexibility Score: inf
ROOT
ATOM      1  C   UNL     1      19.593 133.378  57.337  1.00  0.00     0.161 A 
ATOM      2  C   UNL     1      18.767 132.570  56.530  1.00  0.00     0.161 A 
ATOM      3  C   UNL     1      17.620 131.976  57.069  1.00  0.00     0.098 A 
ATOM      4  C   UNL     1      17.281 132.178  58.408  1.00  0.00     0.142 A 
ATOM      5  C   UNL     1      18.101 132.985  59.224  1.00  0.00     0.022 A 
ATOM      6  C   UNL     1      19.251 133.580  58.690  1.00  0.00     0.062 A 
ATOM      7  C   UNL     1      17.737 133.167  60.562  1.00  0.00     0.019 A 
ATOM      8  C   UNL     1      16.582 132.553  61.048  1.00  0.00     0.094 A 
ATOM      9  C   UNL     1      15.818 131.766  60.180  1.00  0.00     0.336 A 
ATOM     10  O   UNL     1      14.773 131.202  60.599  1.00  0.00    -0.246 OA
ATOM     11  O   UNL     1      16.187 131.609  58.912  1.00  0.00    -0.423 OA
ENDROOT
BRANCH   1  12
ATOM     12  O   UNL     1      20.736 133.958  56.765  1.00  0.00    -0.493 OA
ATOM     13  C   UNL     1      20.869 135.340  56.450  1.00  0.00     0.278 C 
ENDBRANCH   1  12
BRANCH   2  14
ATOM     14  O   UNL     1      19.071 132.346  55.188  1.00  0.00    -0.504 OA
ATOM     15  H   UNL     1      19.176 133.103  54.523  1.00  0.00     0.293 HD
ENDBRANCH   2  14
TORSDOF 2
ENDMDL
MODEL 8
REMARK VINA RESULT:    -4.256      9.783     11.279
REMARK INTER + INTRA:          -4.690
REMARK INTER:                  -4.645
REMARK INTRA:                  -0.045
REMARK UNBOUND:                -0.061
REMARK SMILES COc1cc2ccc(=O)oc2cc1O
REMARK SMILES IDX 3 1 13 2 12 3 11 4 5 5 4 6 6 7 7 8 8 9 9 10 10 11 2 12 1 13
REMARK SMILES IDX 14 14
REMARK H PARENT 14 15
REMARK Flexibility Score: inf
ROOT
ATOM      1  C   UNL     1      17.699 132.246  56.473  1.00  0.00     0.161 A 
ATOM      2  C   UNL     1      16.954 131.130  56.043  1.00  0.00     0.161 A 
ATOM      3  C   UNL     1      16.588 131.003  54.699  1.00  0.00     0.098 A 
ATOM      4  C   UNL     1      16.954 131.980  53.770  1.00  0.00     0.142 A 
ATOM      5  C   UNL     1      17.699 133.101  54.190  1.00  0.00     0.022 A 
ATOM      6  C   UNL     1      18.068 133.233  55.535  1.00  0.00     0.062 A 
ATOM      7  C   UNL     1      18.051 134.063  53.237  1.00  0.00     0.019 A 
ATOM      8  C   UNL     1      17.660 133.887  51.910  1.00  0.00     0.094 A 
ATOM      9  C   UNL     1      16.922 132.749  51.566  1.00  0.00     0.336 A 
ATOM     10  O   UNL     1      16.558 132.572  50.374  1.00  0.00    -0.246 OA
ATOM     11  O   UNL     1      16.601 131.850  52.493  1.00  0.00    -0.423 OA
ENDROOT
BRANCH   1  12
ATOM     12  O   UNL     1      18.050 132.342  57.829  1.00  0.00    -0.493 OA
ATOM     13  C   UNL     1      19.151 133.096  58.327  1.00  0.00     0.278 C 
ENDBRANCH   1  12
BRANCH   2  14
ATOM     14  O   UNL     1      16.570 130.134  56.940  1.00  0.00    -0.504 OA
ATOM     15  H   UNL     1      15.813 130.263  57.599  1.00  0.00     0.293 HD
ENDBRANCH   2  14
TORSDOF 2
ENDMDL
MODEL 9
REMARK VINA RESULT:    -4.232      7.795      9.848
REMARK INTER + INTRA:          -4.664
REMARK INTER:                  -4.610
REMARK INTRA:                  -0.054
REMARK UNBOUND:                -0.061
REMARK SMILES COc1cc2ccc(=O)oc2cc1O
REMARK SMILES IDX 3 1 13 2 12 3 11 4 5 5 4 6 6 7 7 8 8 9 9 10 10 11 2 12 1 13
REMARK SMILES IDX 14 14
REMARK H PARENT 14 15
REMARK Flexibility Score: inf
ROOT
ATOM      1  C   UNL     1      18.609 133.032  58.399  1.00  0.00     0.161 A 
ATOM      2  C   UNL     1      19.206 133.943  57.504  1.00  0.00     0.161 A 
ATOM      3  C   UNL     1      18.927 133.869  56.135  1.00  0.00     0.098 A 
ATOM      4  C   UNL     1      18.057 132.895  55.641  1.00  0.00     0.142 A 
ATOM      5  C   UNL     1      17.455 131.979  56.528  1.00  0.00     0.022 A 
ATOM      6  C   UNL     1      17.731 132.048  57.900  1.00  0.00     0.062 A 
ATOM      7  C   UNL     1      16.589 131.014  56.004  1.00  0.00     0.019 A 
ATOM      8  C   UNL     1      16.345 130.986  54.630  1.00  0.00     0.094 A 
ATOM      9  C   UNL     1      16.978 131.927  53.811  1.00  0.00     0.336 A 
ATOM     10  O   UNL     1      16.773 131.918  52.569  1.00  0.00    -0.246 OA
ATOM     11  O   UNL     1      17.798 132.834  54.337  1.00  0.00    -0.423 OA
ENDROOT
BRANCH   1  12
ATOM     12  O   UNL     1      18.911 133.133  59.767  1.00  0.00    -0.493 OA
ATOM     13  C   UNL     1      17.939 133.233  60.803  1.00  0.00     0.278 C 
ENDBRANCH   1  12
BRANCH   2  14
ATOM     14  O   UNL     1      20.079 134.930  57.959  1.00  0.00    -0.504 OA
ATOM     15  H   UNL     1      19.751 135.816  58.324  1.00  0.00     0.293 HD
ENDBRANCH   2  14
TORSDOF 2
ENDMDL
