MODEL 1
REMARK VINA RESULT:    -3.740      0.000      0.000
REMARK INTER + INTRA:          -4.455
REMARK INTER:                  -4.396
REMARK INTRA:                  -0.058
REMARK UNBOUND:                -0.058
REMARK SMILES CCCCC(=O)[O-]
REMARK SMILES IDX 4 1 5 2 6 3 7 4 3 5 2 6 1 7
REMARK H PARENT
REMARK Flexibility Score: inf
ROOT
ATOM      1  C   UNL     1     -13.351  60.002  38.772  1.00  0.00     0.053 C 
ENDROOT
BRANCH   1   2
ATOM      2  C   UNL     1     -12.647  60.185  40.079  1.00  0.00     0.041 C 
ATOM      3  O   UNL     1     -11.464  60.616  40.106  1.00  0.00    -0.550 OA
ATOM      4  O   UNL     1     -13.312  59.926  41.270  1.00  0.00    -0.550 OA
ENDBRANCH   1   2
BRANCH   1   5
ATOM      5  C   UNL     1     -14.571  60.924  38.686  1.00  0.00     0.006 C 
BRANCH   5   6
ATOM      6  C   UNL     1     -15.871  60.115  38.645  1.00  0.00    -0.003 C 
ATOM      7  C   UNL     1     -16.991  60.832  39.393  1.00  0.00     0.004 C 
ENDBRANCH   5   6
ENDBRANCH   1   5
TORSDOF 3
ENDMDL
MODEL 2
REMARK VINA RESULT:    -3.706      2.516      3.658
REMARK INTER + INTRA:          -4.414
REMARK INTER:                  -4.326
REMARK INTRA:                  -0.088
REMARK UNBOUND:                -0.058
REMARK SMILES CCCCC(=O)[O-]
REMARK SMILES IDX 4 1 5 2 6 3 7 4 3 5 2 6 1 7
REMARK H PARENT
REMARK Flexibility Score: inf
ROOT
ATOM      1  C   UNL     1     -14.895  60.476  39.069  1.00  0.00     0.053 C 
ENDROOT
BRANCH   1   2
ATOM      2  C   UNL     1     -15.260  61.816  38.516  1.00  0.00     0.041 C 
ATOM      3  O   UNL     1     -16.334  61.966  37.875  1.00  0.00    -0.550 OA
ATOM      4  O   UNL     1     -14.439  62.912  38.748  1.00  0.00    -0.550 OA
ENDBRANCH   1   2
BRANCH   1   5
ATOM      5  C   UNL     1     -13.491  60.069  38.610  1.00  0.00     0.006 C 
BRANCH   5   6
ATOM      6  C   UNL     1     -12.628  59.636  39.799  1.00  0.00    -0.003 C 
ATOM      7  C   UNL     1     -13.166  60.207  41.108  1.00  0.00     0.004 C 
ENDBRANCH   5   6
ENDBRANCH   1   5
TORSDOF 3
ENDMDL
MODEL 3
REMARK VINA RESULT:    -3.696     15.709     16.786
REMARK INTER + INTRA:          -4.403
REMARK INTER:                  -4.363
REMARK INTRA:                  -0.040
REMARK UNBOUND:                -0.058
REMARK SMILES CCCCC(=O)[O-]
REMARK SMILES IDX 4 1 5 2 6 3 7 4 3 5 2 6 1 7
REMARK H PARENT
REMARK Flexibility Score: inf
ROOT
ATOM      1  C   UNL     1      -7.781  62.413  54.499  1.00  0.00     0.053 C 
ENDROOT
BRANCH   1   2
ATOM      2  C   UNL     1      -7.374  63.348  53.405  1.00  0.00     0.041 C 
ATOM      3  O   UNL     1      -8.065  64.370  53.156  1.00  0.00    -0.550 OA
ATOM      4  O   UNL     1      -6.205  63.118  52.692  1.00  0.00    -0.550 OA
ENDBRANCH   1   2
BRANCH   1   5
ATOM      5  C   UNL     1      -6.964  61.119  54.431  1.00  0.00     0.006 C 
BRANCH   5   6
ATOM      6  C   UNL     1      -6.314  60.807  55.783  1.00  0.00    -0.003 C 
ATOM      7  C   UNL     1      -6.276  59.303  56.042  1.00  0.00     0.004 C 
ENDBRANCH   5   6
ENDBRANCH   1   5
TORSDOF 3
ENDMDL
MODEL 4
REMARK VINA RESULT:    -3.686      1.496      1.966
REMARK INTER + INTRA:          -4.391
REMARK INTER:                  -4.283
REMARK INTRA:                  -0.108
REMARK UNBOUND:                -0.058
REMARK SMILES CCCCC(=O)[O-]
REMARK SMILES IDX 4 1 5 2 6 3 7 4 3 5 2 6 1 7
REMARK H PARENT
REMARK Flexibility Score: inf
ROOT
ATOM      1  C   UNL     1     -12.708  60.005  39.983  1.00  0.00     0.053 C 
ENDROOT
BRANCH   1   2
ATOM      2  C   UNL     1     -11.650  61.061  40.023  1.00  0.00     0.041 C 
ATOM      3  O   UNL     1     -10.877  61.147  41.014  1.00  0.00    -0.550 OA
ATOM      4  O   UNL     1     -11.484  61.921  38.945  1.00  0.00    -0.550 OA
ENDBRANCH   1   2
BRANCH   1   5
ATOM      5  C   UNL     1     -13.389  59.978  38.611  1.00  0.00     0.006 C 
BRANCH   5   6
ATOM      6  C   UNL     1     -14.858  60.402  38.718  1.00  0.00    -0.003 C 
ATOM      7  C   UNL     1     -15.009  61.911  38.544  1.00  0.00     0.004 C 
ENDBRANCH   5   6
ENDBRANCH   1   5
TORSDOF 3
ENDMDL
MODEL 5
REMARK VINA RESULT:    -3.684     16.348     17.551
REMARK INTER + INTRA:          -4.389
REMARK INTER:                  -4.334
REMARK INTRA:                  -0.055
REMARK UNBOUND:                -0.058
REMARK SMILES CCCCC(=O)[O-]
REMARK SMILES IDX 4 1 5 2 6 3 7 4 3 5 2 6 1 7
REMARK H PARENT
REMARK Flexibility Score: inf
ROOT
ATOM      1  C   UNL     1      -6.238  60.972  55.648  1.00  0.00     0.053 C 
ENDROOT
BRANCH   1   2
ATOM      2  C   UNL     1      -5.894  59.648  56.252  1.00  0.00     0.041 C 
ATOM      3  O   UNL     1      -6.664  58.663  56.102  1.00  0.00    -0.550 OA
ATOM      4  O   UNL     1      -4.699  59.487  56.941  1.00  0.00    -0.550 OA
ENDBRANCH   1   2
BRANCH   1   5
ATOM      5  C   UNL     1      -6.405  60.842  54.131  1.00  0.00     0.006 C 
BRANCH   5   6
ATOM      6  C   UNL     1      -7.713  61.491  53.664  1.00  0.00    -0.003 C 
ATOM      7  C   UNL     1      -7.975  62.798  54.407  1.00  0.00     0.004 C 
ENDBRANCH   5   6
ENDBRANCH   1   5
TORSDOF 3
ENDMDL
MODEL 6
REMARK VINA RESULT:    -3.614     16.849     17.847
REMARK INTER + INTRA:          -4.307
REMARK INTER:                  -4.261
REMARK INTRA:                  -0.045
REMARK UNBOUND:                -0.058
REMARK SMILES CCCCC(=O)[O-]
REMARK SMILES IDX 4 1 5 2 6 3 7 4 3 5 2 6 1 7
REMARK H PARENT
REMARK Flexibility Score: inf
ROOT
ATOM      1  C   UNL     1     -12.261  49.933  53.970  1.00  0.00     0.053 C 
ENDROOT
BRANCH   1   2
ATOM      2  C   UNL     1     -13.384  49.838  52.987  1.00  0.00     0.041 C 
ATOM      3  O   UNL     1     -13.239  50.279  51.816  1.00  0.00    -0.550 OA
ATOM      4  O   UNL     1     -14.574  49.220  53.347  1.00  0.00    -0.550 OA
ENDBRANCH   1   2
BRANCH   1   5
ATOM      5  C   UNL     1     -11.294  51.053  53.575  1.00  0.00     0.006 C 
BRANCH   5   6
ATOM      6  C   UNL     1      -9.961  50.916  54.320  1.00  0.00    -0.003 C 
ATOM      7  C   UNL     1      -9.709  49.470  54.737  1.00  0.00     0.004 C 
ENDBRANCH   5   6
ENDBRANCH   1   5
TORSDOF 3
ENDMDL
MODEL 7
REMARK VINA RESULT:    -3.606     16.745     17.663
REMARK INTER + INTRA:          -4.296
REMARK INTER:                  -4.220
REMARK INTRA:                  -0.076
REMARK UNBOUND:                -0.058
REMARK SMILES CCCCC(=O)[O-]
REMARK SMILES IDX 4 1 5 2 6 3 7 4 3 5 2 6 1 7
REMARK H PARENT
REMARK Flexibility Score: inf
ROOT
ATOM      1  C   UNL     1     -11.741  50.394  54.794  1.00  0.00     0.053 C 
ENDROOT
BRANCH   1   2
ATOM      2  C   UNL     1     -10.431  50.797  54.196  1.00  0.00     0.041 C 
ATOM      3  O   UNL     1     -10.292  51.942  53.688  1.00  0.00    -0.550 OA
ATOM      4  O   UNL     1      -9.348  49.929  54.241  1.00  0.00    -0.550 OA
ENDBRANCH   1   2
BRANCH   1   5
ATOM      5  C   UNL     1     -12.326  49.192  54.046  1.00  0.00     0.006 C 
BRANCH   5   6
ATOM      6  C   UNL     1     -13.615  49.576  53.311  1.00  0.00    -0.003 C 
ATOM      7  C   UNL     1     -13.312  50.129  51.921  1.00  0.00     0.004 C 
ENDBRANCH   5   6
ENDBRANCH   1   5
TORSDOF 3
ENDMDL
MODEL 8
REMARK VINA RESULT:    -3.580     15.917     17.409
REMARK INTER + INTRA:          -4.266
REMARK INTER:                  -4.239
REMARK INTRA:                  -0.027
REMARK UNBOUND:                -0.058
REMARK SMILES CCCCC(=O)[O-]
REMARK SMILES IDX 4 1 5 2 6 3 7 4 3 5 2 6 1 7
REMARK H PARENT
REMARK Flexibility Score: inf
ROOT
ATOM      1  C   UNL     1      -6.660  60.990  54.213  1.00  0.00     0.053 C 
ENDROOT
BRANCH   1   2
ATOM      2  C   UNL     1      -7.454  62.235  53.973  1.00  0.00     0.041 C 
ATOM      3  O   UNL     1      -8.176  62.712  54.888  1.00  0.00    -0.550 OA
ATOM      4  O   UNL     1      -7.361  62.896  52.755  1.00  0.00    -0.550 OA
ENDBRANCH   1   2
BRANCH   1   5
ATOM      5  C   UNL     1      -6.355  60.827  55.705  1.00  0.00     0.006 C 
BRANCH   5   6
ATOM      6  C   UNL     1      -6.130  59.354  56.062  1.00  0.00    -0.003 C 
ATOM      7  C   UNL     1      -4.694  59.110  56.517  1.00  0.00     0.004 C 
ENDBRANCH   5   6
ENDBRANCH   1   5
TORSDOF 3
ENDMDL
MODEL 9
REMARK VINA RESULT:    -3.439      2.725      3.992
REMARK INTER + INTRA:          -4.100
REMARK INTER:                  -4.055
REMARK INTRA:                  -0.045
REMARK UNBOUND:                -0.058
REMARK SMILES CCCCC(=O)[O-]
REMARK SMILES IDX 4 1 5 2 6 3 7 4 3 5 2 6 1 7
REMARK H PARENT
REMARK Flexibility Score: inf
ROOT
ATOM      1  C   UNL     1     -10.062  61.490  39.890  1.00  0.00     0.053 C 
ENDROOT
BRANCH   1   2
ATOM      2  C   UNL     1      -9.611  62.421  40.970  1.00  0.00     0.041 C 
ATOM      3  O   UNL     1      -9.950  62.217  42.166  1.00  0.00    -0.550 OA
ATOM      4  O   UNL     1      -8.775  63.487  40.666  1.00  0.00    -0.550 OA
ENDBRANCH   1   2
BRANCH   1   5
ATOM      5  C   UNL     1     -11.566  61.641  39.645  1.00  0.00     0.006 C 
BRANCH   5   6
ATOM      6  C   UNL     1     -12.301  60.321  39.902  1.00  0.00    -0.003 C 
ATOM      7  C   UNL     1     -13.295  60.017  38.786  1.00  0.00     0.004 C 
ENDBRANCH   5   6
ENDBRANCH   1   5
TORSDOF 3
ENDMDL
