MODEL 1
REMARK VINA RESULT:    -4.030      0.000      0.000
REMARK INTER + INTRA:          -9.782
REMARK INTER:                  -7.564
REMARK INTRA:                  -2.217
REMARK UNBOUND:                -2.217
REMARK SMILES CCCCCC=CCC=CCCCCCCCC(=O)OC
REMARK SMILES IDX 11 1 10 2 9 3 8 4 7 5 6 6 5 7 4 8 3 9 2 10 1 11 12 12 13 13
REMARK SMILES IDX 14 14 15 15 16 16 17 17 18 18 19 19 20 20 21 21
REMARK H PARENT
REMARK Flexibility Score: inf
ROOT
ATOM      1  C   UNL     1       1.563  -6.959  -7.460  1.00  0.00     0.027 C 
ENDROOT
BRANCH   1   2
ATOM      2  C   UNL     1       1.633  -6.030  -8.648  1.00  0.00    -0.031 C 
ATOM      3  C   UNL     1       1.799  -4.696  -8.566  1.00  0.00    -0.027 C 
BRANCH   3   4
ATOM      4  C   UNL     1       1.875  -3.924  -7.273  1.00  0.00     0.054 C 
BRANCH   4   5
ATOM      5  C   UNL     1       3.147  -3.115  -7.198  1.00  0.00    -0.027 C 
ATOM      6  C   UNL     1       3.170  -1.771  -7.135  1.00  0.00    -0.031 C 
BRANCH   6   7
ATOM      7  C   UNL     1       1.940  -0.901  -7.079  1.00  0.00     0.027 C 
BRANCH   7   8
ATOM      8  C   UNL     1       1.824  -0.036  -8.340  1.00  0.00     0.004 C 
BRANCH   8   9
ATOM      9  C   UNL     1       0.807  -0.631  -9.322  1.00  0.00     0.000 C 
BRANCH   9  10
ATOM     10  C   UNL     1      -0.425  -1.166  -8.581  1.00  0.00    -0.003 C 
ATOM     11  C   UNL     1      -1.000  -2.393  -9.283  1.00  0.00     0.004 C 
ENDBRANCH   9  10
ENDBRANCH   8   9
ENDBRANCH   7   8
ENDBRANCH   6   7
ENDBRANCH   4   5
ENDBRANCH   3   4
ENDBRANCH   1   2
BRANCH   1  12
ATOM     12  C   UNL     1       2.895  -7.688  -7.210  1.00  0.00     0.004 C 
BRANCH  12  13
ATOM     13  C   UNL     1       3.519  -7.416  -5.827  1.00  0.00     0.000 C 
BRANCH  13  14
ATOM     14  C   UNL     1       4.466  -6.202  -5.762  1.00  0.00     0.000 C 
BRANCH  14  15
ATOM     15  C   UNL     1       5.555  -6.282  -4.676  1.00  0.00     0.001 C 
BRANCH  15  16
ATOM     16  C   UNL     1       5.884  -4.915  -4.060  1.00  0.00     0.012 C 
BRANCH  16  17
ATOM     17  C   UNL     1       6.138  -3.868  -5.150  1.00  0.00     0.123 C 
BRANCH  17  18
ATOM     18  C   UNL     1       6.246  -2.501  -4.550  1.00  0.00     0.305 C 
ATOM     19  O   UNL     1       5.201  -1.882  -4.209  1.00  0.00    -0.252 OA
BRANCH  18  20
ATOM     20  O   UNL     1       7.510  -1.936  -4.345  1.00  0.00    -0.469 OA
ATOM     21  C   UNL     1       8.337  -1.499  -5.418  1.00  0.00     0.282 C 
ENDBRANCH  18  20
ENDBRANCH  17  18
ENDBRANCH  16  17
ENDBRANCH  15  16
ENDBRANCH  14  15
ENDBRANCH  13  14
ENDBRANCH  12  13
ENDBRANCH   1  12
TORSDOF 15
ENDMDL
MODEL 2
REMARK VINA RESULT:    -3.813      2.366      5.620
REMARK INTER + INTRA:          -9.374
REMARK INTER:                  -6.925
REMARK INTRA:                  -2.449
REMARK UNBOUND:                -2.217
REMARK SMILES CCCCCC=CCC=CCCCCCCCC(=O)OC
REMARK SMILES IDX 11 1 10 2 9 3 8 4 7 5 6 6 5 7 4 8 3 9 2 10 1 11 12 12 13 13
REMARK SMILES IDX 14 14 15 15 16 16 17 17 18 18 19 19 20 20 21 21
REMARK H PARENT
REMARK Flexibility Score: inf
ROOT
ATOM      1  C   UNL     1       1.852  -6.842  -9.163  1.00  0.00     0.027 C 
ENDROOT
BRANCH   1   2
ATOM      2  C   UNL     1       1.300  -7.153  -7.792  1.00  0.00    -0.031 C 
ATOM      3  C   UNL     1       2.051  -7.459  -6.717  1.00  0.00    -0.027 C 
BRANCH   3   4
ATOM      4  C   UNL     1       3.552  -7.602  -6.739  1.00  0.00     0.054 C 
BRANCH   4   5
ATOM      5  C   UNL     1       4.091  -7.868  -5.354  1.00  0.00    -0.027 C 
ATOM      6  C   UNL     1       5.043  -7.116  -4.770  1.00  0.00    -0.031 C 
BRANCH   6   7
ATOM      7  C   UNL     1       5.655  -5.886  -5.391  1.00  0.00     0.027 C 
BRANCH   7   8
ATOM      8  C   UNL     1       5.812  -4.770  -4.352  1.00  0.00     0.004 C 
BRANCH   8   9
ATOM      9  C   UNL     1       6.120  -3.429  -5.028  1.00  0.00     0.000 C 
BRANCH   9  10
ATOM     10  C   UNL     1       5.945  -2.264  -4.046  1.00  0.00    -0.003 C 
ATOM     11  C   UNL     1       7.040  -2.271  -2.982  1.00  0.00     0.004 C 
ENDBRANCH   9  10
ENDBRANCH   8   9
ENDBRANCH   7   8
ENDBRANCH   6   7
ENDBRANCH   4   5
ENDBRANCH   3   4
ENDBRANCH   1   2
BRANCH   1  12
ATOM     12  C   UNL     1       1.215  -5.584  -9.777  1.00  0.00     0.004 C 
BRANCH  12  13
ATOM     13  C   UNL     1       2.035  -4.293  -9.578  1.00  0.00     0.000 C 
BRANCH  13  14
ATOM     14  C   UNL     1       3.541  -4.506  -9.325  1.00  0.00     0.000 C 
BRANCH  14  15
ATOM     15  C   UNL     1       4.069  -3.912  -8.006  1.00  0.00     0.001 C 
BRANCH  15  16
ATOM     16  C   UNL     1       2.947  -3.384  -7.099  1.00  0.00     0.012 C 
BRANCH  16  17
ATOM     17  C   UNL     1       3.158  -1.903  -6.771  1.00  0.00     0.123 C 
BRANCH  17  18
ATOM     18  C   UNL     1       2.093  -1.066  -7.410  1.00  0.00     0.305 C 
ATOM     19  O   UNL     1       0.916  -1.098  -6.958  1.00  0.00    -0.252 OA
BRANCH  18  20
ATOM     20  O   UNL     1       2.424  -0.233  -8.485  1.00  0.00    -0.469 OA
ATOM     21  C   UNL     1       3.610  -0.407  -9.253  1.00  0.00     0.282 C 
ENDBRANCH  18  20
ENDBRANCH  17  18
ENDBRANCH  16  17
ENDBRANCH  15  16
ENDBRANCH  14  15
ENDBRANCH  13  14
ENDBRANCH  12  13
ENDBRANCH   1  12
TORSDOF 15
ENDMDL
MODEL 3
REMARK VINA RESULT:    -3.780      2.144      6.011
REMARK INTER + INTRA:          -9.311
REMARK INTER:                  -6.923
REMARK INTRA:                  -2.388
REMARK UNBOUND:                -2.217
REMARK SMILES CCCCCC=CCC=CCCCCCCCC(=O)OC
REMARK SMILES IDX 11 1 10 2 9 3 8 4 7 5 6 6 5 7 4 8 3 9 2 10 1 11 12 12 13 13
REMARK SMILES IDX 14 14 15 15 16 16 17 17 18 18 19 19 20 20 21 21
REMARK H PARENT
REMARK Flexibility Score: inf
ROOT
ATOM      1  C   UNL     1       3.677  -7.474  -5.504  1.00  0.00     0.027 C 
ENDROOT
BRANCH   1   2
ATOM      2  C   UNL     1       4.833  -7.174  -6.428  1.00  0.00    -0.031 C 
ATOM      3  C   UNL     1       5.649  -6.109  -6.309  1.00  0.00    -0.027 C 
BRANCH   3   4
ATOM      4  C   UNL     1       5.491  -5.024  -5.275  1.00  0.00     0.054 C 
BRANCH   4   5
ATOM      5  C   UNL     1       5.318  -3.674  -5.927  1.00  0.00    -0.027 C 
ATOM      6  C   UNL     1       5.432  -2.509  -5.264  1.00  0.00    -0.031 C 
BRANCH   6   7
ATOM      7  C   UNL     1       5.796  -2.391  -3.805  1.00  0.00     0.027 C 
BRANCH   7   8
ATOM      8  C   UNL     1       7.302  -2.163  -3.635  1.00  0.00     0.004 C 
BRANCH   8   9
ATOM      9  C   UNL     1       7.962  -3.355  -2.929  1.00  0.00     0.000 C 
BRANCH   9  10
ATOM     10  C   UNL     1       8.994  -4.031  -3.841  1.00  0.00    -0.003 C 
ATOM     11  C   UNL     1       9.058  -3.346  -5.204  1.00  0.00     0.004 C 
ENDBRANCH   9  10
ENDBRANCH   8   9
ENDBRANCH   7   8
ENDBRANCH   6   7
ENDBRANCH   4   5
ENDBRANCH   3   4
ENDBRANCH   1   2
BRANCH   1  12
ATOM     12  C   UNL     1       2.867  -8.698  -5.963  1.00  0.00     0.004 C 
BRANCH  12  13
ATOM     13  C   UNL     1       2.138  -8.511  -7.308  1.00  0.00     0.000 C 
BRANCH  13  14
ATOM     14  C   UNL     1       1.444  -7.148  -7.494  1.00  0.00     0.000 C 
BRANCH  14  15
ATOM     15  C   UNL     1       1.717  -6.456  -8.842  1.00  0.00     0.001 C 
BRANCH  15  16
ATOM     16  C   UNL     1       2.374  -5.077  -8.682  1.00  0.00     0.012 C 
BRANCH  16  17
ATOM     17  C   UNL     1       2.025  -4.457  -7.325  1.00  0.00     0.123 C 
BRANCH  17  18
ATOM     18  C   UNL     1       1.551  -3.047  -7.498  1.00  0.00     0.305 C 
ATOM     19  O   UNL     1       0.626  -2.794  -8.318  1.00  0.00    -0.252 OA
BRANCH  18  20
ATOM     20  O   UNL     1       2.117  -2.030  -6.723  1.00  0.00    -0.469 OA
ATOM     21  C   UNL     1       2.094  -0.662  -7.118  1.00  0.00     0.282 C 
ENDBRANCH  18  20
ENDBRANCH  17  18
ENDBRANCH  16  17
ENDBRANCH  15  16
ENDBRANCH  14  15
ENDBRANCH  13  14
ENDBRANCH  12  13
ENDBRANCH   1  12
TORSDOF 15
ENDMDL
MODEL 4
REMARK VINA RESULT:    -3.731      2.082      6.537
REMARK INTER + INTRA:          -9.220
REMARK INTER:                  -6.907
REMARK INTRA:                  -2.314
REMARK UNBOUND:                -2.217
REMARK SMILES CCCCCC=CCC=CCCCCCCCC(=O)OC
REMARK SMILES IDX 11 1 10 2 9 3 8 4 7 5 6 6 5 7 4 8 3 9 2 10 1 11 12 12 13 13
REMARK SMILES IDX 14 14 15 15 16 16 17 17 18 18 19 19 20 20 21 21
REMARK H PARENT
REMARK Flexibility Score: inf
ROOT
ATOM      1  C   UNL     1       5.047  -6.894  -4.896  1.00  0.00     0.027 C 
ENDROOT
BRANCH   1   2
ATOM      2  C   UNL     1       5.253  -5.648  -5.724  1.00  0.00    -0.031 C 
ATOM      3  C   UNL     1       5.635  -4.455  -5.227  1.00  0.00    -0.027 C 
BRANCH   3   4
ATOM      4  C   UNL     1       5.849  -4.170  -3.763  1.00  0.00     0.054 C 
BRANCH   4   5
ATOM      5  C   UNL     1       6.020  -2.691  -3.517  1.00  0.00    -0.027 C 
ATOM      6  C   UNL     1       7.195  -2.124  -3.186  1.00  0.00    -0.031 C 
BRANCH   6   7
ATOM      7  C   UNL     1       8.499  -2.872  -3.070  1.00  0.00     0.027 C 
BRANCH   7   8
ATOM      8  C   UNL     1       9.340  -2.705  -4.340  1.00  0.00     0.004 C 
BRANCH   8   9
ATOM      9  C   UNL     1       9.366  -4.002  -5.158  1.00  0.00     0.000 C 
BRANCH   9  10
ATOM     10  C   UNL     1       9.336  -5.231  -4.240  1.00  0.00    -0.003 C 
ATOM     11  C   UNL     1       8.852  -6.468  -4.991  1.00  0.00     0.004 C 
ENDBRANCH   9  10
ENDBRANCH   8   9
ENDBRANCH   7   8
ENDBRANCH   6   7
ENDBRANCH   4   5
ENDBRANCH   3   4
ENDBRANCH   1   2
BRANCH   1  12
ATOM     12  C   UNL     1       3.909  -7.774  -5.441  1.00  0.00     0.004 C 
BRANCH  12  13
ATOM     13  C   UNL     1       3.541  -7.499  -6.913  1.00  0.00     0.000 C 
BRANCH  13  14
ATOM     14  C   UNL     1       2.050  -7.207  -7.172  1.00  0.00     0.000 C 
BRANCH  14  15
ATOM     15  C   UNL     1       1.763  -5.876  -7.889  1.00  0.00     0.001 C 
BRANCH  15  16
ATOM     16  C   UNL     1       2.140  -4.650  -7.044  1.00  0.00     0.012 C 
BRANCH  16  17
ATOM     17  C   UNL     1       2.614  -3.495  -7.932  1.00  0.00     0.123 C 
BRANCH  17  18
ATOM     18  C   UNL     1       2.321  -2.179  -7.283  1.00  0.00     0.305 C 
ATOM     19  O   UNL     1       3.259  -1.515  -6.762  1.00  0.00    -0.252 OA
BRANCH  18  20
ATOM     20  O   UNL     1       1.013  -1.683  -7.291  1.00  0.00    -0.469 OA
ATOM     21  C   UNL     1       0.235  -1.590  -8.479  1.00  0.00     0.282 C 
ENDBRANCH  18  20
ENDBRANCH  17  18
ENDBRANCH  16  17
ENDBRANCH  15  16
ENDBRANCH  14  15
ENDBRANCH  13  14
ENDBRANCH  12  13
ENDBRANCH   1  12
TORSDOF 15
ENDMDL
MODEL 5
REMARK VINA RESULT:    -3.728      2.176      5.848
REMARK INTER + INTRA:          -9.214
REMARK INTER:                  -7.351
REMARK INTRA:                  -1.863
REMARK UNBOUND:                -2.217
REMARK SMILES CCCCCC=CCC=CCCCCCCCC(=O)OC
REMARK SMILES IDX 11 1 10 2 9 3 8 4 7 5 6 6 5 7 4 8 3 9 2 10 1 11 12 12 13 13
REMARK SMILES IDX 14 14 15 15 16 16 17 17 18 18 19 19 20 20 21 21
REMARK H PARENT
REMARK Flexibility Score: inf
ROOT
ATOM      1  C   UNL     1       1.538  -7.058  -7.299  1.00  0.00     0.027 C 
ENDROOT
BRANCH   1   2
ATOM      2  C   UNL     1       2.430  -8.081  -6.637  1.00  0.00    -0.031 C 
ATOM      3  C   UNL     1       3.590  -7.796  -6.016  1.00  0.00    -0.027 C 
BRANCH   3   4
ATOM      4  C   UNL     1       4.205  -6.422  -5.945  1.00  0.00     0.054 C 
BRANCH   4   5
ATOM      5  C   UNL     1       5.245  -6.348  -4.854  1.00  0.00    -0.027 C 
ATOM      6  C   UNL     1       5.904  -5.220  -4.531  1.00  0.00    -0.031 C 
BRANCH   6   7
ATOM      7  C   UNL     1       5.658  -3.877  -5.172  1.00  0.00     0.027 C 
BRANCH   7   8
ATOM      8  C   UNL     1       5.721  -2.755  -4.130  1.00  0.00     0.004 C 
BRANCH   8   9
ATOM      9  C   UNL     1       6.983  -2.876  -3.268  1.00  0.00     0.000 C 
BRANCH   9  10
ATOM     10  C   UNL     1       7.852  -1.618  -3.384  1.00  0.00    -0.003 C 
ATOM     11  C   UNL     1       8.448  -1.487  -4.783  1.00  0.00     0.004 C 
ENDBRANCH   9  10
ENDBRANCH   8   9
ENDBRANCH   7   8
ENDBRANCH   6   7
ENDBRANCH   4   5
ENDBRANCH   3   4
ENDBRANCH   1   2
BRANCH   1  12
ATOM     12  C   UNL     1       1.372  -7.316  -8.806  1.00  0.00     0.004 C 
BRANCH  12  13
ATOM     13  C   UNL     1       1.900  -6.183  -9.708  1.00  0.00     0.000 C 
BRANCH  13  14
ATOM     14  C   UNL     1       2.865  -5.195  -9.023  1.00  0.00     0.000 C 
BRANCH  14  15
ATOM     15  C   UNL     1       2.262  -3.817  -8.697  1.00  0.00     0.001 C 
BRANCH  15  16
ATOM     16  C   UNL     1       2.444  -3.420  -7.224  1.00  0.00     0.012 C 
BRANCH  16  17
ATOM     17  C   UNL     1       3.065  -2.024  -7.105  1.00  0.00     0.123 C 
BRANCH  17  18
ATOM     18  C   UNL     1       2.040  -0.968  -7.375  1.00  0.00     0.305 C 
ATOM     19  O   UNL     1       1.024  -0.877  -6.633  1.00  0.00    -0.252 OA
BRANCH  18  20
ATOM     20  O   UNL     1       2.236  -0.070  -8.430  1.00  0.00    -0.469 OA
ATOM     21  C   UNL     1       1.623  -0.237  -9.704  1.00  0.00     0.282 C 
ENDBRANCH  18  20
ENDBRANCH  17  18
ENDBRANCH  16  17
ENDBRANCH  15  16
ENDBRANCH  14  15
ENDBRANCH  13  14
ENDBRANCH  12  13
ENDBRANCH   1  12
TORSDOF 15
ENDMDL
MODEL 6
REMARK VINA RESULT:    -3.707      2.293      6.367
REMARK INTER + INTRA:          -9.176
REMARK INTER:                  -7.283
REMARK INTRA:                  -1.893
REMARK UNBOUND:                -2.217
REMARK SMILES CCCCCC=CCC=CCCCCCCCC(=O)OC
REMARK SMILES IDX 11 1 10 2 9 3 8 4 7 5 6 6 5 7 4 8 3 9 2 10 1 11 12 12 13 13
REMARK SMILES IDX 14 14 15 15 16 16 17 17 18 18 19 19 20 20 21 21
REMARK H PARENT
REMARK Flexibility Score: inf
ROOT
ATOM      1  C   UNL     1       3.981  -7.571  -5.317  1.00  0.00     0.027 C 
ENDROOT
BRANCH   1   2
ATOM      2  C   UNL     1       4.897  -8.352  -4.406  1.00  0.00    -0.031 C 
ATOM      3  C   UNL     1       5.841  -7.803  -3.618  1.00  0.00    -0.027 C 
BRANCH   3   4
ATOM      4  C   UNL     1       6.168  -6.332  -3.578  1.00  0.00     0.054 C 
BRANCH   4   5
ATOM      5  C   UNL     1       7.068  -5.944  -4.726  1.00  0.00    -0.027 C 
ATOM      6  C   UNL     1       6.765  -4.982  -5.616  1.00  0.00    -0.031 C 
BRANCH   6   7
ATOM      7  C   UNL     1       5.521  -4.131  -5.558  1.00  0.00     0.027 C 
BRANCH   7   8
ATOM      8  C   UNL     1       5.855  -2.704  -5.109  1.00  0.00     0.004 C 
BRANCH   8   9
ATOM      9  C   UNL     1       5.914  -2.610  -3.579  1.00  0.00     0.000 C 
BRANCH   9  10
ATOM     10  C   UNL     1       7.259  -2.039  -3.114  1.00  0.00    -0.003 C 
ATOM     11  C   UNL     1       8.209  -3.152  -2.680  1.00  0.00     0.004 C 
ENDBRANCH   9  10
ENDBRANCH   8   9
ENDBRANCH   7   8
ENDBRANCH   6   7
ENDBRANCH   4   5
ENDBRANCH   3   4
ENDBRANCH   1   2
BRANCH   1  12
ATOM     12  C   UNL     1       2.996  -8.479  -6.073  1.00  0.00     0.004 C 
BRANCH  12  13
ATOM     13  C   UNL     1       2.274  -7.795  -7.250  1.00  0.00     0.000 C 
BRANCH  13  14
ATOM     14  C   UNL     1       2.850  -6.428  -7.668  1.00  0.00     0.000 C 
BRANCH  14  15
ATOM     15  C   UNL     1       1.819  -5.290  -7.770  1.00  0.00     0.001 C 
BRANCH  15  16
ATOM     16  C   UNL     1       2.272  -4.009  -7.053  1.00  0.00     0.012 C 
BRANCH  16  17
ATOM     17  C   UNL     1       2.271  -2.814  -8.013  1.00  0.00     0.123 C 
BRANCH  17  18
ATOM     18  C   UNL     1       1.049  -1.975  -7.806  1.00  0.00     0.305 C 
ATOM     19  O   UNL     1       1.047  -1.081  -6.916  1.00  0.00    -0.252 OA
BRANCH  18  20
ATOM     20  O   UNL     1      -0.068  -2.170  -8.625  1.00  0.00    -0.469 OA
ATOM     21  C   UNL     1      -1.022  -1.144  -8.879  1.00  0.00     0.282 C 
ENDBRANCH  18  20
ENDBRANCH  17  18
ENDBRANCH  16  17
ENDBRANCH  15  16
ENDBRANCH  14  15
ENDBRANCH  13  14
ENDBRANCH  12  13
ENDBRANCH   1  12
TORSDOF 15
ENDMDL
MODEL 7
REMARK VINA RESULT:    -3.692      2.286      5.663
REMARK INTER + INTRA:          -9.147
REMARK INTER:                  -6.527
REMARK INTRA:                  -2.619
REMARK UNBOUND:                -2.217
REMARK SMILES CCCCCC=CCC=CCCCCCCCC(=O)OC
REMARK SMILES IDX 11 1 10 2 9 3 8 4 7 5 6 6 5 7 4 8 3 9 2 10 1 11 12 12 13 13
REMARK SMILES IDX 14 14 15 15 16 16 17 17 18 18 19 19 20 20 21 21
REMARK H PARENT
REMARK Flexibility Score: inf
ROOT
ATOM      1  C   UNL     1       1.749  -8.109  -6.713  1.00  0.00     0.027 C 
ENDROOT
BRANCH   1   2
ATOM      2  C   UNL     1       2.889  -8.653  -5.885  1.00  0.00    -0.031 C 
ATOM      3  C   UNL     1       3.951  -7.931  -5.479  1.00  0.00    -0.027 C 
BRANCH   3   4
ATOM      4  C   UNL     1       4.193  -6.490  -5.847  1.00  0.00     0.054 C 
BRANCH   4   5
ATOM      5  C   UNL     1       5.531  -6.319  -6.526  1.00  0.00    -0.027 C 
ATOM      6  C   UNL     1       6.658  -5.986  -5.872  1.00  0.00    -0.031 C 
BRANCH   6   7
ATOM      7  C   UNL     1       6.752  -5.791  -4.380  1.00  0.00     0.027 C 
BRANCH   7   8
ATOM      8  C   UNL     1       7.117  -4.341  -4.041  1.00  0.00     0.004 C 
BRANCH   8   9
ATOM      9  C   UNL     1       5.884  -3.559  -3.572  1.00  0.00     0.000 C 
BRANCH   9  10
ATOM     10  C   UNL     1       5.678  -2.297  -4.419  1.00  0.00    -0.003 C 
ATOM     11  C   UNL     1       5.148  -2.645  -5.807  1.00  0.00     0.004 C 
ENDBRANCH   9  10
ENDBRANCH   8   9
ENDBRANCH   7   8
ENDBRANCH   6   7
ENDBRANCH   4   5
ENDBRANCH   3   4
ENDBRANCH   1   2
BRANCH   1  12
ATOM     12  C   UNL     1       1.656  -8.784  -8.092  1.00  0.00     0.004 C 
BRANCH  12  13
ATOM     13  C   UNL     1       1.864  -7.828  -9.284  1.00  0.00     0.000 C 
BRANCH  13  14
ATOM     14  C   UNL     1       1.827  -6.327  -8.935  1.00  0.00     0.000 C 
BRANCH  14  15
ATOM     15  C   UNL     1       3.069  -5.528  -9.367  1.00  0.00     0.001 C 
BRANCH  15  16
ATOM     16  C   UNL     1       3.209  -4.193  -8.620  1.00  0.00     0.012 C 
BRANCH  16  17
ATOM     17  C   UNL     1       2.146  -4.064  -7.524  1.00  0.00     0.123 C 
BRANCH  17  18
ATOM     18  C   UNL     1       1.397  -2.776  -7.667  1.00  0.00     0.305 C 
ATOM     19  O   UNL     1       0.555  -2.640  -8.596  1.00  0.00    -0.252 OA
BRANCH  18  20
ATOM     20  O   UNL     1       1.618  -1.745  -6.746  1.00  0.00    -0.469 OA
ATOM     21  C   UNL     1       1.806  -0.391  -7.142  1.00  0.00     0.282 C 
ENDBRANCH  18  20
ENDBRANCH  17  18
ENDBRANCH  16  17
ENDBRANCH  15  16
ENDBRANCH  14  15
ENDBRANCH  13  14
ENDBRANCH  12  13
ENDBRANCH   1  12
TORSDOF 15
ENDMDL
MODEL 8
REMARK VINA RESULT:    -3.663      2.163      5.673
REMARK INTER + INTRA:          -9.093
REMARK INTER:                  -6.203
REMARK INTRA:                  -2.890
REMARK UNBOUND:                -2.217
REMARK SMILES CCCCCC=CCC=CCCCCCCCC(=O)OC
REMARK SMILES IDX 11 1 10 2 9 3 8 4 7 5 6 6 5 7 4 8 3 9 2 10 1 11 12 12 13 13
REMARK SMILES IDX 14 14 15 15 16 16 17 17 18 18 19 19 20 20 21 21
REMARK H PARENT
REMARK Flexibility Score: inf
ROOT
ATOM      1  C   UNL     1       4.944  -7.289  -4.745  1.00  0.00     0.027 C 
ENDROOT
BRANCH   1   2
ATOM      2  C   UNL     1       6.058  -6.632  -5.524  1.00  0.00    -0.031 C 
ATOM      3  C   UNL     1       6.861  -5.665  -5.041  1.00  0.00    -0.027 C 
BRANCH   3   4
ATOM      4  C   UNL     1       6.725  -5.048  -3.673  1.00  0.00     0.054 C 
BRANCH   4   5
ATOM      5  C   UNL     1       5.799  -3.855  -3.705  1.00  0.00    -0.027 C 
ATOM      6  C   UNL     1       6.213  -2.589  -3.514  1.00  0.00    -0.031 C 
BRANCH   6   7
ATOM      7  C   UNL     1       7.650  -2.186  -3.298  1.00  0.00     0.027 C 
BRANCH   7   8
ATOM      8  C   UNL     1       8.193  -1.427  -4.515  1.00  0.00     0.004 C 
BRANCH   8   9
ATOM      9  C   UNL     1       8.566  -2.395  -5.644  1.00  0.00     0.000 C 
BRANCH   9  10
ATOM     10  C   UNL     1       7.605  -2.252  -6.831  1.00  0.00    -0.003 C 
ATOM     11  C   UNL     1       7.777  -3.402  -7.820  1.00  0.00     0.004 C 
ENDBRANCH   9  10
ENDBRANCH   8   9
ENDBRANCH   7   8
ENDBRANCH   6   7
ENDBRANCH   4   5
ENDBRANCH   3   4
ENDBRANCH   1   2
BRANCH   1  12
ATOM     12  C   UNL     1       3.763  -7.693  -5.644  1.00  0.00     0.004 C 
BRANCH  12  13
ATOM     13  C   UNL     1       3.652  -6.884  -6.952  1.00  0.00     0.000 C 
BRANCH  13  14
ATOM     14  C   UNL     1       2.340  -6.094  -7.125  1.00  0.00     0.000 C 
BRANCH  14  15
ATOM     15  C   UNL     1       2.515  -4.579  -7.334  1.00  0.00     0.001 C 
BRANCH  15  16
ATOM     16  C   UNL     1       3.939  -4.095  -7.019  1.00  0.00     0.012 C 
BRANCH  16  17
ATOM     17  C   UNL     1       3.948  -2.601  -6.681  1.00  0.00     0.123 C 
BRANCH  17  18
ATOM     18  C   UNL     1       3.848  -1.779  -7.928  1.00  0.00     0.305 C 
ATOM     19  O   UNL     1       4.642  -1.993  -8.884  1.00  0.00    -0.252 OA
BRANCH  18  20
ATOM     20  O   UNL     1       2.851  -0.802  -8.032  1.00  0.00    -0.469 OA
ATOM     21  C   UNL     1       1.717  -0.769  -7.173  1.00  0.00     0.282 C 
ENDBRANCH  18  20
ENDBRANCH  17  18
ENDBRANCH  16  17
ENDBRANCH  15  16
ENDBRANCH  14  15
ENDBRANCH  13  14
ENDBRANCH  12  13
ENDBRANCH   1  12
TORSDOF 15
ENDMDL
MODEL 9
REMARK VINA RESULT:    -3.620      2.263      6.258
REMARK INTER + INTRA:          -9.011
REMARK INTER:                  -6.291
REMARK INTRA:                  -2.720
REMARK UNBOUND:                -2.217
REMARK SMILES CCCCCC=CCC=CCCCCCCCC(=O)OC
REMARK SMILES IDX 11 1 10 2 9 3 8 4 7 5 6 6 5 7 4 8 3 9 2 10 1 11 12 12 13 13
REMARK SMILES IDX 14 14 15 15 16 16 17 17 18 18 19 19 20 20 21 21
REMARK H PARENT
REMARK Flexibility Score: inf
ROOT
ATOM      1  C   UNL     1       6.670  -4.943  -3.615  1.00  0.00     0.027 C 
ENDROOT
BRANCH   1   2
ATOM      2  C   UNL     1       5.842  -3.681  -3.658  1.00  0.00    -0.031 C 
ATOM      3  C   UNL     1       6.340  -2.436  -3.531  1.00  0.00    -0.027 C 
BRANCH   3   4
ATOM      4  C   UNL     1       7.788  -2.120  -3.260  1.00  0.00     0.054 C 
BRANCH   4   5
ATOM      5  C   UNL     1       8.355  -1.216  -4.327  1.00  0.00    -0.027 C 
ATOM      6  C   UNL     1       9.133  -1.652  -5.335  1.00  0.00    -0.031 C 
BRANCH   6   7
ATOM      7  C   UNL     1       9.496  -3.098  -5.565  1.00  0.00     0.027 C 
BRANCH   7   8
ATOM      8  C   UNL     1       9.153  -3.526  -6.996  1.00  0.00     0.004 C 
BRANCH   8   9
ATOM      9  C   UNL     1       7.825  -4.291  -7.037  1.00  0.00     0.000 C 
BRANCH   9  10
ATOM     10  C   UNL     1       6.831  -3.616  -7.992  1.00  0.00    -0.003 C 
ATOM     11  C   UNL     1       5.923  -2.643  -7.245  1.00  0.00     0.004 C 
ENDBRANCH   9  10
ENDBRANCH   8   9
ENDBRANCH   7   8
ENDBRANCH   6   7
ENDBRANCH   4   5
ENDBRANCH   3   4
ENDBRANCH   1   2
BRANCH   1  12
ATOM     12  C   UNL     1       5.947  -6.137  -4.261  1.00  0.00     0.004 C 
BRANCH  12  13
ATOM     13  C   UNL     1       5.041  -5.765  -5.452  1.00  0.00     0.000 C 
BRANCH  13  14
ATOM     14  C   UNL     1       4.039  -6.856  -5.879  1.00  0.00     0.000 C 
BRANCH  14  15
ATOM     15  C   UNL     1       2.903  -6.371  -6.797  1.00  0.00     0.001 C 
BRANCH  15  16
ATOM     16  C   UNL     1       2.924  -4.852  -7.021  1.00  0.00     0.012 C 
BRANCH  16  17
ATOM     17  C   UNL     1       1.918  -4.442  -8.101  1.00  0.00     0.123 C 
BRANCH  17  18
ATOM     18  C   UNL     1       1.824  -2.951  -8.193  1.00  0.00     0.305 C 
ATOM     19  O   UNL     1       1.713  -2.399  -9.322  1.00  0.00    -0.252 OA
BRANCH  18  20
ATOM     20  O   UNL     1       1.828  -2.186  -7.022  1.00  0.00    -0.469 OA
ATOM     21  C   UNL     1       2.101  -0.789  -7.019  1.00  0.00     0.282 C 
ENDBRANCH  18  20
ENDBRANCH  17  18
ENDBRANCH  16  17
ENDBRANCH  15  16
ENDBRANCH  14  15
ENDBRANCH  13  14
ENDBRANCH  12  13
ENDBRANCH   1  12
TORSDOF 15
ENDMDL
