MODEL 1
REMARK VINA RESULT:    -5.585      0.000      0.000
REMARK INTER + INTRA:          -5.912
REMARK INTER:                  -5.912
REMARK INTRA:                   0.000
REMARK UNBOUND:                 0.000
REMARK SMILES Cc1cc(O)c(C)c(C)c1O
REMARK SMILES IDX 1 1 2 2 3 3 4 4 6 5 8 6 10 7 9 8 7 9 11 10 5 12
REMARK H PARENT 11 11 5 13
REMARK Flexibility Score: inf
ROOT
ATOM      1  C   UNL     1      -6.528  68.872 -27.333  1.00  0.00     0.048 C 
ATOM      2  C   UNL     1      -5.454  68.397 -26.390  1.00  0.00    -0.005 A 
ATOM      3  C   UNL     1      -4.339  67.727 -26.905  1.00  0.00     0.053 A 
ATOM      4  C   UNL     1      -3.330  67.257 -26.060  1.00  0.00     0.119 A 
ATOM      5  C   UNL     1      -3.425  67.449 -24.669  1.00  0.00    -0.003 A 
ATOM      6  C   UNL     1      -4.524  68.172 -24.137  1.00  0.00    -0.002 A 
ATOM      7  C   UNL     1      -5.552  68.618 -24.999  1.00  0.00     0.121 A 
ATOM      8  C   UNL     1      -4.635  68.420 -22.650  1.00  0.00     0.049 C 
ATOM      9  C   UNL     1      -2.329  66.929 -23.766  1.00  0.00     0.049 C 
ENDROOT
BRANCH   7  10
ATOM     10  O   UNL     1      -6.659  69.275 -24.452  1.00  0.00    -0.507 OA
ATOM     11  H   UNL     1      -6.586  70.090 -23.856  1.00  0.00     0.293 HD
ENDBRANCH   7  10
BRANCH   4  12
ATOM     12  O   UNL     1      -2.229  66.596 -26.608  1.00  0.00    -0.508 OA
ATOM     13  H   UNL     1      -1.298  66.698 -26.221  1.00  0.00     0.293 HD
ENDBRANCH   4  12
TORSDOF 2
ENDMDL
MODEL 2
REMARK VINA RESULT:    -5.441     11.787     13.587
REMARK INTER + INTRA:          -5.759
REMARK INTER:                  -5.759
REMARK INTRA:                   0.000
REMARK UNBOUND:                 0.000
REMARK SMILES Cc1cc(O)c(C)c(C)c1O
REMARK SMILES IDX 1 1 2 2 3 3 4 4 6 5 8 6 10 7 9 8 7 9 11 10 5 12
REMARK H PARENT 11 11 5 13
REMARK Flexibility Score: inf
ROOT
ATOM      1  C   UNL     1      -2.084  62.345 -13.046  1.00  0.00     0.048 C 
ATOM      2  C   UNL     1      -3.410  61.835 -13.545  1.00  0.00    -0.005 A 
ATOM      3  C   UNL     1      -4.524  61.882 -12.700  1.00  0.00     0.053 A 
ATOM      4  C   UNL     1      -5.767  61.403 -13.121  1.00  0.00     0.119 A 
ATOM      5  C   UNL     1      -5.915  60.858 -14.411  1.00  0.00    -0.003 A 
ATOM      6  C   UNL     1      -4.808  60.850 -15.297  1.00  0.00    -0.002 A 
ATOM      7  C   UNL     1      -3.548  61.312 -14.849  1.00  0.00     0.121 A 
ATOM      8  C   UNL     1      -4.947  60.300 -16.698  1.00  0.00     0.049 C 
ATOM      9  C   UNL     1      -7.264  60.336 -14.851  1.00  0.00     0.049 C 
ENDROOT
BRANCH   7  10
ATOM     10  O   UNL     1      -2.452  61.242 -15.715  1.00  0.00    -0.507 OA
ATOM     11  H   UNL     1      -2.495  60.829 -16.638  1.00  0.00     0.293 HD
ENDBRANCH   7  10
BRANCH   4  12
ATOM     12  O   UNL     1      -6.858  61.470 -12.253  1.00  0.00    -0.508 OA
ATOM     13  H   UNL     1      -7.457  60.669 -12.086  1.00  0.00     0.293 HD
ENDBRANCH   4  12
TORSDOF 2
ENDMDL
MODEL 3
REMARK VINA RESULT:    -5.398      0.570      4.393
REMARK INTER + INTRA:          -5.713
REMARK INTER:                  -5.713
REMARK INTRA:                   0.000
REMARK UNBOUND:                 0.000
REMARK SMILES Cc1cc(O)c(C)c(C)c1O
REMARK SMILES IDX 1 1 2 2 3 3 4 4 6 5 8 6 10 7 9 8 7 9 11 10 5 12
REMARK H PARENT 11 11 5 13
REMARK Flexibility Score: inf
ROOT
ATOM      1  C   UNL     1      -2.062  67.413 -23.854  1.00  0.00     0.048 C 
ATOM      2  C   UNL     1      -3.236  67.714 -24.747  1.00  0.00    -0.005 A 
ATOM      3  C   UNL     1      -4.301  68.471 -24.246  1.00  0.00     0.053 A 
ATOM      4  C   UNL     1      -5.415  68.757 -25.040  1.00  0.00     0.119 A 
ATOM      5  C   UNL     1      -5.484  68.281 -26.363  1.00  0.00    -0.003 A 
ATOM      6  C   UNL     1      -4.389  67.556 -26.901  1.00  0.00    -0.002 A 
ATOM      7  C   UNL     1      -3.280  67.249 -26.080  1.00  0.00     0.121 A 
ATOM      8  C   UNL     1      -4.422  67.060 -28.329  1.00  0.00     0.049 C 
ATOM      9  C   UNL     1      -6.699  68.592 -27.207  1.00  0.00     0.049 C 
ENDROOT
BRANCH   7  10
ATOM     10  O   UNL     1      -2.236  66.482 -26.608  1.00  0.00    -0.507 OA
ATOM     11  H   UNL     1      -2.237  65.470 -26.618  1.00  0.00     0.293 HD
ENDBRANCH   7  10
BRANCH   4  12
ATOM     12  O   UNL     1      -6.458  69.519 -24.509  1.00  0.00    -0.508 OA
ATOM     13  H   UNL     1      -6.289  70.401 -24.041  1.00  0.00     0.293 HD
ENDBRANCH   4  12
TORSDOF 2
ENDMDL
MODEL 4
REMARK VINA RESULT:    -5.220     12.019     13.621
REMARK INTER + INTRA:          -5.525
REMARK INTER:                  -5.525
REMARK INTRA:                   0.000
REMARK UNBOUND:                 0.000
REMARK SMILES Cc1cc(O)c(C)c(C)c1O
REMARK SMILES IDX 1 1 2 2 3 3 4 4 6 5 8 6 10 7 9 8 7 9 11 10 5 12
REMARK H PARENT 11 11 5 13
REMARK Flexibility Score: inf
ROOT
ATOM      1  C   UNL     1      -2.869  62.566 -16.317  1.00  0.00     0.048 C 
ATOM      2  C   UNL     1      -3.494  61.866 -15.140  1.00  0.00    -0.005 A 
ATOM      3  C   UNL     1      -4.752  61.272 -15.286  1.00  0.00     0.053 A 
ATOM      4  C   UNL     1      -5.372  60.627 -14.212  1.00  0.00     0.119 A 
ATOM      5  C   UNL     1      -4.735  60.570 -12.957  1.00  0.00    -0.003 A 
ATOM      6  C   UNL     1      -3.437  61.123 -12.808  1.00  0.00    -0.002 A 
ATOM      7  C   UNL     1      -2.833  61.797 -13.894  1.00  0.00     0.121 A 
ATOM      8  C   UNL     1      -2.717  61.048 -11.481  1.00  0.00     0.049 C 
ATOM      9  C   UNL     1      -5.421  59.876 -11.802  1.00  0.00     0.049 C 
ENDROOT
BRANCH   7  10
ATOM     10  O   UNL     1      -1.579  62.389 -13.713  1.00  0.00    -0.507 OA
ATOM     11  H   UNL     1      -1.366  63.024 -12.954  1.00  0.00     0.293 HD
ENDBRANCH   7  10
BRANCH   4  12
ATOM     12  O   UNL     1      -6.626  60.041 -14.394  1.00  0.00    -0.508 OA
ATOM     13  H   UNL     1      -7.368  60.146 -13.712  1.00  0.00     0.293 HD
ENDBRANCH   4  12
TORSDOF 2
ENDMDL
MODEL 5
REMARK VINA RESULT:    -5.215      2.026      4.643
REMARK INTER + INTRA:          -5.520
REMARK INTER:                  -5.520
REMARK INTRA:                   0.000
REMARK UNBOUND:                 0.000
REMARK SMILES Cc1cc(O)c(C)c(C)c1O
REMARK SMILES IDX 1 1 2 2 3 3 4 4 6 5 8 6 10 7 9 8 7 9 11 10 5 12
REMARK H PARENT 11 11 5 13
REMARK Flexibility Score: inf
ROOT
ATOM      1  C   UNL     1      -4.522  68.231 -20.137  1.00  0.00     0.048 C 
ATOM      2  C   UNL     1      -4.797  68.426 -21.605  1.00  0.00    -0.005 A 
ATOM      3  C   UNL     1      -6.119  68.569 -22.040  1.00  0.00     0.053 A 
ATOM      4  C   UNL     1      -6.416  68.735 -23.396  1.00  0.00     0.119 A 
ATOM      5  C   UNL     1      -5.380  68.758 -24.349  1.00  0.00    -0.003 A 
ATOM      6  C   UNL     1      -4.032  68.665 -23.918  1.00  0.00    -0.002 A 
ATOM      7  C   UNL     1      -3.746  68.469 -22.547  1.00  0.00     0.121 A 
ATOM      8  C   UNL     1      -2.899  68.718 -24.917  1.00  0.00     0.049 C 
ATOM      9  C   UNL     1      -5.716  68.931 -25.813  1.00  0.00     0.049 C 
ENDROOT
BRANCH   7  10
ATOM     10  O   UNL     1      -2.415  68.320 -22.145  1.00  0.00    -0.507 OA
ATOM     11  H   UNL     1      -2.130  68.238 -21.177  1.00  0.00     0.293 HD
ENDBRANCH   7  10
BRANCH   4  12
ATOM     12  O   UNL     1      -7.746  68.879 -23.794  1.00  0.00    -0.508 OA
ATOM     13  H   UNL     1      -8.193  69.787 -23.844  1.00  0.00     0.293 HD
ENDBRANCH   4  12
TORSDOF 2
ENDMDL
MODEL 6
REMARK VINA RESULT:    -5.209      3.083      5.928
REMARK INTER + INTRA:          -5.513
REMARK INTER:                  -5.513
REMARK INTRA:                   0.000
REMARK UNBOUND:                 0.000
REMARK SMILES Cc1cc(O)c(C)c(C)c1O
REMARK SMILES IDX 1 1 2 2 3 3 4 4 6 5 8 6 10 7 9 8 7 9 11 10 5 12
REMARK H PARENT 11 11 5 13
REMARK Flexibility Score: inf
ROOT
ATOM      1  C   UNL     1      -3.123  68.342 -19.781  1.00  0.00     0.048 C 
ATOM      2  C   UNL     1      -4.464  68.350 -20.465  1.00  0.00    -0.005 A 
ATOM      3  C   UNL     1      -5.621  68.143 -19.706  1.00  0.00     0.053 A 
ATOM      4  C   UNL     1      -6.882  68.127 -20.308  1.00  0.00     0.119 A 
ATOM      5  C   UNL     1      -7.006  68.316 -21.698  1.00  0.00    -0.003 A 
ATOM      6  C   UNL     1      -5.847  68.578 -22.473  1.00  0.00    -0.002 A 
ATOM      7  C   UNL     1      -4.574  68.564 -21.857  1.00  0.00     0.121 A 
ATOM      8  C   UNL     1      -5.954  68.816 -23.962  1.00  0.00     0.049 C 
ATOM      9  C   UNL     1      -8.376  68.289 -22.337  1.00  0.00     0.049 C 
ENDROOT
BRANCH   7  10
ATOM     10  O   UNL     1      -3.436  68.764 -22.645  1.00  0.00    -0.507 OA
ATOM     11  H   UNL     1      -2.518  68.416 -22.398  1.00  0.00     0.293 HD
ENDBRANCH   7  10
BRANCH   4  12
ATOM     12  O   UNL     1      -8.016  67.922 -19.520  1.00  0.00    -0.508 OA
ATOM     13  H   UNL     1      -8.123  67.095 -18.945  1.00  0.00     0.293 HD
ENDBRANCH   4  12
TORSDOF 2
ENDMDL
MODEL 7
REMARK VINA RESULT:    -5.208      1.737      2.188
REMARK INTER + INTRA:          -5.512
REMARK INTER:                  -5.512
REMARK INTRA:                   0.000
REMARK UNBOUND:                 0.000
REMARK SMILES Cc1cc(O)c(C)c(C)c1O
REMARK SMILES IDX 1 1 2 2 3 3 4 4 6 5 8 6 10 7 9 8 7 9 11 10 5 12
REMARK H PARENT 11 11 5 13
REMARK Flexibility Score: inf
ROOT
ATOM      1  C   UNL     1      -6.125  69.233 -26.408  1.00  0.00     0.048 C 
ATOM      2  C   UNL     1      -5.456  68.981 -25.083  1.00  0.00    -0.005 A 
ATOM      3  C   UNL     1      -4.061  68.905 -25.024  1.00  0.00     0.053 A 
ATOM      4  C   UNL     1      -3.405  68.657 -23.815  1.00  0.00     0.119 A 
ATOM      5  C   UNL     1      -4.146  68.474 -22.632  1.00  0.00    -0.003 A 
ATOM      6  C   UNL     1      -5.559  68.600 -22.667  1.00  0.00    -0.002 A 
ATOM      7  C   UNL     1      -6.212  68.824 -23.901  1.00  0.00     0.121 A 
ATOM      8  C   UNL     1      -6.378  68.440 -21.406  1.00  0.00     0.049 C 
ATOM      9  C   UNL     1      -3.424  68.198 -21.332  1.00  0.00     0.049 C 
ENDROOT
BRANCH   7  10
ATOM     10  O   UNL     1      -7.610  68.885 -23.928  1.00  0.00    -0.507 OA
ATOM     11  H   UNL     1      -8.136  69.272 -24.701  1.00  0.00     0.293 HD
ENDBRANCH   7  10
BRANCH   4  12
ATOM     12  O   UNL     1      -2.011  68.591 -23.791  1.00  0.00    -0.508 OA
ATOM     13  H   UNL     1      -1.521  67.791 -23.408  1.00  0.00     0.293 HD
ENDBRANCH   4  12
TORSDOF 2
ENDMDL
MODEL 8
REMARK VINA RESULT:    -5.170      2.294      4.140
REMARK INTER + INTRA:          -5.472
REMARK INTER:                  -5.472
REMARK INTRA:                   0.000
REMARK UNBOUND:                 0.000
REMARK SMILES Cc1cc(O)c(C)c(C)c1O
REMARK SMILES IDX 1 1 2 2 3 3 4 4 6 5 8 6 10 7 9 8 7 9 11 10 5 12
REMARK H PARENT 11 11 5 13
REMARK Flexibility Score: inf
ROOT
ATOM      1  C   UNL     1      -2.807  68.631 -24.950  1.00  0.00     0.048 C 
ATOM      2  C   UNL     1      -3.951  68.624 -23.972  1.00  0.00    -0.005 A 
ATOM      3  C   UNL     1      -5.263  68.700 -24.452  1.00  0.00     0.053 A 
ATOM      4  C   UNL     1      -6.351  68.712 -23.575  1.00  0.00     0.119 A 
ATOM      5  C   UNL     1      -6.139  68.651 -22.184  1.00  0.00    -0.003 A 
ATOM      6  C   UNL     1      -4.818  68.522 -21.684  1.00  0.00    -0.002 A 
ATOM      7  C   UNL     1      -3.724  68.539 -22.580  1.00  0.00     0.121 A 
ATOM      8  C   UNL     1      -4.564  68.423 -20.197  1.00  0.00     0.049 C 
ATOM      9  C   UNL     1      -7.325  68.673 -21.246  1.00  0.00     0.049 C 
ENDROOT
BRANCH   7  10
ATOM     10  O   UNL     1      -2.425  68.471 -22.067  1.00  0.00    -0.507 OA
ATOM     11  H   UNL     1      -1.987  67.609 -21.769  1.00  0.00     0.293 HD
ENDBRANCH   7  10
BRANCH   4  12
ATOM     12  O   UNL     1      -7.647  68.785 -24.089  1.00  0.00    -0.508 OA
ATOM     13  H   UNL     1      -7.839  68.637 -25.073  1.00  0.00     0.293 HD
ENDBRANCH   4  12
TORSDOF 2
ENDMDL
MODEL 9
REMARK VINA RESULT:    -5.154      1.898      3.724
REMARK INTER + INTRA:          -5.455
REMARK INTER:                  -5.455
REMARK INTRA:                   0.000
REMARK UNBOUND:                 0.000
REMARK SMILES Cc1cc(O)c(C)c(C)c1O
REMARK SMILES IDX 1 1 2 2 3 3 4 4 6 5 8 6 10 7 9 8 7 9 11 10 5 12
REMARK H PARENT 11 11 5 13
REMARK Flexibility Score: inf
ROOT
ATOM      1  C   UNL     1      -5.872  68.431 -20.312  1.00  0.00     0.048 C 
ATOM      2  C   UNL     1      -5.155  68.467 -21.636  1.00  0.00    -0.005 A 
ATOM      3  C   UNL     1      -3.787  68.178 -21.682  1.00  0.00     0.053 A 
ATOM      4  C   UNL     1      -3.085  68.217 -22.889  1.00  0.00     0.119 A 
ATOM      5  C   UNL     1      -3.749  68.554 -24.084  1.00  0.00    -0.003 A 
ATOM      6  C   UNL     1      -5.146  68.799 -24.061  1.00  0.00    -0.002 A 
ATOM      7  C   UNL     1      -5.840  68.784 -22.830  1.00  0.00     0.121 A 
ATOM      8  C   UNL     1      -5.890  69.132 -25.334  1.00  0.00     0.049 C 
ATOM      9  C   UNL     1      -2.974  68.600 -25.382  1.00  0.00     0.049 C 
ENDROOT
BRANCH   7  10
ATOM     10  O   UNL     1      -7.205  69.087 -22.816  1.00  0.00    -0.507 OA
ATOM     11  H   UNL     1      -7.636  69.689 -22.126  1.00  0.00     0.293 HD
ENDBRANCH   7  10
BRANCH   4  12
ATOM     12  O   UNL     1      -1.721  67.919 -22.899  1.00  0.00    -0.508 OA
ATOM     13  H   UNL     1      -1.025  68.597 -22.614  1.00  0.00     0.293 HD
ENDBRANCH   4  12
TORSDOF 2
ENDMDL
