MODEL 1
REMARK VINA RESULT:    -4.267      0.000      0.000
REMARK INTER + INTRA:          -8.562
REMARK INTER:                  -7.759
REMARK INTRA:                  -0.803
REMARK UNBOUND:                -0.803
REMARK SMILES CCCCCCCCCCCCCC[C@H](C)C(=O)[O-]
REMARK SMILES IDX 9 1 10 2 11 3 12 4 13 5 14 6 15 7 16 8 17 9 18 10 19 11 8 12
REMARK SMILES IDX 7 13 6 14 5 15 4 16 3 17 2 18 1 19
REMARK H PARENT
REMARK Flexibility Score: inf
ROOT
ATOM      1  C   UNL     1       8.975   7.018   8.269  1.00  0.00     0.000 C 
ENDROOT
BRANCH   1   2
ATOM      2  C   UNL     1      10.040   6.122   8.918  1.00  0.00     0.000 C 
BRANCH   2   3
ATOM      3  C   UNL     1       9.387   4.974   9.703  1.00  0.00     0.000 C 
BRANCH   3   4
ATOM      4  C   UNL     1       7.853   4.994   9.613  1.00  0.00     0.000 C 
BRANCH   4   5
ATOM      5  C   UNL     1       7.238   3.586   9.659  1.00  0.00     0.001 C 
BRANCH   5   6
ATOM      6  C   UNL     1       6.297   3.299   8.475  1.00  0.00     0.009 C 
BRANCH   6   7
ATOM      7  C   UNL     1       5.166   2.287   8.808  1.00  0.00     0.032 C 
ATOM      8  C   UNL     1       5.644   1.192   9.771  1.00  0.00     0.014 C 
BRANCH   7   9
ATOM      9  C   UNL     1       4.647   1.643   7.550  1.00  0.00     0.044 C 
ATOM     10  O   UNL     1       3.708   2.179   6.904  1.00  0.00    -0.550 OA
ATOM     11  O   UNL     1       5.198   0.449   7.096  1.00  0.00    -0.550 OA
ENDBRANCH   7   9
ENDBRANCH   6   7
ENDBRANCH   5   6
ENDBRANCH   4   5
ENDBRANCH   3   4
ENDBRANCH   2   3
ENDBRANCH   1   2
BRANCH   1  12
ATOM     12  C   UNL     1       8.927   8.430   8.880  1.00  0.00     0.000 C 
BRANCH  12  13
ATOM     13  C   UNL     1       7.659   8.749   9.698  1.00  0.00    -0.000 C 
BRANCH  13  14
ATOM     14  C   UNL     1       7.197  10.217   9.640  1.00  0.00    -0.000 C 
BRANCH  14  15
ATOM     15  C   UNL     1       7.002  10.780   8.219  1.00  0.00    -0.000 C 
BRANCH  15  16
ATOM     16  C   UNL     1       6.210  12.105   8.179  1.00  0.00    -0.000 C 
BRANCH  16  17
ATOM     17  C   UNL     1       4.712  11.905   8.452  1.00  0.00    -0.000 C 
BRANCH  17  18
ATOM     18  C   UNL     1       3.873  12.326   7.240  1.00  0.00    -0.003 C 
ATOM     19  C   UNL     1       3.998  11.313   6.105  1.00  0.00     0.004 C 
ENDBRANCH  17  18
ENDBRANCH  16  17
ENDBRANCH  15  16
ENDBRANCH  14  15
ENDBRANCH  13  14
ENDBRANCH  12  13
ENDBRANCH   1  12
TORSDOF 14
ENDMDL
MODEL 2
REMARK VINA RESULT:    -3.791      3.789      6.662
REMARK INTER + INTRA:          -7.698
REMARK INTER:                  -6.860
REMARK INTRA:                  -0.838
REMARK UNBOUND:                -0.803
REMARK SMILES CCCCCCCCCCCCCC[C@H](C)C(=O)[O-]
REMARK SMILES IDX 9 1 10 2 11 3 12 4 13 5 14 6 15 7 16 8 17 9 18 10 19 11 8 12
REMARK SMILES IDX 7 13 6 14 5 15 4 16 3 17 2 18 1 19
REMARK H PARENT
REMARK Flexibility Score: inf
ROOT
ATOM      1  C   UNL     1       5.402   3.242   8.744  1.00  0.00     0.000 C 
ENDROOT
BRANCH   1   2
ATOM      2  C   UNL     1       4.141   2.657   8.089  1.00  0.00     0.000 C 
BRANCH   2   3
ATOM      3  C   UNL     1       3.602   1.470   8.901  1.00  0.00     0.000 C 
BRANCH   3   4
ATOM      4  C   UNL     1       2.199   1.734   9.472  1.00  0.00     0.000 C 
BRANCH   4   5
ATOM      5  C   UNL     1       2.063   3.138  10.083  1.00  0.00     0.001 C 
BRANCH   5   6
ATOM      6  C   UNL     1       1.063   4.031   9.326  1.00  0.00     0.009 C 
BRANCH   6   7
ATOM      7  C   UNL     1      -0.370   4.010   9.925  1.00  0.00     0.032 C 
ATOM      8  C   UNL     1      -1.269   2.987   9.217  1.00  0.00     0.014 C 
BRANCH   7   9
ATOM      9  C   UNL     1      -1.003   5.372   9.826  1.00  0.00     0.044 C 
ATOM     10  O   UNL     1      -2.252   5.499   9.927  1.00  0.00    -0.550 OA
ATOM     11  O   UNL     1      -0.214   6.497   9.617  1.00  0.00    -0.550 OA
ENDBRANCH   7   9
ENDBRANCH   6   7
ENDBRANCH   5   6
ENDBRANCH   4   5
ENDBRANCH   3   4
ENDBRANCH   2   3
ENDBRANCH   1   2
BRANCH   1  12
ATOM     12  C   UNL     1       6.224   2.188   9.507  1.00  0.00     0.000 C 
BRANCH  12  13
ATOM     13  C   UNL     1       7.542   2.702  10.121  1.00  0.00    -0.000 C 
BRANCH  13  14
ATOM     14  C   UNL     1       7.950   4.124   9.694  1.00  0.00    -0.000 C 
BRANCH  14  15
ATOM     15  C   UNL     1       9.386   4.530  10.078  1.00  0.00    -0.000 C 
BRANCH  15  16
ATOM     16  C   UNL     1       9.910   5.762   9.307  1.00  0.00    -0.000 C 
BRANCH  16  17
ATOM     17  C   UNL     1       8.822   6.430   8.454  1.00  0.00    -0.000 C 
BRANCH  17  18
ATOM     18  C   UNL     1       9.363   7.685   7.759  1.00  0.00    -0.003 C 
ATOM     19  C   UNL     1       8.906   8.952   8.477  1.00  0.00     0.004 C 
ENDBRANCH  17  18
ENDBRANCH  16  17
ENDBRANCH  15  16
ENDBRANCH  14  15
ENDBRANCH  13  14
ENDBRANCH  12  13
ENDBRANCH   1  12
TORSDOF 14
ENDMDL
MODEL 3
REMARK VINA RESULT:    -3.729      4.768      7.765
REMARK INTER + INTRA:          -7.584
REMARK INTER:                  -6.875
REMARK INTRA:                  -0.709
REMARK UNBOUND:                -0.803
REMARK SMILES CCCCCCCCCCCCCC[C@H](C)C(=O)[O-]
REMARK SMILES IDX 9 1 10 2 11 3 12 4 13 5 14 6 15 7 16 8 17 9 18 10 19 11 8 12
REMARK SMILES IDX 7 13 6 14 5 15 4 16 3 17 2 18 1 19
REMARK H PARENT
REMARK Flexibility Score: inf
ROOT
ATOM      1  C   UNL     1       5.158   3.240   9.022  1.00  0.00     0.000 C 
ENDROOT
BRANCH   1   2
ATOM      2  C   UNL     1       6.377   2.308   8.958  1.00  0.00     0.000 C 
BRANCH   2   3
ATOM      3  C   UNL     1       7.514   2.830   9.850  1.00  0.00     0.000 C 
BRANCH   3   4
ATOM      4  C   UNL     1       7.460   4.353  10.048  1.00  0.00     0.000 C 
BRANCH   4   5
ATOM      5  C   UNL     1       8.313   5.114   9.020  1.00  0.00     0.001 C 
BRANCH   5   6
ATOM      6  C   UNL     1       9.621   5.668   9.614  1.00  0.00     0.009 C 
BRANCH   6   7
ATOM      7  C   UNL     1       9.885   7.158   9.261  1.00  0.00     0.032 C 
ATOM      8  C   UNL     1       9.081   7.604   8.031  1.00  0.00     0.014 C 
BRANCH   7   9
ATOM      9  C   UNL     1      11.350   7.387   9.000  1.00  0.00     0.044 C 
ATOM     10  O   UNL     1      12.032   8.090   9.790  1.00  0.00    -0.550 OA
ATOM     11  O   UNL     1      11.957   6.827   7.881  1.00  0.00    -0.550 OA
ENDBRANCH   7   9
ENDBRANCH   6   7
ENDBRANCH   5   6
ENDBRANCH   4   5
ENDBRANCH   3   4
ENDBRANCH   2   3
ENDBRANCH   1   2
BRANCH   1  12
ATOM     12  C   UNL     1       3.957   2.710   8.219  1.00  0.00     0.000 C 
BRANCH  12  13
ATOM     13  C   UNL     1       2.989   1.802   9.006  1.00  0.00    -0.000 C 
BRANCH  13  14
ATOM     14  C   UNL     1       1.936   2.546   9.849  1.00  0.00    -0.000 C 
BRANCH  14  15
ATOM     15  C   UNL     1       1.603   3.969   9.362  1.00  0.00    -0.000 C 
BRANCH  15  16
ATOM     16  C   UNL     1       0.203   4.461   9.791  1.00  0.00    -0.000 C 
BRANCH  16  17
ATOM     17  C   UNL     1      -0.922   3.537   9.302  1.00  0.00    -0.000 C 
BRANCH  17  18
ATOM     18  C   UNL     1      -1.985   4.327   8.530  1.00  0.00    -0.003 C 
ATOM     19  C   UNL     1      -2.420   5.567   9.307  1.00  0.00     0.004 C 
ENDBRANCH  17  18
ENDBRANCH  16  17
ENDBRANCH  15  16
ENDBRANCH  14  15
ENDBRANCH  13  14
ENDBRANCH  12  13
ENDBRANCH   1  12
TORSDOF 14
ENDMDL
MODEL 4
REMARK VINA RESULT:    -3.615      3.324      8.022
REMARK INTER + INTRA:          -7.377
REMARK INTER:                  -6.579
REMARK INTRA:                  -0.799
REMARK UNBOUND:                -0.803
REMARK SMILES CCCCCCCCCCCCCC[C@H](C)C(=O)[O-]
REMARK SMILES IDX 9 1 10 2 11 3 12 4 13 5 14 6 15 7 16 8 17 9 18 10 19 11 8 12
REMARK SMILES IDX 7 13 6 14 5 15 4 16 3 17 2 18 1 19
REMARK H PARENT
REMARK Flexibility Score: inf
ROOT
ATOM      1  C   UNL     1       9.652   7.742   7.760  1.00  0.00     0.000 C 
ENDROOT
BRANCH   1   2
ATOM      2  C   UNL     1       9.418   8.813   8.835  1.00  0.00     0.000 C 
BRANCH   2   3
ATOM      3  C   UNL     1       7.916   9.049   9.057  1.00  0.00     0.000 C 
BRANCH   3   4
ATOM      4  C   UNL     1       7.629  10.338   9.842  1.00  0.00     0.000 C 
BRANCH   4   5
ATOM      5  C   UNL     1       6.304  11.000   9.431  1.00  0.00     0.001 C 
BRANCH   5   6
ATOM      6  C   UNL     1       6.312  11.516   7.981  1.00  0.00     0.009 C 
BRANCH   6   7
ATOM      7  C   UNL     1       5.151  12.497   7.661  1.00  0.00     0.032 C 
ATOM      8  C   UNL     1       4.749  13.325   8.889  1.00  0.00     0.014 C 
BRANCH   7   9
ATOM      9  C   UNL     1       3.947  11.745   7.160  1.00  0.00     0.044 C 
ATOM     10  O   UNL     1       3.972  11.190   6.030  1.00  0.00    -0.550 OA
ATOM     11  O   UNL     1       2.798  11.664   7.939  1.00  0.00    -0.550 OA
ENDBRANCH   7   9
ENDBRANCH   6   7
ENDBRANCH   5   6
ENDBRANCH   4   5
ENDBRANCH   3   4
ENDBRANCH   2   3
ENDBRANCH   1   2
BRANCH   1  12
ATOM     12  C   UNL     1      10.531   6.579   8.255  1.00  0.00     0.000 C 
BRANCH  12  13
ATOM     13  C   UNL     1      10.233   6.096   9.689  1.00  0.00    -0.000 C 
BRANCH  13  14
ATOM     14  C   UNL     1       9.537   4.725   9.785  1.00  0.00    -0.000 C 
BRANCH  14  15
ATOM     15  C   UNL     1       8.064   4.713   9.333  1.00  0.00    -0.000 C 
BRANCH  15  16
ATOM     16  C   UNL     1       7.309   3.419   9.709  1.00  0.00    -0.000 C 
BRANCH  16  17
ATOM     17  C   UNL     1       6.042   3.211   8.867  1.00  0.00    -0.000 C 
BRANCH  17  18
ATOM     18  C   UNL     1       5.662   1.727   8.805  1.00  0.00    -0.003 C 
ATOM     19  C   UNL     1       5.039   1.374   7.457  1.00  0.00     0.004 C 
ENDBRANCH  17  18
ENDBRANCH  16  17
ENDBRANCH  15  16
ENDBRANCH  14  15
ENDBRANCH  13  14
ENDBRANCH  12  13
ENDBRANCH   1  12
TORSDOF 14
ENDMDL
MODEL 5
REMARK VINA RESULT:    -3.577      4.209      6.554
REMARK INTER + INTRA:          -7.309
REMARK INTER:                  -6.634
REMARK INTRA:                  -0.674
REMARK UNBOUND:                -0.803
REMARK SMILES CCCCCCCCCCCCCC[C@H](C)C(=O)[O-]
REMARK SMILES IDX 9 1 10 2 11 3 12 4 13 5 14 6 15 7 16 8 17 9 18 10 19 11 8 12
REMARK SMILES IDX 7 13 6 14 5 15 4 16 3 17 2 18 1 19
REMARK H PARENT
REMARK Flexibility Score: inf
ROOT
ATOM      1  C   UNL     1       5.782   3.447   9.199  1.00  0.00     0.000 C 
ENDROOT
BRANCH   1   2
ATOM      2  C   UNL     1       4.358   3.420   9.776  1.00  0.00     0.000 C 
BRANCH   2   3
ATOM      3  C   UNL     1       3.413   2.619   8.868  1.00  0.00     0.000 C 
BRANCH   3   4
ATOM      4  C   UNL     1       2.882   1.345   9.544  1.00  0.00     0.000 C 
BRANCH   4   5
ATOM      5  C   UNL     1       1.414   1.475   9.983  1.00  0.00     0.001 C 
BRANCH   5   6
ATOM      6  C   UNL     1       0.851   2.894   9.791  1.00  0.00     0.009 C 
BRANCH   6   7
ATOM      7  C   UNL     1      -0.679   2.998  10.044  1.00  0.00     0.032 C 
ATOM      8  C   UNL     1      -1.409   1.702   9.663  1.00  0.00     0.014 C 
BRANCH   7   9
ATOM      9  C   UNL     1      -1.267   4.141   9.260  1.00  0.00     0.044 C 
ATOM     10  O   UNL     1      -0.652   5.237   9.182  1.00  0.00    -0.550 OA
ATOM     11  O   UNL     1      -2.494   3.996   8.624  1.00  0.00    -0.550 OA
ENDBRANCH   7   9
ENDBRANCH   6   7
ENDBRANCH   5   6
ENDBRANCH   4   5
ENDBRANCH   3   4
ENDBRANCH   2   3
ENDBRANCH   1   2
BRANCH   1  12
ATOM     12  C   UNL     1       6.790   4.151  10.125  1.00  0.00     0.000 C 
BRANCH  12  13
ATOM     13  C   UNL     1       8.259   3.716   9.947  1.00  0.00    -0.000 C 
BRANCH  13  14
ATOM     14  C   UNL     1       9.231   4.846   9.558  1.00  0.00    -0.000 C 
BRANCH  14  15
ATOM     15  C   UNL     1       8.564   6.200   9.253  1.00  0.00    -0.000 C 
BRANCH  15  16
ATOM     16  C   UNL     1       9.302   7.030   8.179  1.00  0.00    -0.000 C 
BRANCH  16  17
ATOM     17  C   UNL     1      10.155   8.153   8.786  1.00  0.00    -0.000 C 
BRANCH  17  18
ATOM     18  C   UNL     1      11.467   7.599   9.354  1.00  0.00    -0.003 C 
ATOM     19  C   UNL     1      12.294   6.918   8.267  1.00  0.00     0.004 C 
ENDBRANCH  17  18
ENDBRANCH  16  17
ENDBRANCH  15  16
ENDBRANCH  14  15
ENDBRANCH  13  14
ENDBRANCH  12  13
ENDBRANCH   1  12
TORSDOF 14
ENDMDL
MODEL 6
REMARK VINA RESULT:    -3.559      1.267      2.466
REMARK INTER + INTRA:          -7.275
REMARK INTER:                  -6.821
REMARK INTRA:                  -0.455
REMARK UNBOUND:                -0.803
REMARK SMILES CCCCCCCCCCCCCC[C@H](C)C(=O)[O-]
REMARK SMILES IDX 9 1 10 2 11 3 12 4 13 5 14 6 15 7 16 8 17 9 18 10 19 11 8 12
REMARK SMILES IDX 7 13 6 14 5 15 4 16 3 17 2 18 1 19
REMARK H PARENT
REMARK Flexibility Score: inf
ROOT
ATOM      1  C   UNL     1       8.437   5.876   8.976  1.00  0.00     0.000 C 
ENDROOT
BRANCH   1   2
ATOM      2  C   UNL     1       7.875   5.025  10.125  1.00  0.00     0.000 C 
BRANCH   2   3
ATOM      3  C   UNL     1       8.428   3.594  10.069  1.00  0.00     0.000 C 
BRANCH   3   4
ATOM      4  C   UNL     1       7.321   2.537   9.933  1.00  0.00     0.000 C 
BRANCH   4   5
ATOM      5  C   UNL     1       6.441   2.757   8.691  1.00  0.00     0.001 C 
BRANCH   5   6
ATOM      6  C   UNL     1       4.975   3.069   9.038  1.00  0.00     0.009 C 
BRANCH   6   7
ATOM      7  C   UNL     1       3.954   2.130   8.338  1.00  0.00     0.032 C 
ATOM      8  C   UNL     1       2.857   1.659   9.303  1.00  0.00     0.014 C 
BRANCH   7   9
ATOM      9  C   UNL     1       4.652   0.926   7.764  1.00  0.00     0.044 C 
ATOM     10  O   UNL     1       5.044  -0.001   8.522  1.00  0.00    -0.550 OA
ATOM     11  O   UNL     1       4.875   0.832   6.395  1.00  0.00    -0.550 OA
ENDBRANCH   7   9
ENDBRANCH   6   7
ENDBRANCH   5   6
ENDBRANCH   4   5
ENDBRANCH   3   4
ENDBRANCH   2   3
ENDBRANCH   1   2
BRANCH   1  12
ATOM     12  C   UNL     1       9.932   6.200   9.147  1.00  0.00     0.000 C 
BRANCH  12  13
ATOM     13  C   UNL     1      10.402   7.508   8.477  1.00  0.00    -0.000 C 
BRANCH  13  14
ATOM     14  C   UNL     1      10.267   8.772   9.347  1.00  0.00    -0.000 C 
BRANCH  14  15
ATOM     15  C   UNL     1       8.868   8.998   9.951  1.00  0.00    -0.000 C 
BRANCH  15  16
ATOM     16  C   UNL     1       7.787   9.338   8.903  1.00  0.00    -0.000 C 
BRANCH  16  17
ATOM     17  C   UNL     1       6.960  10.573   9.289  1.00  0.00    -0.000 C 
BRANCH  17  18
ATOM     18  C   UNL     1       6.541  11.365   8.045  1.00  0.00    -0.003 C 
ATOM     19  C   UNL     1       5.268  12.166   8.305  1.00  0.00     0.004 C 
ENDBRANCH  17  18
ENDBRANCH  16  17
ENDBRANCH  15  16
ENDBRANCH  14  15
ENDBRANCH  13  14
ENDBRANCH  12  13
ENDBRANCH   1  12
TORSDOF 14
ENDMDL
MODEL 7
REMARK VINA RESULT:    -3.333      3.710      6.139
REMARK INTER + INTRA:          -6.865
REMARK INTER:                  -6.258
REMARK INTRA:                  -0.607
REMARK UNBOUND:                -0.803
REMARK SMILES CCCCCCCCCCCCCC[C@H](C)C(=O)[O-]
REMARK SMILES IDX 9 1 10 2 11 3 12 4 13 5 14 6 15 7 16 8 17 9 18 10 19 11 8 12
REMARK SMILES IDX 7 13 6 14 5 15 4 16 3 17 2 18 1 19
REMARK H PARENT
REMARK Flexibility Score: inf
ROOT
ATOM      1  C   UNL     1       5.924   3.139   8.625  1.00  0.00     0.000 C 
ENDROOT
BRANCH   1   2
ATOM      2  C   UNL     1       4.444   3.491   8.837  1.00  0.00     0.000 C 
BRANCH   2   3
ATOM      3  C   UNL     1       4.261   4.359  10.091  1.00  0.00     0.000 C 
BRANCH   3   4
ATOM      4  C   UNL     1       2.908   5.088  10.113  1.00  0.00     0.000 C 
BRANCH   4   5
ATOM      5  C   UNL     1       1.834   4.369   9.280  1.00  0.00     0.001 C 
BRANCH   5   6
ATOM      6  C   UNL     1       0.401   4.674   9.753  1.00  0.00     0.009 C 
BRANCH   6   7
ATOM      7  C   UNL     1      -0.696   3.950   8.924  1.00  0.00     0.032 C 
ATOM      8  C   UNL     1      -2.041   4.687   8.991  1.00  0.00     0.014 C 
BRANCH   7   9
ATOM      9  C   UNL     1      -0.884   2.539   9.416  1.00  0.00     0.044 C 
ATOM     10  O   UNL     1      -2.005   1.975   9.309  1.00  0.00    -0.550 OA
ATOM     11  O   UNL     1       0.176   1.853   9.996  1.00  0.00    -0.550 OA
ENDBRANCH   7   9
ENDBRANCH   6   7
ENDBRANCH   5   6
ENDBRANCH   4   5
ENDBRANCH   3   4
ENDBRANCH   2   3
ENDBRANCH   1   2
BRANCH   1  12
ATOM     12  C   UNL     1       6.592   2.572   9.891  1.00  0.00     0.000 C 
BRANCH  12  13
ATOM     13  C   UNL     1       8.048   3.025  10.125  1.00  0.00    -0.000 C 
BRANCH  13  14
ATOM     14  C   UNL     1       8.355   4.476   9.710  1.00  0.00    -0.000 C 
BRANCH  14  15
ATOM     15  C   UNL     1       9.840   4.767   9.420  1.00  0.00    -0.000 C 
BRANCH  15  16
ATOM     16  C   UNL     1      10.100   6.192   8.884  1.00  0.00    -0.000 C 
BRANCH  16  17
ATOM     17  C   UNL     1       8.832   6.850   8.319  1.00  0.00    -0.000 C 
BRANCH  17  18
ATOM     18  C   UNL     1       9.042   8.354   8.108  1.00  0.00    -0.003 C 
ATOM     19  C   UNL     1       7.826   9.150   8.575  1.00  0.00     0.004 C 
ENDBRANCH  17  18
ENDBRANCH  16  17
ENDBRANCH  15  16
ENDBRANCH  14  15
ENDBRANCH  13  14
ENDBRANCH  12  13
ENDBRANCH   1  12
TORSDOF 14
ENDMDL
MODEL 8
REMARK VINA RESULT:    -3.321      3.755      7.727
REMARK INTER + INTRA:          -6.843
REMARK INTER:                  -5.586
REMARK INTRA:                  -1.256
REMARK UNBOUND:                -0.803
REMARK SMILES CCCCCCCCCCCCCC[C@H](C)C(=O)[O-]
REMARK SMILES IDX 9 1 10 2 11 3 12 4 13 5 14 6 15 7 16 8 17 9 18 10 19 11 8 12
REMARK SMILES IDX 7 13 6 14 5 15 4 16 3 17 2 18 1 19
REMARK H PARENT
REMARK Flexibility Score: inf
ROOT
ATOM      1  C   UNL     1       4.990  11.675   7.185  1.00  0.00     0.000 C 
ENDROOT
BRANCH   1   2
ATOM      2  C   UNL     1       3.870  12.591   6.671  1.00  0.00     0.000 C 
BRANCH   2   3
ATOM      3  C   UNL     1       3.427  13.581   7.759  1.00  0.00     0.000 C 
BRANCH   3   4
ATOM      4  C   UNL     1       2.150  13.129   8.485  1.00  0.00     0.000 C 
BRANCH   4   5
ATOM      5  C   UNL     1       2.442  12.189   9.667  1.00  0.00     0.001 C 
BRANCH   5   6
ATOM      6  C   UNL     1       1.367  11.104   9.854  1.00  0.00     0.009 C 
BRANCH   6   7
ATOM      7  C   UNL     1       1.765   9.722   9.266  1.00  0.00     0.032 C 
ATOM      8  C   UNL     1       1.794   9.742   7.732  1.00  0.00     0.014 C 
BRANCH   7   9
ATOM      9  C   UNL     1       0.806   8.657   9.726  1.00  0.00     0.044 C 
ATOM     10  O   UNL     1       1.164   7.450   9.748  1.00  0.00    -0.550 OA
ATOM     11  O   UNL     1      -0.482   8.998  10.124  1.00  0.00    -0.550 OA
ENDBRANCH   7   9
ENDBRANCH   6   7
ENDBRANCH   5   6
ENDBRANCH   4   5
ENDBRANCH   3   4
ENDBRANCH   2   3
ENDBRANCH   1   2
BRANCH   1  12
ATOM     12  C   UNL     1       5.917  12.374   8.196  1.00  0.00     0.000 C 
BRANCH  12  13
ATOM     13  C   UNL     1       5.993  11.710   9.586  1.00  0.00    -0.000 C 
BRANCH  13  14
ATOM     14  C   UNL     1       7.311  10.972   9.886  1.00  0.00    -0.000 C 
BRANCH  14  15
ATOM     15  C   UNL     1       7.441   9.584   9.231  1.00  0.00    -0.000 C 
BRANCH  15  16
ATOM     16  C   UNL     1       8.901   9.105   9.075  1.00  0.00    -0.000 C 
BRANCH  16  17
ATOM     17  C   UNL     1       9.057   8.036   7.984  1.00  0.00    -0.000 C 
BRANCH  17  18
ATOM     18  C   UNL     1      10.081   6.973   8.399  1.00  0.00    -0.003 C 
ATOM     19  C   UNL     1       9.424   5.870   9.225  1.00  0.00     0.004 C 
ENDBRANCH  17  18
ENDBRANCH  16  17
ENDBRANCH  15  16
ENDBRANCH  14  15
ENDBRANCH  13  14
ENDBRANCH  12  13
ENDBRANCH   1  12
TORSDOF 14
ENDMDL
MODEL 9
REMARK VINA RESULT:    -3.145      3.065      4.802
REMARK INTER + INTRA:          -6.522
REMARK INTER:                  -5.920
REMARK INTRA:                  -0.603
REMARK UNBOUND:                -0.803
REMARK SMILES CCCCCCCCCCCCCC[C@H](C)C(=O)[O-]
REMARK SMILES IDX 9 1 10 2 11 3 12 4 13 5 14 6 15 7 16 8 17 9 18 10 19 11 8 12
REMARK SMILES IDX 7 13 6 14 5 15 4 16 3 17 2 18 1 19
REMARK H PARENT
REMARK Flexibility Score: inf
ROOT
ATOM      1  C   UNL     1       1.660   7.125   9.896  1.00  0.00     0.000 C 
ENDROOT
BRANCH   1   2
ATOM      2  C   UNL     1       0.807   5.866  10.114  1.00  0.00     0.000 C 
BRANCH   2   3
ATOM      3  C   UNL     1       1.624   4.595   9.838  1.00  0.00     0.000 C 
BRANCH   3   4
ATOM      4  C   UNL     1       3.140   4.852   9.848  1.00  0.00     0.000 C 
BRANCH   4   5
ATOM      5  C   UNL     1       3.894   3.994   8.819  1.00  0.00     0.001 C 
BRANCH   5   6
ATOM      6  C   UNL     1       3.667   2.484   9.010  1.00  0.00     0.009 C 
BRANCH   6   7
ATOM      7  C   UNL     1       4.961   1.698   9.359  1.00  0.00     0.032 C 
ATOM      8  C   UNL     1       6.215   2.569   9.210  1.00  0.00     0.014 C 
BRANCH   7   9
ATOM      9  C   UNL     1       5.096   0.486   8.476  1.00  0.00     0.044 C 
ATOM     10  O   UNL     1       5.167   0.618   7.226  1.00  0.00    -0.550 OA
ATOM     11  O   UNL     1       5.139  -0.787   9.035  1.00  0.00    -0.550 OA
ENDBRANCH   7   9
ENDBRANCH   6   7
ENDBRANCH   5   6
ENDBRANCH   4   5
ENDBRANCH   3   4
ENDBRANCH   2   3
ENDBRANCH   1   2
BRANCH   1  12
ATOM     12  C   UNL     1       0.817   8.410   9.808  1.00  0.00     0.000 C 
BRANCH  12  13
ATOM     13  C   UNL     1       1.585   9.719  10.087  1.00  0.00    -0.000 C 
BRANCH  13  14
ATOM     14  C   UNL     1       1.834  10.605   8.852  1.00  0.00    -0.000 C 
BRANCH  14  15
ATOM     15  C   UNL     1       2.856  11.739   9.063  1.00  0.00    -0.000 C 
BRANCH  15  16
ATOM     16  C   UNL     1       3.684  12.072   7.802  1.00  0.00    -0.000 C 
BRANCH  16  17
ATOM     17  C   UNL     1       4.532  13.340   7.972  1.00  0.00    -0.000 C 
BRANCH  17  18
ATOM     18  C   UNL     1       6.028  13.014   7.888  1.00  0.00    -0.003 C 
ATOM     19  C   UNL     1       6.287  11.537   8.172  1.00  0.00     0.004 C 
ENDBRANCH  17  18
ENDBRANCH  16  17
ENDBRANCH  15  16
ENDBRANCH  14  15
ENDBRANCH  13  14
ENDBRANCH  12  13
ENDBRANCH   1  12
TORSDOF 14
ENDMDL
