MODEL 1
REMARK VINA RESULT:    -6.234      0.000      0.000
REMARK INTER + INTRA:         -12.166
REMARK INTER:                 -11.335
REMARK INTRA:                  -0.831
REMARK UNBOUND:                -0.831
REMARK SMILES CCCCCCCCCCCCCC[C@@H](C)C(=O)[O-]
REMARK SMILES IDX 9 1 10 2 11 3 12 4 13 5 14 6 15 7 16 8 17 9 18 10 19 11 8 12
REMARK SMILES IDX 7 13 6 14 5 15 4 16 3 17 2 18 1 19
REMARK H PARENT
REMARK Flexibility Score: inf
ROOT
ATOM      1  C   UNL     1     103.802 312.959 197.381  1.00  0.00     0.000 C 
ENDROOT
BRANCH   1   2
ATOM      2  C   UNL     1     103.780 311.563 198.024  1.00  0.00     0.000 C 
BRANCH   2   3
ATOM      3  C   UNL     1     103.277 311.592 199.478  1.00  0.00     0.000 C 
BRANCH   3   4
ATOM      4  C   UNL     1     104.387 311.929 200.489  1.00  0.00     0.000 C 
BRANCH   4   5
ATOM      5  C   UNL     1     103.917 312.067 201.950  1.00  0.00     0.001 C 
BRANCH   5   6
ATOM      6  C   UNL     1     103.964 310.735 202.722  1.00  0.00     0.009 C 
BRANCH   6   7
ATOM      7  C   UNL     1     104.269 310.883 204.230  1.00  0.00     0.032 C 
ATOM      8  C   UNL     1     105.059 312.159 204.554  1.00  0.00     0.014 C 
BRANCH   7   9
ATOM      9  C   UNL     1     103.018 310.778 205.063  1.00  0.00     0.044 C 
ATOM     10  O   UNL     1     101.939 310.406 204.530  1.00  0.00    -0.550 OA
ATOM     11  O   UNL     1     103.026 311.142 206.405  1.00  0.00    -0.550 OA
ENDBRANCH   7   9
ENDBRANCH   6   7
ENDBRANCH   5   6
ENDBRANCH   4   5
ENDBRANCH   3   4
ENDBRANCH   2   3
ENDBRANCH   1   2
BRANCH   1  12
ATOM     12  C   UNL     1     103.987 312.900 195.854  1.00  0.00     0.000 C 
BRANCH  12  13
ATOM     13  C   UNL     1     103.631 311.525 195.268  1.00  0.00    -0.000 C 
BRANCH  13  14
ATOM     14  C   UNL     1     103.997 311.404 193.781  1.00  0.00    -0.000 C 
BRANCH  14  15
ATOM     15  C   UNL     1     105.439 311.871 193.532  1.00  0.00    -0.000 C 
BRANCH  15  16
ATOM     16  C   UNL     1     105.533 312.940 192.431  1.00  0.00    -0.000 C 
BRANCH  16  17
ATOM     17  C   UNL     1     104.165 313.268 191.808  1.00  0.00    -0.000 C 
BRANCH  17  18
ATOM     18  C   UNL     1     104.287 314.140 190.549  1.00  0.00    -0.003 C 
ATOM     19  C   UNL     1     105.701 314.683 190.341  1.00  0.00     0.004 C 
ENDBRANCH  17  18
ENDBRANCH  16  17
ENDBRANCH  15  16
ENDBRANCH  14  15
ENDBRANCH  13  14
ENDBRANCH  12  13
ENDBRANCH   1  12
TORSDOF 14
ENDMDL
MODEL 2
REMARK VINA RESULT:    -6.105      1.631      2.994
REMARK INTER + INTRA:         -11.933
REMARK INTER:                 -11.021
REMARK INTRA:                  -0.912
REMARK UNBOUND:                -0.831
REMARK SMILES CCCCCCCCCCCCCC[C@@H](C)C(=O)[O-]
REMARK SMILES IDX 9 1 10 2 11 3 12 4 13 5 14 6 15 7 16 8 17 9 18 10 19 11 8 12
REMARK SMILES IDX 7 13 6 14 5 15 4 16 3 17 2 18 1 19
REMARK H PARENT
REMARK Flexibility Score: inf
ROOT
ATOM      1  C   UNL     1     105.553 311.549 195.082  1.00  0.00     0.000 C 
ENDROOT
BRANCH   1   2
ATOM      2  C   UNL     1     104.070 311.506 195.482  1.00  0.00     0.000 C 
BRANCH   2   3
ATOM      3  C   UNL     1     103.871 311.471 197.008  1.00  0.00     0.000 C 
BRANCH   3   4
ATOM      4  C   UNL     1     103.824 312.874 197.639  1.00  0.00     0.000 C 
BRANCH   4   5
ATOM      5  C   UNL     1     103.113 312.951 199.003  1.00  0.00     0.001 C 
BRANCH   5   6
ATOM      6  C   UNL     1     103.193 311.632 199.795  1.00  0.00     0.009 C 
BRANCH   6   7
ATOM      7  C   UNL     1     104.188 311.658 200.977  1.00  0.00     0.032 C 
ATOM      8  C   UNL     1     104.780 313.053 201.226  1.00  0.00     0.014 C 
BRANCH   7   9
ATOM      9  C   UNL     1     103.578 311.083 202.229  1.00  0.00     0.044 C 
ATOM     10  O   UNL     1     102.355 311.260 202.470  1.00  0.00    -0.550 OA
ATOM     11  O   UNL     1     104.363 310.404 203.155  1.00  0.00    -0.550 OA
ENDBRANCH   7   9
ENDBRANCH   6   7
ENDBRANCH   5   6
ENDBRANCH   4   5
ENDBRANCH   3   4
ENDBRANCH   2   3
ENDBRANCH   1   2
BRANCH   1  12
ATOM     12  C   UNL     1     105.765 312.125 193.671  1.00  0.00     0.000 C 
BRANCH  12  13
ATOM     13  C   UNL     1     104.511 312.009 192.791  1.00  0.00    -0.000 C 
BRANCH  13  14
ATOM     14  C   UNL     1     104.264 313.268 191.947  1.00  0.00    -0.000 C 
BRANCH  14  15
ATOM     15  C   UNL     1     105.588 313.854 191.434  1.00  0.00    -0.000 C 
BRANCH  15  16
ATOM     16  C   UNL     1     105.390 314.827 190.261  1.00  0.00    -0.000 C 
BRANCH  16  17
ATOM     17  C   UNL     1     103.904 315.097 189.961  1.00  0.00    -0.000 C 
BRANCH  17  18
ATOM     18  C   UNL     1     103.558 314.896 188.478  1.00  0.00    -0.003 C 
ATOM     19  C   UNL     1     102.247 314.135 188.275  1.00  0.00     0.004 C 
ENDBRANCH  17  18
ENDBRANCH  16  17
ENDBRANCH  15  16
ENDBRANCH  14  15
ENDBRANCH  13  14
ENDBRANCH  12  13
ENDBRANCH   1  12
TORSDOF 14
ENDMDL
MODEL 3
REMARK VINA RESULT:    -6.063     20.224     20.838
REMARK INTER + INTRA:         -11.857
REMARK INTER:                 -11.145
REMARK INTRA:                  -0.712
REMARK UNBOUND:                -0.831
REMARK SMILES CCCCCCCCCCCCCC[C@@H](C)C(=O)[O-]
REMARK SMILES IDX 9 1 10 2 11 3 12 4 13 5 14 6 15 7 16 8 17 9 18 10 19 11 8 12
REMARK SMILES IDX 7 13 6 14 5 15 4 16 3 17 2 18 1 19
REMARK H PARENT
REMARK Flexibility Score: inf
ROOT
ATOM      1  C   UNL     1      89.047 325.048 199.040  1.00  0.00     0.000 C 
ENDROOT
BRANCH   1   2
ATOM      2  C   UNL     1      90.161 325.185 200.090  1.00  0.00     0.000 C 
BRANCH   2   3
ATOM      3  C   UNL     1      90.035 326.478 200.916  1.00  0.00     0.000 C 
BRANCH   3   4
ATOM      4  C   UNL     1      88.918 326.408 201.972  1.00  0.00     0.000 C 
BRANCH   4   5
ATOM      5  C   UNL     1      89.197 327.191 203.269  1.00  0.00     0.001 C 
BRANCH   5   6
ATOM      6  C   UNL     1      89.113 326.309 204.530  1.00  0.00     0.009 C 
BRANCH   6   7
ATOM      7  C   UNL     1      89.616 326.994 205.821  1.00  0.00     0.032 C 
ATOM      8  C   UNL     1      89.025 326.372 207.094  1.00  0.00     0.014 C 
BRANCH   7   9
ATOM      9  C   UNL     1      91.120 327.043 205.875  1.00  0.00     0.044 C 
ATOM     10  O   UNL     1      91.697 328.025 206.414  1.00  0.00    -0.550 OA
ATOM     11  O   UNL     1      91.886 326.042 205.286  1.00  0.00    -0.550 OA
ENDBRANCH   7   9
ENDBRANCH   6   7
ENDBRANCH   5   6
ENDBRANCH   4   5
ENDBRANCH   3   4
ENDBRANCH   2   3
ENDBRANCH   1   2
BRANCH   1  12
ATOM     12  C   UNL     1      88.821 326.348 198.248  1.00  0.00     0.000 C 
BRANCH  12  13
ATOM     13  C   UNL     1      88.059 326.116 196.935  1.00  0.00    -0.000 C 
BRANCH  13  14
ATOM     14  C   UNL     1      88.867 326.543 195.700  1.00  0.00    -0.000 C 
BRANCH  14  15
ATOM     15  C   UNL     1      87.942 326.782 194.496  1.00  0.00    -0.000 C 
BRANCH  15  16
ATOM     16  C   UNL     1      86.692 325.888 194.524  1.00  0.00    -0.000 C 
BRANCH  16  17
ATOM     17  C   UNL     1      86.587 324.980 193.285  1.00  0.00    -0.000 C 
BRANCH  17  18
ATOM     18  C   UNL     1      87.951 324.726 192.625  1.00  0.00    -0.003 C 
ATOM     19  C   UNL     1      87.845 323.878 191.358  1.00  0.00     0.004 C 
ENDBRANCH  17  18
ENDBRANCH  16  17
ENDBRANCH  15  16
ENDBRANCH  14  15
ENDBRANCH  13  14
ENDBRANCH  12  13
ENDBRANCH   1  12
TORSDOF 14
ENDMDL
MODEL 4
REMARK VINA RESULT:    -6.040      4.180     10.343
REMARK INTER + INTRA:         -11.814
REMARK INTER:                 -11.066
REMARK INTRA:                  -0.747
REMARK UNBOUND:                -0.831
REMARK SMILES CCCCCCCCCCCCCC[C@@H](C)C(=O)[O-]
REMARK SMILES IDX 9 1 10 2 11 3 12 4 13 5 14 6 15 7 16 8 17 9 18 10 19 11 8 12
REMARK SMILES IDX 7 13 6 14 5 15 4 16 3 17 2 18 1 19
REMARK H PARENT
REMARK Flexibility Score: inf
ROOT
ATOM      1  C   UNL     1     103.718 312.981 197.707  1.00  0.00     0.000 C 
ENDROOT
BRANCH   1   2
ATOM      2  C   UNL     1     104.094 311.615 197.111  1.00  0.00     0.000 C 
BRANCH   2   3
ATOM      3  C   UNL     1     104.018 311.601 195.574  1.00  0.00     0.000 C 
BRANCH   3   4
ATOM      4  C   UNL     1     105.397 311.747 194.905  1.00  0.00     0.000 C 
BRANCH   4   5
ATOM      5  C   UNL     1     105.392 311.624 193.369  1.00  0.00     0.001 C 
BRANCH   5   6
ATOM      6  C   UNL     1     104.142 312.253 192.723  1.00  0.00     0.009 C 
BRANCH   6   7
ATOM      7  C   UNL     1     104.401 313.603 192.019  1.00  0.00     0.032 C 
ATOM      8  C   UNL     1     103.883 313.629 190.573  1.00  0.00     0.014 C 
BRANCH   7   9
ATOM      9  C   UNL     1     103.864 314.760 192.820  1.00  0.00     0.044 C 
ATOM     10  O   UNL     1     103.546 314.593 194.027  1.00  0.00    -0.550 OA
ATOM     11  O   UNL     1     103.661 316.002 192.228  1.00  0.00    -0.550 OA
ENDBRANCH   7   9
ENDBRANCH   6   7
ENDBRANCH   5   6
ENDBRANCH   4   5
ENDBRANCH   3   4
ENDBRANCH   2   3
ENDBRANCH   1   2
BRANCH   1  12
ATOM     12  C   UNL     1     103.018 312.854 199.072  1.00  0.00     0.000 C 
BRANCH  12  13
ATOM     13  C   UNL     1     103.292 311.505 199.754  1.00  0.00    -0.000 C 
BRANCH  13  14
ATOM     14  C   UNL     1     104.227 311.635 200.965  1.00  0.00    -0.000 C 
BRANCH  14  15
ATOM     15  C   UNL     1     103.449 311.462 202.279  1.00  0.00    -0.000 C 
BRANCH  15  16
ATOM     16  C   UNL     1     104.250 310.694 203.343  1.00  0.00    -0.000 C 
BRANCH  16  17
ATOM     17  C   UNL     1     103.545 310.671 204.711  1.00  0.00    -0.000 C 
BRANCH  17  18
ATOM     18  C   UNL     1     104.256 311.547 205.754  1.00  0.00    -0.003 C 
ATOM     19  C   UNL     1     105.492 312.250 205.190  1.00  0.00     0.004 C 
ENDBRANCH  17  18
ENDBRANCH  16  17
ENDBRANCH  15  16
ENDBRANCH  14  15
ENDBRANCH  13  14
ENDBRANCH  12  13
ENDBRANCH   1  12
TORSDOF 14
ENDMDL
MODEL 5
REMARK VINA RESULT:    -6.008     20.762     23.192
REMARK INTER + INTRA:         -11.755
REMARK INTER:                 -10.983
REMARK INTRA:                  -0.773
REMARK UNBOUND:                -0.831
REMARK SMILES CCCCCCCCCCCCCC[C@@H](C)C(=O)[O-]
REMARK SMILES IDX 9 1 10 2 11 3 12 4 13 5 14 6 15 7 16 8 17 9 18 10 19 11 8 12
REMARK SMILES IDX 7 13 6 14 5 15 4 16 3 17 2 18 1 19
REMARK H PARENT
REMARK Flexibility Score: inf
ROOT
ATOM      1  C   UNL     1      88.925 325.639 199.021  1.00  0.00     0.000 C 
ENDROOT
BRANCH   1   2
ATOM      2  C   UNL     1      88.966 326.817 198.034  1.00  0.00     0.000 C 
BRANCH   2   3
ATOM      3  C   UNL     1      88.601 326.396 196.599  1.00  0.00     0.000 C 
BRANCH   3   4
ATOM      4  C   UNL     1      87.084 326.421 196.335  1.00  0.00     0.000 C 
BRANCH   4   5
ATOM      5  C   UNL     1      86.645 325.785 195.003  1.00  0.00     0.001 C 
BRANCH   5   6
ATOM      6  C   UNL     1      87.704 325.928 193.893  1.00  0.00     0.009 C 
BRANCH   6   7
ATOM      7  C   UNL     1      88.221 324.585 193.329  1.00  0.00     0.032 C 
ATOM      8  C   UNL     1      88.104 323.432 194.337  1.00  0.00     0.014 C 
BRANCH   7   9
ATOM      9  C   UNL     1      87.565 324.243 192.017  1.00  0.00     0.044 C 
ATOM     10  O   UNL     1      88.214 324.355 190.944  1.00  0.00    -0.550 OA
ATOM     11  O   UNL     1      86.230 323.855 191.969  1.00  0.00    -0.550 OA
ENDBRANCH   7   9
ENDBRANCH   6   7
ENDBRANCH   5   6
ENDBRANCH   4   5
ENDBRANCH   3   4
ENDBRANCH   2   3
ENDBRANCH   1   2
BRANCH   1  12
ATOM     12  C   UNL     1      89.128 326.088 200.479  1.00  0.00     0.000 C 
BRANCH  12  13
ATOM     13  C   UNL     1      90.569 326.538 200.764  1.00  0.00    -0.000 C 
BRANCH  13  14
ATOM     14  C   UNL     1      90.773 326.977 202.221  1.00  0.00    -0.000 C 
BRANCH  14  15
ATOM     15  C   UNL     1      89.660 326.422 203.122  1.00  0.00    -0.000 C 
BRANCH  15  16
ATOM     16  C   UNL     1      89.255 327.402 204.235  1.00  0.00    -0.000 C 
BRANCH  16  17
ATOM     17  C   UNL     1      89.924 327.076 205.582  1.00  0.00    -0.000 C 
BRANCH  17  18
ATOM     18  C   UNL     1      88.913 326.616 206.645  1.00  0.00    -0.003 C 
ATOM     19  C   UNL     1      87.982 325.516 206.136  1.00  0.00     0.004 C 
ENDBRANCH  17  18
ENDBRANCH  16  17
ENDBRANCH  15  16
ENDBRANCH  14  15
ENDBRANCH  13  14
ENDBRANCH  12  13
ENDBRANCH   1  12
TORSDOF 14
ENDMDL
MODEL 6
REMARK VINA RESULT:    -5.990      1.331      2.332
REMARK INTER + INTRA:         -11.724
REMARK INTER:                 -10.384
REMARK INTRA:                  -1.340
REMARK UNBOUND:                -0.831
REMARK SMILES CCCCCCCCCCCCCC[C@@H](C)C(=O)[O-]
REMARK SMILES IDX 9 1 10 2 11 3 12 4 13 5 14 6 15 7 16 8 17 9 18 10 19 11 8 12
REMARK SMILES IDX 7 13 6 14 5 15 4 16 3 17 2 18 1 19
REMARK H PARENT
REMARK Flexibility Score: inf
ROOT
ATOM      1  C   UNL     1     104.539 311.753 196.015  1.00  0.00     0.000 C 
ENDROOT
BRANCH   1   2
ATOM      2  C   UNL     1     103.928 311.571 197.414  1.00  0.00     0.000 C 
BRANCH   2   3
ATOM      3  C   UNL     1     103.504 312.907 198.051  1.00  0.00     0.000 C 
BRANCH   3   4
ATOM      4  C   UNL     1     104.210 313.182 199.390  1.00  0.00     0.000 C 
BRANCH   4   5
ATOM      5  C   UNL     1     104.384 311.951 200.301  1.00  0.00     0.001 C 
BRANCH   5   6
ATOM      6  C   UNL     1     103.951 312.217 201.756  1.00  0.00     0.009 C 
BRANCH   6   7
ATOM      7  C   UNL     1     103.648 310.941 202.573  1.00  0.00     0.032 C 
ATOM      8  C   UNL     1     104.415 310.890 203.903  1.00  0.00     0.014 C 
BRANCH   7   9
ATOM      9  C   UNL     1     102.168 310.752 202.779  1.00  0.00     0.044 C 
ATOM     10  O   UNL     1     101.717 310.554 203.938  1.00  0.00    -0.550 OA
ATOM     11  O   UNL     1     101.296 310.736 201.696  1.00  0.00    -0.550 OA
ENDBRANCH   7   9
ENDBRANCH   6   7
ENDBRANCH   5   6
ENDBRANCH   4   5
ENDBRANCH   3   4
ENDBRANCH   2   3
ENDBRANCH   1   2
BRANCH   1  12
ATOM     12  C   UNL     1     103.520 311.496 194.891  1.00  0.00     0.000 C 
BRANCH  12  13
ATOM     13  C   UNL     1     104.191 311.226 193.535  1.00  0.00    -0.000 C 
BRANCH  13  14
ATOM     14  C   UNL     1     105.625 311.773 193.467  1.00  0.00    -0.000 C 
BRANCH  14  15
ATOM     15  C   UNL     1     105.723 312.933 192.465  1.00  0.00    -0.000 C 
BRANCH  15  16
ATOM     16  C   UNL     1     104.368 313.275 191.823  1.00  0.00    -0.000 C 
BRANCH  16  17
ATOM     17  C   UNL     1     103.900 314.703 192.157  1.00  0.00    -0.000 C 
BRANCH  17  18
ATOM     18  C   UNL     1     104.495 315.224 193.474  1.00  0.00    -0.003 C 
ATOM     19  C   UNL     1     103.526 315.101 194.650  1.00  0.00     0.004 C 
ENDBRANCH  17  18
ENDBRANCH  16  17
ENDBRANCH  15  16
ENDBRANCH  14  15
ENDBRANCH  13  14
ENDBRANCH  12  13
ENDBRANCH   1  12
TORSDOF 14
ENDMDL
MODEL 7
REMARK VINA RESULT:    -5.986     20.611     22.991
REMARK INTER + INTRA:         -11.717
REMARK INTER:                 -10.564
REMARK INTRA:                  -1.153
REMARK UNBOUND:                -0.831
REMARK SMILES CCCCCCCCCCCCCC[C@@H](C)C(=O)[O-]
REMARK SMILES IDX 9 1 10 2 11 3 12 4 13 5 14 6 15 7 16 8 17 9 18 10 19 11 8 12
REMARK SMILES IDX 7 13 6 14 5 15 4 16 3 17 2 18 1 19
REMARK H PARENT
REMARK Flexibility Score: inf
ROOT
ATOM      1  C   UNL     1      88.089 326.390 193.992  1.00  0.00     0.000 C 
ENDROOT
BRANCH   1   2
ATOM      2  C   UNL     1      88.064 325.311 192.897  1.00  0.00     0.000 C 
BRANCH   2   3
ATOM      3  C   UNL     1      88.050 323.885 193.474  1.00  0.00     0.000 C 
BRANCH   3   4
ATOM      4  C   UNL     1      86.776 323.102 193.107  1.00  0.00     0.000 C 
BRANCH   4   5
ATOM      5  C   UNL     1      86.127 323.505 191.769  1.00  0.00     0.001 C 
BRANCH   5   6
ATOM      6  C   UNL     1      85.972 322.318 190.799  1.00  0.00     0.009 C 
BRANCH   6   7
ATOM      7  C   UNL     1      86.849 322.414 189.530  1.00  0.00     0.032 C 
ATOM      8  C   UNL     1      88.158 323.183 189.769  1.00  0.00     0.014 C 
BRANCH   7   9
ATOM      9  C   UNL     1      87.105 321.058 188.927  1.00  0.00     0.044 C 
ATOM     10  O   UNL     1      86.764 320.019 189.551  1.00  0.00    -0.550 OA
ATOM     11  O   UNL     1      87.766 320.935 187.709  1.00  0.00    -0.550 OA
ENDBRANCH   7   9
ENDBRANCH   6   7
ENDBRANCH   5   6
ENDBRANCH   4   5
ENDBRANCH   3   4
ENDBRANCH   2   3
ENDBRANCH   1   2
BRANCH   1  12
ATOM     12  C   UNL     1      86.688 326.694 194.550  1.00  0.00     0.000 C 
BRANCH  12  13
ATOM     13  C   UNL     1      86.628 326.600 196.082  1.00  0.00    -0.000 C 
BRANCH  13  14
ATOM     14  C   UNL     1      87.773 325.759 196.667  1.00  0.00    -0.000 C 
BRANCH  14  15
ATOM     15  C   UNL     1      88.566 326.561 197.710  1.00  0.00    -0.000 C 
BRANCH  15  16
ATOM     16  C   UNL     1      89.065 325.688 198.873  1.00  0.00    -0.000 C 
BRANCH  16  17
ATOM     17  C   UNL     1      89.669 326.519 200.019  1.00  0.00    -0.000 C 
BRANCH  17  18
ATOM     18  C   UNL     1      88.920 326.321 201.346  1.00  0.00    -0.003 C 
ATOM     19  C   UNL     1      88.491 324.871 201.571  1.00  0.00     0.004 C 
ENDBRANCH  17  18
ENDBRANCH  16  17
ENDBRANCH  15  16
ENDBRANCH  14  15
ENDBRANCH  13  14
ENDBRANCH  12  13
ENDBRANCH   1  12
TORSDOF 14
ENDMDL
MODEL 8
REMARK VINA RESULT:    -5.970     19.983     20.644
REMARK INTER + INTRA:         -11.688
REMARK INTER:                 -10.634
REMARK INTRA:                  -1.054
REMARK UNBOUND:                -0.831
REMARK SMILES CCCCCCCCCCCCCC[C@@H](C)C(=O)[O-]
REMARK SMILES IDX 9 1 10 2 11 3 12 4 13 5 14 6 15 7 16 8 17 9 18 10 19 11 8 12
REMARK SMILES IDX 7 13 6 14 5 15 4 16 3 17 2 18 1 19
REMARK H PARENT
REMARK Flexibility Score: inf
ROOT
ATOM      1  C   UNL     1      88.853 325.099 197.763  1.00  0.00     0.000 C 
ENDROOT
BRANCH   1   2
ATOM      2  C   UNL     1      88.874 326.514 198.362  1.00  0.00     0.000 C 
BRANCH   2   3
ATOM      3  C   UNL     1      89.506 326.552 199.765  1.00  0.00     0.000 C 
BRANCH   3   4
ATOM      4  C   UNL     1      89.205 325.289 200.592  1.00  0.00     0.000 C 
BRANCH   4   5
ATOM      5  C   UNL     1      88.505 325.545 201.940  1.00  0.00     0.001 C 
BRANCH   5   6
ATOM      6  C   UNL     1      89.103 326.741 202.707  1.00  0.00     0.009 C 
BRANCH   6   7
ATOM      7  C   UNL     1      90.410 326.421 203.466  1.00  0.00     0.032 C 
ATOM      8  C   UNL     1      91.611 327.225 202.947  1.00  0.00     0.014 C 
BRANCH   7   9
ATOM      9  C   UNL     1      90.241 326.575 204.954  1.00  0.00     0.044 C 
ATOM     10  O   UNL     1      89.096 326.781 205.438  1.00  0.00    -0.550 OA
ATOM     11  O   UNL     1      91.344 326.548 205.802  1.00  0.00    -0.550 OA
ENDBRANCH   7   9
ENDBRANCH   6   7
ENDBRANCH   5   6
ENDBRANCH   4   5
ENDBRANCH   3   4
ENDBRANCH   2   3
ENDBRANCH   1   2
BRANCH   1  12
ATOM     12  C   UNL     1      88.842 325.113 196.224  1.00  0.00     0.000 C 
BRANCH  12  13
ATOM     13  C   UNL     1      88.831 326.536 195.646  1.00  0.00    -0.000 C 
BRANCH  13  14
ATOM     14  C   UNL     1      88.163 326.607 194.264  1.00  0.00    -0.000 C 
BRANCH  14  15
ATOM     15  C   UNL     1      86.757 325.990 194.303  1.00  0.00    -0.000 C 
BRANCH  15  16
ATOM     16  C   UNL     1      86.610 324.792 193.350  1.00  0.00    -0.000 C 
BRANCH  16  17
ATOM     17  C   UNL     1      87.812 324.641 192.402  1.00  0.00    -0.000 C 
BRANCH  17  18
ATOM     18  C   UNL     1      87.526 323.679 191.238  1.00  0.00    -0.003 C 
ATOM     19  C   UNL     1      88.621 323.700 190.171  1.00  0.00     0.004 C 
ENDBRANCH  17  18
ENDBRANCH  16  17
ENDBRANCH  15  16
ENDBRANCH  14  15
ENDBRANCH  13  14
ENDBRANCH  12  13
ENDBRANCH   1  12
TORSDOF 14
ENDMDL
MODEL 9
REMARK VINA RESULT:    -5.944      6.709     10.443
REMARK INTER + INTRA:         -11.640
REMARK INTER:                  -9.748
REMARK INTRA:                  -1.892
REMARK UNBOUND:                -0.831
REMARK SMILES CCCCCCCCCCCCCC[C@@H](C)C(=O)[O-]
REMARK SMILES IDX 9 1 10 2 11 3 12 4 13 5 14 6 15 7 16 8 17 9 18 10 19 11 8 12
REMARK SMILES IDX 7 13 6 14 5 15 4 16 3 17 2 18 1 19
REMARK H PARENT
REMARK Flexibility Score: inf
ROOT
ATOM      1  C   UNL     1     105.683 311.260 193.979  1.00  0.00     0.000 C 
ENDROOT
BRANCH   1   2
ATOM      2  C   UNL     1     104.345 311.349 193.228  1.00  0.00     0.000 C 
BRANCH   2   3
ATOM      3  C   UNL     1     104.197 312.664 192.441  1.00  0.00     0.000 C 
BRANCH   3   4
ATOM      4  C   UNL     1     105.550 313.315 192.102  1.00  0.00     0.000 C 
BRANCH   4   5
ATOM      5  C   UNL     1     105.546 314.212 190.850  1.00  0.00     0.001 C 
BRANCH   5   6
ATOM      6  C   UNL     1     104.131 314.679 190.453  1.00  0.00     0.009 C 
BRANCH   6   7
ATOM      7  C   UNL     1     103.941 314.918 188.938  1.00  0.00     0.032 C 
ATOM      8  C   UNL     1     102.608 314.367 188.412  1.00  0.00     0.014 C 
BRANCH   7   9
ATOM      9  C   UNL     1     104.124 316.368 188.577  1.00  0.00     0.044 C 
ATOM     10  O   UNL     1     104.287 317.225 189.486  1.00  0.00    -0.550 OA
ATOM     11  O   UNL     1     104.059 316.784 187.251  1.00  0.00    -0.550 OA
ENDBRANCH   7   9
ENDBRANCH   6   7
ENDBRANCH   5   6
ENDBRANCH   4   5
ENDBRANCH   3   4
ENDBRANCH   2   3
ENDBRANCH   1   2
BRANCH   1  12
ATOM     12  C   UNL     1     105.530 311.532 195.486  1.00  0.00     0.000 C 
BRANCH  12  13
ATOM     13  C   UNL     1     104.063 311.698 195.911  1.00  0.00    -0.000 C 
BRANCH  13  14
ATOM     14  C   UNL     1     103.913 312.481 197.224  1.00  0.00    -0.000 C 
BRANCH  14  15
ATOM     15  C   UNL     1     103.187 313.814 196.989  1.00  0.00    -0.000 C 
BRANCH  15  16
ATOM     16  C   UNL     1     103.343 314.326 195.548  1.00  0.00    -0.000 C 
BRANCH  16  17
ATOM     17  C   UNL     1     104.349 315.485 195.439  1.00  0.00    -0.000 C 
BRANCH  17  18
ATOM     18  C   UNL     1     104.280 316.198 194.079  1.00  0.00    -0.003 C 
ATOM     19  C   UNL     1     105.643 316.703 193.607  1.00  0.00     0.004 C 
ENDBRANCH  17  18
ENDBRANCH  16  17
ENDBRANCH  15  16
ENDBRANCH  14  15
ENDBRANCH  13  14
ENDBRANCH  12  13
ENDBRANCH   1  12
TORSDOF 14
ENDMDL
