MODEL 1
REMARK VINA RESULT:    -3.445      0.000      0.000
REMARK INTER + INTRA:          -4.437
REMARK INTER:                  -4.855
REMARK INTRA:                   0.418
REMARK UNBOUND:                 0.418
REMARK SMILES CC1=CCC(=C(C)C)C(=O)CC(C)=CCC1
REMARK SMILES IDX 12 1 14 2 13 3 15 4 16 5 2 6 1 7 3 8 11 10 9 11 10 12 5 13
REMARK SMILES IDX 6 14 7 15 8 16 4 17
REMARK H PARENT
REMARK Flexibility Score: 60.00
ROOT
ATOM      1  C   UNL     1      -5.216 -41.610 213.237  1.00  0.00    -0.070 C 
ATOM      2  C   UNL     1      -4.094 -41.353 212.524  1.00  0.00    -0.027 C 
ATOM      3  C   UNL     1      -6.465 -41.963 212.467  1.00  0.00     0.039 C 
ENDROOT
BRANCH   2   4
ATOM      4  C   UNL     1      -2.719 -41.086 213.086  1.00  0.00     0.032 C 
BRANCH   4   5
ATOM      5  C   UNL     1      -2.505 -39.603 213.445  1.00  0.00     0.034 C 
BRANCH   5   6
ATOM      6  C   UNL     1      -2.161 -39.412 214.910  1.00  0.00    -0.077 C 
ATOM      7  C   UNL     1      -0.799 -39.845 215.389  1.00  0.00     0.039 C 
ATOM      8  C   UNL     1      -3.019 -38.900 215.821  1.00  0.00    -0.023 CG0
ATOM      9  G   UNL     1      -4.432 -38.444 215.544  1.00  0.00     0.000 G0
ENDBRANCH   5   6
ENDBRANCH   4   5
ENDBRANCH   2   4
BRANCH   1  10
ATOM     10  C   UNL     1      -5.266 -41.627 214.756  1.00  0.00     0.111 C 
BRANCH  10  11
ATOM     11  C   UNL     1      -6.034 -40.446 215.299  1.00  0.00     0.163 C 
ATOM     12  O   UNL     1      -7.227 -40.291 214.923  1.00  0.00    -0.294 OA
BRANCH  11  13
ATOM     13  C   UNL     1      -5.403 -39.446 216.215  1.00  0.00    -0.002 C 
ATOM     14  C   UNL     1      -5.625 -39.466 217.564  1.00  0.00    -0.069 C 
ATOM     15  C   UNL     1      -5.013 -38.427 218.479  1.00  0.00     0.039 C 
ATOM     16  C   UNL     1      -6.461 -40.545 218.214  1.00  0.00     0.039 C 
BRANCH  13  17
ATOM     17  C   UNL     1      -4.443 -38.448 215.591  1.00  0.00     0.066 CG0
ATOM     18  G   UNL     1      -3.019 -38.895 215.823  1.00  0.00     0.000 G0
ENDBRANCH  13  17
ENDBRANCH  11  13
ENDBRANCH  10  11
ENDBRANCH   1  10
TORSDOF 0
ENDMDL
MODEL 2
REMARK VINA RESULT:    -3.310      2.165      4.405
REMARK INTER + INTRA:          -4.247
REMARK INTER:                  -4.591
REMARK INTRA:                   0.344
REMARK UNBOUND:                 0.418
REMARK SMILES CC1=CCC(=C(C)C)C(=O)CC(C)=CCC1
REMARK SMILES IDX 12 1 14 2 13 3 15 4 16 5 2 6 1 7 3 8 11 10 9 11 10 12 5 13
REMARK SMILES IDX 6 14 7 15 8 16 4 17
REMARK H PARENT
REMARK Flexibility Score: 60.00
ROOT
ATOM      1  C   UNL     1      -4.768 -39.504 218.982  1.00  0.00    -0.070 C 
ATOM      2  C   UNL     1      -3.664 -40.146 219.431  1.00  0.00    -0.027 C 
ATOM      3  C   UNL     1      -5.753 -39.011 220.013  1.00  0.00     0.039 C 
ENDROOT
BRANCH   2   4
ATOM      4  C   UNL     1      -2.504 -40.626 218.590  1.00  0.00     0.032 C 
BRANCH   4   5
ATOM      5  C   UNL     1      -2.865 -41.853 217.730  1.00  0.00     0.034 C 
BRANCH   5   6
ATOM      6  C   UNL     1      -2.548 -41.637 216.263  1.00  0.00    -0.077 C 
ATOM      7  C   UNL     1      -1.135 -41.281 215.880  1.00  0.00     0.039 C 
ATOM      8  C   UNL     1      -3.470 -41.719 215.277  1.00  0.00    -0.023 CG0
ATOM      9  G   UNL     1      -4.937 -42.027 215.463  1.00  0.00     0.000 G0
ENDBRANCH   5   6
ENDBRANCH   4   5
ENDBRANCH   2   4
BRANCH   1  10
ATOM     10  C   UNL     1      -5.030 -39.197 217.517  1.00  0.00     0.111 C 
BRANCH  10  11
ATOM     11  C   UNL     1      -5.982 -40.194 216.903  1.00  0.00     0.163 C 
ATOM     12  O   UNL     1      -6.961 -40.584 217.595  1.00  0.00    -0.294 OA
BRANCH  11  13
ATOM     13  C   UNL     1      -5.764 -40.759 215.535  1.00  0.00    -0.002 C 
ATOM     14  C   UNL     1      -6.224 -40.127 214.413  1.00  0.00    -0.069 C 
ATOM     15  C   UNL     1      -6.032 -40.724 213.037  1.00  0.00     0.039 C 
ATOM     16  C   UNL     1      -6.916 -38.784 214.488  1.00  0.00     0.039 C 
BRANCH  13  17
ATOM     17  C   UNL     1      -4.940 -42.031 215.437  1.00  0.00     0.066 CG0
ATOM     18  G   UNL     1      -3.480 -41.684 215.266  1.00  0.00     0.000 G0
ENDBRANCH  13  17
ENDBRANCH  11  13
ENDBRANCH  10  11
ENDBRANCH   1  10
TORSDOF 0
ENDMDL
MODEL 3
REMARK VINA RESULT:    -3.233      1.812      3.685
REMARK INTER + INTRA:          -4.138
REMARK INTER:                  -5.080
REMARK INTRA:                   0.941
REMARK UNBOUND:                 0.418
REMARK SMILES CC1=CCC(=C(C)C)C(=O)CC(C)=CCC1
REMARK SMILES IDX 12 1 14 2 13 3 15 4 16 5 2 6 1 7 3 8 11 10 9 11 10 12 5 13
REMARK SMILES IDX 6 14 7 15 8 16 4 17
REMARK H PARENT
REMARK Flexibility Score: 60.00
ROOT
ATOM      1  C   UNL     1      -3.323 -38.758 215.731  1.00  0.00    -0.070 C 
ATOM      2  C   UNL     1      -2.093 -38.768 215.164  1.00  0.00    -0.027 C 
ATOM      3  C   UNL     1      -4.293 -37.697 215.270  1.00  0.00     0.039 C 
ENDROOT
BRANCH   2   4
ATOM      4  C   UNL     1      -1.011 -39.795 215.396  1.00  0.00     0.032 C 
BRANCH   4   5
ATOM      5  C   UNL     1      -1.416 -41.200 214.910  1.00  0.00     0.034 C 
BRANCH   5   6
ATOM      6  C   UNL     1      -2.166 -41.156 213.592  1.00  0.00    -0.077 C 
ATOM      7  C   UNL     1      -1.451 -40.618 212.379  1.00  0.00     0.039 C 
ATOM      8  C   UNL     1      -3.452 -41.548 213.447  1.00  0.00    -0.023 CG0
ATOM      9  G   UNL     1      -4.342 -42.078 214.546  1.00  0.00     0.000 G0
ENDBRANCH   5   6
ENDBRANCH   4   5
ENDBRANCH   2   4
BRANCH   1  10
ATOM     10  C   UNL     1      -3.795 -39.787 216.744  1.00  0.00     0.111 C 
BRANCH  10  11
ATOM     11  C   UNL     1      -5.108 -40.408 216.335  1.00  0.00     0.163 C 
ATOM     12  O   UNL     1      -6.029 -40.469 217.193  1.00  0.00    -0.294 OA
BRANCH  11  13
ATOM     13  C   UNL     1      -5.318 -40.989 214.972  1.00  0.00    -0.002 C 
ATOM     14  C   UNL     1      -6.292 -40.523 214.133  1.00  0.00    -0.069 C 
ATOM     15  C   UNL     1      -6.522 -41.142 212.772  1.00  0.00     0.039 C 
ATOM     16  C   UNL     1      -7.163 -39.344 214.508  1.00  0.00     0.039 C 
BRANCH  13  17
ATOM     17  C   UNL     1      -4.352 -42.073 214.528  1.00  0.00     0.066 CG0
ATOM     18  G   UNL     1      -3.445 -41.538 213.445  1.00  0.00     0.000 G0
ENDBRANCH  13  17
ENDBRANCH  11  13
ENDBRANCH  10  11
ENDBRANCH   1  10
TORSDOF 0
ENDMDL
MODEL 4
REMARK VINA RESULT:    -3.220     12.743     15.189
REMARK INTER + INTRA:          -4.120
REMARK INTER:                  -4.507
REMARK INTRA:                   0.387
REMARK UNBOUND:                 0.418
REMARK SMILES CC1=CCC(=C(C)C)C(=O)CC(C)=CCC1
REMARK SMILES IDX 12 1 14 2 13 3 15 4 16 5 2 6 1 7 3 8 11 10 9 11 10 12 5 13
REMARK SMILES IDX 6 14 7 15 8 16 4 17
REMARK H PARENT
REMARK Flexibility Score: 60.00
ROOT
ATOM      1  C   UNL     1     -16.672 -38.264 211.166  1.00  0.00    -0.070 C 
ATOM      2  C   UNL     1     -15.605 -39.079 210.992  1.00  0.00    -0.027 C 
ATOM      3  C   UNL     1     -17.077 -37.943 212.584  1.00  0.00     0.039 C 
ENDROOT
BRANCH   2   4
ATOM      4  C   UNL     1     -14.966 -39.444 209.673  1.00  0.00     0.032 C 
BRANCH   4   5
ATOM      5  C   UNL     1     -15.688 -40.609 208.968  1.00  0.00     0.034 C 
BRANCH   5   6
ATOM      6  C   UNL     1     -15.953 -40.316 207.504  1.00  0.00    -0.077 C 
ATOM      7  C   UNL     1     -14.774 -40.182 206.575  1.00  0.00     0.039 C 
ATOM      8  C   UNL     1     -17.190 -40.140 206.987  1.00  0.00    -0.023 CG0
ATOM      9  G   UNL     1     -18.486 -40.199 207.759  1.00  0.00     0.000 G0
ENDBRANCH   5   6
ENDBRANCH   4   5
ENDBRANCH   2   4
BRANCH   1  10
ATOM     10  C   UNL     1     -17.431 -37.609 210.025  1.00  0.00     0.111 C 
BRANCH  10  11
ATOM     11  C   UNL     1     -18.636 -38.422 209.621  1.00  0.00     0.163 C 
ATOM     12  O   UNL     1     -19.406 -38.834 210.530  1.00  0.00    -0.294 OA
BRANCH  11  13
ATOM     13  C   UNL     1     -18.903 -38.789 208.195  1.00  0.00    -0.002 C 
ATOM     14  C   UNL     1     -19.420 -37.888 207.305  1.00  0.00    -0.069 C 
ATOM     15  C   UNL     1     -19.722 -38.278 205.875  1.00  0.00     0.039 C 
ATOM     16  C   UNL     1     -19.684 -36.451 207.695  1.00  0.00     0.039 C 
BRANCH  13  17
ATOM     17  C   UNL     1     -18.503 -40.186 207.755  1.00  0.00     0.066 CG0
ATOM     18  G   UNL     1     -17.211 -40.127 206.974  1.00  0.00     0.000 G0
ENDBRANCH  13  17
ENDBRANCH  11  13
ENDBRANCH  10  11
ENDBRANCH   1  10
TORSDOF 0
ENDMDL
MODEL 5
REMARK VINA RESULT:    -3.179     12.537     15.078
REMARK INTER + INTRA:          -4.063
REMARK INTER:                  -4.700
REMARK INTRA:                   0.637
REMARK UNBOUND:                 0.418
REMARK SMILES CC1=CCC(=C(C)C)C(=O)CC(C)=CCC1
REMARK SMILES IDX 12 1 14 2 13 3 15 4 16 5 2 6 1 7 3 8 11 10 9 11 10 12 5 13
REMARK SMILES IDX 6 14 7 15 8 16 4 17
REMARK H PARENT
REMARK Flexibility Score: 60.00
ROOT
ATOM      1  C   UNL     1     -17.556 -38.054 210.286  1.00  0.00    -0.070 C 
ATOM      2  C   UNL     1     -17.412 -37.550 209.037  1.00  0.00    -0.027 C 
ATOM      3  C   UNL     1     -16.474 -37.742 211.291  1.00  0.00     0.039 C 
ENDROOT
BRANCH   2   4
ATOM      4  C   UNL     1     -18.415 -37.648 207.913  1.00  0.00     0.032 C 
BRANCH   4   5
ATOM      5  C   UNL     1     -18.009 -38.683 206.846  1.00  0.00     0.034 C 
BRANCH   5   6
ATOM      6  C   UNL     1     -18.725 -40.007 207.031  1.00  0.00    -0.077 C 
ATOM      7  C   UNL     1     -20.042 -40.214 206.328  1.00  0.00     0.039 C 
ATOM      8  C   UNL     1     -18.261 -41.006 207.815  1.00  0.00    -0.023 CG0
ATOM      9  G   UNL     1     -16.986 -40.975 208.624  1.00  0.00     0.000 G0
ENDBRANCH   5   6
ENDBRANCH   4   5
ENDBRANCH   2   4
BRANCH   1  10
ATOM     10  C   UNL     1     -18.767 -38.851 210.741  1.00  0.00     0.111 C 
BRANCH  10  11
ATOM     11  C   UNL     1     -18.571 -40.331 210.522  1.00  0.00     0.163 C 
ATOM     12  O   UNL     1     -19.548 -41.098 210.744  1.00  0.00    -0.294 OA
BRANCH  11  13
ATOM     13  C   UNL     1     -17.253 -40.904 210.107  1.00  0.00    -0.002 C 
ATOM     14  C   UNL     1     -16.366 -41.404 211.021  1.00  0.00    -0.069 C 
ATOM     15  C   UNL     1     -15.020 -41.947 210.596  1.00  0.00     0.039 C 
ATOM     16  C   UNL     1     -16.701 -41.473 212.494  1.00  0.00     0.039 C 
BRANCH  13  17
ATOM     17  C   UNL     1     -16.970 -40.975 208.617  1.00  0.00     0.066 CG0
ATOM     18  G   UNL     1     -18.270 -41.016 207.850  1.00  0.00     0.000 G0
ENDBRANCH  13  17
ENDBRANCH  11  13
ENDBRANCH  10  11
ENDBRANCH   1  10
TORSDOF 0
ENDMDL
MODEL 6
REMARK VINA RESULT:    -3.092      2.115      2.841
REMARK INTER + INTRA:          -3.939
REMARK INTER:                  -4.632
REMARK INTRA:                   0.693
REMARK UNBOUND:                 0.418
REMARK SMILES CC1=CCC(=C(C)C)C(=O)CC(C)=CCC1
REMARK SMILES IDX 12 1 14 2 13 3 15 4 16 5 2 6 1 7 3 8 11 10 9 11 10 12 5 13
REMARK SMILES IDX 6 14 7 15 8 16 4 17
REMARK H PARENT
REMARK Flexibility Score: 60.00
ROOT
ATOM      1  C   UNL     1      -5.674 -39.491 214.895  1.00  0.00    -0.070 C 
ATOM      2  C   UNL     1      -4.927 -40.255 214.064  1.00  0.00    -0.027 C 
ATOM      3  C   UNL     1      -7.106 -39.227 214.499  1.00  0.00     0.039 C 
ENDROOT
BRANCH   2   4
ATOM      4  C   UNL     1      -3.515 -40.730 214.313  1.00  0.00     0.032 C 
BRANCH   4   5
ATOM      5  C   UNL     1      -3.409 -41.646 215.548  1.00  0.00     0.034 C 
BRANCH   5   6
ATOM      6  C   UNL     1      -2.294 -41.219 216.483  1.00  0.00    -0.077 C 
ATOM      7  C   UNL     1      -0.925 -40.976 215.902  1.00  0.00     0.039 C 
ATOM      8  C   UNL     1      -2.451 -41.068 217.818  1.00  0.00    -0.023 CG0
ATOM      9  G   UNL     1      -3.731 -41.298 218.587  1.00  0.00     0.000 G0
ENDBRANCH   5   6
ENDBRANCH   4   5
ENDBRANCH   2   4
BRANCH   1  10
ATOM     10  C   UNL     1      -5.172 -38.948 216.223  1.00  0.00     0.111 C 
BRANCH  10  11
ATOM     11  C   UNL     1      -5.506 -39.877 217.364  1.00  0.00     0.163 C 
ATOM     12  O   UNL     1      -6.608 -40.490 217.328  1.00  0.00    -0.294 OA
BRANCH  11  13
ATOM     13  C   UNL     1      -4.599 -40.044 218.542  1.00  0.00    -0.002 C 
ATOM     14  C   UNL     1      -4.592 -39.149 219.577  1.00  0.00    -0.069 C 
ATOM     15  C   UNL     1      -3.645 -39.305 220.746  1.00  0.00     0.039 C 
ATOM     16  C   UNL     1      -5.553 -37.982 219.622  1.00  0.00     0.039 C 
BRANCH  13  17
ATOM     17  C   UNL     1      -3.736 -41.293 218.577  1.00  0.00     0.066 CG0
ATOM     18  G   UNL     1      -2.457 -41.054 217.810  1.00  0.00     0.000 G0
ENDBRANCH  13  17
ENDBRANCH  11  13
ENDBRANCH  10  11
ENDBRANCH   1  10
TORSDOF 0
ENDMDL
MODEL 7
REMARK VINA RESULT:    -3.068      2.046      5.095
REMARK INTER + INTRA:          -3.906
REMARK INTER:                  -4.735
REMARK INTRA:                   0.829
REMARK UNBOUND:                 0.418
REMARK SMILES CC1=CCC(=C(C)C)C(=O)CC(C)=CCC1
REMARK SMILES IDX 12 1 14 2 13 3 15 4 16 5 2 6 1 7 3 8 11 10 9 11 10 12 5 13
REMARK SMILES IDX 6 14 7 15 8 16 4 17
REMARK H PARENT
REMARK Flexibility Score: 60.00
ROOT
ATOM      1  C   UNL     1      -4.604 -38.879 216.435  1.00  0.00    -0.070 C 
ATOM      2  C   UNL     1      -5.856 -38.684 215.959  1.00  0.00    -0.027 C 
ATOM      3  C   UNL     1      -4.448 -39.067 217.925  1.00  0.00     0.039 C 
ENDROOT
BRANCH   2   4
ATOM      4  C   UNL     1      -6.254 -38.580 214.506  1.00  0.00     0.032 C 
BRANCH   4   5
ATOM      5  C   UNL     1      -7.140 -39.755 214.050  1.00  0.00     0.034 C 
BRANCH   5   6
ATOM      6  C   UNL     1      -6.601 -41.094 214.517  1.00  0.00    -0.077 C 
ATOM      7  C   UNL     1      -7.353 -41.832 215.595  1.00  0.00     0.039 C 
ATOM      8  C   UNL     1      -5.467 -41.653 214.039  1.00  0.00    -0.023 CG0
ATOM      9  G   UNL     1      -4.562 -41.054 212.988  1.00  0.00     0.000 G0
ENDBRANCH   5   6
ENDBRANCH   4   5
ENDBRANCH   2   4
BRANCH   1  10
ATOM     10  C   UNL     1      -3.371 -38.983 215.553  1.00  0.00     0.111 C 
BRANCH  10  11
ATOM     11  C   UNL     1      -3.164 -40.392 215.054  1.00  0.00     0.163 C 
ATOM     12  O   UNL     1      -2.913 -41.291 215.902  1.00  0.00    -0.294 OA
BRANCH  11  13
ATOM     13  C   UNL     1      -3.195 -40.729 213.597  1.00  0.00    -0.002 C 
ATOM     14  C   UNL     1      -2.050 -40.816 212.854  1.00  0.00    -0.069 C 
ATOM     15  C   UNL     1      -2.094 -41.121 211.373  1.00  0.00     0.039 C 
ATOM     16  C   UNL     1      -0.684 -40.649 213.481  1.00  0.00     0.039 C 
BRANCH  13  17
ATOM     17  C   UNL     1      -4.551 -41.046 212.991  1.00  0.00     0.066 CG0
ATOM     18  G   UNL     1      -5.451 -41.654 214.041  1.00  0.00     0.000 G0
ENDBRANCH  13  17
ENDBRANCH  11  13
ENDBRANCH  10  11
ENDBRANCH   1  10
TORSDOF 0
ENDMDL
MODEL 8
REMARK VINA RESULT:    -3.032     12.423     15.163
REMARK INTER + INTRA:          -3.854
REMARK INTER:                  -4.428
REMARK INTRA:                   0.573
REMARK UNBOUND:                 0.418
REMARK SMILES CC1=CCC(=C(C)C)C(=O)CC(C)=CCC1
REMARK SMILES IDX 12 1 14 2 13 3 15 4 16 5 2 6 1 7 3 8 11 10 9 11 10 12 5 13
REMARK SMILES IDX 6 14 7 15 8 16 4 17
REMARK H PARENT
REMARK Flexibility Score: 60.00
ROOT
ATOM      1  C   UNL     1     -17.021 -38.593 210.655  1.00  0.00    -0.070 C 
ATOM      2  C   UNL     1     -18.306 -38.234 210.426  1.00  0.00    -0.027 C 
ATOM      3  C   UNL     1     -15.996 -37.489 210.751  1.00  0.00     0.039 C 
ENDROOT
BRANCH   2   4
ATOM      4  C   UNL     1     -19.501 -39.157 210.399  1.00  0.00     0.032 C 
BRANCH   4   5
ATOM      5  C   UNL     1     -19.918 -39.542 208.966  1.00  0.00     0.034 C 
BRANCH   5   6
ATOM      6  C   UNL     1     -19.243 -38.675 207.921  1.00  0.00    -0.077 C 
ATOM      7  C   UNL     1     -19.794 -37.293 207.673  1.00  0.00     0.039 C 
ATOM      8  C   UNL     1     -18.190 -39.079 207.177  1.00  0.00    -0.023 CG0
ATOM      9  G   UNL     1     -17.523 -40.433 207.254  1.00  0.00     0.000 G0
ENDBRANCH   5   6
ENDBRANCH   4   5
ENDBRANCH   2   4
BRANCH   1  10
ATOM     10  C   UNL     1     -16.573 -40.026 210.887  1.00  0.00     0.111 C 
BRANCH  10  11
ATOM     11  C   UNL     1     -16.824 -40.889 209.674  1.00  0.00     0.163 C 
ATOM     12  O   UNL     1     -17.344 -42.024 209.850  1.00  0.00    -0.294 OA
BRANCH  11  13
ATOM     13  C   UNL     1     -16.426 -40.456 208.298  1.00  0.00    -0.002 C 
ATOM     14  C   UNL     1     -15.130 -40.153 207.986  1.00  0.00    -0.069 C 
ATOM     15  C   UNL     1     -14.743 -39.681 206.602  1.00  0.00     0.039 C 
ATOM     16  C   UNL     1     -14.014 -40.309 208.995  1.00  0.00     0.039 C 
BRANCH  13  17
ATOM     17  C   UNL     1     -17.514 -40.440 207.239  1.00  0.00     0.066 CG0
ATOM     18  G   UNL     1     -18.171 -39.081 207.200  1.00  0.00     0.000 G0
ENDBRANCH  13  17
ENDBRANCH  11  13
ENDBRANCH  10  11
ENDBRANCH   1  10
TORSDOF 0
ENDMDL
MODEL 9
REMARK VINA RESULT:    -2.891      2.188      4.429
REMARK INTER + INTRA:          -3.656
REMARK INTER:                  -4.556
REMARK INTRA:                   0.900
REMARK UNBOUND:                 0.418
REMARK SMILES CC1=CCC(=C(C)C)C(=O)CC(C)=CCC1
REMARK SMILES IDX 12 1 14 2 13 3 15 4 16 5 2 6 1 7 3 8 11 10 9 11 10 12 5 13
REMARK SMILES IDX 6 14 7 15 8 16 4 17
REMARK H PARENT
REMARK Flexibility Score: 60.00
ROOT
ATOM      1  C   UNL     1      -6.043 -39.454 214.919  1.00  0.00    -0.070 C 
ATOM      2  C   UNL     1      -6.762 -40.025 215.913  1.00  0.00    -0.027 C 
ATOM      3  C   UNL     1      -6.642 -38.253 214.228  1.00  0.00     0.039 C 
ENDROOT
BRANCH   2   4
ATOM      4  C   UNL     1      -6.314 -41.160 216.803  1.00  0.00     0.032 C 
BRANCH   4   5
ATOM      5  C   UNL     1      -6.417 -40.812 218.301  1.00  0.00     0.034 C 
BRANCH   5   6
ATOM      6  C   UNL     1      -5.402 -39.765 218.717  1.00  0.00    -0.077 C 
ATOM      7  C   UNL     1      -5.872 -38.608 219.562  1.00  0.00     0.039 C 
ATOM      8  C   UNL     1      -4.101 -39.794 218.350  1.00  0.00    -0.023 CG0
ATOM      9  G   UNL     1      -3.452 -40.845 217.481  1.00  0.00     0.000 G0
ENDBRANCH   5   6
ENDBRANCH   4   5
ENDBRANCH   2   4
BRANCH   1  10
ATOM     10  C   UNL     1      -4.652 -39.911 214.512  1.00  0.00     0.111 C 
BRANCH  10  11
ATOM     11  C   UNL     1      -3.592 -39.331 215.416  1.00  0.00     0.163 C 
ATOM     12  O   UNL     1      -3.394 -38.087 215.377  1.00  0.00    -0.294 OA
BRANCH  11  13
ATOM     13  C   UNL     1      -2.749 -40.193 216.302  1.00  0.00    -0.002 C 
ATOM     14  C   UNL     1      -1.403 -40.332 216.102  1.00  0.00    -0.069 C 
ATOM     15  C   UNL     1      -0.565 -41.235 216.980  1.00  0.00     0.039 C 
ATOM     16  C   UNL     1      -0.680 -39.565 215.017  1.00  0.00     0.039 C 
BRANCH  13  17
ATOM     17  C   UNL     1      -3.439 -40.850 217.485  1.00  0.00     0.066 CG0
ATOM     18  G   UNL     1      -4.086 -39.795 218.351  1.00  0.00     0.000 G0
ENDBRANCH  13  17
ENDBRANCH  11  13
ENDBRANCH  10  11
ENDBRANCH   1  10
TORSDOF 0
ENDMDL
