MODEL 1
REMARK VINA RESULT:    -4.073      0.000      0.000
REMARK INTER + INTRA:          -5.283
REMARK INTER:                  -5.026
REMARK INTRA:                  -0.258
REMARK UNBOUND:                -0.258
REMARK SMILES CCCCC=CC(C)=O
REMARK SMILES IDX 4 1 3 2 2 3 1 4 5 5 6 6 7 7 9 8 8 9
REMARK H PARENT
REMARK Flexibility Score: inf
ROOT
ATOM      1  C   UNL     1      16.108 -38.118  27.560  1.00  0.00     0.027 C 
ENDROOT
BRANCH   1   2
ATOM      2  C   UNL     1      16.185 -37.373  28.902  1.00  0.00     0.004 C 
BRANCH   2   3
ATOM      3  C   UNL     1      17.026 -38.124  29.945  1.00  0.00    -0.003 C 
ATOM      4  C   UNL     1      18.405 -37.498  30.153  1.00  0.00     0.004 C 
ENDBRANCH   2   3
ENDBRANCH   1   2
BRANCH   1   5
ATOM      5  C   UNL     1      17.261 -37.750  26.671  1.00  0.00    -0.023 C 
ATOM      6  C   UNL     1      17.484 -36.484  26.303  1.00  0.00     0.042 C 
BRANCH   6   7
ATOM      7  C   UNL     1      18.602 -36.103  25.420  1.00  0.00     0.152 C 
ATOM      8  O   UNL     1      18.996 -34.906  25.358  1.00  0.00    -0.295 OA
ATOM      9  C   UNL     1      19.276 -37.144  24.587  1.00  0.00     0.093 C 
ENDBRANCH   6   7
ENDBRANCH   1   5
TORSDOF 4
ENDMDL
MODEL 2
REMARK VINA RESULT:    -3.971      7.417      8.469
REMARK INTER + INTRA:          -5.157
REMARK INTER:                  -4.997
REMARK INTRA:                  -0.160
REMARK UNBOUND:                -0.258
REMARK SMILES CCCCC=CC(C)=O
REMARK SMILES IDX 4 1 3 2 2 3 1 4 5 5 6 6 7 7 9 8 8 9
REMARK H PARENT
REMARK Flexibility Score: inf
ROOT
ATOM      1  C   UNL     1      13.394 -31.646  20.614  1.00  0.00     0.027 C 
ENDROOT
BRANCH   1   2
ATOM      2  C   UNL     1      12.637 -30.969  21.768  1.00  0.00     0.004 C 
BRANCH   2   3
ATOM      3  C   UNL     1      13.514 -30.782  23.015  1.00  0.00    -0.003 C 
ATOM      4  C   UNL     1      13.068 -29.603  23.879  1.00  0.00     0.004 C 
ENDBRANCH   2   3
ENDBRANCH   1   2
BRANCH   1   5
ATOM      5  C   UNL     1      14.347 -32.686  21.129  1.00  0.00    -0.023 C 
ATOM      6  C   UNL     1      14.874 -33.613  20.322  1.00  0.00     0.042 C 
BRANCH   6   7
ATOM      7  C   UNL     1      15.800 -34.650  20.810  1.00  0.00     0.152 C 
ATOM      8  O   UNL     1      16.233 -34.624  21.995  1.00  0.00    -0.295 OA
ATOM      9  C   UNL     1      16.236 -35.746  19.892  1.00  0.00     0.093 C 
ENDBRANCH   6   7
ENDBRANCH   1   5
TORSDOF 4
ENDMDL
MODEL 3
REMARK VINA RESULT:    -3.924      7.863      9.059
REMARK INTER + INTRA:          -5.099
REMARK INTER:                  -4.898
REMARK INTRA:                  -0.200
REMARK UNBOUND:                -0.258
REMARK SMILES CCCCC=CC(C)=O
REMARK SMILES IDX 4 1 3 2 2 3 1 4 5 5 6 6 7 7 9 8 8 9
REMARK H PARENT
REMARK Flexibility Score: inf
ROOT
ATOM      1  C   UNL     1      12.598 -30.336  22.280  1.00  0.00     0.027 C 
ENDROOT
BRANCH   1   2
ATOM      2  C   UNL     1      13.136 -30.158  23.708  1.00  0.00     0.004 C 
BRANCH   2   3
ATOM      3  C   UNL     1      12.771 -28.791  24.308  1.00  0.00    -0.003 C 
ATOM      4  C   UNL     1      11.390 -28.305  23.872  1.00  0.00     0.004 C 
ENDBRANCH   2   3
ENDBRANCH   1   2
BRANCH   1   5
ATOM      5  C   UNL     1      13.290 -31.470  21.579  1.00  0.00    -0.023 C 
ATOM      6  C   UNL     1      14.208 -32.219  22.199  1.00  0.00     0.042 C 
BRANCH   6   7
ATOM      7  C   UNL     1      14.908 -33.328  21.526  1.00  0.00     0.152 C 
ATOM      8  O   UNL     1      15.763 -34.020  22.143  1.00  0.00    -0.295 OA
ATOM      9  C   UNL     1      14.606 -33.635  20.095  1.00  0.00     0.093 C 
ENDBRANCH   6   7
ENDBRANCH   1   5
TORSDOF 4
ENDMDL
MODEL 4
REMARK VINA RESULT:    -3.917      1.828      2.383
REMARK INTER + INTRA:          -5.091
REMARK INTER:                  -4.882
REMARK INTRA:                  -0.208
REMARK UNBOUND:                -0.258
REMARK SMILES CCCCC=CC(C)=O
REMARK SMILES IDX 4 1 3 2 2 3 1 4 5 5 6 6 7 7 9 8 8 9
REMARK H PARENT
REMARK Flexibility Score: inf
ROOT
ATOM      1  C   UNL     1      17.824 -37.338  27.116  1.00  0.00     0.027 C 
ENDROOT
BRANCH   1   2
ATOM      2  C   UNL     1      16.476 -38.044  27.335  1.00  0.00     0.004 C 
BRANCH   2   3
ATOM      3  C   UNL     1      16.032 -38.019  28.805  1.00  0.00    -0.003 C 
ATOM      4  C   UNL     1      17.189 -37.758  29.768  1.00  0.00     0.004 C 
ENDBRANCH   2   3
ENDBRANCH   1   2
BRANCH   1   5
ATOM      5  C   UNL     1      17.797 -36.496  25.872  1.00  0.00    -0.023 C 
ATOM      6  C   UNL     1      16.865 -35.555  25.685  1.00  0.00     0.042 C 
BRANCH   6   7
ATOM      7  C   UNL     1      16.814 -34.727  24.467  1.00  0.00     0.152 C 
ATOM      8  O   UNL     1      17.489 -35.035  23.447  1.00  0.00    -0.295 OA
ATOM      9  C   UNL     1      15.954 -33.505  24.438  1.00  0.00     0.093 C 
ENDBRANCH   6   7
ENDBRANCH   1   5
TORSDOF 4
ENDMDL
MODEL 5
REMARK VINA RESULT:    -3.917      7.134      8.489
REMARK INTER + INTRA:          -5.090
REMARK INTER:                  -4.836
REMARK INTRA:                  -0.254
REMARK UNBOUND:                -0.258
REMARK SMILES CCCCC=CC(C)=O
REMARK SMILES IDX 4 1 3 2 2 3 1 4 5 5 6 6 7 7 9 8 8 9
REMARK H PARENT
REMARK Flexibility Score: inf
ROOT
ATOM      1  C   UNL     1      13.213 -31.695  20.519  1.00  0.00     0.027 C 
ENDROOT
BRANCH   1   2
ATOM      2  C   UNL     1      12.637 -30.949  21.732  1.00  0.00     0.004 C 
BRANCH   2   3
ATOM      3  C   UNL     1      13.387 -31.274  23.033  1.00  0.00    -0.003 C 
ATOM      4  C   UNL     1      14.073 -30.052  23.641  1.00  0.00     0.004 C 
ENDBRANCH   2   3
ENDBRANCH   1   2
BRANCH   1   5
ATOM      5  C   UNL     1      14.255 -32.691  20.942  1.00  0.00    -0.023 C 
ATOM      6  C   UNL     1      14.594 -33.722  20.161  1.00  0.00     0.042 C 
BRANCH   6   7
ATOM      7  C   UNL     1      15.605 -34.718  20.562  1.00  0.00     0.152 C 
ATOM      8  O   UNL     1      15.853 -35.716  19.832  1.00  0.00    -0.295 OA
ATOM      9  C   UNL     1      16.342 -34.547  21.851  1.00  0.00     0.093 C 
ENDBRANCH   6   7
ENDBRANCH   1   5
TORSDOF 4
ENDMDL
MODEL 6
REMARK VINA RESULT:    -3.878     11.835     13.793
REMARK INTER + INTRA:          -5.042
REMARK INTER:                  -4.889
REMARK INTRA:                  -0.153
REMARK UNBOUND:                -0.258
REMARK SMILES CCCCC=CC(C)=O
REMARK SMILES IDX 4 1 3 2 2 3 1 4 5 5 6 6 7 7 9 8 8 9
REMARK H PARENT
REMARK Flexibility Score: inf
ROOT
ATOM      1  C   UNL     1      20.181 -26.073  20.982  1.00  0.00     0.027 C 
ENDROOT
BRANCH   1   2
ATOM      2  C   UNL     1      19.741 -27.474  20.532  1.00  0.00     0.004 C 
BRANCH   2   3
ATOM      3  C   UNL     1      20.812 -28.542  20.801  1.00  0.00    -0.003 C 
ATOM      4  C   UNL     1      20.232 -29.825  21.394  1.00  0.00     0.004 C 
ENDBRANCH   2   3
ENDBRANCH   1   2
BRANCH   1   5
ATOM      5  C   UNL     1      21.200 -25.498  20.040  1.00  0.00    -0.023 C 
ATOM      6  C   UNL     1      22.366 -25.015  20.481  1.00  0.00     0.042 C 
BRANCH   6   7
ATOM      7  C   UNL     1      23.374 -24.435  19.575  1.00  0.00     0.152 C 
ATOM      8  O   UNL     1      23.527 -24.886  18.406  1.00  0.00    -0.295 OA
ATOM      9  C   UNL     1      24.229 -23.303  20.045  1.00  0.00     0.093 C 
ENDBRANCH   6   7
ENDBRANCH   1   5
TORSDOF 4
ENDMDL
MODEL 7
REMARK VINA RESULT:    -3.871      8.175      9.123
REMARK INTER + INTRA:          -5.034
REMARK INTER:                  -4.928
REMARK INTRA:                  -0.106
REMARK UNBOUND:                -0.258
REMARK SMILES CCCCC=CC(C)=O
REMARK SMILES IDX 4 1 3 2 2 3 1 4 5 5 6 6 7 7 9 8 8 9
REMARK H PARENT
REMARK Flexibility Score: inf
ROOT
ATOM      1  C   UNL     1      14.663 -33.620  19.871  1.00  0.00     0.027 C 
ENDROOT
BRANCH   1   2
ATOM      2  C   UNL     1      15.401 -34.902  20.288  1.00  0.00     0.004 C 
BRANCH   2   3
ATOM      3  C   UNL     1      16.649 -35.166  19.432  1.00  0.00    -0.003 C 
ATOM      4  C   UNL     1      17.132 -36.613  19.522  1.00  0.00     0.004 C 
ENDBRANCH   2   3
ENDBRANCH   1   2
BRANCH   1   5
ATOM      5  C   UNL     1      14.218 -32.837  21.073  1.00  0.00    -0.023 C 
ATOM      6  C   UNL     1      13.449 -31.750  20.954  1.00  0.00     0.042 C 
BRANCH   6   7
ATOM      7  C   UNL     1      13.012 -30.960  22.120  1.00  0.00     0.152 C 
ATOM      8  O   UNL     1      11.936 -30.303  22.087  1.00  0.00    -0.295 OA
ATOM      9  C   UNL     1      13.853 -30.934  23.354  1.00  0.00     0.093 C 
ENDBRANCH   6   7
ENDBRANCH   1   5
TORSDOF 4
ENDMDL
MODEL 8
REMARK VINA RESULT:    -3.713      7.508      8.325
REMARK INTER + INTRA:          -4.839
REMARK INTER:                  -4.640
REMARK INTRA:                  -0.200
REMARK UNBOUND:                -0.258
REMARK SMILES CCCCC=CC(C)=O
REMARK SMILES IDX 4 1 3 2 2 3 1 4 5 5 6 6 7 7 9 8 8 9
REMARK H PARENT
REMARK Flexibility Score: inf
ROOT
ATOM      1  C   UNL     1      15.202 -31.751  23.373  1.00  0.00     0.027 C 
ENDROOT
BRANCH   1   2
ATOM      2  C   UNL     1      13.780 -31.550  23.919  1.00  0.00     0.004 C 
BRANCH   2   3
ATOM      3  C   UNL     1      13.203 -30.171  23.563  1.00  0.00    -0.003 C 
ATOM      4  C   UNL     1      12.156 -30.239  22.452  1.00  0.00     0.004 C 
ENDBRANCH   2   3
ENDBRANCH   1   2
BRANCH   1   5
ATOM      5  C   UNL     1      15.172 -32.285  21.969  1.00  0.00    -0.023 C 
ATOM      6  C   UNL     1      14.970 -33.582  21.719  1.00  0.00     0.042 C 
BRANCH   6   7
ATOM      7  C   UNL     1      14.949 -34.128  20.349  1.00  0.00     0.152 C 
ATOM      8  O   UNL     1      14.230 -33.603  19.456  1.00  0.00    -0.295 OA
ATOM      9  C   UNL     1      15.786 -35.320  20.014  1.00  0.00     0.093 C 
ENDBRANCH   6   7
ENDBRANCH   1   5
TORSDOF 4
ENDMDL
MODEL 9
REMARK VINA RESULT:    -3.684      6.795      8.388
REMARK INTER + INTRA:          -4.803
REMARK INTER:                  -4.525
REMARK INTRA:                  -0.278
REMARK UNBOUND:                -0.258
REMARK SMILES CCCCC=CC(C)=O
REMARK SMILES IDX 4 1 3 2 2 3 1 4 5 5 6 6 7 7 9 8 8 9
REMARK H PARENT
REMARK Flexibility Score: inf
ROOT
ATOM      1  C   UNL     1      15.126 -33.219  24.153  1.00  0.00     0.027 C 
ENDROOT
BRANCH   1   2
ATOM      2  C   UNL     1      16.103 -33.027  22.984  1.00  0.00     0.004 C 
BRANCH   2   3
ATOM      3  C   UNL     1      16.101 -34.219  22.014  1.00  0.00    -0.003 C 
ATOM      4  C   UNL     1      15.064 -34.074  20.902  1.00  0.00     0.004 C 
ENDBRANCH   2   3
ENDBRANCH   1   2
BRANCH   1   5
ATOM      5  C   UNL     1      13.951 -32.291  24.033  1.00  0.00    -0.023 C 
ATOM      6  C   UNL     1      14.014 -31.174  23.301  1.00  0.00     0.042 C 
BRANCH   6   7
ATOM      7  C   UNL     1      12.877 -30.243  23.180  1.00  0.00     0.152 C 
ATOM      8  O   UNL     1      12.008 -30.399  22.279  1.00  0.00    -0.295 OA
ATOM      9  C   UNL     1      12.751 -29.100  24.134  1.00  0.00     0.093 C 
ENDBRANCH   6   7
ENDBRANCH   1   5
TORSDOF 4
ENDMDL
