MODEL 1
REMARK VINA RESULT:    -5.604      0.000      0.000
REMARK INTER + INTRA:          -8.141
REMARK INTER:                  -7.570
REMARK INTRA:                  -0.571
REMARK UNBOUND:                -0.571
REMARK SMILES O=c1c(-c2ccc(O)cc2)coc2c([C@H]3O[C@H](CO)[C@@H](O)[C@H](O)[C@@H]3O)c(O)ccc12
REMARK SMILES IDX 3 1 11 2 12 3 13 4 30 5 2 6 1 7 29 8 28 9 26 10 14 11 4 12
REMARK SMILES IDX 5 13 6 14 7 15 10 16 9 17 8 18 15 20 24 21 16 22 22 23 17 24
REMARK SMILES IDX 20 25 25 26 23 28 18 30 19 31 21 33 27 35
REMARK H PARENT 8 19 25 27 23 29 19 32 21 34 27 36
REMARK Flexibility Score: inf
ROOT
ATOM      1  C   UNL     1      48.986  14.514  -4.639  1.00  0.00     0.065 A 
ATOM      2  C   UNL     1      48.105  15.584  -4.848  1.00  0.00     0.208 A 
ATOM      3  O   UNL     1      46.822  15.485  -4.525  1.00  0.00    -0.463 OA
ATOM      4  C   UNL     1      46.288  14.390  -3.989  1.00  0.00     0.147 A 
ATOM      5  C   UNL     1      47.106  13.262  -3.742  1.00  0.00     0.066 A 
ATOM      6  C   UNL     1      48.472  13.336  -4.066  1.00  0.00     0.200 A 
ATOM      7  O   UNL     1      49.236  12.360  -3.829  1.00  0.00    -0.288 OA
ATOM      8  C   UNL     1      46.540  12.106  -3.182  1.00  0.00     0.020 A 
ATOM      9  C   UNL     1      45.180  12.065  -2.882  1.00  0.00     0.047 A 
ATOM     10  C   UNL     1      44.361  13.174  -3.126  1.00  0.00     0.125 A 
ATOM     11  C   UNL     1      44.910  14.357  -3.672  1.00  0.00     0.069 A 
ENDROOT
BRANCH   1  12
ATOM     12  C   UNL     1      50.416  14.646  -5.015  1.00  0.00    -0.011 A 
ATOM     13  C   UNL     1      51.036  15.908  -5.011  1.00  0.00     0.013 A 
ATOM     14  C   UNL     1      52.380  16.038  -5.374  1.00  0.00     0.047 A 
ATOM     15  C   UNL     1      53.119  14.909  -5.751  1.00  0.00     0.115 A 
ATOM     16  C   UNL     1      51.163  13.519  -5.402  1.00  0.00     0.013 A 
ATOM     17  C   UNL     1      52.507  13.653  -5.765  1.00  0.00     0.047 A 
BRANCH  15  18
ATOM     18  O   UNL     1      54.459  15.026  -6.114  1.00  0.00    -0.508 OA
ATOM     19  H   UNL     1      54.943  15.915  -6.071  1.00  0.00     0.293 HD
ENDBRANCH  15  18
ENDBRANCH   1  12
BRANCH  11  20
ATOM     20  C   UNL     1      44.020  15.560  -3.958  1.00  0.00     0.188 C 
ATOM     21  C   UNL     1      43.864  16.422  -2.682  1.00  0.00     0.179 C 
ATOM     22  O   UNL     1      42.760  15.097  -4.425  1.00  0.00    -0.362 OA
ATOM     23  C   UNL     1      42.935  17.619  -2.947  1.00  0.00     0.177 C 
ATOM     24  C   UNL     1      41.868  16.153  -4.761  1.00  0.00     0.176 C 
ATOM     25  C   UNL     1      41.622  17.135  -3.583  1.00  0.00     0.177 C 
BRANCH  21  26
ATOM     26  O   UNL     1      45.109  16.850  -2.183  1.00  0.00    -0.387 OA
ATOM     27  H   UNL     1      45.313  17.734  -2.586  1.00  0.00     0.211 HD
ENDBRANCH  21  26
BRANCH  23  28
ATOM     28  O   UNL     1      43.553  18.560  -3.790  1.00  0.00    -0.387 OA
ATOM     29  H   UNL     1      44.422  18.173  -4.075  1.00  0.00     0.211 HD
ENDBRANCH  23  28
BRANCH  24  30
ATOM     30  C   UNL     1      42.244  16.850  -6.087  1.00  0.00     0.191 C 
BRANCH  30  31
ATOM     31  O   UNL     1      41.721  18.151  -6.121  1.00  0.00    -0.394 OA
ATOM     32  H   UNL     1      41.357  18.288  -7.033  1.00  0.00     0.210 HD
ENDBRANCH  30  31
ENDBRANCH  24  30
BRANCH  25  33
ATOM     33  O   UNL     1      40.854  16.494  -2.595  1.00  0.00    -0.388 OA
ATOM     34  H   UNL     1      39.913  16.495  -2.912  1.00  0.00     0.211 HD
ENDBRANCH  25  33
ENDBRANCH  11  20
BRANCH  10  35
ATOM     35  O   UNL     1      42.999  13.097  -2.830  1.00  0.00    -0.507 OA
ATOM     36  H   UNL     1      42.322  12.779  -3.513  1.00  0.00     0.293 HD
ENDBRANCH  10  35
TORSDOF 9
ENDMDL
MODEL 2
REMARK VINA RESULT:    -5.591      2.397      8.064
REMARK INTER + INTRA:          -8.123
REMARK INTER:                  -6.937
REMARK INTRA:                  -1.187
REMARK UNBOUND:                -0.571
REMARK SMILES O=c1c(-c2ccc(O)cc2)coc2c([C@H]3O[C@H](CO)[C@@H](O)[C@H](O)[C@@H]3O)c(O)ccc12
REMARK SMILES IDX 3 1 11 2 12 3 13 4 30 5 2 6 1 7 29 8 28 9 26 10 14 11 4 12
REMARK SMILES IDX 5 13 6 14 7 15 10 16 9 17 8 18 15 20 24 21 16 22 22 23 17 24
REMARK SMILES IDX 20 25 25 26 23 28 18 30 19 31 21 33 27 35
REMARK H PARENT 8 19 25 27 23 29 19 32 21 34 27 36
REMARK Flexibility Score: inf
ROOT
ATOM      1  C   UNL     1      43.505  17.070  -2.964  1.00  0.00     0.065 A 
ATOM      2  C   UNL     1      44.756  16.607  -2.534  1.00  0.00     0.208 A 
ATOM      3  O   UNL     1      45.309  15.530  -3.079  1.00  0.00    -0.463 OA
ATOM      4  C   UNL     1      44.732  14.828  -4.052  1.00  0.00     0.147 A 
ATOM      5  C   UNL     1      43.469  15.227  -4.547  1.00  0.00     0.066 A 
ATOM      6  C   UNL     1      42.858  16.368  -3.997  1.00  0.00     0.200 A 
ATOM      7  O   UNL     1      41.746  16.770  -4.439  1.00  0.00    -0.288 OA
ATOM      8  C   UNL     1      42.860  14.483  -5.570  1.00  0.00     0.020 A 
ATOM      9  C   UNL     1      43.491  13.352  -6.085  1.00  0.00     0.047 A 
ATOM     10  C   UNL     1      44.739  12.946  -5.599  1.00  0.00     0.125 A 
ATOM     11  C   UNL     1      45.383  13.689  -4.583  1.00  0.00     0.069 A 
ENDROOT
BRANCH   1  12
ATOM     12  C   UNL     1      42.904  18.273  -2.334  1.00  0.00    -0.011 A 
ATOM     13  C   UNL     1      43.275  19.559  -2.764  1.00  0.00     0.013 A 
ATOM     14  C   UNL     1      42.717  20.694  -2.167  1.00  0.00     0.047 A 
ATOM     15  C   UNL     1      41.787  20.556  -1.129  1.00  0.00     0.115 A 
ATOM     16  C   UNL     1      41.974  18.144  -1.287  1.00  0.00     0.013 A 
ATOM     17  C   UNL     1      41.419  19.281  -0.691  1.00  0.00     0.047 A 
BRANCH  15  18
ATOM     18  O   UNL     1      41.224  21.680  -0.527  1.00  0.00    -0.508 OA
ATOM     19  H   UNL     1      40.431  22.158  -0.937  1.00  0.00     0.293 HD
ENDBRANCH  15  18
ENDBRANCH   1  12
BRANCH  11  20
ATOM     20  C   UNL     1      46.732  13.241  -4.036  1.00  0.00     0.188 C 
ATOM     21  C   UNL     1      47.858  13.611  -5.032  1.00  0.00     0.179 C 
ATOM     22  O   UNL     1      46.690  11.841  -3.802  1.00  0.00    -0.362 OA
ATOM     23  C   UNL     1      49.223  13.129  -4.510  1.00  0.00     0.177 C 
ATOM     24  C   UNL     1      47.896  11.331  -3.248  1.00  0.00     0.176 C 
ATOM     25  C   UNL     1      49.142  11.643  -4.123  1.00  0.00     0.177 C 
BRANCH  21  26
ATOM     26  O   UNL     1      47.883  14.991  -5.308  1.00  0.00    -0.387 OA
ATOM     27  H   UNL     1      48.758  15.349  -5.007  1.00  0.00     0.211 HD
ENDBRANCH  21  26
BRANCH  23  28
ATOM     28  O   UNL     1      49.634  13.887  -3.400  1.00  0.00    -0.387 OA
ATOM     29  H   UNL     1      48.886  13.882  -2.747  1.00  0.00     0.211 HD
ENDBRANCH  23  28
BRANCH  24  30
ATOM     30  C   UNL     1      48.071  11.702  -1.759  1.00  0.00     0.191 C 
BRANCH  30  31
ATOM     31  O   UNL     1      49.406  11.529  -1.365  1.00  0.00    -0.394 OA
ATOM     32  H   UNL     1      49.515  12.016  -0.508  1.00  0.00     0.210 HD
ENDBRANCH  30  31
ENDBRANCH  24  30
BRANCH  25  33
ATOM     33  O   UNL     1      49.089  10.875  -5.300  1.00  0.00    -0.388 OA
ATOM     34  H   UNL     1      48.728   9.985  -5.049  1.00  0.00     0.211 HD
ENDBRANCH  25  33
ENDBRANCH  11  20
BRANCH  10  35
ATOM     35  O   UNL     1      45.338  11.800  -6.124  1.00  0.00    -0.507 OA
ATOM     36  H   UNL     1      44.878  11.233  -6.828  1.00  0.00     0.293 HD
ENDBRANCH  10  35
TORSDOF 9
ENDMDL
MODEL 3
REMARK VINA RESULT:    -5.435      1.555      2.717
REMARK INTER + INTRA:          -7.912
REMARK INTER:                  -7.980
REMARK INTRA:                   0.069
REMARK UNBOUND:                -0.571
REMARK SMILES O=c1c(-c2ccc(O)cc2)coc2c([C@H]3O[C@H](CO)[C@@H](O)[C@H](O)[C@@H]3O)c(O)ccc12
REMARK SMILES IDX 3 1 11 2 12 3 13 4 30 5 2 6 1 7 29 8 28 9 26 10 14 11 4 12
REMARK SMILES IDX 5 13 6 14 7 15 10 16 9 17 8 18 15 20 24 21 16 22 22 23 17 24
REMARK SMILES IDX 20 25 25 26 23 28 18 30 19 31 21 33 27 35
REMARK H PARENT 8 19 25 27 23 29 19 32 21 34 27 36
REMARK Flexibility Score: inf
ROOT
ATOM      1  C   UNL     1      47.780  15.563  -4.421  1.00  0.00     0.065 A 
ATOM      2  C   UNL     1      47.007  16.729  -4.337  1.00  0.00     0.208 A 
ATOM      3  O   UNL     1      45.724  16.674  -4.001  1.00  0.00    -0.463 OA
ATOM      4  C   UNL     1      45.091  15.537  -3.725  1.00  0.00     0.147 A 
ATOM      5  C   UNL     1      45.796  14.312  -3.785  1.00  0.00     0.066 A 
ATOM      6  C   UNL     1      47.159  14.335  -4.130  1.00  0.00     0.200 A 
ATOM      7  O   UNL     1      47.825  13.263  -4.161  1.00  0.00    -0.288 OA
ATOM      8  C   UNL     1      45.125  13.113  -3.498  1.00  0.00     0.020 A 
ATOM      9  C   UNL     1      43.772  13.127  -3.168  1.00  0.00     0.047 A 
ATOM     10  C   UNL     1      43.063  14.334  -3.110  1.00  0.00     0.125 A 
ATOM     11  C   UNL     1      43.720  15.557  -3.375  1.00  0.00     0.069 A 
ENDROOT
BRANCH   1  12
ATOM     12  C   UNL     1      49.211  15.649  -4.806  1.00  0.00    -0.011 A 
ATOM     13  C   UNL     1      49.638  16.614  -5.734  1.00  0.00     0.013 A 
ATOM     14  C   UNL     1      50.984  16.693  -6.106  1.00  0.00     0.047 A 
ATOM     15  C   UNL     1      51.918  15.802  -5.559  1.00  0.00     0.115 A 
ATOM     16  C   UNL     1      50.154  14.755  -4.267  1.00  0.00     0.013 A 
ATOM     17  C   UNL     1      51.499  14.835  -4.642  1.00  0.00     0.047 A 
BRANCH  15  18
ATOM     18  O   UNL     1      53.261  15.871  -5.921  1.00  0.00    -0.508 OA
ATOM     19  H   UNL     1      53.735  15.085  -6.350  1.00  0.00     0.293 HD
ENDBRANCH  15  18
ENDBRANCH   1  12
BRANCH  11  20
ATOM     20  C   UNL     1      42.950  16.870  -3.333  1.00  0.00     0.188 C 
ATOM     21  C   UNL     1      42.804  17.446  -4.763  1.00  0.00     0.179 C 
ATOM     22  O   UNL     1      43.634  17.777  -2.480  1.00  0.00    -0.362 OA
ATOM     23  C   UNL     1      42.061  18.793  -4.731  1.00  0.00     0.177 C 
ATOM     24  C   UNL     1      42.967  19.025  -2.342  1.00  0.00     0.176 C 
ATOM     25  C   UNL     1      42.717  19.730  -3.704  1.00  0.00     0.177 C 
BRANCH  21  26
ATOM     26  O   UNL     1      42.166  16.540  -5.631  1.00  0.00    -0.387 OA
ATOM     27  H   UNL     1      42.797  15.797  -5.817  1.00  0.00     0.211 HD
ENDBRANCH  21  26
BRANCH  23  28
ATOM     28  O   UNL     1      40.704  18.613  -4.411  1.00  0.00    -0.387 OA
ATOM     29  H   UNL     1      40.350  17.908  -5.015  1.00  0.00     0.211 HD
ENDBRANCH  23  28
BRANCH  24  30
ATOM     30  C   UNL     1      41.712  18.934  -1.446  1.00  0.00     0.191 C 
BRANCH  30  31
ATOM     31  O   UNL     1      42.029  18.329  -0.221  1.00  0.00    -0.394 OA
ATOM     32  H   UNL     1      42.149  19.063   0.436  1.00  0.00     0.210 HD
ENDBRANCH  30  31
ENDBRANCH  24  30
BRANCH  25  33
ATOM     33  O   UNL     1      43.942  20.182  -4.226  1.00  0.00    -0.388 OA
ATOM     34  H   UNL     1      43.756  21.029  -4.710  1.00  0.00     0.211 HD
ENDBRANCH  25  33
ENDBRANCH  11  20
BRANCH  10  35
ATOM     35  O   UNL     1      41.705  14.314  -2.792  1.00  0.00    -0.507 OA
ATOM     36  H   UNL     1      41.010  13.968  -3.443  1.00  0.00     0.293 HD
ENDBRANCH  10  35
TORSDOF 9
ENDMDL
MODEL 4
REMARK VINA RESULT:    -5.381      2.288      4.124
REMARK INTER + INTRA:          -7.839
REMARK INTER:                  -8.255
REMARK INTRA:                   0.416
REMARK UNBOUND:                -0.571
REMARK SMILES O=c1c(-c2ccc(O)cc2)coc2c([C@H]3O[C@H](CO)[C@@H](O)[C@H](O)[C@@H]3O)c(O)ccc12
REMARK SMILES IDX 3 1 11 2 12 3 13 4 30 5 2 6 1 7 29 8 28 9 26 10 14 11 4 12
REMARK SMILES IDX 5 13 6 14 7 15 10 16 9 17 8 18 15 20 24 21 16 22 22 23 17 24
REMARK SMILES IDX 20 25 25 26 23 28 18 30 19 31 21 33 27 35
REMARK H PARENT 8 19 25 27 23 29 19 32 21 34 27 36
REMARK Flexibility Score: inf
ROOT
ATOM      1  C   UNL     1      46.163  15.373  -3.553  1.00  0.00     0.065 A 
ATOM      2  C   UNL     1      45.856  16.693  -3.199  1.00  0.00     0.208 A 
ATOM      3  O   UNL     1      44.604  17.060  -2.954  1.00  0.00    -0.463 OA
ATOM      4  C   UNL     1      43.573  16.222  -3.022  1.00  0.00     0.147 A 
ATOM      5  C   UNL     1      43.793  14.869  -3.371  1.00  0.00     0.066 A 
ATOM      6  C   UNL     1      45.108  14.445  -3.630  1.00  0.00     0.200 A 
ATOM      7  O   UNL     1      45.344  13.238  -3.912  1.00  0.00    -0.288 OA
ATOM      8  C   UNL     1      42.703  13.988  -3.447  1.00  0.00     0.020 A 
ATOM      9  C   UNL     1      41.412  14.445  -3.193  1.00  0.00     0.047 A 
ATOM     10  C   UNL     1      41.182  15.783  -2.850  1.00  0.00     0.125 A 
ATOM     11  C   UNL     1      42.264  16.687  -2.748  1.00  0.00     0.069 A 
ENDROOT
BRANCH   1  12
ATOM     12  C   UNL     1      47.571  14.988  -3.829  1.00  0.00    -0.011 A 
ATOM     13  C   UNL     1      48.095  13.795  -3.302  1.00  0.00     0.013 A 
ATOM     14  C   UNL     1      49.423  13.434  -3.553  1.00  0.00     0.047 A 
ATOM     15  C   UNL     1      50.243  14.264  -4.329  1.00  0.00     0.115 A 
ATOM     16  C   UNL     1      48.402  15.819  -4.601  1.00  0.00     0.013 A 
ATOM     17  C   UNL     1      49.730  15.455  -4.850  1.00  0.00     0.047 A 
BRANCH  15  18
ATOM     18  O   UNL     1      51.567  13.915  -4.587  1.00  0.00    -0.508 OA
ATOM     19  H   UNL     1      52.326  14.257  -4.010  1.00  0.00     0.293 HD
ENDBRANCH  15  18
ENDBRANCH   1  12
BRANCH  11  20
ATOM     20  C   UNL     1      42.018  18.148  -2.396  1.00  0.00     0.188 C 
ATOM     21  C   UNL     1      43.055  19.048  -3.112  1.00  0.00     0.179 C 
ATOM     22  O   UNL     1      42.092  18.299  -0.986  1.00  0.00    -0.362 OA
ATOM     23  C   UNL     1      42.842  20.525  -2.735  1.00  0.00     0.177 C 
ATOM     24  C   UNL     1      41.833  19.629  -0.553  1.00  0.00     0.176 C 
ATOM     25  C   UNL     1      42.781  20.673  -1.206  1.00  0.00     0.177 C 
BRANCH  21  26
ATOM     26  O   UNL     1      43.023  18.876  -4.509  1.00  0.00    -0.387 OA
ATOM     27  H   UNL     1      43.312  19.727  -4.930  1.00  0.00     0.211 HD
ENDBRANCH  21  26
BRANCH  23  28
ATOM     28  O   UNL     1      41.660  21.027  -3.308  1.00  0.00    -0.387 OA
ATOM     29  H   UNL     1      41.544  21.956  -2.977  1.00  0.00     0.211 HD
ENDBRANCH  23  28
BRANCH  24  30
ATOM     30  C   UNL     1      40.337  20.004  -0.641  1.00  0.00     0.191 C 
BRANCH  30  31
ATOM     31  O   UNL     1      40.121  21.283  -0.110  1.00  0.00    -0.394 OA
ATOM     32  H   UNL     1      39.896  21.875  -0.875  1.00  0.00     0.210 HD
ENDBRANCH  30  31
ENDBRANCH  24  30
BRANCH  25  33
ATOM     33  O   UNL     1      44.078  20.512  -0.687  1.00  0.00    -0.388 OA
ATOM     34  H   UNL     1      44.563  19.902  -1.302  1.00  0.00     0.211 HD
ENDBRANCH  25  33
ENDBRANCH  11  20
BRANCH  10  35
ATOM     35  O   UNL     1      39.876  16.214  -2.617  1.00  0.00    -0.507 OA
ATOM     36  H   UNL     1      39.123  15.561  -2.435  1.00  0.00     0.293 HD
ENDBRANCH  10  35
TORSDOF 9
ENDMDL
MODEL 5
REMARK VINA RESULT:    -5.341      1.050      2.329
REMARK INTER + INTRA:          -7.786
REMARK INTER:                  -7.900
REMARK INTRA:                   0.115
REMARK UNBOUND:                -0.571
REMARK SMILES O=c1c(-c2ccc(O)cc2)coc2c([C@H]3O[C@H](CO)[C@@H](O)[C@H](O)[C@@H]3O)c(O)ccc12
REMARK SMILES IDX 3 1 11 2 12 3 13 4 30 5 2 6 1 7 29 8 28 9 26 10 14 11 4 12
REMARK SMILES IDX 5 13 6 14 7 15 10 16 9 17 8 18 15 20 24 21 16 22 22 23 17 24
REMARK SMILES IDX 20 25 25 26 23 28 18 30 19 31 21 33 27 35
REMARK H PARENT 8 19 25 27 23 29 19 32 21 34 27 36
REMARK Flexibility Score: inf
ROOT
ATOM      1  C   UNL     1      48.996  14.164  -4.428  1.00  0.00     0.065 A 
ATOM      2  C   UNL     1      48.012  15.159  -4.496  1.00  0.00     0.208 A 
ATOM      3  O   UNL     1      46.768  14.916  -4.105  1.00  0.00    -0.463 OA
ATOM      4  C   UNL     1      46.370  13.739  -3.629  1.00  0.00     0.147 A 
ATOM      5  C   UNL     1      47.299  12.677  -3.524  1.00  0.00     0.066 A 
ATOM      6  C   UNL     1      48.628  12.903  -3.923  1.00  0.00     0.200 A 
ATOM      7  O   UNL     1      49.491  11.987  -3.813  1.00  0.00    -0.288 OA
ATOM      8  C   UNL     1      46.877  11.435  -3.027  1.00  0.00     0.020 A 
ATOM      9  C   UNL     1      45.550  11.244  -2.650  1.00  0.00     0.047 A 
ATOM     10  C   UNL     1      44.621  12.286  -2.753  1.00  0.00     0.125 A 
ATOM     11  C   UNL     1      45.025  13.553  -3.232  1.00  0.00     0.069 A 
ENDROOT
BRANCH   1  12
ATOM     12  C   UNL     1      50.380  14.458  -4.878  1.00  0.00    -0.011 A 
ATOM     13  C   UNL     1      51.167  13.446  -5.457  1.00  0.00     0.013 A 
ATOM     14  C   UNL     1      52.474  13.717  -5.875  1.00  0.00     0.047 A 
ATOM     15  C   UNL     1      53.012  15.000  -5.712  1.00  0.00     0.115 A 
ATOM     16  C   UNL     1      50.931  15.741  -4.713  1.00  0.00     0.013 A 
ATOM     17  C   UNL     1      52.238  16.009  -5.131  1.00  0.00     0.047 A 
BRANCH  15  18
ATOM     18  O   UNL     1      54.312  15.283  -6.125  1.00  0.00    -0.508 OA
ATOM     19  H   UNL     1      54.582  15.225  -7.100  1.00  0.00     0.293 HD
ENDBRANCH  15  18
ENDBRANCH   1  12
BRANCH  11  20
ATOM     20  C   UNL     1      44.014  14.685  -3.366  1.00  0.00     0.188 C 
ATOM     21  C   UNL     1      43.889  15.113  -4.848  1.00  0.00     0.179 C 
ATOM     22  O   UNL     1      44.431  15.771  -2.550  1.00  0.00    -0.362 OA
ATOM     23  C   UNL     1      42.900  16.283  -4.993  1.00  0.00     0.177 C 
ATOM     24  C   UNL     1      43.524  16.867  -2.574  1.00  0.00     0.176 C 
ATOM     25  C   UNL     1      43.266  17.405  -4.009  1.00  0.00     0.177 C 
BRANCH  21  26
ATOM     26  O   UNL     1      43.519  14.035  -5.676  1.00  0.00    -0.387 OA
ATOM     27  H   UNL     1      43.949  13.214  -5.321  1.00  0.00     0.211 HD
ENDBRANCH  21  26
BRANCH  23  28
ATOM     28  O   UNL     1      41.579  15.858  -4.759  1.00  0.00    -0.387 OA
ATOM     29  H   UNL     1      41.544  15.505  -3.832  1.00  0.00     0.211 HD
ENDBRANCH  23  28
BRANCH  24  30
ATOM     30  C   UNL     1      42.236  16.593  -1.769  1.00  0.00     0.191 C 
BRANCH  30  31
ATOM     31  O   UNL     1      42.034  17.598  -0.812  1.00  0.00    -0.394 OA
ATOM     32  H   UNL     1      41.080  17.863  -0.875  1.00  0.00     0.210 HD
ENDBRANCH  30  31
ENDBRANCH  24  30
BRANCH  25  33
ATOM     33  O   UNL     1      44.422  18.054  -4.478  1.00  0.00    -0.388 OA
ATOM     34  H   UNL     1      44.381  18.991  -4.153  1.00  0.00     0.211 HD
ENDBRANCH  25  33
ENDBRANCH  11  20
BRANCH  10  35
ATOM     35  O   UNL     1      43.295  12.060  -2.381  1.00  0.00    -0.507 OA
ATOM     36  H   UNL     1      42.577  11.853  -3.066  1.00  0.00     0.293 HD
ENDBRANCH  10  35
TORSDOF 9
ENDMDL
MODEL 6
REMARK VINA RESULT:    -5.316      3.210      8.203
REMARK INTER + INTRA:          -7.751
REMARK INTER:                  -6.834
REMARK INTRA:                  -0.918
REMARK UNBOUND:                -0.571
REMARK SMILES O=c1c(-c2ccc(O)cc2)coc2c([C@H]3O[C@H](CO)[C@@H](O)[C@H](O)[C@@H]3O)c(O)ccc12
REMARK SMILES IDX 3 1 11 2 12 3 13 4 30 5 2 6 1 7 29 8 28 9 26 10 14 11 4 12
REMARK SMILES IDX 5 13 6 14 7 15 10 16 9 17 8 18 15 20 24 21 16 22 22 23 17 24
REMARK SMILES IDX 20 25 25 26 23 28 18 30 19 31 21 33 27 35
REMARK H PARENT 8 19 25 27 23 29 19 32 21 34 27 36
REMARK Flexibility Score: inf
ROOT
ATOM      1  C   UNL     1      43.429  17.905  -2.627  1.00  0.00     0.065 A 
ATOM      2  C   UNL     1      43.624  16.628  -2.084  1.00  0.00     0.208 A 
ATOM      3  O   UNL     1      44.443  15.758  -2.662  1.00  0.00    -0.463 OA
ATOM      4  C   UNL     1      45.125  16.028  -3.773  1.00  0.00     0.147 A 
ATOM      5  C   UNL     1      44.988  17.294  -4.388  1.00  0.00     0.066 A 
ATOM      6  C   UNL     1      44.134  18.241  -3.797  1.00  0.00     0.200 A 
ATOM      7  O   UNL     1      44.013  19.393  -4.301  1.00  0.00    -0.288 OA
ATOM      8  C   UNL     1      45.704  17.575  -5.562  1.00  0.00     0.020 A 
ATOM      9  C   UNL     1      46.535  16.609  -6.125  1.00  0.00     0.047 A 
ATOM     10  C   UNL     1      46.675  15.350  -5.527  1.00  0.00     0.125 A 
ATOM     11  C   UNL     1      45.980  15.049  -4.333  1.00  0.00     0.069 A 
ENDROOT
BRANCH   1  12
ATOM     12  C   UNL     1      42.501  18.857  -1.965  1.00  0.00    -0.011 A 
ATOM     13  C   UNL     1      41.111  18.719  -2.126  1.00  0.00     0.013 A 
ATOM     14  C   UNL     1      40.235  19.620  -1.511  1.00  0.00     0.047 A 
ATOM     15  C   UNL     1      40.738  20.672  -0.735  1.00  0.00     0.115 A 
ATOM     16  C   UNL     1      42.998  19.920  -1.190  1.00  0.00     0.013 A 
ATOM     17  C   UNL     1      42.119  20.819  -0.577  1.00  0.00     0.047 A 
BRANCH  15  18
ATOM     18  O   UNL     1      39.875  21.575  -0.117  1.00  0.00    -0.508 OA
ATOM     19  H   UNL     1      40.121  22.552  -0.010  1.00  0.00     0.293 HD
ENDBRANCH  15  18
ENDBRANCH   1  12
BRANCH  11  20
ATOM     20  C   UNL     1      46.113  13.675  -3.690  1.00  0.00     0.188 C 
ATOM     21  C   UNL     1      47.422  13.599  -2.866  1.00  0.00     0.179 C 
ATOM     22  O   UNL     1      46.086  12.686  -4.709  1.00  0.00    -0.362 OA
ATOM     23  C   UNL     1      47.588  12.202  -2.242  1.00  0.00     0.177 C 
ATOM     24  C   UNL     1      46.162  11.360  -4.201  1.00  0.00     0.176 C 
ATOM     25  C   UNL     1      47.420  11.120  -3.321  1.00  0.00     0.177 C 
BRANCH  21  26
ATOM     26  O   UNL     1      47.481  14.601  -1.880  1.00  0.00    -0.387 OA
ATOM     27  H   UNL     1      47.388  15.481  -2.331  1.00  0.00     0.211 HD
ENDBRANCH  21  26
BRANCH  23  28
ATOM     28  O   UNL     1      46.651  11.995  -1.213  1.00  0.00    -0.387 OA
ATOM     29  H   UNL     1      46.906  12.591  -0.460  1.00  0.00     0.211 HD
ENDBRANCH  23  28
BRANCH  24  30
ATOM     30  C   UNL     1      44.843  10.897  -3.544  1.00  0.00     0.191 C 
BRANCH  30  31
ATOM     31  O   UNL     1      43.762  11.120  -4.409  1.00  0.00    -0.394 OA
ATOM     32  H   UNL     1      43.233  10.280  -4.425  1.00  0.00     0.210 HD
ENDBRANCH  30  31
ENDBRANCH  24  30
BRANCH  25  33
ATOM     33  O   UNL     1      48.565  11.119  -4.137  1.00  0.00    -0.388 OA
ATOM     34  H   UNL     1      48.733  10.176  -4.401  1.00  0.00     0.211 HD
ENDBRANCH  25  33
ENDBRANCH  11  20
BRANCH  10  35
ATOM     35  O   UNL     1      47.502  14.398  -6.124  1.00  0.00    -0.507 OA
ATOM     36  H   UNL     1      48.204  13.894  -5.593  1.00  0.00     0.293 HD
ENDBRANCH  10  35
TORSDOF 9
ENDMDL
MODEL 7
REMARK VINA RESULT:    -5.190      2.797      5.110
REMARK INTER + INTRA:          -7.581
REMARK INTER:                  -6.992
REMARK INTRA:                  -0.589
REMARK UNBOUND:                -0.571
REMARK SMILES O=c1c(-c2ccc(O)cc2)coc2c([C@H]3O[C@H](CO)[C@@H](O)[C@H](O)[C@@H]3O)c(O)ccc12
REMARK SMILES IDX 3 1 11 2 12 3 13 4 30 5 2 6 1 7 29 8 28 9 26 10 14 11 4 12
REMARK SMILES IDX 5 13 6 14 7 15 10 16 9 17 8 18 15 20 24 21 16 22 22 23 17 24
REMARK SMILES IDX 20 25 25 26 23 28 18 30 19 31 21 33 27 35
REMARK H PARENT 8 19 25 27 23 29 19 32 21 34 27 36
REMARK Flexibility Score: inf
ROOT
ATOM      1  C   UNL     1      45.138  14.738  -3.117  1.00  0.00     0.065 A 
ATOM      2  C   UNL     1      44.989  15.959  -2.446  1.00  0.00     0.208 A 
ATOM      3  O   UNL     1      43.952  16.750  -2.691  1.00  0.00    -0.463 OA
ATOM      4  C   UNL     1      42.998  16.450  -3.569  1.00  0.00     0.147 A 
ATOM      5  C   UNL     1      43.069  15.235  -4.291  1.00  0.00     0.066 A 
ATOM      6  C   UNL     1      44.152  14.371  -4.050  1.00  0.00     0.200 A 
ATOM      7  O   UNL     1      44.229  13.264  -4.653  1.00  0.00    -0.288 OA
ATOM      8  C   UNL     1      42.065  14.922  -5.220  1.00  0.00     0.020 A 
ATOM      9  C   UNL     1      41.012  15.807  -5.440  1.00  0.00     0.047 A 
ATOM     10  C   UNL     1      40.934  17.014  -4.734  1.00  0.00     0.125 A 
ATOM     11  C   UNL     1      41.922  17.344  -3.778  1.00  0.00     0.069 A 
ENDROOT
BRANCH   1  12
ATOM     12  C   UNL     1      46.312  13.874  -2.831  1.00  0.00    -0.011 A 
ATOM     13  C   UNL     1      47.560  14.160  -3.410  1.00  0.00     0.013 A 
ATOM     14  C   UNL     1      48.665  13.343  -3.150  1.00  0.00     0.047 A 
ATOM     15  C   UNL     1      48.533  12.228  -2.313  1.00  0.00     0.115 A 
ATOM     16  C   UNL     1      46.187  12.748  -1.998  1.00  0.00     0.013 A 
ATOM     17  C   UNL     1      47.293  11.933  -1.740  1.00  0.00     0.047 A 
BRANCH  15  18
ATOM     18  O   UNL     1      49.627  11.407  -2.046  1.00  0.00    -0.508 OA
ATOM     19  H   UNL     1      50.524  11.792  -1.774  1.00  0.00     0.293 HD
ENDBRANCH  15  18
ENDBRANCH   1  12
BRANCH  11  20
ATOM     20  C   UNL     1      41.853  18.665  -3.023  1.00  0.00     0.188 C 
ATOM     21  C   UNL     1      42.949  19.629  -3.539  1.00  0.00     0.179 C 
ATOM     22  O   UNL     1      42.005  18.407  -1.634  1.00  0.00    -0.362 OA
ATOM     23  C   UNL     1      42.916  20.954  -2.756  1.00  0.00     0.177 C 
ATOM     24  C   UNL     1      41.912  19.581  -0.836  1.00  0.00     0.176 C 
ATOM     25  C   UNL     1      42.940  20.672  -1.245  1.00  0.00     0.177 C 
BRANCH  21  26
ATOM     26  O   UNL     1      42.837  19.859  -4.923  1.00  0.00    -0.387 OA
ATOM     27  H   UNL     1      43.610  20.413  -5.206  1.00  0.00     0.211 HD
ENDBRANCH  21  26
BRANCH  23  28
ATOM     28  O   UNL     1      41.772  21.704  -3.082  1.00  0.00    -0.387 OA
ATOM     29  H   UNL     1      41.381  21.303  -3.903  1.00  0.00     0.211 HD
ENDBRANCH  23  28
BRANCH  24  30
ATOM     30  C   UNL     1      40.464  20.102  -0.708  1.00  0.00     0.191 C 
BRANCH  30  31
ATOM     31  O   UNL     1      40.454  21.382  -0.135  1.00  0.00    -0.394 OA
ATOM     32  H   UNL     1      40.091  21.279   0.783  1.00  0.00     0.210 HD
ENDBRANCH  30  31
ENDBRANCH  24  30
BRANCH  25  33
ATOM     33  O   UNL     1      44.233  20.253  -0.887  1.00  0.00    -0.388 OA
ATOM     34  H   UNL     1      44.645  20.993  -0.369  1.00  0.00     0.211 HD
ENDBRANCH  25  33
ENDBRANCH  11  20
BRANCH  10  35
ATOM     35  O   UNL     1      39.875  17.887  -4.988  1.00  0.00    -0.507 OA
ATOM     36  H   UNL     1      39.144  17.660  -5.652  1.00  0.00     0.293 HD
ENDBRANCH  10  35
TORSDOF 9
ENDMDL
MODEL 8
REMARK VINA RESULT:    -5.104      1.950      2.635
REMARK INTER + INTRA:          -7.465
REMARK INTER:                  -6.757
REMARK INTRA:                  -0.708
REMARK UNBOUND:                -0.571
REMARK SMILES O=c1c(-c2ccc(O)cc2)coc2c([C@H]3O[C@H](CO)[C@@H](O)[C@H](O)[C@@H]3O)c(O)ccc12
REMARK SMILES IDX 3 1 11 2 12 3 13 4 30 5 2 6 1 7 29 8 28 9 26 10 14 11 4 12
REMARK SMILES IDX 5 13 6 14 7 15 10 16 9 17 8 18 15 20 24 21 16 22 22 23 17 24
REMARK SMILES IDX 20 25 25 26 23 28 18 30 19 31 21 33 27 35
REMARK H PARENT 8 19 25 27 23 29 19 32 21 34 27 36
REMARK Flexibility Score: inf
ROOT
ATOM      1  C   UNL     1      47.918  15.804  -5.178  1.00  0.00     0.065 A 
ATOM      2  C   UNL     1      47.356  16.945  -4.590  1.00  0.00     0.208 A 
ATOM      3  O   UNL     1      46.041  17.070  -4.463  1.00  0.00    -0.463 OA
ATOM      4  C   UNL     1      45.178  16.144  -4.873  1.00  0.00     0.147 A 
ATOM      5  C   UNL     1      45.659  14.959  -5.477  1.00  0.00     0.066 A 
ATOM      6  C   UNL     1      47.048  14.791  -5.620  1.00  0.00     0.200 A 
ATOM      7  O   UNL     1      47.512  13.731  -6.125  1.00  0.00    -0.288 OA
ATOM      8  C   UNL     1      44.748  13.985  -5.914  1.00  0.00     0.020 A 
ATOM      9  C   UNL     1      43.378  14.189  -5.764  1.00  0.00     0.047 A 
ATOM     10  C   UNL     1      42.890  15.360  -5.172  1.00  0.00     0.125 A 
ATOM     11  C   UNL     1      43.788  16.348  -4.706  1.00  0.00     0.069 A 
ENDROOT
BRANCH   1  12
ATOM     12  C   UNL     1      49.392  15.690  -5.315  1.00  0.00    -0.011 A 
ATOM     13  C   UNL     1      50.076  14.609  -4.732  1.00  0.00     0.013 A 
ATOM     14  C   UNL     1      51.466  14.504  -4.851  1.00  0.00     0.047 A 
ATOM     15  C   UNL     1      52.188  15.481  -5.549  1.00  0.00     0.115 A 
ATOM     16  C   UNL     1      50.125  16.670  -6.008  1.00  0.00     0.013 A 
ATOM     17  C   UNL     1      51.515  16.562  -6.125  1.00  0.00     0.047 A 
BRANCH  15  18
ATOM     18  O   UNL     1      53.572  15.386  -5.676  1.00  0.00    -0.508 OA
ATOM     19  H   UNL     1      54.125  14.826  -5.037  1.00  0.00     0.293 HD
ENDBRANCH  15  18
ENDBRANCH   1  12
BRANCH  11  20
ATOM     20  C   UNL     1      43.263  17.633  -4.079  1.00  0.00     0.188 C 
ATOM     21  C   UNL     1      42.767  17.357  -2.638  1.00  0.00     0.179 C 
ATOM     22  O   UNL     1      42.219  18.148  -4.893  1.00  0.00    -0.362 OA
ATOM     23  C   UNL     1      42.197  18.639  -2.006  1.00  0.00     0.177 C 
ATOM     24  C   UNL     1      41.690  19.377  -4.411  1.00  0.00     0.176 C 
ATOM     25  C   UNL     1      41.166  19.277  -2.951  1.00  0.00     0.177 C 
BRANCH  21  26
ATOM     26  O   UNL     1      43.779  16.804  -1.831  1.00  0.00    -0.387 OA
ATOM     27  H   UNL     1      44.654  17.007  -2.254  1.00  0.00     0.211 HD
ENDBRANCH  21  26
BRANCH  23  28
ATOM     28  O   UNL     1      43.222  19.562  -1.728  1.00  0.00    -0.387 OA
ATOM     29  H   UNL     1      44.061  19.044  -1.613  1.00  0.00     0.211 HD
ENDBRANCH  23  28
BRANCH  24  30
ATOM     30  C   UNL     1      42.639  20.571  -4.653  1.00  0.00     0.191 C 
BRANCH  30  31
ATOM     31  O   UNL     1      41.904  21.726  -4.956  1.00  0.00    -0.394 OA
ATOM     32  H   UNL     1      40.984  21.427  -5.178  1.00  0.00     0.210 HD
ENDBRANCH  30  31
ENDBRANCH  24  30
BRANCH  25  33
ATOM     33  O   UNL     1      39.995  18.499  -2.929  1.00  0.00    -0.388 OA
ATOM     34  H   UNL     1      39.652  18.517  -1.997  1.00  0.00     0.211 HD
ENDBRANCH  25  33
ENDBRANCH  11  20
BRANCH  10  35
ATOM     35  O   UNL     1      41.512  15.543  -5.050  1.00  0.00    -0.507 OA
ATOM     36  H   UNL     1      40.955  15.919  -5.809  1.00  0.00     0.293 HD
ENDBRANCH  10  35
TORSDOF 9
ENDMDL
MODEL 9
REMARK VINA RESULT:    -5.020      3.036      4.599
REMARK INTER + INTRA:          -7.351
REMARK INTER:                  -6.214
REMARK INTRA:                  -1.136
REMARK UNBOUND:                -0.571
REMARK SMILES O=c1c(-c2ccc(O)cc2)coc2c([C@H]3O[C@H](CO)[C@@H](O)[C@H](O)[C@@H]3O)c(O)ccc12
REMARK SMILES IDX 3 1 11 2 12 3 13 4 30 5 2 6 1 7 29 8 28 9 26 10 14 11 4 12
REMARK SMILES IDX 5 13 6 14 7 15 10 16 9 17 8 18 15 20 24 21 16 22 22 23 17 24
REMARK SMILES IDX 20 25 25 26 23 28 18 30 19 31 21 33 27 35
REMARK H PARENT 8 19 25 27 23 29 19 32 21 34 27 36
REMARK Flexibility Score: inf
ROOT
ATOM      1  C   UNL     1      45.611  14.115  -2.802  1.00  0.00     0.065 A 
ATOM      2  C   UNL     1      45.773  15.505  -2.888  1.00  0.00     0.208 A 
ATOM      3  O   UNL     1      44.776  16.285  -3.287  1.00  0.00    -0.463 OA
ATOM      4  C   UNL     1      43.577  15.818  -3.626  1.00  0.00     0.147 A 
ATOM      5  C   UNL     1      43.325  14.427  -3.567  1.00  0.00     0.066 A 
ATOM      6  C   UNL     1      44.358  13.573  -3.141  1.00  0.00     0.200 A 
ATOM      7  O   UNL     1      44.158  12.330  -3.046  1.00  0.00    -0.288 OA
ATOM      8  C   UNL     1      42.062  13.936  -3.929  1.00  0.00     0.020 A 
ATOM      9  C   UNL     1      41.065  14.811  -4.356  1.00  0.00     0.047 A 
ATOM     10  C   UNL     1      41.304  16.189  -4.422  1.00  0.00     0.125 A 
ATOM     11  C   UNL     1      42.562  16.711  -4.043  1.00  0.00     0.069 A 
ENDROOT
BRANCH   1  12
ATOM     12  C   UNL     1      46.744  13.263  -2.359  1.00  0.00    -0.011 A 
ATOM     13  C   UNL     1      46.783  12.762  -1.046  1.00  0.00     0.013 A 
ATOM     14  C   UNL     1      47.852  11.967  -0.623  1.00  0.00     0.047 A 
ATOM     15  C   UNL     1      48.898  11.668  -1.507  1.00  0.00     0.115 A 
ATOM     16  C   UNL     1      47.801  12.963  -3.237  1.00  0.00     0.013 A 
ATOM     17  C   UNL     1      48.869  12.168  -2.811  1.00  0.00     0.047 A 
BRANCH  15  18
ATOM     18  O   UNL     1      49.969  10.875  -1.097  1.00  0.00    -0.508 OA
ATOM     19  H   UNL     1      50.835  11.285  -0.769  1.00  0.00     0.293 HD
ENDBRANCH  15  18
ENDBRANCH   1  12
BRANCH  11  20
ATOM     20  C   UNL     1      42.834  18.207  -4.132  1.00  0.00     0.188 C 
ATOM     21  C   UNL     1      42.068  18.954  -3.013  1.00  0.00     0.179 C 
ATOM     22  O   UNL     1      42.447  18.668  -5.419  1.00  0.00    -0.362 OA
ATOM     23  C   UNL     1      42.303  20.471  -3.115  1.00  0.00     0.177 C 
ATOM     24  C   UNL     1      42.703  20.053  -5.615  1.00  0.00     0.176 C 
ATOM     25  C   UNL     1      42.018  20.952  -4.547  1.00  0.00     0.177 C 
BRANCH  21  26
ATOM     26  O   UNL     1      42.410  18.476  -1.734  1.00  0.00    -0.387 OA
ATOM     27  H   UNL     1      41.851  18.955  -1.068  1.00  0.00     0.211 HD
ENDBRANCH  21  26
BRANCH  23  28
ATOM     28  O   UNL     1      43.622  20.802  -2.757  1.00  0.00    -0.387 OA
ATOM     29  H   UNL     1      44.028  21.273  -3.531  1.00  0.00     0.211 HD
ENDBRANCH  23  28
BRANCH  24  30
ATOM     30  C   UNL     1      44.203  20.359  -5.819  1.00  0.00     0.191 C 
BRANCH  30  31
ATOM     31  O   UNL     1      44.460  21.719  -5.592  1.00  0.00    -0.394 OA
ATOM     32  H   UNL     1      43.819  22.227  -6.153  1.00  0.00     0.210 HD
ENDBRANCH  30  31
ENDBRANCH  24  30
BRANCH  25  33
ATOM     33  O   UNL     1      40.628  20.944  -4.755  1.00  0.00    -0.388 OA
ATOM     34  H   UNL     1      40.262  20.178  -4.241  1.00  0.00     0.211 HD
ENDBRANCH  25  33
ENDBRANCH  11  20
BRANCH  10  35
ATOM     35  O   UNL     1      40.290  17.038  -4.867  1.00  0.00    -0.507 OA
ATOM     36  H   UNL     1      39.351  16.701  -5.043  1.00  0.00     0.293 HD
ENDBRANCH  10  35
TORSDOF 9
ENDMDL
