MODEL 1
REMARK VINA RESULT:    -4.505      0.000      0.000
REMARK INTER + INTRA:          -7.231
REMARK INTER:                  -6.611
REMARK INTRA:                  -0.619
REMARK UNBOUND:                -0.619
REMARK SMILES O=C([O-])CCCCCCCC(=O)[O-]
REMARK SMILES IDX 7 1 6 2 5 3 4 4 2 5 1 6 3 7 8 8 9 9 10 10 11 11 12 12 13 13
REMARK H PARENT
REMARK Flexibility Score: inf
ROOT
ATOM      1  C   UNL     1     -20.687  55.775  -1.906  1.00  0.00     0.000 C 
ENDROOT
BRANCH   1   2
ATOM      2  C   UNL     1     -20.510  56.472  -3.263  1.00  0.00     0.000 C 
BRANCH   2   3
ATOM      3  C   UNL     1     -19.021  56.621  -3.611  1.00  0.00     0.006 C 
BRANCH   3   4
ATOM      4  C   UNL     1     -18.250  55.305  -3.446  1.00  0.00     0.053 C 
BRANCH   4   5
ATOM      5  C   UNL     1     -17.208  55.403  -2.375  1.00  0.00     0.041 C 
ATOM      6  O   UNL     1     -16.538  54.389  -2.048  1.00  0.00    -0.550 OA
ATOM      7  O   UNL     1     -16.999  56.608  -1.715  1.00  0.00    -0.550 OA
ENDBRANCH   4   5
ENDBRANCH   3   4
ENDBRANCH   2   3
ENDBRANCH   1   2
BRANCH   1   8
ATOM      8  C   UNL     1     -22.047  55.070  -1.774  1.00  0.00     0.000 C 
BRANCH   8   9
ATOM      9  C   UNL     1     -21.916  53.618  -1.284  1.00  0.00     0.006 C 
BRANCH   9  10
ATOM     10  C   UNL     1     -20.689  52.915  -1.879  1.00  0.00     0.053 C 
BRANCH  10  11
ATOM     11  C   UNL     1     -19.799  52.351  -0.813  1.00  0.00     0.041 C 
ATOM     12  O   UNL     1     -19.677  51.103  -0.684  1.00  0.00    -0.550 OA
ATOM     13  O   UNL     1     -19.128  53.200   0.056  1.00  0.00    -0.550 OA
ENDBRANCH  10  11
ENDBRANCH   9  10
ENDBRANCH   8   9
ENDBRANCH   1   8
TORSDOF 8
ENDMDL
MODEL 2
REMARK VINA RESULT:    -4.391      1.971      4.701
REMARK INTER + INTRA:          -7.063
REMARK INTER:                  -6.341
REMARK INTRA:                  -0.722
REMARK UNBOUND:                -0.619
REMARK SMILES O=C([O-])CCCCCCCC(=O)[O-]
REMARK SMILES IDX 7 1 6 2 5 3 4 4 2 5 1 6 3 7 8 8 9 9 10 10 11 11 12 12 13 13
REMARK H PARENT
REMARK Flexibility Score: inf
ROOT
ATOM      1  C   UNL     1     -19.249  55.147  -3.236  1.00  0.00     0.000 C 
ENDROOT
BRANCH   1   2
ATOM      2  C   UNL     1     -19.009  53.631  -3.192  1.00  0.00     0.000 C 
BRANCH   2   3
ATOM      3  C   UNL     1     -19.900  52.965  -2.131  1.00  0.00     0.006 C 
BRANCH   3   4
ATOM      4  C   UNL     1     -20.342  53.951  -1.043  1.00  0.00     0.053 C 
BRANCH   4   5
ATOM      5  C   UNL     1     -21.822  53.901  -0.815  1.00  0.00     0.041 C 
ATOM      6  O   UNL     1     -22.281  53.484   0.279  1.00  0.00    -0.550 OA
ATOM      7  O   UNL     1     -22.694  54.283  -1.828  1.00  0.00    -0.550 OA
ENDBRANCH   4   5
ENDBRANCH   3   4
ENDBRANCH   2   3
ENDBRANCH   1   2
BRANCH   1   8
ATOM      8  C   UNL     1     -18.125  55.906  -3.959  1.00  0.00     0.000 C 
BRANCH   8   9
ATOM      9  C   UNL     1     -17.017  56.376  -3.003  1.00  0.00     0.006 C 
BRANCH   9  10
ATOM     10  C   UNL     1     -17.545  56.632  -1.585  1.00  0.00     0.053 C 
BRANCH  10  11
ATOM     11  C   UNL     1     -16.785  55.850  -0.557  1.00  0.00     0.041 C 
ATOM     12  O   UNL     1     -16.672  54.600  -0.669  1.00  0.00    -0.550 OA
ATOM     13  O   UNL     1     -16.227  56.496   0.538  1.00  0.00    -0.550 OA
ENDBRANCH  10  11
ENDBRANCH   9  10
ENDBRANCH   8   9
ENDBRANCH   1   8
TORSDOF 8
ENDMDL
MODEL 3
REMARK VINA RESULT:    -4.385      1.269      4.350
REMARK INTER + INTRA:          -7.054
REMARK INTER:                  -6.394
REMARK INTRA:                  -0.660
REMARK UNBOUND:                -0.619
REMARK SMILES O=C([O-])CCCCCCCC(=O)[O-]
REMARK SMILES IDX 7 1 6 2 5 3 4 4 2 5 1 6 3 7 8 8 9 9 10 10 11 11 12 12 13 13
REMARK H PARENT
REMARK Flexibility Score: inf
ROOT
ATOM      1  C   UNL     1     -21.843  55.394  -3.225  1.00  0.00     0.000 C 
ENDROOT
BRANCH   1   2
ATOM      2  C   UNL     1     -22.497  55.133  -1.860  1.00  0.00     0.000 C 
BRANCH   2   3
ATOM      3  C   UNL     1     -22.249  53.688  -1.400  1.00  0.00     0.006 C 
BRANCH   3   4
ATOM      4  C   UNL     1     -20.915  53.536  -0.657  1.00  0.00     0.053 C 
BRANCH   4   5
ATOM      5  C   UNL     1     -20.014  52.547  -1.329  1.00  0.00     0.041 C 
ATOM      6  O   UNL     1     -19.848  51.402  -0.835  1.00  0.00    -0.550 OA
ATOM      7  O   UNL     1     -19.331  52.903  -2.486  1.00  0.00    -0.550 OA
ENDBRANCH   4   5
ENDBRANCH   3   4
ENDBRANCH   2   3
ENDBRANCH   1   2
BRANCH   1   8
ATOM      8  C   UNL     1     -20.929  56.631  -3.219  1.00  0.00     0.000 C 
BRANCH   8   9
ATOM      9  C   UNL     1     -19.439  56.266  -3.305  1.00  0.00     0.006 C 
BRANCH   9  10
ATOM     10  C   UNL     1     -18.763  56.257  -1.927  1.00  0.00     0.053 C 
BRANCH  10  11
ATOM     11  C   UNL     1     -17.310  56.612  -2.016  1.00  0.00     0.041 C 
ATOM     12  O   UNL     1     -16.633  56.778  -0.967  1.00  0.00    -0.550 OA
ATOM     13  O   UNL     1     -16.711  56.789  -3.257  1.00  0.00    -0.550 OA
ENDBRANCH  10  11
ENDBRANCH   9  10
ENDBRANCH   8   9
ENDBRANCH   1   8
TORSDOF 8
ENDMDL
MODEL 4
REMARK VINA RESULT:    -4.348      1.959      2.714
REMARK INTER + INTRA:          -7.001
REMARK INTER:                  -6.304
REMARK INTRA:                  -0.697
REMARK UNBOUND:                -0.619
REMARK SMILES O=C([O-])CCCCCCCC(=O)[O-]
REMARK SMILES IDX 7 1 6 2 5 3 4 4 2 5 1 6 3 7 8 8 9 9 10 10 11 11 12 12 13 13
REMARK H PARENT
REMARK Flexibility Score: inf
ROOT
ATOM      1  C   UNL     1     -19.392  55.612  -3.250  1.00  0.00     0.000 C 
ENDROOT
BRANCH   1   2
ATOM      2  C   UNL     1     -18.257  56.572  -3.635  1.00  0.00     0.000 C 
BRANCH   2   3
ATOM      3  C   UNL     1     -17.041  56.381  -2.714  1.00  0.00     0.006 C 
BRANCH   3   4
ATOM      4  C   UNL     1     -17.382  56.642  -1.241  1.00  0.00     0.053 C 
BRANCH   4   5
ATOM      5  C   UNL     1     -16.975  55.496  -0.366  1.00  0.00     0.041 C 
ATOM      6  O   UNL     1     -17.161  55.551   0.877  1.00  0.00    -0.550 OA
ATOM      7  O   UNL     1     -16.358  54.382  -0.922  1.00  0.00    -0.550 OA
ENDBRANCH   4   5
ENDBRANCH   3   4
ENDBRANCH   2   3
ENDBRANCH   1   2
BRANCH   1   8
ATOM      8  C   UNL     1     -18.951  54.139  -3.256  1.00  0.00     0.000 C 
BRANCH   8   9
ATOM      9  C   UNL     1     -19.903  53.232  -2.459  1.00  0.00     0.006 C 
BRANCH   9  10
ATOM     10  C   UNL     1     -20.243  53.818  -1.082  1.00  0.00     0.053 C 
BRANCH  10  11
ATOM     11  C   UNL     1     -21.719  53.808  -0.822  1.00  0.00     0.041 C 
ATOM     12  O   UNL     1     -22.168  53.349   0.262  1.00  0.00    -0.550 OA
ATOM     13  O   UNL     1     -22.599  54.279  -1.787  1.00  0.00    -0.550 OA
ENDBRANCH  10  11
ENDBRANCH   9  10
ENDBRANCH   8   9
ENDBRANCH   1   8
TORSDOF 8
ENDMDL
MODEL 5
REMARK VINA RESULT:    -4.345      1.779      2.366
REMARK INTER + INTRA:          -6.997
REMARK INTER:                  -6.571
REMARK INTRA:                  -0.426
REMARK UNBOUND:                -0.619
REMARK SMILES O=C([O-])CCCCCCCC(=O)[O-]
REMARK SMILES IDX 7 1 6 2 5 3 4 4 2 5 1 6 3 7 8 8 9 9 10 10 11 11 12 12 13 13
REMARK H PARENT
REMARK Flexibility Score: inf
ROOT
ATOM      1  C   UNL     1     -19.626  55.714  -3.209  1.00  0.00     0.000 C 
ENDROOT
BRANCH   1   2
ATOM      2  C   UNL     1     -18.466  56.628  -3.630  1.00  0.00     0.000 C 
BRANCH   2   3
ATOM      3  C   UNL     1     -17.111  55.985  -3.291  1.00  0.00     0.006 C 
BRANCH   3   4
ATOM      4  C   UNL     1     -17.265  54.730  -2.422  1.00  0.00     0.053 C 
BRANCH   4   5
ATOM      5  C   UNL     1     -16.736  54.945  -1.038  1.00  0.00     0.041 C 
ATOM      6  O   UNL     1     -16.002  54.076  -0.497  1.00  0.00    -0.550 OA
ATOM      7  O   UNL     1     -17.081  56.091  -0.331  1.00  0.00    -0.550 OA
ENDBRANCH   4   5
ENDBRANCH   3   4
ENDBRANCH   2   3
ENDBRANCH   1   2
BRANCH   1   8
ATOM      8  C   UNL     1     -20.992  56.417  -3.281  1.00  0.00     0.000 C 
BRANCH   8   9
ATOM      9  C   UNL     1     -22.159  55.481  -2.927  1.00  0.00     0.006 C 
BRANCH   9  10
ATOM     10  C   UNL     1     -22.433  55.441  -1.418  1.00  0.00     0.053 C 
BRANCH  10  11
ATOM     11  C   UNL     1     -22.199  54.076  -0.845  1.00  0.00     0.041 C 
ATOM     12  O   UNL     1     -21.522  53.228  -1.484  1.00  0.00    -0.550 OA
ATOM     13  O   UNL     1     -22.753  53.731   0.381  1.00  0.00    -0.550 OA
ENDBRANCH  10  11
ENDBRANCH   9  10
ENDBRANCH   8   9
ENDBRANCH   1   8
TORSDOF 8
ENDMDL
MODEL 6
REMARK VINA RESULT:    -4.343      0.989      4.034
REMARK INTER + INTRA:          -6.993
REMARK INTER:                  -6.341
REMARK INTRA:                  -0.652
REMARK UNBOUND:                -0.619
REMARK SMILES O=C([O-])CCCCCCCC(=O)[O-]
REMARK SMILES IDX 7 1 6 2 5 3 4 4 2 5 1 6 3 7 8 8 9 9 10 10 11 11 12 12 13 13
REMARK H PARENT
REMARK Flexibility Score: inf
ROOT
ATOM      1  C   UNL     1     -20.497  56.575  -3.355  1.00  0.00     0.000 C 
ENDROOT
BRANCH   1   2
ATOM      2  C   UNL     1     -20.861  55.885  -2.032  1.00  0.00     0.000 C 
BRANCH   2   3
ATOM      3  C   UNL     1     -21.852  54.735  -2.268  1.00  0.00     0.006 C 
BRANCH   3   4
ATOM      4  C   UNL     1     -21.884  53.747  -1.094  1.00  0.00     0.053 C 
BRANCH   4   5
ATOM      5  C   UNL     1     -20.681  52.854  -1.087  1.00  0.00     0.041 C 
ATOM      6  O   UNL     1     -20.142  52.508  -2.169  1.00  0.00    -0.550 OA
ATOM      7  O   UNL     1     -20.177  52.378   0.118  1.00  0.00    -0.550 OA
ENDBRANCH   4   5
ENDBRANCH   3   4
ENDBRANCH   2   3
ENDBRANCH   1   2
BRANCH   1   8
ATOM      8  C   UNL     1     -18.980  56.631  -3.599  1.00  0.00     0.000 C 
BRANCH   8   9
ATOM      9  C   UNL     1     -18.323  55.241  -3.560  1.00  0.00     0.006 C 
BRANCH   9  10
ATOM     10  C   UNL     1     -16.986  55.254  -2.807  1.00  0.00     0.053 C 
BRANCH  10  11
ATOM     11  C   UNL     1     -17.182  55.377  -1.326  1.00  0.00     0.041 C 
ATOM     12  O   UNL     1     -17.548  54.379  -0.651  1.00  0.00    -0.550 OA
ATOM     13  O   UNL     1     -16.988  56.600  -0.698  1.00  0.00    -0.550 OA
ENDBRANCH  10  11
ENDBRANCH   9  10
ENDBRANCH   8   9
ENDBRANCH   1   8
TORSDOF 8
ENDMDL
MODEL 7
REMARK VINA RESULT:    -4.293      2.472      4.666
REMARK INTER + INTRA:          -6.919
REMARK INTER:                  -6.204
REMARK INTRA:                  -0.715
REMARK UNBOUND:                -0.619
REMARK SMILES O=C([O-])CCCCCCCC(=O)[O-]
REMARK SMILES IDX 7 1 6 2 5 3 4 4 2 5 1 6 3 7 8 8 9 9 10 10 11 11 12 12 13 13
REMARK H PARENT
REMARK Flexibility Score: inf
ROOT
ATOM      1  C   UNL     1     -20.767  52.873  -0.879  1.00  0.00     0.000 C 
ENDROOT
BRANCH   1   2
ATOM      2  C   UNL     1     -21.274  54.313  -0.716  1.00  0.00     0.000 C 
BRANCH   2   3
ATOM      3  C   UNL     1     -22.786  54.395  -0.981  1.00  0.00     0.006 C 
BRANCH   3   4
ATOM      4  C   UNL     1     -23.106  55.100  -2.305  1.00  0.00     0.053 C 
BRANCH   4   5
ATOM      5  C   UNL     1     -22.543  56.488  -2.346  1.00  0.00     0.041 C 
ATOM      6  O   UNL     1     -22.969  57.369  -1.555  1.00  0.00    -0.550 OA
ATOM      7  O   UNL     1     -21.569  56.816  -3.282  1.00  0.00    -0.550 OA
ENDBRANCH   4   5
ENDBRANCH   3   4
ENDBRANCH   2   3
ENDBRANCH   1   2
BRANCH   1   8
ATOM      8  C   UNL     1     -19.615  52.760  -1.891  1.00  0.00     0.000 C 
BRANCH   8   9
ATOM      9  C   UNL     1     -19.607  53.911  -2.911  1.00  0.00     0.006 C 
BRANCH   9  10
ATOM     10  C   UNL     1     -18.226  54.570  -3.030  1.00  0.00     0.053 C 
BRANCH  10  11
ATOM     11  C   UNL     1     -18.285  56.041  -2.750  1.00  0.00     0.041 C 
ATOM     12  O   UNL     1     -18.169  56.870  -3.691  1.00  0.00    -0.550 OA
ATOM     13  O   UNL     1     -18.438  56.497  -1.447  1.00  0.00    -0.550 OA
ENDBRANCH  10  11
ENDBRANCH   9  10
ENDBRANCH   8   9
ENDBRANCH   1   8
TORSDOF 8
ENDMDL
MODEL 8
REMARK VINA RESULT:    -4.290      3.448      4.301
REMARK INTER + INTRA:          -6.915
REMARK INTER:                  -6.319
REMARK INTRA:                  -0.596
REMARK UNBOUND:                -0.619
REMARK SMILES O=C([O-])CCCCCCCC(=O)[O-]
REMARK SMILES IDX 7 1 6 2 5 3 4 4 2 5 1 6 3 7 8 8 9 9 10 10 11 11 12 12 13 13
REMARK H PARENT
REMARK Flexibility Score: inf
ROOT
ATOM      1  C   UNL     1     -20.767  53.616  -0.863  1.00  0.00     0.000 C 
ENDROOT
BRANCH   1   2
ATOM      2  C   UNL     1     -20.063  52.794  -1.953  1.00  0.00     0.000 C 
BRANCH   2   3
ATOM      3  C   UNL     1     -19.410  53.713  -2.997  1.00  0.00     0.006 C 
BRANCH   3   4
ATOM      4  C   UNL     1     -18.855  55.000  -2.371  1.00  0.00     0.053 C 
BRANCH   4   5
ATOM      5  C   UNL     1     -19.189  56.206  -3.193  1.00  0.00     0.041 C 
ATOM      6  O   UNL     1     -20.389  56.519  -3.402  1.00  0.00    -0.550 OA
ATOM      7  O   UNL     1     -18.171  56.967  -3.757  1.00  0.00    -0.550 OA
ENDBRANCH   4   5
ENDBRANCH   3   4
ENDBRANCH   2   3
ENDBRANCH   1   2
BRANCH   1   8
ATOM      8  C   UNL     1     -22.295  53.644  -1.033  1.00  0.00     0.000 C 
BRANCH   8   9
ATOM      9  C   UNL     1     -22.843  55.066  -1.229  1.00  0.00     0.006 C 
BRANCH   9  10
ATOM     10  C   UNL     1     -23.750  55.173  -2.462  1.00  0.00     0.053 C 
BRANCH  10  11
ATOM     11  C   UNL     1     -25.132  55.627  -2.100  1.00  0.00     0.041 C 
ATOM     12  O   UNL     1     -25.886  54.881  -1.421  1.00  0.00    -0.550 OA
ATOM     13  O   UNL     1     -25.597  56.860  -2.538  1.00  0.00    -0.550 OA
ENDBRANCH  10  11
ENDBRANCH   9  10
ENDBRANCH   8   9
ENDBRANCH   1   8
TORSDOF 8
ENDMDL
MODEL 9
REMARK VINA RESULT:    -4.284      2.091      4.820
REMARK INTER + INTRA:          -6.907
REMARK INTER:                  -6.162
REMARK INTRA:                  -0.744
REMARK UNBOUND:                -0.619
REMARK SMILES O=C([O-])CCCCCCCC(=O)[O-]
REMARK SMILES IDX 7 1 6 2 5 3 4 4 2 5 1 6 3 7 8 8 9 9 10 10 11 11 12 12 13 13
REMARK H PARENT
REMARK Flexibility Score: inf
ROOT
ATOM      1  C   UNL     1     -20.004  53.517  -2.832  1.00  0.00     0.000 C 
ENDROOT
BRANCH   1   2
ATOM      2  C   UNL     1     -19.943  52.434  -1.745  1.00  0.00     0.000 C 
BRANCH   2   3
ATOM      3  C   UNL     1     -20.888  52.772  -0.581  1.00  0.00     0.006 C 
BRANCH   3   4
ATOM      4  C   UNL     1     -22.055  53.666  -1.021  1.00  0.00     0.053 C 
BRANCH   4   5
ATOM      5  C   UNL     1     -22.553  54.521   0.103  1.00  0.00     0.041 C 
ATOM      6  O   UNL     1     -23.335  54.042   0.966  1.00  0.00    -0.550 OA
ATOM      7  O   UNL     1     -22.181  55.858   0.178  1.00  0.00    -0.550 OA
ENDBRANCH   4   5
ENDBRANCH   3   4
ENDBRANCH   2   3
ENDBRANCH   1   2
BRANCH   1   8
ATOM      8  C   UNL     1     -18.611  53.935  -3.333  1.00  0.00     0.000 C 
BRANCH   8   9
ATOM      9  C   UNL     1     -18.439  55.461  -3.400  1.00  0.00     0.006 C 
BRANCH   9  10
ATOM     10  C   UNL     1     -19.137  56.175  -2.235  1.00  0.00     0.053 C 
BRANCH  10  11
ATOM     11  C   UNL     1     -18.308  56.144  -0.986  1.00  0.00     0.041 C 
ATOM     12  O   UNL     1     -18.692  55.478   0.012  1.00  0.00    -0.550 OA
ATOM     13  O   UNL     1     -17.129  56.873  -0.914  1.00  0.00    -0.550 OA
ENDBRANCH  10  11
ENDBRANCH   9  10
ENDBRANCH   8   9
ENDBRANCH   1   8
TORSDOF 8
ENDMDL
