MODEL 1
REMARK VINA RESULT:    -3.845      0.000      0.000
REMARK INTER + INTRA:          -6.222
REMARK INTER:                  -5.868
REMARK INTRA:                  -0.354
REMARK UNBOUND:                -0.354
REMARK SMILES O=C([O-])CCCCCCCCC(=O)[O-]
REMARK SMILES IDX 7 1 6 2 5 3 4 4 2 5 1 6 3 7 8 8 9 9 10 10 11 11 12 12 13 13
REMARK SMILES IDX 14 14
REMARK H PARENT
REMARK Flexibility Score: inf
ROOT
ATOM      1  C   UNL     1      58.799  35.489  52.222  1.00  0.00     0.000 C 
ENDROOT
BRANCH   1   2
ATOM      2  C   UNL     1      58.993  34.975  50.787  1.00  0.00     0.000 C 
BRANCH   2   3
ATOM      3  C   UNL     1      58.612  36.020  49.727  1.00  0.00     0.006 C 
BRANCH   3   4
ATOM      4  C   UNL     1      59.491  35.935  48.472  1.00  0.00     0.053 C 
BRANCH   4   5
ATOM      5  C   UNL     1      59.690  37.295  47.881  1.00  0.00     0.041 C 
ATOM      6  O   UNL     1      60.816  37.854  47.945  1.00  0.00    -0.550 OA
ATOM      7  O   UNL     1      58.645  37.924  47.217  1.00  0.00    -0.550 OA
ENDBRANCH   4   5
ENDBRANCH   3   4
ENDBRANCH   2   3
ENDBRANCH   1   2
BRANCH   1   8
ATOM      8  C   UNL     1      57.629  36.478  52.297  1.00  0.00     0.000 C 
BRANCH   8   9
ATOM      9  C   UNL     1      57.441  37.001  53.729  1.00  0.00     0.000 C 
BRANCH   9  10
ATOM     10  C   UNL     1      58.713  36.864  54.587  1.00  0.00     0.006 C 
BRANCH  10  11
ATOM     11  C   UNL     1      58.846  37.920  55.695  1.00  0.00     0.053 C 
BRANCH  11  12
ATOM     12  C   UNL     1      59.886  37.545  56.705  1.00  0.00     0.041 C 
ATOM     13  O   UNL     1      59.683  37.748  57.930  1.00  0.00    -0.550 OA
ATOM     14  O   UNL     1      61.096  37.002  56.288  1.00  0.00    -0.550 OA
ENDBRANCH  11  12
ENDBRANCH  10  11
ENDBRANCH   9  10
ENDBRANCH   8   9
ENDBRANCH   1   8
TORSDOF 9
ENDMDL
MODEL 2
REMARK VINA RESULT:    -3.513     17.952     18.905
REMARK INTER + INTRA:          -5.716
REMARK INTER:                  -5.091
REMARK INTRA:                  -0.624
REMARK UNBOUND:                -0.354
REMARK SMILES O=C([O-])CCCCCCCCC(=O)[O-]
REMARK SMILES IDX 7 1 6 2 5 3 4 4 2 5 1 6 3 7 8 8 9 9 10 10 11 11 12 12 13 13
REMARK SMILES IDX 14 14
REMARK H PARENT
REMARK Flexibility Score: inf
ROOT
ATOM      1  C   UNL     1      69.180  51.438  50.794  1.00  0.00     0.000 C 
ENDROOT
BRANCH   1   2
ATOM      2  C   UNL     1      68.340  52.040  49.657  1.00  0.00     0.000 C 
BRANCH   2   3
ATOM      3  C   UNL     1      68.179  53.562  49.781  1.00  0.00     0.006 C 
BRANCH   3   4
ATOM      4  C   UNL     1      68.187  54.270  48.419  1.00  0.00     0.053 C 
BRANCH   4   5
ATOM      5  C   UNL     1      69.505  54.079  47.739  1.00  0.00     0.041 C 
ATOM      6  O   UNL     1      69.552  53.616  46.568  1.00  0.00    -0.550 OA
ATOM      7  O   UNL     1      70.679  54.456  48.378  1.00  0.00    -0.550 OA
ENDBRANCH   4   5
ENDBRANCH   3   4
ENDBRANCH   2   3
ENDBRANCH   1   2
BRANCH   1   8
ATOM      8  C   UNL     1      70.670  51.735  50.593  1.00  0.00     0.000 C 
BRANCH   8   9
ATOM      9  C   UNL     1      71.303  52.279  51.883  1.00  0.00     0.000 C 
BRANCH   9  10
ATOM     10  C   UNL     1      71.264  51.264  53.041  1.00  0.00     0.006 C 
BRANCH  10  11
ATOM     11  C   UNL     1      70.658  51.812  54.342  1.00  0.00     0.053 C 
BRANCH  11  12
ATOM     12  C   UNL     1      69.685  50.853  54.956  1.00  0.00     0.041 C 
ATOM     13  O   UNL     1      68.574  50.638  54.405  1.00  0.00    -0.550 OA
ATOM     14  O   UNL     1      69.994  50.222  56.155  1.00  0.00    -0.550 OA
ENDBRANCH  11  12
ENDBRANCH  10  11
ENDBRANCH   9  10
ENDBRANCH   8   9
ENDBRANCH   1   8
TORSDOF 9
ENDMDL
MODEL 3
REMARK VINA RESULT:    -3.430     12.027     14.554
REMARK INTER + INTRA:          -5.589
REMARK INTER:                  -5.307
REMARK INTRA:                  -0.283
REMARK UNBOUND:                -0.354
REMARK SMILES O=C([O-])CCCCCCCCC(=O)[O-]
REMARK SMILES IDX 7 1 6 2 5 3 4 4 2 5 1 6 3 7 8 8 9 9 10 10 11 11 12 12 13 13
REMARK SMILES IDX 14 14
REMARK H PARENT
REMARK Flexibility Score: inf
ROOT
ATOM      1  C   UNL     1      65.037  46.868  58.369  1.00  0.00     0.000 C 
ENDROOT
BRANCH   1   2
ATOM      2  C   UNL     1      65.004  45.334  58.300  1.00  0.00     0.000 C 
BRANCH   2   3
ATOM      3  C   UNL     1      65.765  44.779  57.087  1.00  0.00     0.006 C 
BRANCH   3   4
ATOM      4  C   UNL     1      65.545  43.273  56.889  1.00  0.00     0.053 C 
BRANCH   4   5
ATOM      5  C   UNL     1      66.641  42.495  57.543  1.00  0.00     0.041 C 
ATOM      6  O   UNL     1      67.351  43.029  58.436  1.00  0.00    -0.550 OA
ATOM      7  O   UNL     1      66.849  41.165  57.203  1.00  0.00    -0.550 OA
ENDBRANCH   4   5
ENDBRANCH   3   4
ENDBRANCH   2   3
ENDBRANCH   1   2
BRANCH   1   8
ATOM      8  C   UNL     1      66.164  47.433  57.496  1.00  0.00     0.000 C 
BRANCH   8   9
ATOM      9  C   UNL     1      67.324  47.950  58.362  1.00  0.00     0.000 C 
BRANCH   9  10
ATOM     10  C   UNL     1      67.859  49.315  57.889  1.00  0.00     0.006 C 
BRANCH  10  11
ATOM     11  C   UNL     1      68.660  49.261  56.578  1.00  0.00     0.053 C 
BRANCH  11  12
ATOM     12  C   UNL     1      68.430  50.473  55.730  1.00  0.00     0.041 C 
ATOM     13  O   UNL     1      68.978  50.571  54.602  1.00  0.00    -0.550 OA
ATOM     14  O   UNL     1      67.636  51.511  56.202  1.00  0.00    -0.550 OA
ENDBRANCH  11  12
ENDBRANCH  10  11
ENDBRANCH   9  10
ENDBRANCH   8   9
ENDBRANCH   1   8
TORSDOF 9
ENDMDL
MODEL 4
REMARK VINA RESULT:    -3.416     11.132     13.904
REMARK INTER + INTRA:          -5.567
REMARK INTER:                  -5.071
REMARK INTRA:                  -0.496
REMARK UNBOUND:                -0.354
REMARK SMILES O=C([O-])CCCCCCCCC(=O)[O-]
REMARK SMILES IDX 7 1 6 2 5 3 4 4 2 5 1 6 3 7 8 8 9 9 10 10 11 11 12 12 13 13
REMARK SMILES IDX 14 14
REMARK H PARENT
REMARK Flexibility Score: inf
ROOT
ATOM      1  C   UNL     1      64.854  45.167  58.028  1.00  0.00     0.000 C 
ENDROOT
BRANCH   1   2
ATOM      2  C   UNL     1      65.751  44.732  56.859  1.00  0.00     0.000 C 
BRANCH   2   3
ATOM      3  C   UNL     1      65.994  43.215  56.833  1.00  0.00     0.006 C 
BRANCH   3   4
ATOM      4  C   UNL     1      66.703  42.709  58.096  1.00  0.00     0.053 C 
BRANCH   4   5
ATOM      5  C   UNL     1      65.970  41.539  58.672  1.00  0.00     0.041 C 
ATOM      6  O   UNL     1      64.746  41.635  58.952  1.00  0.00    -0.550 OA
ATOM      7  O   UNL     1      66.626  40.329  58.855  1.00  0.00    -0.550 OA
ENDBRANCH   4   5
ENDBRANCH   3   4
ENDBRANCH   2   3
ENDBRANCH   1   2
BRANCH   1   8
ATOM      8  C   UNL     1      65.387  46.448  58.682  1.00  0.00     0.000 C 
BRANCH   8   9
ATOM      9  C   UNL     1      66.074  47.351  57.645  1.00  0.00     0.000 C 
BRANCH   9  10
ATOM     10  C   UNL     1      66.343  48.771  58.176  1.00  0.00     0.006 C 
BRANCH  10  11
ATOM     11  C   UNL     1      67.831  49.099  58.378  1.00  0.00     0.053 C 
BRANCH  11  12
ATOM     12  C   UNL     1      68.514  49.425  57.086  1.00  0.00     0.041 C 
ATOM     13  O   UNL     1      69.624  48.902  56.806  1.00  0.00    -0.550 OA
ATOM     14  O   UNL     1      67.939  50.333  56.205  1.00  0.00    -0.550 OA
ENDBRANCH  11  12
ENDBRANCH  10  11
ENDBRANCH   9  10
ENDBRANCH   8   9
ENDBRANCH   1   8
TORSDOF 9
ENDMDL
MODEL 5
REMARK VINA RESULT:    -3.392     11.281     13.781
REMARK INTER + INTRA:          -5.531
REMARK INTER:                  -5.239
REMARK INTRA:                  -0.292
REMARK UNBOUND:                -0.354
REMARK SMILES O=C([O-])CCCCCCCCC(=O)[O-]
REMARK SMILES IDX 7 1 6 2 5 3 4 4 2 5 1 6 3 7 8 8 9 9 10 10 11 11 12 12 13 13
REMARK SMILES IDX 14 14
REMARK H PARENT
REMARK Flexibility Score: inf
ROOT
ATOM      1  C   UNL     1      66.150  46.629  58.350  1.00  0.00     0.000 C 
ENDROOT
BRANCH   1   2
ATOM      2  C   UNL     1      65.555  48.033  58.163  1.00  0.00     0.000 C 
BRANCH   2   3
ATOM      3  C   UNL     1      66.602  49.146  58.318  1.00  0.00     0.006 C 
BRANCH   3   4
ATOM      4  C   UNL     1      67.780  48.989  57.346  1.00  0.00     0.053 C 
BRANCH   4   5
ATOM      5  C   UNL     1      67.952  50.230  56.529  1.00  0.00     0.041 C 
ATOM      6  O   UNL     1      67.414  51.308  56.896  1.00  0.00    -0.550 OA
ATOM      7  O   UNL     1      68.745  50.208  55.390  1.00  0.00    -0.550 OA
ENDBRANCH   4   5
ENDBRANCH   3   4
ENDBRANCH   2   3
ENDBRANCH   1   2
BRANCH   1   8
ATOM      8  C   UNL     1      65.757  45.708  57.189  1.00  0.00     0.000 C 
BRANCH   8   9
ATOM      9  C   UNL     1      65.207  44.370  57.710  1.00  0.00     0.000 C 
BRANCH   9  10
ATOM     10  C   UNL     1      65.670  43.167  56.869  1.00  0.00     0.006 C 
BRANCH  10  11
ATOM     11  C   UNL     1      66.600  42.196  57.613  1.00  0.00     0.053 C 
BRANCH  11  12
ATOM     12  C   UNL     1      65.873  40.978  58.093  1.00  0.00     0.041 C 
ATOM     13  O   UNL     1      66.515  39.960  58.462  1.00  0.00    -0.550 OA
ATOM     14  O   UNL     1      64.483  40.956  58.100  1.00  0.00    -0.550 OA
ENDBRANCH  11  12
ENDBRANCH  10  11
ENDBRANCH   9  10
ENDBRANCH   8   9
ENDBRANCH   1   8
TORSDOF 9
ENDMDL
MODEL 6
REMARK VINA RESULT:    -3.387     17.887     19.597
REMARK INTER + INTRA:          -5.523
REMARK INTER:                  -4.873
REMARK INTRA:                  -0.650
REMARK UNBOUND:                -0.354
REMARK SMILES O=C([O-])CCCCCCCCC(=O)[O-]
REMARK SMILES IDX 7 1 6 2 5 3 4 4 2 5 1 6 3 7 8 8 9 9 10 10 11 11 12 12 13 13
REMARK SMILES IDX 14 14
REMARK H PARENT
REMARK Flexibility Score: inf
ROOT
ATOM      1  C   UNL     1      69.069  50.707  51.915  1.00  0.00     0.000 C 
ENDROOT
BRANCH   1   2
ATOM      2  C   UNL     1      70.366  51.528  51.972  1.00  0.00     0.000 C 
BRANCH   2   3
ATOM      3  C   UNL     1      71.100  51.385  53.314  1.00  0.00     0.006 C 
BRANCH   3   4
ATOM      4  C   UNL     1      70.242  51.830  54.507  1.00  0.00     0.053 C 
BRANCH   4   5
ATOM      5  C   UNL     1      69.974  50.674  55.416  1.00  0.00     0.041 C 
ATOM      6  O   UNL     1      70.903  50.189  56.115  1.00  0.00    -0.550 OA
ATOM      7  O   UNL     1      68.688  50.163  55.530  1.00  0.00    -0.550 OA
ENDBRANCH   4   5
ENDBRANCH   3   4
ENDBRANCH   2   3
ENDBRANCH   1   2
BRANCH   1   8
ATOM      8  C   UNL     1      68.477  50.713  50.501  1.00  0.00     0.000 C 
BRANCH   8   9
ATOM      9  C   UNL     1      69.029  51.887  49.678  1.00  0.00     0.000 C 
BRANCH   9  10
ATOM     10  C   UNL     1      68.016  53.036  49.522  1.00  0.00     0.006 C 
BRANCH  10  11
ATOM     11  C   UNL     1      68.455  54.358  50.172  1.00  0.00     0.053 C 
BRANCH  11  12
ATOM     12  C   UNL     1      69.838  54.755  49.758  1.00  0.00     0.041 C 
ATOM     13  O   UNL     1      70.751  54.861  50.618  1.00  0.00    -0.550 OA
ATOM     14  O   UNL     1      70.111  55.039  48.425  1.00  0.00    -0.550 OA
ENDBRANCH  11  12
ENDBRANCH  10  11
ENDBRANCH   9  10
ENDBRANCH   8   9
ENDBRANCH   1   8
TORSDOF 9
ENDMDL
MODEL 7
REMARK VINA RESULT:    -3.380     16.884     18.003
REMARK INTER + INTRA:          -5.512
REMARK INTER:                  -4.765
REMARK INTRA:                  -0.747
REMARK UNBOUND:                -0.354
REMARK SMILES O=C([O-])CCCCCCCCC(=O)[O-]
REMARK SMILES IDX 7 1 6 2 5 3 4 4 2 5 1 6 3 7 8 8 9 9 10 10 11 11 12 12 13 13
REMARK SMILES IDX 14 14
REMARK H PARENT
REMARK Flexibility Score: inf
ROOT
ATOM      1  C   UNL     1      70.274  52.463  54.310  1.00  0.00     0.000 C 
ENDROOT
BRANCH   1   2
ATOM      2  C   UNL     1      71.071  51.354  53.607  1.00  0.00     0.000 C 
BRANCH   2   3
ATOM      3  C   UNL     1      71.028  51.474  52.076  1.00  0.00     0.006 C 
BRANCH   3   4
ATOM      4  C   UNL     1      69.773  52.200  51.574  1.00  0.00     0.053 C 
BRANCH   4   5
ATOM      5  C   UNL     1      69.075  51.379  50.537  1.00  0.00     0.041 C 
ATOM      6  O   UNL     1      69.096  51.735  49.329  1.00  0.00    -0.550 OA
ATOM      7  O   UNL     1      68.443  50.197  50.896  1.00  0.00    -0.550 OA
ENDBRANCH   4   5
ENDBRANCH   3   4
ENDBRANCH   2   3
ENDBRANCH   1   2
BRANCH   1   8
ATOM      8  C   UNL     1      69.557  51.921  55.552  1.00  0.00     0.000 C 
BRANCH   8   9
ATOM      9  C   UNL     1      68.967  50.528  55.284  1.00  0.00     0.000 C 
BRANCH   9  10
ATOM     10  C   UNL     1      69.344  49.501  56.367  1.00  0.00     0.006 C 
BRANCH  10  11
ATOM     11  C   UNL     1      70.550  49.905  57.230  1.00  0.00     0.053 C 
BRANCH  11  12
ATOM     12  C   UNL     1      71.789  49.156  56.846  1.00  0.00     0.041 C 
ATOM     13  O   UNL     1      72.693  49.726  56.181  1.00  0.00    -0.550 OA
ATOM     14  O   UNL     1      71.930  47.819  57.196  1.00  0.00    -0.550 OA
ENDBRANCH  11  12
ENDBRANCH  10  11
ENDBRANCH   9  10
ENDBRANCH   8   9
ENDBRANCH   1   8
TORSDOF 9
ENDMDL
MODEL 8
REMARK VINA RESULT:    -3.369     16.804     17.888
REMARK INTER + INTRA:          -5.496
REMARK INTER:                  -4.861
REMARK INTRA:                  -0.635
REMARK UNBOUND:                -0.354
REMARK SMILES O=C([O-])CCCCCCCCC(=O)[O-]
REMARK SMILES IDX 7 1 6 2 5 3 4 4 2 5 1 6 3 7 8 8 9 9 10 10 11 11 12 12 13 13
REMARK SMILES IDX 14 14
REMARK H PARENT
REMARK Flexibility Score: inf
ROOT
ATOM      1  C   UNL     1      71.036  51.460  53.202  1.00  0.00     0.000 C 
ENDROOT
BRANCH   1   2
ATOM      2  C   UNL     1      70.451  52.805  52.747  1.00  0.00     0.000 C 
BRANCH   2   3
ATOM      3  C   UNL     1      70.502  52.989  51.222  1.00  0.00     0.006 C 
BRANCH   3   4
ATOM      4  C   UNL     1      70.306  51.671  50.461  1.00  0.00     0.053 C 
BRANCH   4   5
ATOM      5  C   UNL     1      68.853  51.426  50.208  1.00  0.00     0.041 C 
ATOM      6  O   UNL     1      68.322  50.341  50.566  1.00  0.00    -0.550 OA
ATOM      7  O   UNL     1      68.073  52.413  49.622  1.00  0.00    -0.550 OA
ENDBRANCH   4   5
ENDBRANCH   3   4
ENDBRANCH   2   3
ENDBRANCH   1   2
BRANCH   1   8
ATOM      8  C   UNL     1      71.149  51.399  54.730  1.00  0.00     0.000 C 
BRANCH   8   9
ATOM      9  C   UNL     1      70.172  52.382  55.394  1.00  0.00     0.000 C 
BRANCH   9  10
ATOM     10  C   UNL     1      69.133  51.679  56.286  1.00  0.00     0.006 C 
BRANCH  10  11
ATOM     11  C   UNL     1      68.501  50.428  55.657  1.00  0.00     0.053 C 
BRANCH  11  12
ATOM     12  C   UNL     1      68.691  49.213  56.512  1.00  0.00     0.041 C 
ATOM     13  O   UNL     1      67.694  48.555  56.909  1.00  0.00    -0.550 OA
ATOM     14  O   UNL     1      69.969  48.826  56.896  1.00  0.00    -0.550 OA
ENDBRANCH  11  12
ENDBRANCH  10  11
ENDBRANCH   9  10
ENDBRANCH   8   9
ENDBRANCH   1   8
TORSDOF 9
ENDMDL
MODEL 9
REMARK VINA RESULT:    -3.355     17.930     19.777
REMARK INTER + INTRA:          -5.474
REMARK INTER:                  -4.717
REMARK INTRA:                  -0.757
REMARK UNBOUND:                -0.354
REMARK SMILES O=C([O-])CCCCCCCCC(=O)[O-]
REMARK SMILES IDX 7 1 6 2 5 3 4 4 2 5 1 6 3 7 8 8 9 9 10 10 11 11 12 12 13 13
REMARK SMILES IDX 14 14
REMARK H PARENT
REMARK Flexibility Score: inf
ROOT
ATOM      1  C   UNL     1      71.309  51.387  52.584  1.00  0.00     0.000 C 
ENDROOT
BRANCH   1   2
ATOM      2  C   UNL     1      69.858  51.139  53.022  1.00  0.00     0.000 C 
BRANCH   2   3
ATOM      3  C   UNL     1      69.712  51.017  54.547  1.00  0.00     0.006 C 
BRANCH   3   4
ATOM      4  C   UNL     1      70.971  51.468  55.299  1.00  0.00     0.053 C 
BRANCH   4   5
ATOM      5  C   UNL     1      71.547  50.331  56.082  1.00  0.00     0.041 C 
ATOM      6  O   UNL     1      72.676  49.861  55.779  1.00  0.00    -0.550 OA
ATOM      7  O   UNL     1      70.860  49.821  57.176  1.00  0.00    -0.550 OA
ENDBRANCH   4   5
ENDBRANCH   3   4
ENDBRANCH   2   3
ENDBRANCH   1   2
BRANCH   1   8
ATOM      8  C   UNL     1      71.399  52.589  51.637  1.00  0.00     0.000 C 
BRANCH   8   9
ATOM      9  C   UNL     1      70.614  53.788  52.192  1.00  0.00     0.000 C 
BRANCH   9  10
ATOM     10  C   UNL     1      69.597  54.354  51.185  1.00  0.00     0.006 C 
BRANCH  10  11
ATOM     11  C   UNL     1      69.609  53.658  49.814  1.00  0.00     0.053 C 
BRANCH  11  12
ATOM     12  C   UNL     1      68.396  52.805  49.608  1.00  0.00     0.041 C 
ATOM     13  O   UNL     1      67.292  53.332  49.313  1.00  0.00    -0.550 OA
ATOM     14  O   UNL     1      68.478  51.428  49.775  1.00  0.00    -0.550 OA
ENDBRANCH  11  12
ENDBRANCH  10  11
ENDBRANCH   9  10
ENDBRANCH   8   9
ENDBRANCH   1   8
TORSDOF 9
ENDMDL
