MODEL 1
REMARK VINA RESULT:    -3.752      0.000      0.000
REMARK INTER + INTRA:          -7.042
REMARK INTER:                  -6.384
REMARK INTRA:                  -0.659
REMARK UNBOUND:                -0.659
REMARK SMILES CCCCCCCCCCCCCC(=O)[O-]
REMARK SMILES IDX 8 1 9 2 10 3 11 4 12 5 13 6 14 7 15 8 16 9 7 10 6 11 5 12
REMARK SMILES IDX 4 13 3 14 2 15 1 16
REMARK H PARENT
REMARK Flexibility Score: inf
ROOT
ATOM      1  C   UNL     1      14.616   3.432  -1.402  1.00  0.00     0.000 C 
ENDROOT
BRANCH   1   2
ATOM      2  C   UNL     1      13.741   3.189  -2.642  1.00  0.00     0.000 C 
BRANCH   2   3
ATOM      3  C   UNL     1      12.345   3.821  -2.512  1.00  0.00     0.000 C 
BRANCH   3   4
ATOM      4  C   UNL     1      12.181   4.627  -1.213  1.00  0.00     0.000 C 
BRANCH   4   5
ATOM      5  C   UNL     1      11.823   6.102  -1.470  1.00  0.00     0.006 C 
BRANCH   5   6
ATOM      6  C   UNL     1      10.614   6.557  -0.643  1.00  0.00     0.053 C 
BRANCH   6   7
ATOM      7  C   UNL     1       9.440   6.891  -1.513  1.00  0.00     0.041 C 
ATOM      8  O   UNL     1       8.738   7.907  -1.266  1.00  0.00    -0.550 OA
ATOM      9  O   UNL     1       9.100   6.061  -2.574  1.00  0.00    -0.550 OA
ENDBRANCH   6   7
ENDBRANCH   5   6
ENDBRANCH   4   5
ENDBRANCH   3   4
ENDBRANCH   2   3
ENDBRANCH   1   2
BRANCH   1  10
ATOM     10  C   UNL     1      15.926   2.630  -1.433  1.00  0.00     0.000 C 
BRANCH  10  11
ATOM     11  C   UNL     1      15.675   1.186  -1.886  1.00  0.00    -0.000 C 
BRANCH  11  12
ATOM     12  C   UNL     1      16.792   0.699  -2.820  1.00  0.00    -0.000 C 
BRANCH  12  13
ATOM     13  C   UNL     1      18.072   1.550  -2.723  1.00  0.00    -0.000 C 
BRANCH  13  14
ATOM     14  C   UNL     1      19.369   0.750  -2.506  1.00  0.00    -0.000 C 
BRANCH  14  15
ATOM     15  C   UNL     1      20.595   1.648  -2.288  1.00  0.00    -0.003 C 
ATOM     16  C   UNL     1      21.710   0.891  -1.571  1.00  0.00     0.004 C 
ENDBRANCH  14  15
ENDBRANCH  13  14
ENDBRANCH  12  13
ENDBRANCH  11  12
ENDBRANCH  10  11
ENDBRANCH   1  10
TORSDOF 12
ENDMDL
MODEL 2
REMARK VINA RESULT:    -3.659      4.830      9.075
REMARK INTER + INTRA:          -6.885
REMARK INTER:                  -6.172
REMARK INTRA:                  -0.713
REMARK UNBOUND:                -0.659
REMARK SMILES CCCCCCCCCCCCCC(=O)[O-]
REMARK SMILES IDX 8 1 9 2 10 3 11 4 12 5 13 6 14 7 15 8 16 9 7 10 6 11 5 12
REMARK SMILES IDX 4 13 3 14 2 15 1 16
REMARK H PARENT
REMARK Flexibility Score: inf
ROOT
ATOM      1  C   UNL     1      14.712   3.114  -1.591  1.00  0.00     0.000 C 
ENDROOT
BRANCH   1   2
ATOM      2  C   UNL     1      16.074   2.422  -1.761  1.00  0.00     0.000 C 
BRANCH   2   3
ATOM      3  C   UNL     1      16.071   1.384  -2.895  1.00  0.00     0.000 C 
BRANCH   3   4
ATOM      4  C   UNL     1      17.302   0.463  -2.854  1.00  0.00     0.000 C 
BRANCH   4   5
ATOM      5  C   UNL     1      18.629   1.244  -2.848  1.00  0.00     0.006 C 
BRANCH   5   6
ATOM      6  C   UNL     1      19.841   0.324  -2.651  1.00  0.00     0.053 C 
BRANCH   6   7
ATOM      7  C   UNL     1      21.069   1.097  -2.276  1.00  0.00     0.041 C 
ATOM      8  O   UNL     1      21.017   2.349  -2.154  1.00  0.00    -0.550 OA
ATOM      9  O   UNL     1      22.279   0.438  -2.098  1.00  0.00    -0.550 OA
ENDBRANCH   6   7
ENDBRANCH   5   6
ENDBRANCH   4   5
ENDBRANCH   3   4
ENDBRANCH   2   3
ENDBRANCH   1   2
BRANCH   1  10
ATOM     10  C   UNL     1      13.763   2.857  -2.771  1.00  0.00     0.000 C 
BRANCH  10  11
ATOM     11  C   UNL     1      12.888   4.085  -3.050  1.00  0.00    -0.000 C 
BRANCH  11  12
ATOM     12  C   UNL     1      11.399   3.708  -3.071  1.00  0.00    -0.000 C 
BRANCH  12  13
ATOM     13  C   UNL     1      10.589   4.392  -1.956  1.00  0.00    -0.000 C 
BRANCH  13  14
ATOM     14  C   UNL     1      11.427   5.187  -0.938  1.00  0.00    -0.000 C 
BRANCH  14  15
ATOM     15  C   UNL     1      10.824   6.561  -0.610  1.00  0.00    -0.003 C 
ATOM     16  C   UNL     1      11.348   7.632  -1.562  1.00  0.00     0.004 C 
ENDBRANCH  14  15
ENDBRANCH  13  14
ENDBRANCH  12  13
ENDBRANCH  11  12
ENDBRANCH  10  11
ENDBRANCH   1  10
TORSDOF 12
ENDMDL
MODEL 3
REMARK VINA RESULT:    -3.632      4.483      9.059
REMARK INTER + INTRA:          -6.839
REMARK INTER:                  -6.124
REMARK INTRA:                  -0.715
REMARK UNBOUND:                -0.659
REMARK SMILES CCCCCCCCCCCCCC(=O)[O-]
REMARK SMILES IDX 8 1 9 2 10 3 11 4 12 5 13 6 14 7 15 8 16 9 7 10 6 11 5 12
REMARK SMILES IDX 4 13 3 14 2 15 1 16
REMARK H PARENT
REMARK Flexibility Score: inf
ROOT
ATOM      1  C   UNL     1      13.257   3.914  -1.996  1.00  0.00     0.000 C 
ENDROOT
BRANCH   1   2
ATOM      2  C   UNL     1      14.589   3.171  -1.805  1.00  0.00     0.000 C 
BRANCH   2   3
ATOM      3  C   UNL     1      14.727   1.957  -2.739  1.00  0.00     0.000 C 
BRANCH   3   4
ATOM      4  C   UNL     1      15.832   0.989  -2.286  1.00  0.00     0.000 C 
BRANCH   4   5
ATOM      5  C   UNL     1      17.236   1.617  -2.351  1.00  0.00     0.006 C 
BRANCH   5   6
ATOM      6  C   UNL     1      18.266   0.668  -2.977  1.00  0.00     0.053 C 
BRANCH   6   7
ATOM      7  C   UNL     1      19.650   0.937  -2.468  1.00  0.00     0.041 C 
ATOM      8  O   UNL     1      20.320   0.013  -1.935  1.00  0.00    -0.550 OA
ATOM      9  O   UNL     1      20.187   2.216  -2.551  1.00  0.00    -0.550 OA
ENDBRANCH   6   7
ENDBRANCH   5   6
ENDBRANCH   4   5
ENDBRANCH   3   4
ENDBRANCH   2   3
ENDBRANCH   1   2
BRANCH   1  10
ATOM     10  C   UNL     1      12.882   4.782  -0.784  1.00  0.00     0.000 C 
BRANCH  10  11
ATOM     11  C   UNL     1      11.365   4.995  -0.711  1.00  0.00    -0.000 C 
BRANCH  11  12
ATOM     12  C   UNL     1      10.705   4.732  -2.073  1.00  0.00    -0.000 C 
BRANCH  12  13
ATOM     13  C   UNL     1       9.839   5.909  -2.559  1.00  0.00    -0.000 C 
BRANCH  13  14
ATOM     14  C   UNL     1       9.485   6.946  -1.479  1.00  0.00    -0.000 C 
BRANCH  14  15
ATOM     15  C   UNL     1       9.934   8.368  -1.844  1.00  0.00    -0.003 C 
ATOM     16  C   UNL     1      11.454   8.456  -1.944  1.00  0.00     0.004 C 
ENDBRANCH  14  15
ENDBRANCH  13  14
ENDBRANCH  12  13
ENDBRANCH  11  12
ENDBRANCH  10  11
ENDBRANCH   1  10
TORSDOF 12
ENDMDL
MODEL 4
REMARK VINA RESULT:    -3.547      3.997      8.681
REMARK INTER + INTRA:          -6.693
REMARK INTER:                  -5.743
REMARK INTRA:                  -0.951
REMARK UNBOUND:                -0.659
REMARK SMILES CCCCCCCCCCCCCC(=O)[O-]
REMARK SMILES IDX 8 1 9 2 10 3 11 4 12 5 13 6 14 7 15 8 16 9 7 10 6 11 5 12
REMARK SMILES IDX 4 13 3 14 2 15 1 16
REMARK H PARENT
REMARK Flexibility Score: inf
ROOT
ATOM      1  C   UNL     1      10.752   6.664  -0.776  1.00  0.00     0.000 C 
ENDROOT
BRANCH   1   2
ATOM      2  C   UNL     1      10.979   5.172  -0.488  1.00  0.00     0.000 C 
BRANCH   2   3
ATOM      3  C   UNL     1      11.689   4.447  -1.644  1.00  0.00     0.000 C 
BRANCH   3   4
ATOM      4  C   UNL     1      13.212   4.656  -1.623  1.00  0.00     0.000 C 
BRANCH   4   5
ATOM      5  C   UNL     1      13.985   3.450  -2.185  1.00  0.00     0.006 C 
BRANCH   5   6
ATOM      6  C   UNL     1      15.162   3.047  -1.287  1.00  0.00     0.053 C 
BRANCH   6   7
ATOM      7  C   UNL     1      15.919   1.884  -1.852  1.00  0.00     0.041 C 
ATOM      8  O   UNL     1      15.303   0.933  -2.400  1.00  0.00    -0.550 OA
ATOM      9  O   UNL     1      17.304   1.833  -1.742  1.00  0.00    -0.550 OA
ENDBRANCH   6   7
ENDBRANCH   5   6
ENDBRANCH   4   5
ENDBRANCH   3   4
ENDBRANCH   2   3
ENDBRANCH   1   2
BRANCH   1  10
ATOM     10  C   UNL     1      10.061   6.910  -2.127  1.00  0.00     0.000 C 
BRANCH  10  11
ATOM     11  C   UNL     1      10.717   8.076  -2.875  1.00  0.00    -0.000 C 
BRANCH  11  12
ATOM     12  C   UNL     1      12.237   8.089  -2.653  1.00  0.00    -0.000 C 
BRANCH  12  13
ATOM     13  C   UNL     1      12.798   9.501  -2.407  1.00  0.00    -0.000 C 
BRANCH  13  14
ATOM     14  C   UNL     1      12.140  10.269  -1.247  1.00  0.00    -0.000 C 
BRANCH  14  15
ATOM     15  C   UNL     1      11.761  11.709  -1.621  1.00  0.00    -0.003 C 
ATOM     16  C   UNL     1      10.593  12.208  -0.776  1.00  0.00     0.004 C 
ENDBRANCH  14  15
ENDBRANCH  13  14
ENDBRANCH  12  13
ENDBRANCH  11  12
ENDBRANCH  10  11
ENDBRANCH   1  10
TORSDOF 12
ENDMDL
MODEL 5
REMARK VINA RESULT:    -3.520      2.894      4.716
REMARK INTER + INTRA:          -6.648
REMARK INTER:                  -5.872
REMARK INTRA:                  -0.776
REMARK UNBOUND:                -0.659
REMARK SMILES CCCCCCCCCCCCCC(=O)[O-]
REMARK SMILES IDX 8 1 9 2 10 3 11 4 12 5 13 6 14 7 15 8 16 9 7 10 6 11 5 12
REMARK SMILES IDX 4 13 3 14 2 15 1 16
REMARK H PARENT
REMARK Flexibility Score: inf
ROOT
ATOM      1  C   UNL     1      10.596   5.005  -1.152  1.00  0.00     0.000 C 
ENDROOT
BRANCH   1   2
ATOM      2  C   UNL     1      10.353   6.259  -2.006  1.00  0.00     0.000 C 
BRANCH   2   3
ATOM      3  C   UNL     1       9.574   7.348  -1.248  1.00  0.00     0.000 C 
BRANCH   3   4
ATOM      4  C   UNL     1       9.743   8.740  -1.878  1.00  0.00     0.000 C 
BRANCH   4   5
ATOM      5  C   UNL     1      11.205   9.052  -2.246  1.00  0.00     0.006 C 
BRANCH   5   6
ATOM      6  C   UNL     1      11.880   9.962  -1.211  1.00  0.00     0.053 C 
BRANCH   6   7
ATOM      7  C   UNL     1      11.341  11.360  -1.265  1.00  0.00     0.041 C 
ATOM      8  O   UNL     1      11.211  12.029  -0.207  1.00  0.00    -0.550 OA
ATOM      9  O   UNL     1      10.950  11.910  -2.480  1.00  0.00    -0.550 OA
ENDBRANCH   6   7
ENDBRANCH   5   6
ENDBRANCH   4   5
ENDBRANCH   3   4
ENDBRANCH   2   3
ENDBRANCH   1   2
BRANCH   1  10
ATOM     10  C   UNL     1      11.983   4.996  -0.490  1.00  0.00     0.000 C 
BRANCH  10  11
ATOM     11  C   UNL     1      13.094   4.918  -1.544  1.00  0.00    -0.000 C 
BRANCH  11  12
ATOM     12  C   UNL     1      12.864   3.738  -2.500  1.00  0.00    -0.000 C 
BRANCH  12  13
ATOM     13  C   UNL     1      14.045   2.750  -2.531  1.00  0.00    -0.000 C 
BRANCH  13  14
ATOM     14  C   UNL     1      15.122   2.990  -1.457  1.00  0.00    -0.000 C 
BRANCH  14  15
ATOM     15  C   UNL     1      16.285   1.993  -1.543  1.00  0.00    -0.003 C 
ATOM     16  C   UNL     1      16.015   0.923  -2.597  1.00  0.00     0.004 C 
ENDBRANCH  14  15
ENDBRANCH  13  14
ENDBRANCH  12  13
ENDBRANCH  11  12
ENDBRANCH  10  11
ENDBRANCH   1  10
TORSDOF 12
ENDMDL
MODEL 6
REMARK VINA RESULT:    -3.452      3.196      5.151
REMARK INTER + INTRA:          -6.533
REMARK INTER:                  -5.577
REMARK INTRA:                  -0.956
REMARK UNBOUND:                -0.659
REMARK SMILES CCCCCCCCCCCCCC(=O)[O-]
REMARK SMILES IDX 8 1 9 2 10 3 11 4 12 5 13 6 14 7 15 8 16 9 7 10 6 11 5 12
REMARK SMILES IDX 4 13 3 14 2 15 1 16
REMARK H PARENT
REMARK Flexibility Score: inf
ROOT
ATOM      1  C   UNL     1      11.099   6.358  -0.212  1.00  0.00     0.000 C 
ENDROOT
BRANCH   1   2
ATOM      2  C   UNL     1       9.942   6.795  -1.124  1.00  0.00     0.000 C 
BRANCH   2   3
ATOM      3  C   UNL     1      10.428   7.546  -2.376  1.00  0.00     0.000 C 
BRANCH   3   4
ATOM      4  C   UNL     1      11.247   8.800  -2.031  1.00  0.00     0.000 C 
BRANCH   4   5
ATOM      5  C   UNL     1      12.303   9.133  -3.100  1.00  0.00     0.006 C 
BRANCH   5   6
ATOM      6  C   UNL     1      13.696   8.617  -2.718  1.00  0.00     0.053 C 
BRANCH   6   7
ATOM      7  C   UNL     1      14.713   9.719  -2.705  1.00  0.00     0.041 C 
ATOM      8  O   UNL     1      14.349  10.914  -2.554  1.00  0.00    -0.550 OA
ATOM      9  O   UNL     1      16.058   9.428  -2.896  1.00  0.00    -0.550 OA
ENDBRANCH   6   7
ENDBRANCH   5   6
ENDBRANCH   4   5
ENDBRANCH   3   4
ENDBRANCH   2   3
ENDBRANCH   1   2
BRANCH   1  10
ATOM     10  C   UNL     1      11.689   4.997  -0.612  1.00  0.00     0.000 C 
BRANCH  10  11
ATOM     11  C   UNL     1      12.910   5.174  -1.522  1.00  0.00    -0.000 C 
BRANCH  11  12
ATOM     12  C   UNL     1      12.969   4.069  -2.587  1.00  0.00    -0.000 C 
BRANCH  12  13
ATOM     13  C   UNL     1      14.368   3.443  -2.727  1.00  0.00    -0.000 C 
BRANCH  13  14
ATOM     14  C   UNL     1      15.026   3.017  -1.402  1.00  0.00    -0.000 C 
BRANCH  14  15
ATOM     15  C   UNL     1      16.364   2.291  -1.604  1.00  0.00    -0.003 C 
ATOM     16  C   UNL     1      16.167   0.969  -2.339  1.00  0.00     0.004 C 
ENDBRANCH  14  15
ENDBRANCH  13  14
ENDBRANCH  12  13
ENDBRANCH  11  12
ENDBRANCH  10  11
ENDBRANCH   1  10
TORSDOF 12
ENDMDL
MODEL 7
REMARK VINA RESULT:    -3.451      4.240      8.824
REMARK INTER + INTRA:          -6.530
REMARK INTER:                  -5.550
REMARK INTRA:                  -0.980
REMARK UNBOUND:                -0.659
REMARK SMILES CCCCCCCCCCCCCC(=O)[O-]
REMARK SMILES IDX 8 1 9 2 10 3 11 4 12 5 13 6 14 7 15 8 16 9 7 10 6 11 5 12
REMARK SMILES IDX 4 13 3 14 2 15 1 16
REMARK H PARENT
REMARK Flexibility Score: inf
ROOT
ATOM      1  C   UNL     1      12.753   4.992  -1.261  1.00  0.00     0.000 C 
ENDROOT
BRANCH   1   2
ATOM      2  C   UNL     1      13.166   4.466  -2.645  1.00  0.00     0.000 C 
BRANCH   2   3
ATOM      3  C   UNL     1      14.026   3.194  -2.561  1.00  0.00     0.000 C 
BRANCH   3   4
ATOM      4  C   UNL     1      14.808   3.097  -1.241  1.00  0.00     0.000 C 
BRANCH   4   5
ATOM      5  C   UNL     1      16.224   2.525  -1.429  1.00  0.00     0.006 C 
BRANCH   5   6
ATOM      6  C   UNL     1      16.512   2.164  -2.893  1.00  0.00     0.053 C 
BRANCH   6   7
ATOM      7  C   UNL     1      17.520   1.061  -3.005  1.00  0.00     0.041 C 
ATOM      8  O   UNL     1      17.142  -0.134  -3.119  1.00  0.00    -0.550 OA
ATOM      9  O   UNL     1      18.878   1.350  -2.948  1.00  0.00    -0.550 OA
ENDBRANCH   6   7
ENDBRANCH   5   6
ENDBRANCH   4   5
ENDBRANCH   3   4
ENDBRANCH   2   3
ENDBRANCH   1   2
BRANCH   1  10
ATOM     10  C   UNL     1      11.231   4.989  -1.053  1.00  0.00     0.000 C 
BRANCH  10  11
ATOM     11  C   UNL     1      10.521   4.275  -2.210  1.00  0.00    -0.000 C 
BRANCH  11  12
ATOM     12  C   UNL     1       9.198   4.972  -2.558  1.00  0.00    -0.000 C 
BRANCH  12  13
ATOM     13  C   UNL     1       9.361   6.481  -2.813  1.00  0.00    -0.000 C 
BRANCH  13  14
ATOM     14  C   UNL     1       8.413   7.384  -2.003  1.00  0.00    -0.000 C 
BRANCH  14  15
ATOM     15  C   UNL     1       9.041   8.736  -1.637  1.00  0.00    -0.003 C 
ATOM     16  C   UNL     1      10.526   8.765  -1.987  1.00  0.00     0.004 C 
ENDBRANCH  14  15
ENDBRANCH  13  14
ENDBRANCH  12  13
ENDBRANCH  11  12
ENDBRANCH  10  11
ENDBRANCH   1  10
TORSDOF 12
ENDMDL
MODEL 8
REMARK VINA RESULT:    -3.417      1.945      3.567
REMARK INTER + INTRA:          -6.472
REMARK INTER:                  -5.682
REMARK INTRA:                  -0.790
REMARK UNBOUND:                -0.659
REMARK SMILES CCCCCCCCCCCCCC(=O)[O-]
REMARK SMILES IDX 8 1 9 2 10 3 11 4 12 5 13 6 14 7 15 8 16 9 7 10 6 11 5 12
REMARK SMILES IDX 4 13 3 14 2 15 1 16
REMARK H PARENT
REMARK Flexibility Score: inf
ROOT
ATOM      1  C   UNL     1      12.175   4.991  -1.090  1.00  0.00     0.000 C 
ENDROOT
BRANCH   1   2
ATOM      2  C   UNL     1      10.648   4.963  -0.913  1.00  0.00     0.000 C 
BRANCH   2   3
ATOM      3  C   UNL     1       9.896   5.277  -2.217  1.00  0.00     0.000 C 
BRANCH   3   4
ATOM      4  C   UNL     1       8.952   6.483  -2.077  1.00  0.00     0.000 C 
BRANCH   4   5
ATOM      5  C   UNL     1       9.578   7.637  -1.273  1.00  0.00     0.006 C 
BRANCH   5   6
ATOM      6  C   UNL     1      10.146   8.734  -2.183  1.00  0.00     0.053 C 
BRANCH   6   7
ATOM      7  C   UNL     1       9.543  10.073  -1.882  1.00  0.00     0.041 C 
ATOM      8  O   UNL     1      10.234  10.970  -1.333  1.00  0.00    -0.550 OA
ATOM      9  O   UNL     1       8.207  10.317  -2.177  1.00  0.00    -0.550 OA
ENDBRANCH   6   7
ENDBRANCH   5   6
ENDBRANCH   4   5
ENDBRANCH   3   4
ENDBRANCH   2   3
ENDBRANCH   1   2
BRANCH   1  10
ATOM     10  C   UNL     1      12.612   4.661  -2.525  1.00  0.00     0.000 C 
BRANCH  10  11
ATOM     11  C   UNL     1      13.574   3.467  -2.545  1.00  0.00    -0.000 C 
BRANCH  11  12
ATOM     12  C   UNL     1      14.484   3.471  -1.307  1.00  0.00    -0.000 C 
BRANCH  12  13
ATOM     13  C   UNL     1      15.790   2.684  -1.518  1.00  0.00    -0.000 C 
BRANCH  13  14
ATOM     14  C   UNL     1      15.609   1.169  -1.724  1.00  0.00    -0.000 C 
BRANCH  14  15
ATOM     15  C   UNL     1      16.368   0.637  -2.948  1.00  0.00    -0.003 C 
ATOM     16  C   UNL     1      17.821   1.100  -2.939  1.00  0.00     0.004 C 
ENDBRANCH  14  15
ENDBRANCH  13  14
ENDBRANCH  12  13
ENDBRANCH  11  12
ENDBRANCH  10  11
ENDBRANCH   1  10
TORSDOF 12
ENDMDL
MODEL 9
REMARK VINA RESULT:    -3.410      3.980      8.209
REMARK INTER + INTRA:          -6.461
REMARK INTER:                  -5.332
REMARK INTRA:                  -1.129
REMARK UNBOUND:                -0.659
REMARK SMILES CCCCCCCCCCCCCC(=O)[O-]
REMARK SMILES IDX 8 1 9 2 10 3 11 4 12 5 13 6 14 7 15 8 16 9 7 10 6 11 5 12
REMARK SMILES IDX 4 13 3 14 2 15 1 16
REMARK H PARENT
REMARK Flexibility Score: inf
ROOT
ATOM      1  C   UNL     1      11.073   6.474  -0.640  1.00  0.00     0.000 C 
ENDROOT
BRANCH   1   2
ATOM      2  C   UNL     1      11.692   5.076  -0.792  1.00  0.00     0.000 C 
BRANCH   2   3
ATOM      3  C   UNL     1      11.139   4.314  -2.008  1.00  0.00     0.000 C 
BRANCH   3   4
ATOM      4  C   UNL     1      12.238   3.575  -2.790  1.00  0.00     0.000 C 
BRANCH   4   5
ATOM      5  C   UNL     1      13.616   3.667  -2.109  1.00  0.00     0.006 C 
BRANCH   5   6
ATOM      6  C   UNL     1      14.738   3.112  -2.996  1.00  0.00     0.053 C 
BRANCH   6   7
ATOM      7  C   UNL     1      15.621   2.161  -2.246  1.00  0.00     0.041 C 
ATOM      8  O   UNL     1      15.516   0.920  -2.431  1.00  0.00    -0.550 OA
ATOM      9  O   UNL     1      16.534   2.644  -1.317  1.00  0.00    -0.550 OA
ENDBRANCH   6   7
ENDBRANCH   5   6
ENDBRANCH   4   5
ENDBRANCH   3   4
ENDBRANCH   2   3
ENDBRANCH   1   2
BRANCH   1  10
ATOM     10  C   UNL     1       9.782   6.644  -1.455  1.00  0.00     0.000 C 
BRANCH  10  11
ATOM     11  C   UNL     1       9.938   7.747  -2.508  1.00  0.00    -0.000 C 
BRANCH  11  12
ATOM     12  C   UNL     1       9.655   9.131  -1.904  1.00  0.00    -0.000 C 
BRANCH  12  13
ATOM     13  C   UNL     1      10.753  10.162  -2.222  1.00  0.00    -0.000 C 
BRANCH  13  14
ATOM     14  C   UNL     1      12.040  10.019  -1.390  1.00  0.00    -0.000 C 
BRANCH  14  15
ATOM     15  C   UNL     1      13.304   9.921  -2.256  1.00  0.00    -0.003 C 
ATOM     16  C   UNL     1      13.540   8.488  -2.724  1.00  0.00     0.004 C 
ENDBRANCH  14  15
ENDBRANCH  13  14
ENDBRANCH  12  13
ENDBRANCH  11  12
ENDBRANCH  10  11
ENDBRANCH   1  10
TORSDOF 12
ENDMDL
