MODEL 1
REMARK VINA RESULT:    -3.800      0.000      0.000
REMARK INTER + INTRA:          -4.378
REMARK INTER:                  -4.133
REMARK INTRA:                  -0.245
REMARK UNBOUND:                -0.245
REMARK SMILES O=C([O-])c1ccccc1O
REMARK SMILES IDX 4 1 9 2 5 3 8 4 6 5 7 6 2 7 1 8 3 9 10 10
REMARK H PARENT 10 11
REMARK Flexibility Score: inf
ROOT
ATOM      1  C   UNL     1      41.600 182.825 172.634  1.00  0.00     0.039 A 
ATOM      2  C   UNL     1      40.615 182.435 171.690  1.00  0.00     0.124 A 
ATOM      3  C   UNL     1      41.450 184.051 173.308  1.00  0.00     0.014 A 
ATOM      4  C   UNL     1      39.550 183.300 171.403  1.00  0.00     0.047 A 
ATOM      5  C   UNL     1      40.370 184.892 173.024  1.00  0.00     0.001 A 
ATOM      6  C   UNL     1      39.429 184.521 172.066  1.00  0.00     0.004 A 
ENDROOT
BRANCH   1   7
ATOM      7  C   UNL     1      42.804 182.011 172.919  1.00  0.00     0.075 C 
ATOM      8  O   UNL     1      43.130 181.732 174.102  1.00  0.00    -0.545 OA
ATOM      9  O   UNL     1      43.552 181.486 171.871  1.00  0.00    -0.545 OA
ENDBRANCH   1   7
BRANCH   2  10
ATOM     10  O   UNL     1      40.634 181.195 171.047  1.00  0.00    -0.507 OA
ATOM     11  H   UNL     1      40.591 180.312 171.535  1.00  0.00     0.293 HD
ENDBRANCH   2  10
TORSDOF 2
ENDMDL
MODEL 2
REMARK VINA RESULT:    -3.715     22.170     23.020
REMARK INTER + INTRA:          -4.285
REMARK INTER:                  -4.036
REMARK INTRA:                  -0.249
REMARK UNBOUND:                -0.245
REMARK SMILES O=C([O-])c1ccccc1O
REMARK SMILES IDX 4 1 9 2 5 3 8 4 6 5 7 6 2 7 1 8 3 9 10 10
REMARK H PARENT 10 11
REMARK Flexibility Score: inf
ROOT
ATOM      1  C   UNL     1      32.271 168.708 156.945  1.00  0.00     0.039 A 
ATOM      2  C   UNL     1      33.589 168.570 156.435  1.00  0.00     0.124 A 
ATOM      3  C   UNL     1      31.259 169.189 156.093  1.00  0.00     0.014 A 
ATOM      4  C   UNL     1      33.869 168.970 155.122  1.00  0.00     0.047 A 
ATOM      5  C   UNL     1      31.552 169.565 154.780  1.00  0.00     0.001 A 
ATOM      6  C   UNL     1      32.856 169.465 154.299  1.00  0.00     0.004 A 
ENDROOT
BRANCH   1   7
ATOM      7  C   UNL     1      31.918 168.398 158.348  1.00  0.00     0.075 C 
ATOM      8  O   UNL     1      32.380 167.378 158.922  1.00  0.00    -0.545 OA
ATOM      9  O   UNL     1      31.120 169.276 159.074  1.00  0.00    -0.545 OA
ENDBRANCH   1   7
BRANCH   2  10
ATOM     10  O   UNL     1      34.631 168.012 157.179  1.00  0.00    -0.507 OA
ATOM     11  H   UNL     1      34.548 167.148 157.696  1.00  0.00     0.293 HD
ENDBRANCH   2  10
TORSDOF 2
ENDMDL
MODEL 3
REMARK VINA RESULT:    -3.708      1.259      2.224
REMARK INTER + INTRA:          -4.277
REMARK INTER:                  -4.040
REMARK INTRA:                  -0.237
REMARK UNBOUND:                -0.245
REMARK SMILES O=C([O-])c1ccccc1O
REMARK SMILES IDX 4 1 9 2 5 3 8 4 6 5 7 6 2 7 1 8 3 9 10 10
REMARK H PARENT 10 11
REMARK Flexibility Score: inf
ROOT
ATOM      1  C   UNL     1      41.100 182.927 172.334  1.00  0.00     0.039 A 
ATOM      2  C   UNL     1      40.717 184.145 172.954  1.00  0.00     0.124 A 
ATOM      3  C   UNL     1      40.287 182.396 171.316  1.00  0.00     0.014 A 
ATOM      4  C   UNL     1      39.513 184.760 172.588  1.00  0.00     0.047 A 
ATOM      5  C   UNL     1      39.099 183.034 170.948  1.00  0.00     0.001 A 
ATOM      6  C   UNL     1      38.708 184.208 171.590  1.00  0.00     0.004 A 
ENDROOT
BRANCH   1   7
ATOM      7  C   UNL     1      42.307 182.168 172.734  1.00  0.00     0.075 C 
ATOM      8  O   UNL     1      42.534 181.906 173.944  1.00  0.00    -0.545 OA
ATOM      9  O   UNL     1      43.171 181.674 171.763  1.00  0.00    -0.545 OA
ENDBRANCH   1   7
BRANCH   2  10
ATOM     10  O   UNL     1      41.512 184.791 173.903  1.00  0.00    -0.507 OA
ATOM     11  H   UNL     1      41.843 184.349 174.749  1.00  0.00     0.293 HD
ENDBRANCH   2  10
TORSDOF 2
ENDMDL
MODEL 4
REMARK VINA RESULT:    -3.629      3.051      4.870
REMARK INTER + INTRA:          -4.192
REMARK INTER:                  -3.941
REMARK INTRA:                  -0.251
REMARK UNBOUND:                -0.245
REMARK SMILES O=C([O-])c1ccccc1O
REMARK SMILES IDX 4 1 9 2 5 3 8 4 6 5 7 6 2 7 1 8 3 9 10 10
REMARK H PARENT 10 11
REMARK Flexibility Score: inf
ROOT
ATOM      1  C   UNL     1      37.857 183.769 170.925  1.00  0.00     0.039 A 
ATOM      2  C   UNL     1      39.160 183.328 170.574  1.00  0.00     0.124 A 
ATOM      3  C   UNL     1      37.601 184.142 172.258  1.00  0.00     0.014 A 
ATOM      4  C   UNL     1      40.143 183.213 171.565  1.00  0.00     0.047 A 
ATOM      5  C   UNL     1      38.600 184.041 173.230  1.00  0.00     0.001 A 
ATOM      6  C   UNL     1      39.865 183.568 172.886  1.00  0.00     0.004 A 
ENDROOT
BRANCH   1   7
ATOM      7  C   UNL     1      36.740 183.824 169.955  1.00  0.00     0.075 C 
ATOM      8  O   UNL     1      35.587 183.432 170.273  1.00  0.00    -0.545 OA
ATOM      9  O   UNL     1      36.940 184.379 168.696  1.00  0.00    -0.545 OA
ENDBRANCH   1   7
BRANCH   2  10
ATOM     10  O   UNL     1      39.526 183.030 169.259  1.00  0.00    -0.507 OA
ATOM     11  H   UNL     1      39.521 183.708 168.511  1.00  0.00     0.293 HD
ENDBRANCH   2  10
TORSDOF 2
ENDMDL
MODEL 5
REMARK VINA RESULT:    -3.563      2.484      4.177
REMARK INTER + INTRA:          -4.120
REMARK INTER:                  -3.899
REMARK INTRA:                  -0.221
REMARK UNBOUND:                -0.245
REMARK SMILES O=C([O-])c1ccccc1O
REMARK SMILES IDX 4 1 9 2 5 3 8 4 6 5 7 6 2 7 1 8 3 9 10 10
REMARK H PARENT 10 11
REMARK Flexibility Score: inf
ROOT
ATOM      1  C   UNL     1      40.091 183.651 172.234  1.00  0.00     0.039 A 
ATOM      2  C   UNL     1      41.184 183.738 173.136  1.00  0.00     0.124 A 
ATOM      3  C   UNL     1      39.948 182.493 171.448  1.00  0.00     0.014 A 
ATOM      4  C   UNL     1      42.128 182.703 173.182  1.00  0.00     0.047 A 
ATOM      5  C   UNL     1      40.887 181.461 171.522  1.00  0.00     0.001 A 
ATOM      6  C   UNL     1      41.980 181.571 172.379  1.00  0.00     0.004 A 
ENDROOT
BRANCH   1   7
ATOM      7  C   UNL     1      39.108 184.744 172.058  1.00  0.00     0.075 C 
ATOM      8  O   UNL     1      39.320 185.888 172.538  1.00  0.00    -0.545 OA
ATOM      9  O   UNL     1      37.965 184.535 171.294  1.00  0.00    -0.545 OA
ENDBRANCH   1   7
BRANCH   2  10
ATOM     10  O   UNL     1      41.349 184.806 174.020  1.00  0.00    -0.507 OA
ATOM     11  H   UNL     1      40.657 185.078 174.704  1.00  0.00     0.293 HD
ENDBRANCH   2  10
TORSDOF 2
ENDMDL
MODEL 6
REMARK VINA RESULT:    -3.495     22.162     23.183
REMARK INTER + INTRA:          -4.046
REMARK INTER:                  -3.797
REMARK INTRA:                  -0.249
REMARK UNBOUND:                -0.245
REMARK SMILES O=C([O-])c1ccccc1O
REMARK SMILES IDX 4 1 9 2 5 3 8 4 6 5 7 6 2 7 1 8 3 9 10 10
REMARK H PARENT 10 11
REMARK Flexibility Score: inf
ROOT
ATOM      1  C   UNL     1      32.208 168.841 156.898  1.00  0.00     0.039 A 
ATOM      2  C   UNL     1      31.204 169.130 155.938  1.00  0.00     0.124 A 
ATOM      3  C   UNL     1      33.556 168.841 156.494  1.00  0.00     0.014 A 
ATOM      4  C   UNL     1      31.565 169.348 154.601  1.00  0.00     0.047 A 
ATOM      5  C   UNL     1      33.900 169.080 155.160  1.00  0.00     0.001 A 
ATOM      6  C   UNL     1      32.905 169.323 154.215  1.00  0.00     0.004 A 
ENDROOT
BRANCH   1   7
ATOM      7  C   UNL     1      31.899 168.505 158.306  1.00  0.00     0.075 C 
ATOM      8  O   UNL     1      32.469 167.541 158.881  1.00  0.00    -0.545 OA
ATOM      9  O   UNL     1      31.020 169.301 159.033  1.00  0.00    -0.545 OA
ENDBRANCH   1   7
BRANCH   2  10
ATOM     10  O   UNL     1      29.852 169.246 156.271  1.00  0.00    -0.507 OA
ATOM     11  H   UNL     1      29.162 168.541 156.056  1.00  0.00     0.293 HD
ENDBRANCH   2  10
TORSDOF 2
ENDMDL
MODEL 7
REMARK VINA RESULT:    -3.422      6.339      7.670
REMARK INTER + INTRA:          -3.967
REMARK INTER:                  -3.740
REMARK INTRA:                  -0.227
REMARK UNBOUND:                -0.245
REMARK SMILES O=C([O-])c1ccccc1O
REMARK SMILES IDX 4 1 9 2 5 3 8 4 6 5 7 6 2 7 1 8 3 9 10 10
REMARK H PARENT 10 11
REMARK Flexibility Score: inf
ROOT
ATOM      1  C   UNL     1      34.722 181.900 170.891  1.00  0.00     0.039 A 
ATOM      2  C   UNL     1      33.677 181.610 169.975  1.00  0.00     0.124 A 
ATOM      3  C   UNL     1      35.096 180.920 171.829  1.00  0.00     0.014 A 
ATOM      4  C   UNL     1      32.999 180.386 170.062  1.00  0.00     0.047 A 
ATOM      5  C   UNL     1      34.423 179.697 171.888  1.00  0.00     0.001 A 
ATOM      6  C   UNL     1      33.371 179.435 171.014  1.00  0.00     0.004 A 
ENDROOT
BRANCH   1   7
ATOM      7  C   UNL     1      35.418 183.206 170.925  1.00  0.00     0.075 C 
ATOM      8  O   UNL     1      35.498 183.868 171.993  1.00  0.00    -0.545 OA
ATOM      9  O   UNL     1      36.054 183.684 169.785  1.00  0.00    -0.545 OA
ENDBRANCH   1   7
BRANCH   2  10
ATOM     10  O   UNL     1      33.306 182.484 168.951  1.00  0.00    -0.507 OA
ATOM     11  H   UNL     1      33.427 182.279 167.970  1.00  0.00     0.293 HD
ENDBRANCH   2  10
TORSDOF 2
ENDMDL
MODEL 8
REMARK VINA RESULT:    -3.386      1.929      2.595
REMARK INTER + INTRA:          -3.928
REMARK INTER:                  -3.717
REMARK INTRA:                  -0.210
REMARK UNBOUND:                -0.245
REMARK SMILES O=C([O-])c1ccccc1O
REMARK SMILES IDX 4 1 9 2 5 3 8 4 6 5 7 6 2 7 1 8 3 9 10 10
REMARK H PARENT 10 11
REMARK Flexibility Score: inf
ROOT
ATOM      1  C   UNL     1      39.598 184.136 172.094  1.00  0.00     0.039 A 
ATOM      2  C   UNL     1      39.310 183.288 170.993  1.00  0.00     0.124 A 
ATOM      3  C   UNL     1      38.710 185.185 172.397  1.00  0.00     0.014 A 
ATOM      4  C   UNL     1      38.188 183.547 170.194  1.00  0.00     0.047 A 
ATOM      5  C   UNL     1      37.584 185.416 171.602  1.00  0.00     0.001 A 
ATOM      6  C   UNL     1      37.329 184.605 170.497  1.00  0.00     0.004 A 
ENDROOT
BRANCH   1   7
ATOM      7  C   UNL     1      40.814 183.986 172.924  1.00  0.00     0.075 C 
ATOM      8  O   UNL     1      40.943 184.620 174.004  1.00  0.00    -0.545 OA
ATOM      9  O   UNL     1      41.805 183.084 172.550  1.00  0.00    -0.545 OA
ENDBRANCH   1   7
BRANCH   2  10
ATOM     10  O   UNL     1      40.083 182.168 170.679  1.00  0.00    -0.507 OA
ATOM     11  H   UNL     1      41.044 182.054 170.970  1.00  0.00     0.293 HD
ENDBRANCH   2  10
TORSDOF 2
ENDMDL
MODEL 9
REMARK VINA RESULT:    -3.366      3.186      4.679
REMARK INTER + INTRA:          -3.906
REMARK INTER:                  -3.665
REMARK INTRA:                  -0.241
REMARK UNBOUND:                -0.245
REMARK SMILES O=C([O-])c1ccccc1O
REMARK SMILES IDX 4 1 9 2 5 3 8 4 6 5 7 6 2 7 1 8 3 9 10 10
REMARK H PARENT 10 11
REMARK Flexibility Score: inf
ROOT
ATOM      1  C   UNL     1      39.118 184.402 172.033  1.00  0.00     0.039 A 
ATOM      2  C   UNL     1      40.176 185.215 172.517  1.00  0.00     0.124 A 
ATOM      3  C   UNL     1      39.251 183.003 172.096  1.00  0.00     0.014 A 
ATOM      4  C   UNL     1      41.351 184.614 172.989  1.00  0.00     0.047 A 
ATOM      5  C   UNL     1      40.422 182.420 172.588  1.00  0.00     0.001 A 
ATOM      6  C   UNL     1      41.473 183.225 173.024  1.00  0.00     0.004 A 
ENDROOT
BRANCH   1   7
ATOM      7  C   UNL     1      37.887 184.963 171.430  1.00  0.00     0.075 C 
ATOM      8  O   UNL     1      37.421 186.066 171.819  1.00  0.00    -0.545 OA
ATOM      9  O   UNL     1      37.268 184.304 170.373  1.00  0.00    -0.545 OA
ENDBRANCH   1   7
BRANCH   2  10
ATOM     10  O   UNL     1      40.089 186.608 172.581  1.00  0.00    -0.507 OA
ATOM     11  H   UNL     1      39.429 187.152 172.044  1.00  0.00     0.293 HD
ENDBRANCH   2  10
TORSDOF 2
ENDMDL
