MODEL 1
REMARK VINA RESULT:    -3.779      0.000      0.000
REMARK INTER + INTRA:          -4.735
REMARK INTER:                  -4.552
REMARK INTRA:                  -0.184
REMARK UNBOUND:                -0.184
REMARK SMILES OCC(O)CO
REMARK SMILES IDX 3 1 5 2 6 3 2 5 1 6 4 8
REMARK H PARENT 6 4 1 7 4 9
REMARK Flexibility Score: inf
ROOT
ATOM      1  C   UNL     1      44.450  16.547  12.584  1.00  0.00     0.165 C 
ENDROOT
BRANCH   1   2
ATOM      2  C   UNL     1      43.148  16.937  11.870  1.00  0.00     0.190 C 
BRANCH   2   3
ATOM      3  O   UNL     1      42.051  16.719  12.715  1.00  0.00    -0.394 OA
ATOM      4  H   UNL     1      42.419  16.327  13.549  1.00  0.00     0.210 HD
ENDBRANCH   2   3
ENDBRANCH   1   2
BRANCH   1   5
ATOM      5  C   UNL     1      44.901  15.135  12.182  1.00  0.00     0.190 C 
BRANCH   5   6
ATOM      6  O   UNL     1      43.927  14.191  12.537  1.00  0.00    -0.394 OA
ATOM      7  H   UNL     1      44.414  13.376  12.828  1.00  0.00     0.210 HD
ENDBRANCH   5   6
ENDBRANCH   1   5
BRANCH   1   8
ATOM      8  O   UNL     1      44.255  16.587  13.974  1.00  0.00    -0.388 OA
ATOM      9  H   UNL     1      43.859  17.474  14.184  1.00  0.00     0.211 HD
ENDBRANCH   1   8
TORSDOF 5
ENDMDL
MODEL 2
REMARK VINA RESULT:    -3.733      5.472      7.151
REMARK INTER + INTRA:          -4.681
REMARK INTER:                  -4.664
REMARK INTRA:                  -0.017
REMARK UNBOUND:                -0.184
REMARK SMILES OCC(O)CO
REMARK SMILES IDX 3 1 5 2 6 3 2 5 1 6 4 8
REMARK H PARENT 6 4 1 7 4 9
REMARK Flexibility Score: inf
ROOT
ATOM      1  C   UNL     1      37.802  18.986  10.824  1.00  0.00     0.165 C 
ENDROOT
BRANCH   1   2
ATOM      2  C   UNL     1      39.221  18.745  11.358  1.00  0.00     0.190 C 
BRANCH   2   3
ATOM      3  O   UNL     1      39.579  17.401  11.187  1.00  0.00    -0.394 OA
ATOM      4  H   UNL     1      39.864  17.310  10.241  1.00  0.00     0.210 HD
ENDBRANCH   2   3
ENDBRANCH   1   2
BRANCH   1   5
ATOM      5  C   UNL     1      36.745  18.642  11.884  1.00  0.00     0.190 C 
BRANCH   5   6
ATOM      6  O   UNL     1      35.755  17.815  11.336  1.00  0.00    -0.394 OA
ATOM      7  H   UNL     1      35.089  18.413  10.907  1.00  0.00     0.210 HD
ENDBRANCH   5   6
ENDBRANCH   1   5
BRANCH   1   8
ATOM      8  O   UNL     1      37.586  18.190   9.687  1.00  0.00    -0.388 OA
ATOM      9  H   UNL     1      37.910  17.278   9.908  1.00  0.00     0.211 HD
ENDBRANCH   1   8
TORSDOF 5
ENDMDL
MODEL 3
REMARK VINA RESULT:    -3.529      1.196      2.790
REMARK INTER + INTRA:          -4.435
REMARK INTER:                  -4.432
REMARK INTRA:                  -0.002
REMARK UNBOUND:                -0.184
REMARK SMILES OCC(O)CO
REMARK SMILES IDX 3 1 5 2 6 3 2 5 1 6 4 8
REMARK H PARENT 6 4 1 7 4 9
REMARK Flexibility Score: inf
ROOT
ATOM      1  C   UNL     1      43.850  16.225  12.765  1.00  0.00     0.165 C 
ENDROOT
BRANCH   1   2
ATOM      2  C   UNL     1      44.817  15.178  12.197  1.00  0.00     0.190 C 
BRANCH   2   3
ATOM      3  O   UNL     1      44.626  13.947  12.838  1.00  0.00    -0.394 OA
ATOM      4  H   UNL     1      45.526  13.534  12.917  1.00  0.00     0.210 HD
ENDBRANCH   2   3
ENDBRANCH   1   2
BRANCH   1   5
ATOM      5  C   UNL     1      43.839  17.496  11.902  1.00  0.00     0.190 C 
BRANCH   5   6
ATOM      6  O   UNL     1      44.584  18.511  12.517  1.00  0.00    -0.394 OA
ATOM      7  H   UNL     1      44.331  19.361  12.070  1.00  0.00     0.210 HD
ENDBRANCH   5   6
ENDBRANCH   1   5
BRANCH   1   8
ATOM      8  O   UNL     1      44.236  16.563  14.072  1.00  0.00    -0.388 OA
ATOM      9  H   UNL     1      45.227  16.621  14.073  1.00  0.00     0.211 HD
ENDBRANCH   1   8
TORSDOF 5
ENDMDL
MODEL 4
REMARK VINA RESULT:    -3.502      1.519      3.217
REMARK INTER + INTRA:          -4.402
REMARK INTER:                  -4.179
REMARK INTRA:                  -0.224
REMARK UNBOUND:                -0.184
REMARK SMILES OCC(O)CO
REMARK SMILES IDX 3 1 5 2 6 3 2 5 1 6 4 8
REMARK H PARENT 6 4 1 7 4 9
REMARK Flexibility Score: inf
ROOT
ATOM      1  C   UNL     1      43.075  17.493  12.023  1.00  0.00     0.165 C 
ENDROOT
BRANCH   1   2
ATOM      2  C   UNL     1      44.220  16.631  12.571  1.00  0.00     0.190 C 
BRANCH   2   3
ATOM      3  O   UNL     1      44.201  16.638  13.973  1.00  0.00    -0.394 OA
ATOM      4  H   UNL     1      44.544  15.751  14.257  1.00  0.00     0.210 HD
ENDBRANCH   2   3
ENDBRANCH   1   2
BRANCH   1   5
ATOM      5  C   UNL     1      43.299  18.979  12.338  1.00  0.00     0.190 C 
BRANCH   5   6
ATOM      6  O   UNL     1      44.646  19.217  12.641  1.00  0.00    -0.394 OA
ATOM      7  H   UNL     1      44.729  19.171  13.629  1.00  0.00     0.210 HD
ENDBRANCH   5   6
ENDBRANCH   1   5
BRANCH   1   8
ATOM      8  O   UNL     1      41.860  17.081  12.595  1.00  0.00    -0.388 OA
ATOM      9  H   UNL     1      41.603  16.233  12.146  1.00  0.00     0.211 HD
ENDBRANCH   1   8
TORSDOF 5
ENDMDL
MODEL 5
REMARK VINA RESULT:    -3.462      5.197      6.354
REMARK INTER + INTRA:          -4.353
REMARK INTER:                  -4.130
REMARK INTRA:                  -0.223
REMARK UNBOUND:                -0.184
REMARK SMILES OCC(O)CO
REMARK SMILES IDX 3 1 5 2 6 3 2 5 1 6 4 8
REMARK H PARENT 6 4 1 7 4 9
REMARK Flexibility Score: inf
ROOT
ATOM      1  C   UNL     1      39.405  18.878  11.218  1.00  0.00     0.165 C 
ENDROOT
BRANCH   1   2
ATOM      2  C   UNL     1      37.911  18.918  10.871  1.00  0.00     0.190 C 
BRANCH   2   3
ATOM      3  O   UNL     1      37.674  18.225   9.677  1.00  0.00    -0.394 OA
ATOM      4  H   UNL     1      37.586  18.916   8.970  1.00  0.00     0.210 HD
ENDBRANCH   2   3
ENDBRANCH   1   2
BRANCH   1   5
ATOM      5  C   UNL     1      40.219  19.768  10.267  1.00  0.00     0.190 C 
BRANCH   5   6
ATOM      6  O   UNL     1      39.373  20.645   9.575  1.00  0.00    -0.394 OA
ATOM      7  H   UNL     1      38.668  20.925  10.216  1.00  0.00     0.210 HD
ENDBRANCH   5   6
ENDBRANCH   1   5
BRANCH   1   8
ATOM      8  O   UNL     1      39.875  17.558  11.125  1.00  0.00    -0.388 OA
ATOM      9  H   UNL     1      40.633  17.476  11.762  1.00  0.00     0.211 HD
ENDBRANCH   1   8
TORSDOF 5
ENDMDL
MODEL 6
REMARK VINA RESULT:    -3.459      4.240      5.409
REMARK INTER + INTRA:          -4.350
REMARK INTER:                  -4.347
REMARK INTRA:                  -0.003
REMARK UNBOUND:                -0.184
REMARK SMILES OCC(O)CO
REMARK SMILES IDX 3 1 5 2 6 3 2 5 1 6 4 8
REMARK H PARENT 6 4 1 7 4 9
REMARK Flexibility Score: inf
ROOT
ATOM      1  C   UNL     1      39.650  18.158  11.188  1.00  0.00     0.165 C 
ENDROOT
BRANCH   1   2
ATOM      2  C   UNL     1      38.343  18.847  10.773  1.00  0.00     0.190 C 
BRANCH   2   3
ATOM      3  O   UNL     1      37.781  18.192   9.669  1.00  0.00    -0.394 OA
ATOM      4  H   UNL     1      37.943  18.781   8.887  1.00  0.00     0.210 HD
ENDBRANCH   2   3
ENDBRANCH   1   2
BRANCH   1   5
ATOM      5  C   UNL     1      40.478  19.055  12.120  1.00  0.00     0.190 C 
BRANCH   5   6
ATOM      6  O   UNL     1      41.346  18.280  12.900  1.00  0.00    -0.394 OA
ATOM      7  H   UNL     1      40.919  17.390  13.003  1.00  0.00     0.210 HD
ENDBRANCH   5   6
ENDBRANCH   1   5
BRANCH   1   8
ATOM      8  O   UNL     1      40.410  17.862  10.044  1.00  0.00    -0.388 OA
ATOM      9  H   UNL     1      41.145  18.528  10.008  1.00  0.00     0.211 HD
ENDBRANCH   1   8
TORSDOF 5
ENDMDL
MODEL 7
REMARK VINA RESULT:    -3.443      1.610      2.122
REMARK INTER + INTRA:          -4.331
REMARK INTER:                  -4.151
REMARK INTRA:                  -0.180
REMARK UNBOUND:                -0.184
REMARK SMILES OCC(O)CO
REMARK SMILES IDX 3 1 5 2 6 3 2 5 1 6 4 8
REMARK H PARENT 6 4 1 7 4 9
REMARK Flexibility Score: inf
ROOT
ATOM      1  C   UNL     1      43.592  17.932  11.979  1.00  0.00     0.165 C 
ENDROOT
BRANCH   1   2
ATOM      2  C   UNL     1      42.062  17.836  12.048  1.00  0.00     0.190 C 
BRANCH   2   3
ATOM      3  O   UNL     1      41.597  18.399  13.244  1.00  0.00    -0.394 OA
ATOM      4  H   UNL     1      41.341  19.334  13.027  1.00  0.00     0.210 HD
ENDBRANCH   2   3
ENDBRANCH   1   2
BRANCH   1   5
ATOM      5  C   UNL     1      44.253  16.669  12.551  1.00  0.00     0.190 C 
BRANCH   5   6
ATOM      6  O   UNL     1      44.132  16.645  13.947  1.00  0.00    -0.394 OA
ATOM      7  H   UNL     1      43.577  17.428  14.199  1.00  0.00     0.210 HD
ENDBRANCH   5   6
ENDBRANCH   1   5
BRANCH   1   8
ATOM      8  O   UNL     1      44.028  19.048  12.710  1.00  0.00    -0.388 OA
ATOM      9  H   UNL     1      43.973  18.802  13.671  1.00  0.00     0.211 HD
ENDBRANCH   1   8
TORSDOF 5
ENDMDL
MODEL 8
REMARK VINA RESULT:    -3.373      4.857      6.356
REMARK INTER + INTRA:          -4.247
REMARK INTER:                  -4.051
REMARK INTRA:                  -0.195
REMARK UNBOUND:                -0.184
REMARK SMILES OCC(O)CO
REMARK SMILES IDX 3 1 5 2 6 3 2 5 1 6 4 8
REMARK H PARENT 6 4 1 7 4 9
REMARK Flexibility Score: inf
ROOT
ATOM      1  C   UNL     1      39.482  19.587  10.609  1.00  0.00     0.165 C 
ENDROOT
BRANCH   1   2
ATOM      2  C   UNL     1      40.594  18.546  10.797  1.00  0.00     0.190 C 
BRANCH   2   3
ATOM      3  O   UNL     1      40.884  17.924   9.576  1.00  0.00    -0.394 OA
ATOM      4  H   UNL     1      40.042  17.487   9.282  1.00  0.00     0.210 HD
ENDBRANCH   2   3
ENDBRANCH   1   2
BRANCH   1   5
ATOM      5  C   UNL     1      38.093  18.948  10.753  1.00  0.00     0.190 C 
BRANCH   5   6
ATOM      6  O   UNL     1      37.775  18.207   9.606  1.00  0.00    -0.394 OA
ATOM      7  H   UNL     1      38.079  17.277   9.774  1.00  0.00     0.210 HD
ENDBRANCH   5   6
ENDBRANCH   1   5
BRANCH   1   8
ATOM      8  O   UNL     1      39.590  20.166   9.334  1.00  0.00    -0.388 OA
ATOM      9  H   UNL     1      40.555  20.163   9.097  1.00  0.00     0.211 HD
ENDBRANCH   1   8
TORSDOF 5
ENDMDL
MODEL 9
REMARK VINA RESULT:    -3.330      6.652      7.335
REMARK INTER + INTRA:          -4.195
REMARK INTER:                  -4.192
REMARK INTRA:                  -0.002
REMARK UNBOUND:                -0.184
REMARK SMILES OCC(O)CO
REMARK SMILES IDX 3 1 5 2 6 3 2 5 1 6 4 8
REMARK H PARENT 6 4 1 7 4 9
REMARK Flexibility Score: inf
ROOT
ATOM      1  C   UNL     1      37.908  18.298  10.969  1.00  0.00     0.165 C 
ENDROOT
BRANCH   1   2
ATOM      2  C   UNL     1      36.703  18.626  11.861  1.00  0.00     0.190 C 
BRANCH   2   3
ATOM      3  O   UNL     1      35.632  17.774  11.558  1.00  0.00    -0.394 OA
ATOM      4  H   UNL     1      35.803  17.431  10.643  1.00  0.00     0.210 HD
ENDBRANCH   2   3
ENDBRANCH   1   2
BRANCH   1   5
ATOM      5  C   UNL     1      39.013  19.353  11.119  1.00  0.00     0.190 C 
BRANCH   5   6
ATOM      6  O   UNL     1      39.094  20.144   9.965  1.00  0.00    -0.394 OA
ATOM      7  H   UNL     1      38.178  20.487   9.790  1.00  0.00     0.210 HD
ENDBRANCH   5   6
ENDBRANCH   1   5
BRANCH   1   8
ATOM      8  O   UNL     1      37.500  18.250   9.625  1.00  0.00    -0.388 OA
ATOM      9  H   UNL     1      37.042  19.110   9.433  1.00  0.00     0.211 HD
ENDBRANCH   1   8
TORSDOF 5
ENDMDL
