MODEL 1
REMARK VINA RESULT:    -4.898      0.000      0.000
REMARK INTER + INTRA:          -5.555
REMARK INTER:                  -5.328
REMARK INTRA:                  -0.227
REMARK UNBOUND:                -0.227
REMARK SMILES C=C1C[C@]2(O)O[C@@]3(C[C@H]2C(C)C)[C@@H]1CC[C@@H]3C
REMARK SMILES IDX 17 1 16 2 15 3 14 4 13 5 7 6 8 7 9 8 4 9 6 10 3 11 2 12 1 13
REMARK SMILES IDX 10 14 11 15 12 16 5 17
REMARK H PARENT 5 18
REMARK Flexibility Score: inf
ROOT
ATOM      1  C   UNL     1      24.586 -15.177  16.484  1.00  0.00     0.011 C 
ATOM      2  C   UNL     1      25.636 -14.435  17.335  1.00  0.00     0.019 C 
ATOM      3  C   UNL     1      26.905 -15.283  17.472  1.00  0.00     0.007 C 
ATOM      4  C   UNL     1      27.859 -14.840  16.359  1.00  0.00     0.011 C 
ATOM      5  C   UNL     1      27.263 -13.572  15.729  1.00  0.00     0.047 C 
ATOM      6  C   UNL     1      26.137 -13.129  16.695  1.00  0.00     0.081 C 
ATOM      7  C   UNL     1      25.065 -12.270  16.033  1.00  0.00     0.046 C 
ATOM      8  C   UNL     1      25.708 -10.887  16.013  1.00  0.00     0.054 C 
ATOM      9  C   UNL     1      26.884 -11.064  17.035  1.00  0.00     0.173 C 
ATOM     10  O   UNL     1      26.685 -12.298  17.687  1.00  0.00    -0.342 OA
ATOM     11  C   UNL     1      28.241 -11.179  16.287  1.00  0.00     0.096 C 
ATOM     12  C   UNL     1      28.313 -12.483  15.513  1.00  0.00    -0.066 C 
ATOM     13  C   UNL     1      29.307 -12.677  14.635  1.00  0.00     0.008 C 
ENDROOT
BRANCH   8  14
ATOM     14  C   UNL     1      24.705  -9.722  16.300  1.00  0.00    -0.009 C 
ATOM     15  C   UNL     1      23.333 -10.243  16.774  1.00  0.00     0.008 C 
ATOM     16  C   UNL     1      24.473  -8.871  15.036  1.00  0.00     0.008 C 
ENDBRANCH   8  14
BRANCH   9  17
ATOM     17  O   UNL     1      26.898 -10.053  18.017  1.00  0.00    -0.365 OA
ATOM     18  H   UNL     1      26.734  -9.172  17.590  1.00  0.00     0.214 HD
ENDBRANCH   9  17
TORSDOF 2
ENDMDL
MODEL 2
REMARK VINA RESULT:    -4.844      1.909      4.565
REMARK INTER + INTRA:          -5.496
REMARK INTER:                  -5.270
REMARK INTRA:                  -0.226
REMARK UNBOUND:                -0.227
REMARK SMILES C=C1C[C@]2(O)O[C@@]3(C[C@H]2C(C)C)[C@@H]1CC[C@@H]3C
REMARK SMILES IDX 17 1 16 2 15 3 14 4 13 5 7 6 8 7 9 8 4 9 6 10 3 11 2 12 1 13
REMARK SMILES IDX 10 14 11 15 12 16 5 17
REMARK H PARENT 5 18
REMARK Flexibility Score: inf
ROOT
ATOM      1  C   UNL     1      23.144 -10.307  14.034  1.00  0.00     0.011 C 
ATOM      2  C   UNL     1      24.192  -9.763  15.025  1.00  0.00     0.019 C 
ATOM      3  C   UNL     1      23.510  -9.269  16.304  1.00  0.00     0.007 C 
ATOM      4  C   UNL     1      23.537 -10.431  17.300  1.00  0.00     0.011 C 
ATOM      5  C   UNL     1      24.449 -11.516  16.707  1.00  0.00     0.047 C 
ATOM      6  C   UNL     1      25.179 -10.831  15.526  1.00  0.00     0.081 C 
ATOM      7  C   UNL     1      25.681 -11.807  14.468  1.00  0.00     0.046 C 
ATOM      8  C   UNL     1      26.979 -12.326  15.079  1.00  0.00     0.054 C 
ATOM      9  C   UNL     1      27.247 -11.271  16.209  1.00  0.00     0.173 C 
ATOM     10  O   UNL     1      26.344 -10.208  16.006  1.00  0.00    -0.342 OA
ATOM     11  C   UNL     1      26.913 -11.871  17.602  1.00  0.00     0.096 C 
ATOM     12  C   UNL     1      25.417 -12.089  17.741  1.00  0.00    -0.066 C 
ATOM     13  C   UNL     1      24.946 -12.792  18.781  1.00  0.00     0.008 C 
ENDROOT
BRANCH   8  14
ATOM     14  C   UNL     1      28.126 -12.538  14.038  1.00  0.00    -0.009 C 
ATOM     15  C   UNL     1      27.742 -12.013  12.639  1.00  0.00     0.008 C 
ATOM     16  C   UNL     1      28.474 -14.033  13.898  1.00  0.00     0.008 C 
ENDBRANCH   8  14
BRANCH   9  17
ATOM     17  O   UNL     1      28.554 -10.745  16.151  1.00  0.00    -0.365 OA
ATOM     18  H   UNL     1      28.544  -9.797  16.444  1.00  0.00     0.214 HD
ENDBRANCH   9  17
TORSDOF 2
ENDMDL
MODEL 3
REMARK VINA RESULT:    -4.808      2.662      3.535
REMARK INTER + INTRA:          -5.457
REMARK INTER:                  -5.243
REMARK INTRA:                  -0.214
REMARK UNBOUND:                -0.227
REMARK SMILES C=C1C[C@]2(O)O[C@@]3(C[C@H]2C(C)C)[C@@H]1CC[C@@H]3C
REMARK SMILES IDX 17 1 16 2 15 3 14 4 13 5 7 6 8 7 9 8 4 9 6 10 3 11 2 12 1 13
REMARK SMILES IDX 10 14 11 15 12 16 5 17
REMARK H PARENT 5 18
REMARK Flexibility Score: inf
ROOT
ATOM      1  C   UNL     1      26.371 -11.474  17.782  1.00  0.00     0.011 C 
ATOM      2  C   UNL     1      27.534 -11.499  16.769  1.00  0.00     0.019 C 
ATOM      3  C   UNL     1      28.697 -12.332  17.315  1.00  0.00     0.007 C 
ATOM      4  C   UNL     1      28.522 -13.752  16.771  1.00  0.00     0.011 C 
ATOM      5  C   UNL     1      27.410 -13.698  15.712  1.00  0.00     0.047 C 
ATOM      6  C   UNL     1      27.180 -12.191  15.442  1.00  0.00     0.081 C 
ATOM      7  C   UNL     1      25.796 -11.873  14.885  1.00  0.00     0.046 C 
ATOM      8  C   UNL     1      25.947 -12.201  13.403  1.00  0.00     0.054 C 
ATOM      9  C   UNL     1      27.506 -12.268  13.245  1.00  0.00     0.173 C 
ATOM     10  O   UNL     1      28.065 -11.765  14.437  1.00  0.00    -0.342 OA
ATOM     11  C   UNL     1      27.978 -13.742  13.129  1.00  0.00     0.096 C 
ATOM     12  C   UNL     1      27.776 -14.471  14.446  1.00  0.00    -0.066 C 
ATOM     13  C   UNL     1      27.922 -15.803  14.493  1.00  0.00     0.008 C 
ENDROOT
BRANCH   8  14
ATOM     14  C   UNL     1      25.192 -11.211  12.458  1.00  0.00    -0.009 C 
ATOM     15  C   UNL     1      24.205 -10.313  13.231  1.00  0.00     0.008 C 
ATOM     16  C   UNL     1      24.391 -11.974  11.385  1.00  0.00     0.008 C 
ENDBRANCH   8  14
BRANCH   9  17
ATOM     17  O   UNL     1      27.971 -11.470  12.179  1.00  0.00    -0.365 OA
ATOM     18  H   UNL     1      27.438 -10.635  12.132  1.00  0.00     0.214 HD
ENDBRANCH   9  17
TORSDOF 2
ENDMDL
MODEL 4
REMARK VINA RESULT:    -4.676      2.156      4.548
REMARK INTER + INTRA:          -5.313
REMARK INTER:                  -5.339
REMARK INTRA:                   0.026
REMARK UNBOUND:                -0.227
REMARK SMILES C=C1C[C@]2(O)O[C@@]3(C[C@H]2C(C)C)[C@@H]1CC[C@@H]3C
REMARK SMILES IDX 17 1 16 2 15 3 14 4 13 5 7 6 8 7 9 8 4 9 6 10 3 11 2 12 1 13
REMARK SMILES IDX 10 14 11 15 12 16 5 17
REMARK H PARENT 5 18
REMARK Flexibility Score: inf
ROOT
ATOM      1  C   UNL     1      28.505 -14.254  12.554  1.00  0.00     0.011 C 
ATOM      2  C   UNL     1      28.403 -12.793  13.036  1.00  0.00     0.019 C 
ATOM      3  C   UNL     1      27.728 -11.925  11.970  1.00  0.00     0.007 C 
ATOM      4  C   UNL     1      26.236 -11.880  12.311  1.00  0.00     0.011 C 
ATOM      5  C   UNL     1      26.070 -12.505  13.705  1.00  0.00     0.047 C 
ATOM      6  C   UNL     1      27.506 -12.614  14.274  1.00  0.00     0.081 C 
ATOM      7  C   UNL     1      27.657 -13.681  15.352  1.00  0.00     0.046 C 
ATOM      8  C   UNL     1      27.128 -12.977  16.597  1.00  0.00     0.054 C 
ATOM      9  C   UNL     1      27.132 -11.476  16.145  1.00  0.00     0.173 C 
ATOM     10  O   UNL     1      27.834 -11.413  14.925  1.00  0.00    -0.342 OA
ATOM     11  C   UNL     1      25.686 -10.995  15.843  1.00  0.00     0.096 C 
ATOM     12  C   UNL     1      25.146 -11.684  14.602  1.00  0.00    -0.066 C 
ATOM     13  C   UNL     1      23.846 -11.568  14.296  1.00  0.00     0.008 C 
ENDROOT
BRANCH   8  14
ATOM     14  C   UNL     1      27.924 -13.315  17.900  1.00  0.00    -0.009 C 
ATOM     15  C   UNL     1      29.446 -13.151  17.706  1.00  0.00     0.008 C 
ATOM     16  C   UNL     1      27.662 -14.767  18.346  1.00  0.00     0.008 C 
ENDBRANCH   8  14
BRANCH   9  17
ATOM     17  O   UNL     1      27.793 -10.640  17.068  1.00  0.00    -0.365 OA
ATOM     18  H   UNL     1      27.692 -11.010  17.983  1.00  0.00     0.214 HD
ENDBRANCH   9  17
TORSDOF 2
ENDMDL
MODEL 5
REMARK VINA RESULT:    -4.428      2.230      4.119
REMARK INTER + INTRA:          -5.044
REMARK INTER:                  -4.834
REMARK INTRA:                  -0.210
REMARK UNBOUND:                -0.227
REMARK SMILES C=C1C[C@]2(O)O[C@@]3(C[C@H]2C(C)C)[C@@H]1CC[C@@H]3C
REMARK SMILES IDX 17 1 16 2 15 3 14 4 13 5 7 6 8 7 9 8 4 9 6 10 3 11 2 12 1 13
REMARK SMILES IDX 10 14 11 15 12 16 5 17
REMARK H PARENT 5 18
REMARK Flexibility Score: inf
ROOT
ATOM      1  C   UNL     1      24.445 -10.372  16.057  1.00  0.00     0.011 C 
ATOM      2  C   UNL     1      25.939 -10.548  16.399  1.00  0.00     0.019 C 
ATOM      3  C   UNL     1      26.111 -10.857  17.890  1.00  0.00     0.007 C 
ATOM      4  C   UNL     1      26.156 -12.381  18.026  1.00  0.00     0.011 C 
ATOM      5  C   UNL     1      26.264 -12.961  16.608  1.00  0.00     0.047 C 
ATOM      6  C   UNL     1      26.593 -11.752  15.699  1.00  0.00     0.081 C 
ATOM      7  C   UNL     1      26.198 -11.957  14.241  1.00  0.00     0.046 C 
ATOM      8  C   UNL     1      27.353 -12.789  13.694  1.00  0.00     0.054 C 
ATOM      9  C   UNL     1      28.443 -12.596  14.804  1.00  0.00     0.173 C 
ATOM     10  O   UNL     1      27.987 -11.573  15.660  1.00  0.00    -0.342 OA
ATOM     11  C   UNL     1      28.564 -13.875  15.675  1.00  0.00     0.096 C 
ATOM     12  C   UNL     1      27.312 -14.068  16.512  1.00  0.00    -0.066 C 
ATOM     13  C   UNL     1      27.129 -15.222  17.170  1.00  0.00     0.008 C 
ENDROOT
BRANCH   8  14
ATOM     14  C   UNL     1      27.768 -12.410  12.235  1.00  0.00    -0.009 C 
ATOM     15  C   UNL     1      26.663 -11.618  11.506  1.00  0.00     0.008 C 
ATOM     16  C   UNL     1      28.069 -13.671  11.401  1.00  0.00     0.008 C 
ENDBRANCH   8  14
BRANCH   9  17
ATOM     17  O   UNL     1      29.684 -12.191  14.271  1.00  0.00    -0.365 OA
ATOM     18  H   UNL     1      29.805 -11.216  14.411  1.00  0.00     0.214 HD
ENDBRANCH   9  17
TORSDOF 2
ENDMDL
MODEL 6
REMARK VINA RESULT:    -4.418      8.715     10.301
REMARK INTER + INTRA:          -5.033
REMARK INTER:                  -4.819
REMARK INTRA:                  -0.213
REMARK UNBOUND:                -0.227
REMARK SMILES C=C1C[C@]2(O)O[C@@]3(C[C@H]2C(C)C)[C@@H]1CC[C@@H]3C
REMARK SMILES IDX 17 1 16 2 15 3 14 4 13 5 7 6 8 7 9 8 4 9 6 10 3 11 2 12 1 13
REMARK SMILES IDX 10 14 11 15 12 16 5 17
REMARK H PARENT 5 18
REMARK Flexibility Score: inf
ROOT
ATOM      1  C   UNL     1      27.032 -15.358   4.471  1.00  0.00     0.011 C 
ATOM      2  C   UNL     1      26.996 -13.840   4.738  1.00  0.00     0.019 C 
ATOM      3  C   UNL     1      25.898 -13.177   3.901  1.00  0.00     0.007 C 
ATOM      4  C   UNL     1      24.647 -13.109   4.781  1.00  0.00     0.011 C 
ATOM      5  C   UNL     1      25.073 -13.497   6.206  1.00  0.00     0.047 C 
ATOM      6  C   UNL     1      26.621 -13.478   6.186  1.00  0.00     0.081 C 
ATOM      7  C   UNL     1      27.257 -14.347   7.265  1.00  0.00     0.046 C 
ATOM      8  C   UNL     1      27.179 -13.457   8.501  1.00  0.00     0.054 C 
ATOM      9  C   UNL     1      26.885 -12.053   7.869  1.00  0.00     0.173 C 
ATOM     10  O   UNL     1      27.068 -12.178   6.478  1.00  0.00    -0.342 OA
ATOM     11  C   UNL     1      25.397 -11.661   8.082  1.00  0.00     0.096 C 
ATOM     12  C   UNL     1      24.489 -12.558   7.261  1.00  0.00    -0.066 C 
ATOM     13  C   UNL     1      23.165 -12.524   7.467  1.00  0.00     0.008 C 
ENDROOT
BRANCH   8  14
ATOM     14  C   UNL     1      28.433 -13.555   9.430  1.00  0.00    -0.009 C 
ATOM     15  C   UNL     1      29.321 -14.766   9.075  1.00  0.00     0.008 C 
ATOM     16  C   UNL     1      28.017 -13.695  10.907  1.00  0.00     0.008 C 
ENDBRANCH   8  14
BRANCH   9  17
ATOM     17  O   UNL     1      27.772 -11.060   8.334  1.00  0.00    -0.365 OA
ATOM     18  H   UNL     1      28.577 -11.490   8.725  1.00  0.00     0.214 HD
ENDBRANCH   9  17
TORSDOF 2
ENDMDL
MODEL 7
REMARK VINA RESULT:    -4.376      9.641     10.848
REMARK INTER + INTRA:          -4.986
REMARK INTER:                  -4.759
REMARK INTRA:                  -0.227
REMARK UNBOUND:                -0.227
REMARK SMILES C=C1C[C@]2(O)O[C@@]3(C[C@H]2C(C)C)[C@@H]1CC[C@@H]3C
REMARK SMILES IDX 17 1 16 2 15 3 14 4 13 5 7 6 8 7 9 8 4 9 6 10 3 11 2 12 1 13
REMARK SMILES IDX 10 14 11 15 12 16 5 17
REMARK H PARENT 5 18
REMARK Flexibility Score: inf
ROOT
ATOM      1  C   UNL     1      29.337 -14.654   7.395  1.00  0.00     0.011 C 
ATOM      2  C   UNL     1      28.922 -13.749   6.218  1.00  0.00     0.019 C 
ATOM      3  C   UNL     1      29.288 -14.408   4.884  1.00  0.00     0.007 C 
ATOM      4  C   UNL     1      28.049 -15.172   4.410  1.00  0.00     0.011 C 
ATOM      5  C   UNL     1      26.885 -14.761   5.324  1.00  0.00     0.047 C 
ATOM      6  C   UNL     1      27.402 -13.533   6.113  1.00  0.00     0.081 C 
ATOM      7  C   UNL     1      26.679 -13.307   7.436  1.00  0.00     0.046 C 
ATOM      8  C   UNL     1      25.401 -12.596   7.003  1.00  0.00     0.054 C 
ATOM      9  C   UNL     1      25.760 -12.149   5.544  1.00  0.00     0.173 C 
ATOM     10  O   UNL     1      27.141 -12.368   5.370  1.00  0.00    -0.342 OA
ATOM     11  C   UNL     1      25.040 -13.052   4.506  1.00  0.00     0.096 C 
ATOM     12  C   UNL     1      25.609 -14.459   4.540  1.00  0.00    -0.066 C 
ATOM     13  C   UNL     1      24.984 -15.441   3.875  1.00  0.00     0.008 C 
ENDROOT
BRANCH   8  14
ATOM     14  C   UNL     1      24.943 -11.468   7.985  1.00  0.00    -0.009 C 
ATOM     15  C   UNL     1      26.123 -10.893   8.795  1.00  0.00     0.008 C 
ATOM     16  C   UNL     1      23.901 -12.000   8.988  1.00  0.00     0.008 C 
ENDBRANCH   8  14
BRANCH   9  17
ATOM     17  O   UNL     1      25.510 -10.778   5.327  1.00  0.00    -0.365 OA
ATOM     18  H   UNL     1      25.178 -10.364   6.165  1.00  0.00     0.214 HD
ENDBRANCH   9  17
TORSDOF 2
ENDMDL
MODEL 8
REMARK VINA RESULT:    -4.332      7.978      9.296
REMARK INTER + INTRA:          -4.939
REMARK INTER:                  -4.733
REMARK INTRA:                  -0.206
REMARK UNBOUND:                -0.227
REMARK SMILES C=C1C[C@]2(O)O[C@@]3(C[C@H]2C(C)C)[C@@H]1CC[C@@H]3C
REMARK SMILES IDX 17 1 16 2 15 3 14 4 13 5 7 6 8 7 9 8 4 9 6 10 3 11 2 12 1 13
REMARK SMILES IDX 10 14 11 15 12 16 5 17
REMARK H PARENT 5 18
REMARK Flexibility Score: inf
ROOT
ATOM      1  C   UNL     1      24.625 -10.369   5.798  1.00  0.00     0.011 C 
ATOM      2  C   UNL     1      24.625 -11.865   6.173  1.00  0.00     0.019 C 
ATOM      3  C   UNL     1      24.871 -12.726   4.931  1.00  0.00     0.007 C 
ATOM      4  C   UNL     1      26.377 -12.998   4.869  1.00  0.00     0.011 C 
ATOM      5  C   UNL     1      26.980 -12.516   6.197  1.00  0.00     0.047 C 
ATOM      6  C   UNL     1      25.766 -12.262   7.125  1.00  0.00     0.081 C 
ATOM      7  C   UNL     1      26.054 -11.275   8.251  1.00  0.00     0.046 C 
ATOM      8  C   UNL     1      26.767 -12.142   9.283  1.00  0.00     0.054 C 
ATOM      9  C   UNL     1      26.424 -13.588   8.782  1.00  0.00     0.173 C 
ATOM     10  O   UNL     1      25.436 -13.457   7.786  1.00  0.00    -0.342 OA
ATOM     11  C   UNL     1      27.658 -14.232   8.093  1.00  0.00     0.096 C 
ATOM     12  C   UNL     1      27.966 -13.524   6.786  1.00  0.00    -0.066 C 
ATOM     13  C   UNL     1      29.114 -13.788   6.147  1.00  0.00     0.008 C 
ENDROOT
BRANCH   8  14
ATOM     14  C   UNL     1      26.384 -11.808  10.762  1.00  0.00    -0.009 C 
ATOM     15  C   UNL     1      25.796 -10.388  10.899  1.00  0.00     0.008 C 
ATOM     16  C   UNL     1      27.615 -11.897  11.685  1.00  0.00     0.008 C 
ENDBRANCH   8  14
BRANCH   9  17
ATOM     17  O   UNL     1      25.898 -14.400   9.808  1.00  0.00    -0.365 OA
ATOM     18  H   UNL     1      25.804 -15.331   9.479  1.00  0.00     0.214 HD
ENDBRANCH   9  17
TORSDOF 2
ENDMDL
