MODEL 1
REMARK VINA RESULT:    -2.972      0.000      0.000
REMARK INTER + INTRA:         -10.094
REMARK INTER:                  -7.836
REMARK INTRA:                  -2.258
REMARK UNBOUND:                -2.258
REMARK SMILES CCCCCCCCCCCCCCCCCCCCCCCCCCCCCC(=O)[O-]
REMARK SMILES IDX 16 1 17 2 18 3 19 4 20 5 21 6 22 7 23 8 24 9 25 10 26 11
REMARK SMILES IDX 27 12 28 13 29 14 30 15 31 16 32 17 15 18 14 19 13 20 12 21
REMARK SMILES IDX 11 22 10 23 9 24 8 25 7 26 6 27 5 28 4 29 3 30 2 31 1 32
REMARK H PARENT
REMARK Flexibility Score: inf
ROOT
ATOM      1  C   UNL     1      24.922  41.173  36.721  1.00  0.00     0.000 C 
ENDROOT
BRANCH   1   2
ATOM      2  C   UNL     1      24.879  39.960  37.665  1.00  0.00     0.000 C 
BRANCH   2   3
ATOM      3  C   UNL     1      26.079  39.013  37.485  1.00  0.00     0.000 C 
BRANCH   3   4
ATOM      4  C   UNL     1      25.738  37.512  37.460  1.00  0.00     0.000 C 
BRANCH   4   5
ATOM      5  C   UNL     1      24.889  37.106  36.243  1.00  0.00     0.000 C 
BRANCH   5   6
ATOM      6  C   UNL     1      25.667  37.183  34.917  1.00  0.00     0.000 C 
BRANCH   6   7
ATOM      7  C   UNL     1      24.945  37.924  33.773  1.00  0.00     0.000 C 
BRANCH   7   8
ATOM      8  C   UNL     1      25.824  38.273  32.554  1.00  0.00     0.000 C 
BRANCH   8   9
ATOM      9  C   UNL     1      25.157  38.045  31.184  1.00  0.00     0.000 C 
BRANCH   9  10
ATOM     10  C   UNL     1      25.918  38.728  30.036  1.00  0.00     0.000 C 
BRANCH  10  11
ATOM     11  C   UNL     1      25.025  39.019  28.818  1.00  0.00     0.000 C 
BRANCH  11  12
ATOM     12  C   UNL     1      24.916  40.520  28.475  1.00  0.00     0.000 C 
BRANCH  12  13
ATOM     13  C   UNL     1      25.507  40.841  27.094  1.00  0.00     0.006 C 
BRANCH  13  14
ATOM     14  C   UNL     1      26.947  41.344  27.216  1.00  0.00     0.053 C 
BRANCH  14  15
ATOM     15  C   UNL     1      27.053  42.754  26.725  1.00  0.00     0.041 C 
ATOM     16  O   UNL     1      28.128  43.169  26.219  1.00  0.00    -0.550 OA
ATOM     17  O   UNL     1      25.947  43.593  26.780  1.00  0.00    -0.550 OA
ENDBRANCH  14  15
ENDBRANCH  13  14
ENDBRANCH  12  13
ENDBRANCH  11  12
ENDBRANCH  10  11
ENDBRANCH   9  10
ENDBRANCH   8   9
ENDBRANCH   7   8
ENDBRANCH   6   7
ENDBRANCH   5   6
ENDBRANCH   4   5
ENDBRANCH   3   4
ENDBRANCH   2   3
ENDBRANCH   1   2
BRANCH   1  18
ATOM     18  C   UNL     1      25.168  42.499  37.463  1.00  0.00     0.000 C 
BRANCH  18  19
ATOM     19  C   UNL     1      25.040  42.431  38.999  1.00  0.00     0.000 C 
BRANCH  19  20
ATOM     20  C   UNL     1      26.374  42.422  39.767  1.00  0.00     0.000 C 
BRANCH  20  21
ATOM     21  C   UNL     1      26.525  41.191  40.678  1.00  0.00     0.000 C 
BRANCH  21  22
ATOM     22  C   UNL     1      27.843  41.205  41.472  1.00  0.00     0.000 C 
BRANCH  22  23
ATOM     23  C   UNL     1      28.235  39.832  42.062  1.00  0.00     0.000 C 
BRANCH  23  24
ATOM     24  C   UNL     1      28.411  38.716  41.013  1.00  0.00    -0.000 C 
BRANCH  24  25
ATOM     25  C   UNL     1      29.852  38.177  40.901  1.00  0.00    -0.000 C 
BRANCH  25  26
ATOM     26  C   UNL     1      30.178  37.592  39.510  1.00  0.00    -0.000 C 
BRANCH  26  27
ATOM     27  C   UNL     1      29.645  38.431  38.333  1.00  0.00    -0.000 C 
BRANCH  27  28
ATOM     28  C   UNL     1      30.622  38.555  37.144  1.00  0.00    -0.000 C 
BRANCH  28  29
ATOM     29  C   UNL     1      30.625  37.367  36.158  1.00  0.00    -0.000 C 
BRANCH  29  30
ATOM     30  C   UNL     1      31.837  37.288  35.209  1.00  0.00    -0.000 C 
BRANCH  30  31
ATOM     31  C   UNL     1      32.141  38.617  34.502  1.00  0.00    -0.003 C 
ATOM     32  C   UNL     1      32.531  38.388  33.044  1.00  0.00     0.004 C 
ENDBRANCH  30  31
ENDBRANCH  29  30
ENDBRANCH  28  29
ENDBRANCH  27  28
ENDBRANCH  26  27
ENDBRANCH  25  26
ENDBRANCH  24  25
ENDBRANCH  23  24
ENDBRANCH  22  23
ENDBRANCH  21  22
ENDBRANCH  20  21
ENDBRANCH  19  20
ENDBRANCH  18  19
ENDBRANCH   1  18
TORSDOF 28
ENDMDL
MODEL 2
REMARK VINA RESULT:    -1.976      2.101      5.950
REMARK INTER + INTRA:          -7.469
REMARK INTER:                  -5.559
REMARK INTRA:                  -1.910
REMARK UNBOUND:                -2.258
REMARK SMILES CCCCCCCCCCCCCCCCCCCCCCCCCCCCCC(=O)[O-]
REMARK SMILES IDX 16 1 17 2 18 3 19 4 20 5 21 6 22 7 23 8 24 9 25 10 26 11
REMARK SMILES IDX 27 12 28 13 29 14 30 15 31 16 32 17 15 18 14 19 13 20 12 21
REMARK SMILES IDX 11 22 10 23 9 24 8 25 7 26 6 27 5 28 4 29 3 30 2 31 1 32
REMARK H PARENT
REMARK Flexibility Score: inf
ROOT
ATOM      1  C   UNL     1      31.178  37.895  34.602  1.00  0.00     0.000 C 
ENDROOT
BRANCH   1   2
ATOM      2  C   UNL     1      30.722  36.891  33.531  1.00  0.00     0.000 C 
BRANCH   2   3
ATOM      3  C   UNL     1      29.199  36.901  33.305  1.00  0.00     0.000 C 
BRANCH   3   4
ATOM      4  C   UNL     1      28.729  37.579  32.005  1.00  0.00     0.000 C 
BRANCH   4   5
ATOM      5  C   UNL     1      27.517  36.881  31.365  1.00  0.00     0.000 C 
BRANCH   5   6
ATOM      6  C   UNL     1      27.507  36.988  29.829  1.00  0.00     0.000 C 
BRANCH   6   7
ATOM      7  C   UNL     1      26.233  37.613  29.222  1.00  0.00     0.000 C 
BRANCH   7   8
ATOM      8  C   UNL     1      26.000  39.099  29.564  1.00  0.00     0.000 C 
BRANCH   8   9
ATOM      9  C   UNL     1      24.899  39.792  28.738  1.00  0.00     0.000 C 
BRANCH   9  10
ATOM     10  C   UNL     1      25.127  39.664  27.223  1.00  0.00     0.000 C 
BRANCH  10  11
ATOM     11  C   UNL     1      26.355  40.452  26.736  1.00  0.00     0.000 C 
BRANCH  11  12
ATOM     12  C   UNL     1      26.010  41.841  26.157  1.00  0.00     0.000 C 
BRANCH  12  13
ATOM     13  C   UNL     1      27.153  42.848  26.353  1.00  0.00     0.006 C 
BRANCH  13  14
ATOM     14  C   UNL     1      28.471  42.296  25.806  1.00  0.00     0.053 C 
BRANCH  14  15
ATOM     15  C   UNL     1      29.634  42.947  26.486  1.00  0.00     0.041 C 
ATOM     16  O   UNL     1      30.646  42.266  26.801  1.00  0.00    -0.550 OA
ATOM     17  O   UNL     1      29.622  44.314  26.726  1.00  0.00    -0.550 OA
ENDBRANCH  14  15
ENDBRANCH  13  14
ENDBRANCH  12  13
ENDBRANCH  11  12
ENDBRANCH  10  11
ENDBRANCH   9  10
ENDBRANCH   8   9
ENDBRANCH   7   8
ENDBRANCH   6   7
ENDBRANCH   5   6
ENDBRANCH   4   5
ENDBRANCH   3   4
ENDBRANCH   2   3
ENDBRANCH   1   2
BRANCH   1  18
ATOM     18  C   UNL     1      32.554  38.514  34.296  1.00  0.00     0.000 C 
BRANCH  18  19
ATOM     19  C   UNL     1      33.671  38.170  35.302  1.00  0.00     0.000 C 
BRANCH  19  20
ATOM     20  C   UNL     1      33.331  37.050  36.302  1.00  0.00     0.000 C 
BRANCH  20  21
ATOM     21  C   UNL     1      34.041  37.228  37.656  1.00  0.00     0.000 C 
BRANCH  21  22
ATOM     22  C   UNL     1      33.163  37.958  38.688  1.00  0.00     0.000 C 
BRANCH  22  23
ATOM     23  C   UNL     1      32.320  37.015  39.574  1.00  0.00     0.000 C 
BRANCH  23  24
ATOM     24  C   UNL     1      30.816  37.001  39.236  1.00  0.00    -0.000 C 
BRANCH  24  25
ATOM     25  C   UNL     1      30.412  37.982  38.115  1.00  0.00    -0.000 C 
BRANCH  25  26
ATOM     26  C   UNL     1      28.968  37.772  37.612  1.00  0.00    -0.000 C 
BRANCH  26  27
ATOM     27  C   UNL     1      27.891  37.939  38.702  1.00  0.00    -0.000 C 
BRANCH  27  28
ATOM     28  C   UNL     1      28.132  39.126  39.659  1.00  0.00    -0.000 C 
BRANCH  28  29
ATOM     29  C   UNL     1      26.975  40.143  39.761  1.00  0.00    -0.000 C 
BRANCH  29  30
ATOM     30  C   UNL     1      27.318  41.480  40.447  1.00  0.00    -0.000 C 
BRANCH  30  31
ATOM     31  C   UNL     1      26.157  42.485  40.435  1.00  0.00    -0.003 C 
ATOM     32  C   UNL     1      24.875  41.838  39.917  1.00  0.00     0.004 C 
ENDBRANCH  30  31
ENDBRANCH  29  30
ENDBRANCH  28  29
ENDBRANCH  27  28
ENDBRANCH  26  27
ENDBRANCH  25  26
ENDBRANCH  24  25
ENDBRANCH  23  24
ENDBRANCH  22  23
ENDBRANCH  21  22
ENDBRANCH  20  21
ENDBRANCH  19  20
ENDBRANCH  18  19
ENDBRANCH   1  18
TORSDOF 28
ENDMDL
MODEL 3
REMARK VINA RESULT:    -1.878      3.179      8.489
REMARK INTER + INTRA:          -7.210
REMARK INTER:                  -6.190
REMARK INTRA:                  -1.019
REMARK UNBOUND:                -2.258
REMARK SMILES CCCCCCCCCCCCCCCCCCCCCCCCCCCCCC(=O)[O-]
REMARK SMILES IDX 16 1 17 2 18 3 19 4 20 5 21 6 22 7 23 8 24 9 25 10 26 11
REMARK SMILES IDX 27 12 28 13 29 14 30 15 31 16 32 17 15 18 14 19 13 20 12 21
REMARK SMILES IDX 11 22 10 23 9 24 8 25 7 26 6 27 5 28 4 29 3 30 2 31 1 32
REMARK H PARENT
REMARK Flexibility Score: inf
ROOT
ATOM      1  C   UNL     1      27.296  37.294  27.603  1.00  0.00     0.000 C 
ENDROOT
BRANCH   1   2
ATOM      2  C   UNL     1      26.904  37.857  26.226  1.00  0.00     0.000 C 
BRANCH   2   3
ATOM      3  C   UNL     1      26.060  36.876  25.393  1.00  0.00     0.000 C 
BRANCH   3   4
ATOM      4  C   UNL     1      26.215  37.003  23.866  1.00  0.00     0.000 C 
BRANCH   4   5
ATOM      5  C   UNL     1      24.875  37.210  23.139  1.00  0.00     0.000 C 
BRANCH   5   6
ATOM      6  C   UNL     1      24.896  38.410  22.175  1.00  0.00     0.000 C 
BRANCH   6   7
ATOM      7  C   UNL     1      24.920  39.797  22.851  1.00  0.00     0.000 C 
BRANCH   7   8
ATOM      8  C   UNL     1      24.880  39.779  24.393  1.00  0.00     0.000 C 
BRANCH   8   9
ATOM      9  C   UNL     1      25.452  41.038  25.073  1.00  0.00     0.000 C 
BRANCH   9  10
ATOM     10  C   UNL     1      25.808  40.802  26.550  1.00  0.00     0.000 C 
BRANCH  10  11
ATOM     11  C   UNL     1      26.588  41.973  27.171  1.00  0.00     0.000 C 
BRANCH  11  12
ATOM     12  C   UNL     1      26.724  43.192  26.234  1.00  0.00     0.000 C 
BRANCH  12  13
ATOM     13  C   UNL     1      28.131  43.301  25.629  1.00  0.00     0.006 C 
BRANCH  13  14
ATOM     14  C   UNL     1      29.149  43.747  26.682  1.00  0.00     0.053 C 
BRANCH  14  15
ATOM     15  C   UNL     1      29.980  42.587  27.132  1.00  0.00     0.041 C 
ATOM     16  O   UNL     1      29.902  42.176  28.319  1.00  0.00    -0.550 OA
ATOM     17  O   UNL     1      30.801  41.929  26.226  1.00  0.00    -0.550 OA
ENDBRANCH  14  15
ENDBRANCH  13  14
ENDBRANCH  12  13
ENDBRANCH  11  12
ENDBRANCH  10  11
ENDBRANCH   9  10
ENDBRANCH   8   9
ENDBRANCH   7   8
ENDBRANCH   6   7
ENDBRANCH   5   6
ENDBRANCH   4   5
ENDBRANCH   3   4
ENDBRANCH   2   3
ENDBRANCH   1   2
BRANCH   1  18
ATOM     18  C   UNL     1      26.188  37.470  28.658  1.00  0.00     0.000 C 
BRANCH  18  19
ATOM     19  C   UNL     1      26.681  37.707  30.100  1.00  0.00     0.000 C 
BRANCH  19  20
ATOM     20  C   UNL     1      25.590  38.116  31.106  1.00  0.00     0.000 C 
BRANCH  20  21
ATOM     21  C   UNL     1      24.940  36.907  31.801  1.00  0.00     0.000 C 
BRANCH  21  22
ATOM     22  C   UNL     1      25.052  36.979  33.334  1.00  0.00     0.000 C 
BRANCH  22  23
ATOM     23  C   UNL     1      24.958  38.412  33.903  1.00  0.00     0.000 C 
BRANCH  23  24
ATOM     24  C   UNL     1      24.876  38.482  35.441  1.00  0.00    -0.000 C 
BRANCH  24  25
ATOM     25  C   UNL     1      25.123  37.133  36.147  1.00  0.00    -0.000 C 
BRANCH  25  26
ATOM     26  C   UNL     1      25.293  37.266  37.675  1.00  0.00    -0.000 C 
BRANCH  26  27
ATOM     27  C   UNL     1      25.964  38.579  38.122  1.00  0.00    -0.000 C 
BRANCH  27  28
ATOM     28  C   UNL     1      25.293  39.257  39.336  1.00  0.00    -0.000 C 
BRANCH  28  29
ATOM     29  C   UNL     1      26.258  39.848  40.387  1.00  0.00    -0.000 C 
BRANCH  29  30
ATOM     30  C   UNL     1      27.131  41.023  39.907  1.00  0.00    -0.000 C 
BRANCH  30  31
ATOM     31  C   UNL     1      26.420  42.382  39.992  1.00  0.00    -0.003 C 
ATOM     32  C   UNL     1      26.961  43.214  41.152  1.00  0.00     0.004 C 
ENDBRANCH  30  31
ENDBRANCH  29  30
ENDBRANCH  28  29
ENDBRANCH  27  28
ENDBRANCH  26  27
ENDBRANCH  25  26
ENDBRANCH  24  25
ENDBRANCH  23  24
ENDBRANCH  22  23
ENDBRANCH  21  22
ENDBRANCH  20  21
ENDBRANCH  19  20
ENDBRANCH  18  19
ENDBRANCH   1  18
TORSDOF 28
ENDMDL
MODEL 4
REMARK VINA RESULT:    -1.840      2.812      6.638
REMARK INTER + INTRA:          -7.108
REMARK INTER:                  -5.502
REMARK INTRA:                  -1.606
REMARK UNBOUND:                -2.258
REMARK SMILES CCCCCCCCCCCCCCCCCCCCCCCCCCCCCC(=O)[O-]
REMARK SMILES IDX 16 1 17 2 18 3 19 4 20 5 21 6 22 7 23 8 24 9 25 10 26 11
REMARK SMILES IDX 27 12 28 13 29 14 30 15 31 16 32 17 15 18 14 19 13 20 12 21
REMARK SMILES IDX 11 22 10 23 9 24 8 25 7 26 6 27 5 28 4 29 3 30 2 31 1 32
REMARK H PARENT
REMARK Flexibility Score: inf
ROOT
ATOM      1  C   UNL     1      26.501  39.787  29.558  1.00  0.00     0.000 C 
ENDROOT
BRANCH   1   2
ATOM      2  C   UNL     1      25.375  40.145  28.574  1.00  0.00     0.000 C 
BRANCH   2   3
ATOM      3  C   UNL     1      24.918  38.948  27.720  1.00  0.00     0.000 C 
BRANCH   3   4
ATOM      4  C   UNL     1      26.049  38.054  27.178  1.00  0.00     0.000 C 
BRANCH   4   5
ATOM      5  C   UNL     1      25.535  36.883  26.324  1.00  0.00     0.000 C 
BRANCH   5   6
ATOM      6  C   UNL     1      24.875  37.343  25.011  1.00  0.00     0.000 C 
BRANCH   6   7
ATOM      7  C   UNL     1      25.849  37.602  23.843  1.00  0.00     0.000 C 
BRANCH   7   8
ATOM      8  C   UNL     1      25.640  38.934  23.093  1.00  0.00     0.000 C 
BRANCH   8   9
ATOM      9  C   UNL     1      24.946  40.040  23.911  1.00  0.00     0.000 C 
BRANCH   9  10
ATOM     10  C   UNL     1      25.862  40.640  24.990  1.00  0.00     0.000 C 
BRANCH  10  11
ATOM     11  C   UNL     1      26.079  42.152  24.815  1.00  0.00     0.000 C 
BRANCH  11  12
ATOM     12  C   UNL     1      26.413  42.887  26.131  1.00  0.00     0.000 C 
BRANCH  12  13
ATOM     13  C   UNL     1      27.858  42.629  26.585  1.00  0.00     0.006 C 
BRANCH  13  14
ATOM     14  C   UNL     1      28.835  43.561  25.863  1.00  0.00     0.053 C 
BRANCH  14  15
ATOM     15  C   UNL     1      30.203  43.448  26.458  1.00  0.00     0.041 C 
ATOM     16  O   UNL     1      31.116  44.238  26.100  1.00  0.00    -0.550 OA
ATOM     17  O   UNL     1      30.456  42.504  27.444  1.00  0.00    -0.550 OA
ENDBRANCH  14  15
ENDBRANCH  13  14
ENDBRANCH  12  13
ENDBRANCH  11  12
ENDBRANCH  10  11
ENDBRANCH   9  10
ENDBRANCH   8   9
ENDBRANCH   7   8
ENDBRANCH   6   7
ENDBRANCH   5   6
ENDBRANCH   4   5
ENDBRANCH   3   4
ENDBRANCH   2   3
ENDBRANCH   1   2
BRANCH   1  18
ATOM     18  C   UNL     1      26.053  38.793  30.645  1.00  0.00     0.000 C 
BRANCH  18  19
ATOM     19  C   UNL     1      27.151  37.842  31.164  1.00  0.00     0.000 C 
BRANCH  19  20
ATOM     20  C   UNL     1      26.753  36.983  32.378  1.00  0.00     0.000 C 
BRANCH  20  21
ATOM     21  C   UNL     1      26.714  37.791  33.688  1.00  0.00     0.000 C 
BRANCH  21  22
ATOM     22  C   UNL     1      25.313  37.808  34.326  1.00  0.00     0.000 C 
BRANCH  22  23
ATOM     23  C   UNL     1      25.227  37.051  35.670  1.00  0.00     0.000 C 
BRANCH  23  24
ATOM     24  C   UNL     1      26.581  36.875  36.388  1.00  0.00    -0.000 C 
BRANCH  24  25
ATOM     25  C   UNL     1      26.564  37.285  37.875  1.00  0.00    -0.000 C 
BRANCH  25  26
ATOM     26  C   UNL     1      27.966  37.601  38.437  1.00  0.00    -0.000 C 
BRANCH  26  27
ATOM     27  C   UNL     1      28.803  38.542  37.549  1.00  0.00    -0.000 C 
BRANCH  27  28
ATOM     28  C   UNL     1      29.918  37.836  36.747  1.00  0.00    -0.000 C 
BRANCH  28  29
ATOM     29  C   UNL     1      30.987  37.108  37.591  1.00  0.00    -0.000 C 
BRANCH  29  30
ATOM     30  C   UNL     1      32.443  37.556  37.358  1.00  0.00    -0.000 C 
BRANCH  30  31
ATOM     31  C   UNL     1      32.555  38.878  36.585  1.00  0.00    -0.003 C 
ATOM     32  C   UNL     1      32.199  38.687  35.113  1.00  0.00     0.004 C 
ENDBRANCH  30  31
ENDBRANCH  29  30
ENDBRANCH  28  29
ENDBRANCH  27  28
ENDBRANCH  26  27
ENDBRANCH  25  26
ENDBRANCH  24  25
ENDBRANCH  23  24
ENDBRANCH  22  23
ENDBRANCH  21  22
ENDBRANCH  20  21
ENDBRANCH  19  20
ENDBRANCH  18  19
ENDBRANCH   1  18
TORSDOF 28
ENDMDL
MODEL 5
REMARK VINA RESULT:    -1.605      4.452     11.943
REMARK INTER + INTRA:          -6.489
REMARK INTER:                  -4.634
REMARK INTRA:                  -1.856
REMARK UNBOUND:                -2.258
REMARK SMILES CCCCCCCCCCCCCCCCCCCCCCCCCCCCCC(=O)[O-]
REMARK SMILES IDX 16 1 17 2 18 3 19 4 20 5 21 6 22 7 23 8 24 9 25 10 26 11
REMARK SMILES IDX 27 12 28 13 29 14 30 15 31 16 32 17 15 18 14 19 13 20 12 21
REMARK SMILES IDX 11 22 10 23 9 24 8 25 7 26 6 27 5 28 4 29 3 30 2 31 1 32
REMARK H PARENT
REMARK Flexibility Score: inf
ROOT
ATOM      1  C   UNL     1      26.610  39.292  29.908  1.00  0.00     0.000 C 
ENDROOT
BRANCH   1   2
ATOM      2  C   UNL     1      26.550  37.999  30.738  1.00  0.00     0.000 C 
BRANCH   2   3
ATOM      3  C   UNL     1      25.479  38.043  31.844  1.00  0.00     0.000 C 
BRANCH   3   4
ATOM      4  C   UNL     1      25.954  37.601  33.240  1.00  0.00     0.000 C 
BRANCH   4   5
ATOM      5  C   UNL     1      24.982  38.005  34.362  1.00  0.00     0.000 C 
BRANCH   5   6
ATOM      6  C   UNL     1      24.957  36.994  35.524  1.00  0.00     0.000 C 
BRANCH   6   7
ATOM      7  C   UNL     1      25.871  37.342  36.718  1.00  0.00     0.000 C 
BRANCH   7   8
ATOM      8  C   UNL     1      25.667  38.749  37.317  1.00  0.00     0.000 C 
BRANCH   8   9
ATOM      9  C   UNL     1      26.333  38.976  38.687  1.00  0.00     0.000 C 
BRANCH   9  10
ATOM     10  C   UNL     1      26.182  37.767  39.625  1.00  0.00     0.000 C 
BRANCH  10  11
ATOM     11  C   UNL     1      26.784  38.014  41.019  1.00  0.00     0.000 C 
BRANCH  11  12
ATOM     12  C   UNL     1      27.299  39.455  41.224  1.00  0.00     0.000 C 
BRANCH  12  13
ATOM     13  C   UNL     1      26.208  40.384  41.778  1.00  0.00     0.006 C 
BRANCH  13  14
ATOM     14  C   UNL     1      26.782  41.760  42.125  1.00  0.00     0.053 C 
BRANCH  14  15
ATOM     15  C   UNL     1      26.490  42.740  41.032  1.00  0.00     0.041 C 
ATOM     16  O   UNL     1      27.258  43.719  40.838  1.00  0.00    -0.550 OA
ATOM     17  O   UNL     1      25.401  42.541  40.194  1.00  0.00    -0.550 OA
ENDBRANCH  14  15
ENDBRANCH  13  14
ENDBRANCH  12  13
ENDBRANCH  11  12
ENDBRANCH  10  11
ENDBRANCH   9  10
ENDBRANCH   8   9
ENDBRANCH   7   8
ENDBRANCH   6   7
ENDBRANCH   5   6
ENDBRANCH   4   5
ENDBRANCH   3   4
ENDBRANCH   2   3
ENDBRANCH   1   2
BRANCH   1  18
ATOM     18  C   UNL     1      25.795  39.204  28.604  1.00  0.00     0.000 C 
BRANCH  18  19
ATOM     19  C   UNL     1      25.392  37.779  28.172  1.00  0.00     0.000 C 
BRANCH  19  20
ATOM     20  C   UNL     1      25.937  37.330  26.804  1.00  0.00     0.000 C 
BRANCH  20  21
ATOM     21  C   UNL     1      24.911  37.508  25.670  1.00  0.00     0.000 C 
BRANCH  21  22
ATOM     22  C   UNL     1      25.567  37.519  24.279  1.00  0.00     0.000 C 
BRANCH  22  23
ATOM     23  C   UNL     1      25.773  38.933  23.693  1.00  0.00     0.000 C 
BRANCH  23  24
ATOM     24  C   UNL     1      24.876  40.018  24.322  1.00  0.00    -0.000 C 
BRANCH  24  25
ATOM     25  C   UNL     1      25.621  41.319  24.688  1.00  0.00    -0.000 C 
BRANCH  25  26
ATOM     26  C   UNL     1      26.587  41.154  25.880  1.00  0.00    -0.000 C 
BRANCH  26  27
ATOM     27  C   UNL     1      27.551  42.339  26.079  1.00  0.00    -0.000 C 
BRANCH  27  28
ATOM     28  C   UNL     1      28.617  42.117  27.173  1.00  0.00    -0.000 C 
BRANCH  28  29
ATOM     29  C   UNL     1      30.080  42.087  26.680  1.00  0.00    -0.000 C 
BRANCH  29  30
ATOM     30  C   UNL     1      30.464  43.174  25.658  1.00  0.00    -0.000 C 
BRANCH  30  31
ATOM     31  C   UNL     1      30.542  44.581  26.268  1.00  0.00    -0.003 C 
ATOM     32  C   UNL     1      31.674  45.391  25.641  1.00  0.00     0.004 C 
ENDBRANCH  30  31
ENDBRANCH  29  30
ENDBRANCH  28  29
ENDBRANCH  27  28
ENDBRANCH  26  27
ENDBRANCH  25  26
ENDBRANCH  24  25
ENDBRANCH  23  24
ENDBRANCH  22  23
ENDBRANCH  21  22
ENDBRANCH  20  21
ENDBRANCH  19  20
ENDBRANCH  18  19
ENDBRANCH   1  18
TORSDOF 28
ENDMDL
MODEL 6
REMARK VINA RESULT:    -1.497      1.861      5.873
REMARK INTER + INTRA:          -6.206
REMARK INTER:                  -6.002
REMARK INTRA:                  -0.204
REMARK UNBOUND:                -2.258
REMARK SMILES CCCCCCCCCCCCCCCCCCCCCCCCCCCCCC(=O)[O-]
REMARK SMILES IDX 16 1 17 2 18 3 19 4 20 5 21 6 22 7 23 8 24 9 25 10 26 11
REMARK SMILES IDX 27 12 28 13 29 14 30 15 31 16 32 17 15 18 14 19 13 20 12 21
REMARK SMILES IDX 11 22 10 23 9 24 8 25 7 26 6 27 5 28 4 29 3 30 2 31 1 32
REMARK H PARENT
REMARK Flexibility Score: inf
ROOT
ATOM      1  C   UNL     1      29.978  37.849  33.074  1.00  0.00     0.000 C 
ENDROOT
BRANCH   1   2
ATOM      2  C   UNL     1      29.037  36.875  32.345  1.00  0.00     0.000 C 
BRANCH   2   3
ATOM      3  C   UNL     1      27.557  37.074  32.720  1.00  0.00     0.000 C 
BRANCH   3   4
ATOM      4  C   UNL     1      26.754  37.991  31.779  1.00  0.00     0.000 C 
BRANCH   4   5
ATOM      5  C   UNL     1      25.811  37.217  30.842  1.00  0.00     0.000 C 
BRANCH   5   6
ATOM      6  C   UNL     1      26.031  37.558  29.357  1.00  0.00     0.000 C 
BRANCH   6   7
ATOM      7  C   UNL     1      24.913  38.399  28.704  1.00  0.00     0.000 C 
BRANCH   7   8
ATOM      8  C   UNL     1      25.015  39.921  28.930  1.00  0.00     0.000 C 
BRANCH   8   9
ATOM      9  C   UNL     1      24.909  40.777  27.653  1.00  0.00     0.000 C 
BRANCH   9  10
ATOM     10  C   UNL     1      24.885  39.928  26.372  1.00  0.00     0.000 C 
BRANCH  10  11
ATOM     11  C   UNL     1      26.265  39.352  26.011  1.00  0.00     0.000 C 
BRANCH  11  12
ATOM     12  C   UNL     1      27.395  40.404  26.016  1.00  0.00     0.000 C 
BRANCH  12  13
ATOM     13  C   UNL     1      27.033  41.635  26.859  1.00  0.00     0.006 C 
BRANCH  13  14
ATOM     14  C   UNL     1      27.545  42.920  26.203  1.00  0.00     0.053 C 
BRANCH  14  15
ATOM     15  C   UNL     1      29.009  43.094  26.462  1.00  0.00     0.041 C 
ATOM     16  O   UNL     1      29.515  42.678  27.537  1.00  0.00    -0.550 OA
ATOM     17  O   UNL     1      29.822  43.669  25.494  1.00  0.00    -0.550 OA
ENDBRANCH  14  15
ENDBRANCH  13  14
ENDBRANCH  12  13
ENDBRANCH  11  12
ENDBRANCH  10  11
ENDBRANCH   9  10
ENDBRANCH   8   9
ENDBRANCH   7   8
ENDBRANCH   6   7
ENDBRANCH   5   6
ENDBRANCH   4   5
ENDBRANCH   3   4
ENDBRANCH   2   3
ENDBRANCH   1   2
BRANCH   1  18
ATOM     18  C   UNL     1      31.466  37.523  32.850  1.00  0.00     0.000 C 
BRANCH  18  19
ATOM     19  C   UNL     1      32.429  38.064  33.926  1.00  0.00     0.000 C 
BRANCH  19  20
ATOM     20  C   UNL     1      31.778  38.396  35.281  1.00  0.00     0.000 C 
BRANCH  20  21
ATOM     21  C   UNL     1      31.680  37.172  36.208  1.00  0.00     0.000 C 
BRANCH  21  22
ATOM     22  C   UNL     1      30.943  37.486  37.522  1.00  0.00     0.000 C 
BRANCH  22  23
ATOM     23  C   UNL     1      29.490  37.973  37.325  1.00  0.00     0.000 C 
BRANCH  23  24
ATOM     24  C   UNL     1      28.468  37.328  38.283  1.00  0.00    -0.000 C 
BRANCH  24  25
ATOM     25  C   UNL     1      28.939  37.253  39.750  1.00  0.00    -0.000 C 
BRANCH  25  26
ATOM     26  C   UNL     1      27.781  37.332  40.768  1.00  0.00    -0.000 C 
BRANCH  26  27
ATOM     27  C   UNL     1      26.380  37.347  40.127  1.00  0.00    -0.000 C 
BRANCH  27  28
ATOM     28  C   UNL     1      25.641  38.698  40.242  1.00  0.00    -0.000 C 
BRANCH  28  29
ATOM     29  C   UNL     1      26.460  39.941  39.833  1.00  0.00    -0.000 C 
BRANCH  29  30
ATOM     30  C   UNL     1      25.970  40.681  38.573  1.00  0.00    -0.000 C 
BRANCH  30  31
ATOM     31  C   UNL     1      24.905  41.746  38.870  1.00  0.00    -0.003 C 
ATOM     32  C   UNL     1      25.331  42.642  40.030  1.00  0.00     0.004 C 
ENDBRANCH  30  31
ENDBRANCH  29  30
ENDBRANCH  28  29
ENDBRANCH  27  28
ENDBRANCH  26  27
ENDBRANCH  25  26
ENDBRANCH  24  25
ENDBRANCH  23  24
ENDBRANCH  22  23
ENDBRANCH  21  22
ENDBRANCH  20  21
ENDBRANCH  19  20
ENDBRANCH  18  19
ENDBRANCH   1  18
TORSDOF 28
ENDMDL
MODEL 7
REMARK VINA RESULT:    -0.622      4.101     11.368
REMARK INTER + INTRA:          -3.898
REMARK INTER:                  -1.754
REMARK INTRA:                  -2.144
REMARK UNBOUND:                -2.258
REMARK SMILES CCCCCCCCCCCCCCCCCCCCCCCCCCCCCC(=O)[O-]
REMARK SMILES IDX 16 1 17 2 18 3 19 4 20 5 21 6 22 7 23 8 24 9 25 10 26 11
REMARK SMILES IDX 27 12 28 13 29 14 30 15 31 16 32 17 15 18 14 19 13 20 12 21
REMARK SMILES IDX 11 22 10 23 9 24 8 25 7 26 6 27 5 28 4 29 3 30 2 31 1 32
REMARK H PARENT
REMARK Flexibility Score: inf
ROOT
ATOM      1  C   UNL     1      27.621  38.281  31.189  1.00  0.00     0.000 C 
ENDROOT
BRANCH   1   2
ATOM      2  C   UNL     1      28.005  36.941  31.837  1.00  0.00     0.000 C 
BRANCH   2   3
ATOM      3  C   UNL     1      29.487  36.875  32.250  1.00  0.00     0.000 C 
BRANCH   3   4
ATOM      4  C   UNL     1      29.754  36.958  33.764  1.00  0.00     0.000 C 
BRANCH   4   5
ATOM      5  C   UNL     1      31.242  37.154  34.104  1.00  0.00     0.000 C 
BRANCH   5   6
ATOM      6  C   UNL     1      31.463  38.093  35.304  1.00  0.00     0.000 C 
BRANCH   6   7
ATOM      7  C   UNL     1      31.826  37.391  36.629  1.00  0.00     0.000 C 
BRANCH   7   8
ATOM      8  C   UNL     1      30.627  36.973  37.505  1.00  0.00     0.000 C 
BRANCH   8   9
ATOM      9  C   UNL     1      29.346  37.803  37.293  1.00  0.00     0.000 C 
BRANCH   9  10
ATOM     10  C   UNL     1      28.098  37.124  37.882  1.00  0.00     0.000 C 
BRANCH  10  11
ATOM     11  C   UNL     1      27.686  37.712  39.243  1.00  0.00     0.000 C 
BRANCH  11  12
ATOM     12  C   UNL     1      26.202  38.131  39.312  1.00  0.00     0.000 C 
BRANCH  12  13
ATOM     13  C   UNL     1      26.009  39.624  39.004  1.00  0.00     0.006 C 
BRANCH  13  14
ATOM     14  C   UNL     1      25.772  40.423  40.287  1.00  0.00     0.053 C 
BRANCH  14  15
ATOM     15  C   UNL     1      26.926  41.337  40.557  1.00  0.00     0.041 C 
ATOM     16  O   UNL     1      28.029  40.867  40.939  1.00  0.00    -0.550 OA
ATOM     17  O   UNL     1      26.797  42.702  40.335  1.00  0.00    -0.550 OA
ENDBRANCH  14  15
ENDBRANCH  13  14
ENDBRANCH  12  13
ENDBRANCH  11  12
ENDBRANCH  10  11
ENDBRANCH   9  10
ENDBRANCH   8   9
ENDBRANCH   7   8
ENDBRANCH   6   7
ENDBRANCH   5   6
ENDBRANCH   4   5
ENDBRANCH   3   4
ENDBRANCH   2   3
ENDBRANCH   1   2
BRANCH   1  18
ATOM     18  C   UNL     1      26.166  38.306  30.685  1.00  0.00     0.000 C 
BRANCH  18  19
ATOM     19  C   UNL     1      25.998  38.309  29.151  1.00  0.00     0.000 C 
BRANCH  19  20
ATOM     20  C   UNL     1      24.982  37.291  28.602  1.00  0.00     0.000 C 
BRANCH  20  21
ATOM     21  C   UNL     1      25.276  36.887  27.146  1.00  0.00     0.000 C 
BRANCH  21  22
ATOM     22  C   UNL     1      26.743  37.134  26.752  1.00  0.00     0.000 C 
BRANCH  22  23
ATOM     23  C   UNL     1      26.915  38.017  25.497  1.00  0.00     0.000 C 
BRANCH  23  24
ATOM     24  C   UNL     1      25.612  38.674  24.998  1.00  0.00    -0.000 C 
BRANCH  24  25
ATOM     25  C   UNL     1      25.616  40.215  25.065  1.00  0.00    -0.000 C 
BRANCH  25  26
ATOM     26  C   UNL     1      25.847  40.763  26.489  1.00  0.00    -0.000 C 
BRANCH  26  27
ATOM     27  C   UNL     1      25.509  42.258  26.651  1.00  0.00    -0.000 C 
BRANCH  27  28
ATOM     28  C   UNL     1      26.695  43.134  27.107  1.00  0.00    -0.000 C 
BRANCH  28  29
ATOM     29  C   UNL     1      28.018  42.916  26.341  1.00  0.00    -0.000 C 
BRANCH  29  30
ATOM     30  C   UNL     1      29.226  42.491  27.198  1.00  0.00    -0.000 C 
BRANCH  30  31
ATOM     31  C   UNL     1      30.575  42.724  26.504  1.00  0.00    -0.003 C 
ATOM     32  C   UNL     1      30.583  44.051  25.750  1.00  0.00     0.004 C 
ENDBRANCH  30  31
ENDBRANCH  29  30
ENDBRANCH  28  29
ENDBRANCH  27  28
ENDBRANCH  26  27
ENDBRANCH  25  26
ENDBRANCH  24  25
ENDBRANCH  23  24
ENDBRANCH  22  23
ENDBRANCH  21  22
ENDBRANCH  20  21
ENDBRANCH  19  20
ENDBRANCH  18  19
ENDBRANCH   1  18
TORSDOF 28
ENDMDL
