MODEL 1
REMARK VINA RESULT:    -5.533      0.000      0.000
REMARK INTER + INTRA:          -6.564
REMARK INTER:                  -6.342
REMARK INTRA:                  -0.222
REMARK UNBOUND:                -0.222
REMARK SMILES COC(=O)c1ccccc1O
REMARK SMILES IDX 5 1 6 2 7 3 8 4 9 5 10 6 3 7 4 8 2 9 1 10 11 11
REMARK H PARENT 11 12
REMARK Flexibility Score: inf
ROOT
ATOM      1  C   UNL     1      18.537 -10.767  68.047  1.00  0.00     0.101 A 
ATOM      2  C   UNL     1      17.669 -11.869  67.918  1.00  0.00     0.019 A 
ATOM      3  C   UNL     1      16.855 -12.008  66.791  1.00  0.00     0.001 A 
ATOM      4  C   UNL     1      16.893 -11.052  65.778  1.00  0.00     0.004 A 
ATOM      5  C   UNL     1      17.745  -9.954  65.887  1.00  0.00     0.047 A 
ATOM      6  C   UNL     1      18.569  -9.801  67.013  1.00  0.00     0.130 A 
ENDROOT
BRANCH   1   7
ATOM      7  C   UNL     1      19.387 -10.653  69.259  1.00  0.00     0.341 C 
ATOM      8  O   UNL     1      19.391  -9.593  69.944  1.00  0.00    -0.246 OA
BRANCH   7   9
ATOM      9  O   UNL     1      20.194 -11.730  69.645  1.00  0.00    -0.465 OA
ATOM     10  C   UNL     1      20.984 -12.469  68.721  1.00  0.00     0.282 C 
ENDBRANCH   7   9
ENDBRANCH   1   7
BRANCH   6  11
ATOM     11  O   UNL     1      19.413  -8.693  67.097  1.00  0.00    -0.507 OA
ATOM     12  H   UNL     1      20.419  -8.781  67.008  1.00  0.00     0.293 HD
ENDBRANCH   6  11
TORSDOF 3
ENDMDL
MODEL 2
REMARK VINA RESULT:    -5.401      0.929      2.071
REMARK INTER + INTRA:          -6.412
REMARK INTER:                  -6.131
REMARK INTRA:                  -0.281
REMARK UNBOUND:                -0.222
REMARK SMILES COC(=O)c1ccccc1O
REMARK SMILES IDX 5 1 6 2 7 3 8 4 9 5 10 6 3 7 4 8 2 9 1 10 11 11
REMARK H PARENT 11 12
REMARK Flexibility Score: inf
ROOT
ATOM      1  C   UNL     1      18.599 -10.787  67.997  1.00  0.00     0.101 A 
ATOM      2  C   UNL     1      18.763  -9.845  66.962  1.00  0.00     0.019 A 
ATOM      3  C   UNL     1      18.016  -9.941  65.785  1.00  0.00     0.001 A 
ATOM      4  C   UNL     1      17.097 -10.977  65.622  1.00  0.00     0.004 A 
ATOM      5  C   UNL     1      16.921 -11.919  66.634  1.00  0.00     0.047 A 
ATOM      6  C   UNL     1      17.664 -11.835  67.823  1.00  0.00     0.130 A 
ENDROOT
BRANCH   1   7
ATOM      7  C   UNL     1      19.410 -10.652  69.234  1.00  0.00     0.341 C 
ATOM      8  O   UNL     1      19.393  -9.582  69.901  1.00  0.00    -0.246 OA
BRANCH   7   9
ATOM      9  O   UNL     1      20.203 -11.723  69.663  1.00  0.00    -0.465 OA
ATOM     10  C   UNL     1      20.989 -12.505  68.771  1.00  0.00     0.282 C 
ENDBRANCH   7   9
ENDBRANCH   1   7
BRANCH   6  11
ATOM     11  O   UNL     1      17.468 -12.790  68.820  1.00  0.00    -0.507 OA
ATOM     12  H   UNL     1      17.342 -12.530  69.791  1.00  0.00     0.293 HD
ENDBRANCH   6  11
TORSDOF 3
ENDMDL
MODEL 3
REMARK VINA RESULT:    -5.390      1.172      1.343
REMARK INTER + INTRA:          -6.399
REMARK INTER:                  -6.092
REMARK INTRA:                  -0.308
REMARK UNBOUND:                -0.222
REMARK SMILES COC(=O)c1ccccc1O
REMARK SMILES IDX 5 1 6 2 7 3 8 4 9 5 10 6 3 7 4 8 2 9 1 10 11 11
REMARK H PARENT 11 12
REMARK Flexibility Score: inf
ROOT
ATOM      1  C   UNL     1      18.942 -10.176  67.559  1.00  0.00     0.101 A 
ATOM      2  C   UNL     1      17.551 -10.319  67.396  1.00  0.00     0.019 A 
ATOM      3  C   UNL     1      16.962 -10.182  66.137  1.00  0.00     0.001 A 
ATOM      4  C   UNL     1      17.751  -9.900  65.022  1.00  0.00     0.004 A 
ATOM      5  C   UNL     1      19.131  -9.754  65.163  1.00  0.00     0.047 A 
ATOM      6  C   UNL     1      19.736  -9.890  66.423  1.00  0.00     0.130 A 
ENDROOT
BRANCH   1   7
ATOM      7  C   UNL     1      19.533 -10.329  68.914  1.00  0.00     0.341 C 
ATOM      8  O   UNL     1      19.254  -9.511  69.833  1.00  0.00    -0.246 OA
BRANCH   7   9
ATOM      9  O   UNL     1      20.409 -11.390  69.173  1.00  0.00    -0.465 OA
ATOM     10  C   UNL     1      20.134 -12.729  68.779  1.00  0.00     0.282 C 
ENDBRANCH   7   9
ENDBRANCH   1   7
BRANCH   6  11
ATOM     11  O   UNL     1      21.118  -9.739  66.536  1.00  0.00    -0.507 OA
ATOM     12  H   UNL     1      21.696 -10.440  66.987  1.00  0.00     0.293 HD
ENDBRANCH   6  11
TORSDOF 3
ENDMDL
MODEL 4
REMARK VINA RESULT:    -4.747     16.083     17.219
REMARK INTER + INTRA:          -5.663
REMARK INTER:                  -5.338
REMARK INTRA:                  -0.325
REMARK UNBOUND:                -0.222
REMARK SMILES COC(=O)c1ccccc1O
REMARK SMILES IDX 5 1 6 2 7 3 8 4 9 5 10 6 3 7 4 8 2 9 1 10 11 11
REMARK H PARENT 11 12
REMARK Flexibility Score: inf
ROOT
ATOM      1  C   UNL     1       6.368  -9.153  56.245  1.00  0.00     0.101 A 
ATOM      2  C   UNL     1       6.422  -9.249  57.649  1.00  0.00     0.019 A 
ATOM      3  C   UNL     1       6.087  -8.155  58.452  1.00  0.00     0.001 A 
ATOM      4  C   UNL     1       5.695  -6.952  57.868  1.00  0.00     0.004 A 
ATOM      5  C   UNL     1       5.636  -6.838  56.479  1.00  0.00     0.047 A 
ATOM      6  C   UNL     1       5.969  -7.928  55.660  1.00  0.00     0.130 A 
ENDROOT
BRANCH   1   7
ATOM      7  C   UNL     1       6.732 -10.336  55.424  1.00  0.00     0.341 C 
ATOM      8  O   UNL     1       5.903 -10.838  54.616  1.00  0.00    -0.246 OA
BRANCH   7   9
ATOM      9  O   UNL     1       8.006 -10.902  55.548  1.00  0.00    -0.465 OA
ATOM     10  C   UNL     1       9.199 -10.185  55.249  1.00  0.00     0.282 C 
ENDBRANCH   7   9
ENDBRANCH   1   7
BRANCH   6  11
ATOM     11  O   UNL     1       5.901  -7.786  54.274  1.00  0.00    -0.507 OA
ATOM     12  H   UNL     1       5.026  -7.874  53.771  1.00  0.00     0.293 HD
ENDBRANCH   6  11
TORSDOF 3
ENDMDL
MODEL 5
REMARK VINA RESULT:    -4.731     16.322     17.123
REMARK INTER + INTRA:          -5.645
REMARK INTER:                  -5.344
REMARK INTRA:                  -0.300
REMARK UNBOUND:                -0.222
REMARK SMILES COC(=O)c1ccccc1O
REMARK SMILES IDX 5 1 6 2 7 3 8 4 9 5 10 6 3 7 4 8 2 9 1 10 11 11
REMARK H PARENT 11 12
REMARK Flexibility Score: inf
ROOT
ATOM      1  C   UNL     1       8.023   1.472  63.996  1.00  0.00     0.101 A 
ATOM      2  C   UNL     1       7.279   1.843  65.133  1.00  0.00     0.019 A 
ATOM      3  C   UNL     1       6.061   1.222  65.422  1.00  0.00     0.001 A 
ATOM      4  C   UNL     1       5.569   0.222  64.584  1.00  0.00     0.004 A 
ATOM      5  C   UNL     1       6.292  -0.159  63.454  1.00  0.00     0.047 A 
ATOM      6  C   UNL     1       7.516   0.457  63.150  1.00  0.00     0.130 A 
ENDROOT
BRANCH   1   7
ATOM      7  C   UNL     1       9.313   2.155  63.720  1.00  0.00     0.341 C 
ATOM      8  O   UNL     1      10.292   1.514  63.249  1.00  0.00    -0.246 OA
BRANCH   7   9
ATOM      9  O   UNL     1       9.445   3.523  63.987  1.00  0.00    -0.465 OA
ATOM     10  C   UNL     1       9.006   4.529  63.082  1.00  0.00     0.282 C 
ENDBRANCH   7   9
ENDBRANCH   1   7
BRANCH   6  11
ATOM     11  O   UNL     1       8.219   0.056  62.014  1.00  0.00    -0.507 OA
ATOM     12  H   UNL     1       8.126   0.543  61.130  1.00  0.00     0.293 HD
ENDBRANCH   6  11
TORSDOF 3
ENDMDL
MODEL 6
REMARK VINA RESULT:    -4.691     15.713     16.979
REMARK INTER + INTRA:          -5.599
REMARK INTER:                  -5.241
REMARK INTRA:                  -0.357
REMARK UNBOUND:                -0.222
REMARK SMILES COC(=O)c1ccccc1O
REMARK SMILES IDX 5 1 6 2 7 3 8 4 9 5 10 6 3 7 4 8 2 9 1 10 11 11
REMARK H PARENT 11 12
REMARK Flexibility Score: inf
ROOT
ATOM      1  C   UNL     1       6.335  -9.183  56.295  1.00  0.00     0.101 A 
ATOM      2  C   UNL     1       5.697  -8.052  55.748  1.00  0.00     0.019 A 
ATOM      3  C   UNL     1       5.326  -6.979  56.562  1.00  0.00     0.001 A 
ATOM      4  C   UNL     1       5.587  -7.015  57.931  1.00  0.00     0.004 A 
ATOM      5  C   UNL     1       6.217  -8.126  58.491  1.00  0.00     0.047 A 
ATOM      6  C   UNL     1       6.595  -9.212  57.686  1.00  0.00     0.130 A 
ENDROOT
BRANCH   1   7
ATOM      7  C   UNL     1       6.714 -10.305  55.399  1.00  0.00     0.341 C 
ATOM      8  O   UNL     1       5.867 -10.818  54.617  1.00  0.00    -0.246 OA
BRANCH   7   9
ATOM      9  O   UNL     1       8.023 -10.801  55.424  1.00  0.00    -0.465 OA
ATOM     10  C   UNL     1       9.150 -10.017  55.053  1.00  0.00     0.282 C 
ENDBRANCH   7   9
ENDBRANCH   1   7
BRANCH   6  11
ATOM     11  O   UNL     1       7.225 -10.310  58.272  1.00  0.00    -0.507 OA
ATOM     12  H   UNL     1       6.782 -10.849  59.008  1.00  0.00     0.293 HD
ENDBRANCH   6  11
TORSDOF 3
ENDMDL
MODEL 7
REMARK VINA RESULT:    -4.647      2.469      3.599
REMARK INTER + INTRA:          -5.549
REMARK INTER:                  -5.272
REMARK INTRA:                  -0.277
REMARK UNBOUND:                -0.222
REMARK SMILES COC(=O)c1ccccc1O
REMARK SMILES IDX 5 1 6 2 7 3 8 4 9 5 10 6 3 7 4 8 2 9 1 10 11 11
REMARK H PARENT 11 12
REMARK Flexibility Score: inf
ROOT
ATOM      1  C   UNL     1      19.062 -10.678  65.493  1.00  0.00     0.101 A 
ATOM      2  C   UNL     1      18.275 -11.718  64.961  1.00  0.00     0.019 A 
ATOM      3  C   UNL     1      16.991 -11.964  65.453  1.00  0.00     0.001 A 
ATOM      4  C   UNL     1      16.472 -11.178  66.481  1.00  0.00     0.004 A 
ATOM      5  C   UNL     1      17.236 -10.144  67.021  1.00  0.00     0.047 A 
ATOM      6  C   UNL     1      18.528  -9.885  66.537  1.00  0.00     0.130 A 
ENDROOT
BRANCH   1   7
ATOM      7  C   UNL     1      20.423 -10.446  64.946  1.00  0.00     0.341 C 
ATOM      8  O   UNL     1      21.416 -10.338  65.716  1.00  0.00    -0.246 OA
BRANCH   7   9
ATOM      9  O   UNL     1      20.606 -10.344  63.561  1.00  0.00    -0.465 OA
ATOM     10  C   UNL     1      21.773  -9.775  62.979  1.00  0.00     0.282 C 
ENDBRANCH   7   9
ENDBRANCH   1   7
BRANCH   6  11
ATOM     11  O   UNL     1      19.270  -8.844  67.095  1.00  0.00    -0.507 OA
ATOM     12  H   UNL     1      18.826  -8.011  67.464  1.00  0.00     0.293 HD
ENDBRANCH   6  11
TORSDOF 3
ENDMDL
MODEL 8
REMARK VINA RESULT:    -4.573      1.748      2.282
REMARK INTER + INTRA:          -5.464
REMARK INTER:                  -5.151
REMARK INTRA:                  -0.312
REMARK UNBOUND:                -0.222
REMARK SMILES COC(=O)c1ccccc1O
REMARK SMILES IDX 5 1 6 2 7 3 8 4 9 5 10 6 3 7 4 8 2 9 1 10 11 11
REMARK H PARENT 11 12
REMARK Flexibility Score: inf
ROOT
ATOM      1  C   UNL     1      17.659 -11.738  66.665  1.00  0.00     0.101 A 
ATOM      2  C   UNL     1      17.760 -12.675  65.617  1.00  0.00     0.019 A 
ATOM      3  C   UNL     1      17.560 -12.285  64.291  1.00  0.00     0.001 A 
ATOM      4  C   UNL     1      17.257 -10.958  63.989  1.00  0.00     0.004 A 
ATOM      5  C   UNL     1      17.153 -10.017  65.012  1.00  0.00     0.047 A 
ATOM      6  C   UNL     1      17.351 -10.394  66.349  1.00  0.00     0.130 A 
ENDROOT
BRANCH   1   7
ATOM      7  C   UNL     1      17.877 -12.189  68.063  1.00  0.00     0.341 C 
ATOM      8  O   UNL     1      17.205 -13.142  68.544  1.00  0.00    -0.246 OA
BRANCH   7   9
ATOM      9  O   UNL     1      18.837 -11.549  68.856  1.00  0.00    -0.465 OA
ATOM     10  C   UNL     1      20.196 -11.969  68.909  1.00  0.00     0.282 C 
ENDBRANCH   7   9
ENDBRANCH   1   7
BRANCH   6  11
ATOM     11  O   UNL     1      17.241  -9.432  67.353  1.00  0.00    -0.507 OA
ATOM     12  H   UNL     1      17.646  -9.571  68.272  1.00  0.00     0.293 HD
ENDBRANCH   6  11
TORSDOF 3
ENDMDL
MODEL 9
REMARK VINA RESULT:    -4.536      3.616      5.093
REMARK INTER + INTRA:          -5.421
REMARK INTER:                  -5.141
REMARK INTRA:                  -0.280
REMARK UNBOUND:                -0.222
REMARK SMILES COC(=O)c1ccccc1O
REMARK SMILES IDX 5 1 6 2 7 3 8 4 9 5 10 6 3 7 4 8 2 9 1 10 11 11
REMARK H PARENT 11 12
REMARK Flexibility Score: inf
ROOT
ATOM      1  C   UNL     1      17.607 -10.334  64.565  1.00  0.00     0.101 A 
ATOM      2  C   UNL     1      17.048 -10.367  65.857  1.00  0.00     0.019 A 
ATOM      3  C   UNL     1      17.803  -9.990  66.971  1.00  0.00     0.001 A 
ATOM      4  C   UNL     1      19.125  -9.575  66.812  1.00  0.00     0.004 A 
ATOM      5  C   UNL     1      19.696  -9.536  65.541  1.00  0.00     0.047 A 
ATOM      6  C   UNL     1      18.950  -9.912  64.413  1.00  0.00     0.130 A 
ENDROOT
BRANCH   1   7
ATOM      7  C   UNL     1      16.774 -10.742  63.405  1.00  0.00     0.341 C 
ATOM      8  O   UNL     1      15.648 -10.212  63.203  1.00  0.00    -0.246 OA
BRANCH   7   9
ATOM      9  O   UNL     1      17.243 -11.727  62.527  1.00  0.00    -0.465 OA
ATOM     10  C   UNL     1      16.465 -12.859  62.155  1.00  0.00     0.282 C 
ENDBRANCH   7   9
ENDBRANCH   1   7
BRANCH   6  11
ATOM     11  O   UNL     1      19.545  -9.864  63.153  1.00  0.00    -0.507 OA
ATOM     12  H   UNL     1      19.019 -10.052  62.307  1.00  0.00     0.293 HD
ENDBRANCH   6  11
TORSDOF 3
ENDMDL
