MODEL 1
REMARK VINA RESULT:    -4.361      0.000      0.000
REMARK INTER + INTRA:          -4.361
REMARK INTER:                  -4.361
REMARK INTRA:                   0.000
REMARK UNBOUND:                 0.000
REMARK SMILES CC(C)=C1CC[C@@H](C)CC1=O
REMARK SMILES IDX 8 1 7 2 6 3 5 4 4 5 2 6 1 7 3 8 10 9 11 10 9 11
REMARK H PARENT
REMARK Flexibility Score: inf
ROOT
ATOM      1  C   UNL     1      14.906  66.370 -29.752  1.00  0.00     0.008 C 
ATOM      2  C   UNL     1      14.320  67.767 -29.520  1.00  0.00    -0.006 C 
ATOM      3  C   UNL     1      15.313  68.648 -28.745  1.00  0.00     0.008 C 
ATOM      4  C   UNL     1      14.787  70.081 -28.592  1.00  0.00     0.039 C 
ATOM      5  C   UNL     1      13.382  70.128 -28.006  1.00  0.00    -0.006 C 
ATOM      6  C   UNL     1      12.976  71.167 -27.218  1.00  0.00    -0.070 C 
ATOM      7  C   UNL     1      11.604  71.198 -26.585  1.00  0.00     0.039 C 
ATOM      8  C   UNL     1      13.899  72.324 -26.911  1.00  0.00     0.039 C 
ATOM      9  C   UNL     1      12.455  69.040 -28.438  1.00  0.00     0.159 C 
ATOM     10  O   UNL     1      11.216  69.242 -28.552  1.00  0.00    -0.295 OA
ATOM     11  C   UNL     1      12.992  67.675 -28.754  1.00  0.00     0.084 C 
ENDROOT
TORSDOF 0
ENDMDL
MODEL 2
REMARK VINA RESULT:    -4.187      1.657      4.667
REMARK INTER + INTRA:          -4.187
REMARK INTER:                  -4.187
REMARK INTRA:                   0.000
REMARK UNBOUND:                 0.000
REMARK SMILES CC(C)=C1CC[C@@H](C)CC1=O
REMARK SMILES IDX 8 1 7 2 6 3 5 4 4 5 2 6 1 7 3 8 10 9 11 10 9 11
REMARK H PARENT
REMARK Flexibility Score: inf
ROOT
ATOM      1  C   UNL     1      11.103  70.833 -26.823  1.00  0.00     0.008 C 
ATOM      2  C   UNL     1      11.877  70.076 -27.909  1.00  0.00    -0.006 C 
ATOM      3  C   UNL     1      11.446  68.601 -27.950  1.00  0.00     0.008 C 
ATOM      4  C   UNL     1      12.136  67.851 -29.097  1.00  0.00     0.039 C 
ATOM      5  C   UNL     1      13.649  68.019 -29.079  1.00  0.00    -0.006 C 
ATOM      6  C   UNL     1      14.479  67.028 -29.521  1.00  0.00    -0.070 C 
ATOM      7  C   UNL     1      15.983  67.161 -29.456  1.00  0.00     0.039 C 
ATOM      8  C   UNL     1      13.928  65.730 -30.066  1.00  0.00     0.039 C 
ATOM      9  C   UNL     1      14.155  69.360 -28.661  1.00  0.00     0.159 C 
ATOM     10  O   UNL     1      15.221  69.836 -29.138  1.00  0.00    -0.295 OA
ATOM     11  C   UNL     1      13.389  70.175 -27.660  1.00  0.00     0.084 C 
ENDROOT
TORSDOF 0
ENDMDL
MODEL 3
REMARK VINA RESULT:    -4.167     15.616     16.769
REMARK INTER + INTRA:          -4.167
REMARK INTER:                  -4.167
REMARK INTRA:                   0.000
REMARK UNBOUND:                 0.000
REMARK SMILES CC(C)=C1CC[C@@H](C)CC1=O
REMARK SMILES IDX 8 1 7 2 6 3 5 4 4 5 2 6 1 7 3 8 10 9 11 10 9 11
REMARK H PARENT
REMARK Flexibility Score: inf
ROOT
ATOM      1  C   UNL     1       7.116  74.249 -15.117  1.00  0.00     0.008 C 
ATOM      2  C   UNL     1       6.307  75.549 -15.196  1.00  0.00    -0.006 C 
ATOM      3  C   UNL     1       4.853  75.257 -15.600  1.00  0.00     0.008 C 
ATOM      4  C   UNL     1       4.004  76.534 -15.585  1.00  0.00     0.039 C 
ATOM      5  C   UNL     1       4.623  77.658 -16.403  1.00  0.00    -0.006 C 
ATOM      6  C   UNL     1       3.847  78.577 -17.051  1.00  0.00    -0.070 C 
ATOM      7  C   UNL     1       4.450  79.663 -17.912  1.00  0.00     0.039 C 
ATOM      8  C   UNL     1       2.339  78.526 -16.966  1.00  0.00     0.039 C 
ATOM      9  C   UNL     1       6.112  77.759 -16.356  1.00  0.00     0.159 C 
ATOM     10  O   UNL     1       6.697  78.873 -16.440  1.00  0.00    -0.295 OA
ATOM     11  C   UNL     1       6.946  76.520 -16.199  1.00  0.00     0.084 C 
ENDROOT
TORSDOF 0
ENDMDL
MODEL 4
REMARK VINA RESULT:    -4.152     16.876     17.651
REMARK INTER + INTRA:          -4.152
REMARK INTER:                  -4.152
REMARK INTRA:                   0.000
REMARK UNBOUND:                 0.000
REMARK SMILES CC(C)=C1CC[C@@H](C)CC1=O
REMARK SMILES IDX 8 1 7 2 6 3 5 4 4 5 2 6 1 7 3 8 10 9 11 10 9 11
REMARK H PARENT
REMARK Flexibility Score: inf
ROOT
ATOM      1  C   UNL     1       3.384  78.595 -17.539  1.00  0.00     0.008 C 
ATOM      2  C   UNL     1       2.065  78.038 -18.086  1.00  0.00    -0.006 C 
ATOM      3  C   UNL     1       2.213  76.549 -18.441  1.00  0.00     0.008 C 
ATOM      4  C   UNL     1       0.877  75.949 -18.895  1.00  0.00     0.039 C 
ATOM      5  C   UNL     1       0.222  76.753 -20.009  1.00  0.00    -0.006 C 
ATOM      6  C   UNL     1      -0.547  76.150 -20.963  1.00  0.00    -0.070 C 
ATOM      7  C   UNL     1      -1.156  76.930 -22.106  1.00  0.00     0.039 C 
ATOM      8  C   UNL     1      -0.796  74.659 -20.941  1.00  0.00     0.039 C 
ATOM      9  C   UNL     1       0.376  78.236 -19.924  1.00  0.00     0.159 C 
ATOM     10  O   UNL     1      -0.522  79.014 -20.345  1.00  0.00    -0.295 OA
ATOM     11  C   UNL     1       1.617  78.830 -19.322  1.00  0.00     0.084 C 
ENDROOT
TORSDOF 0
ENDMDL
MODEL 5
REMARK VINA RESULT:    -4.149     16.744     17.218
REMARK INTER + INTRA:          -4.149
REMARK INTER:                  -4.149
REMARK INTRA:                   0.000
REMARK UNBOUND:                 0.000
REMARK SMILES CC(C)=C1CC[C@@H](C)CC1=O
REMARK SMILES IDX 8 1 7 2 6 3 5 4 4 5 2 6 1 7 3 8 10 9 11 10 9 11
REMARK H PARENT
REMARK Flexibility Score: inf
ROOT
ATOM      1  C   UNL     1       0.960  73.154 -18.127  1.00  0.00     0.008 C 
ATOM      2  C   UNL     1       0.237  74.319 -18.812  1.00  0.00    -0.006 C 
ATOM      3  C   UNL     1      -0.202  73.922 -20.232  1.00  0.00     0.008 C 
ATOM      4  C   UNL     1      -1.016  75.040 -20.896  1.00  0.00     0.039 C 
ATOM      5  C   UNL     1      -0.303  76.384 -20.858  1.00  0.00    -0.006 C 
ATOM      6  C   UNL     1      -0.467  77.303 -21.855  1.00  0.00    -0.070 C 
ATOM      7  C   UNL     1       0.279  78.618 -21.858  1.00  0.00     0.039 C 
ATOM      8  C   UNL     1      -1.380  77.031 -23.029  1.00  0.00     0.039 C 
ATOM      9  C   UNL     1       0.483  76.675 -19.623  1.00  0.00     0.159 C 
ATOM     10  O   UNL     1       0.603  77.851 -19.184  1.00  0.00    -0.295 OA
ATOM     11  C   UNL     1       1.144  75.556 -18.870  1.00  0.00     0.084 C 
ENDROOT
TORSDOF 0
ENDMDL
MODEL 6
REMARK VINA RESULT:    -4.138      6.555      7.689
REMARK INTER + INTRA:          -4.138
REMARK INTER:                  -4.138
REMARK INTRA:                   0.000
REMARK UNBOUND:                 0.000
REMARK SMILES CC(C)=C1CC[C@@H](C)CC1=O
REMARK SMILES IDX 8 1 7 2 6 3 5 4 4 5 2 6 1 7 3 8 10 9 11 10 9 11
REMARK H PARENT
REMARK Flexibility Score: inf
ROOT
ATOM      1  C   UNL     1       6.624  71.070 -30.099  1.00  0.00     0.008 C 
ATOM      2  C   UNL     1       7.345  72.340 -30.564  1.00  0.00    -0.006 C 
ATOM      3  C   UNL     1       8.811  72.331 -30.098  1.00  0.00     0.008 C 
ATOM      4  C   UNL     1       9.575  73.546 -30.640  1.00  0.00     0.039 C 
ATOM      5  C   UNL     1       8.874  74.862 -30.335  1.00  0.00    -0.006 C 
ATOM      6  C   UNL     1       9.580  76.011 -30.124  1.00  0.00    -0.070 C 
ATOM      7  C   UNL     1       8.898  77.312 -29.766  1.00  0.00     0.039 C 
ATOM      8  C   UNL     1      11.090  76.028 -30.204  1.00  0.00     0.039 C 
ATOM      9  C   UNL     1       7.382  74.838 -30.396  1.00  0.00     0.159 C 
ATOM     10  O   UNL     1       6.725  75.851 -30.760  1.00  0.00    -0.295 OA
ATOM     11  C   UNL     1       6.633  73.591 -30.028  1.00  0.00     0.084 C 
ENDROOT
TORSDOF 0
ENDMDL
MODEL 7
REMARK VINA RESULT:    -4.126      4.432      6.668
REMARK INTER + INTRA:          -4.126
REMARK INTER:                  -4.126
REMARK INTRA:                   0.000
REMARK UNBOUND:                 0.000
REMARK SMILES CC(C)=C1CC[C@@H](C)CC1=O
REMARK SMILES IDX 8 1 7 2 6 3 5 4 4 5 2 6 1 7 3 8 10 9 11 10 9 11
REMARK H PARENT
REMARK Flexibility Score: inf
ROOT
ATOM      1  C   UNL     1      13.149  71.873 -26.766  1.00  0.00     0.008 C 
ATOM      2  C   UNL     1      13.711  73.288 -26.585  1.00  0.00    -0.006 C 
ATOM      3  C   UNL     1      14.115  73.526 -25.121  1.00  0.00     0.008 C 
ATOM      4  C   UNL     1      14.774  74.900 -24.941  1.00  0.00     0.039 C 
ATOM      5  C   UNL     1      13.928  76.032 -25.506  1.00  0.00    -0.006 C 
ATOM      6  C   UNL     1      13.944  77.278 -24.946  1.00  0.00    -0.070 C 
ATOM      7  C   UNL     1      13.067  78.395 -25.463  1.00  0.00     0.039 C 
ATOM      8  C   UNL     1      14.818  77.589 -23.753  1.00  0.00     0.039 C 
ATOM      9  C   UNL     1      13.181  75.728 -26.762  1.00  0.00     0.159 C 
ATOM     10  O   UNL     1      12.962  76.620 -27.626  1.00  0.00    -0.295 OA
ATOM     11  C   UNL     1      12.679  74.337 -27.022  1.00  0.00     0.084 C 
ENDROOT
TORSDOF 0
ENDMDL
MODEL 8
REMARK VINA RESULT:    -4.069     14.648     16.319
REMARK INTER + INTRA:          -4.069
REMARK INTER:                  -4.069
REMARK INTRA:                   0.000
REMARK UNBOUND:                 0.000
REMARK SMILES CC(C)=C1CC[C@@H](C)CC1=O
REMARK SMILES IDX 8 1 7 2 6 3 5 4 4 5 2 6 1 7 3 8 10 9 11 10 9 11
REMARK H PARENT
REMARK Flexibility Score: inf
ROOT
ATOM      1  C   UNL     1       9.788  78.351 -17.940  1.00  0.00     0.008 C 
ATOM      2  C   UNL     1       8.571  78.171 -17.026  1.00  0.00    -0.006 C 
ATOM      3  C   UNL     1       8.064  76.721 -17.081  1.00  0.00     0.008 C 
ATOM      4  C   UNL     1       6.910  76.496 -16.096  1.00  0.00     0.039 C 
ATOM      5  C   UNL     1       5.790  77.515 -16.264  1.00  0.00    -0.006 C 
ATOM      6  C   UNL     1       4.489  77.187 -16.014  1.00  0.00    -0.070 C 
ATOM      7  C   UNL     1       3.363  78.172 -16.232  1.00  0.00     0.039 C 
ATOM      8  C   UNL     1       4.106  75.803 -15.541  1.00  0.00     0.039 C 
ATOM      9  C   UNL     1       6.216  78.905 -16.603  1.00  0.00     0.159 C 
ATOM     10  O   UNL     1       5.562  79.906 -16.202  1.00  0.00    -0.295 OA
ATOM     11  C   UNL     1       7.448  79.136 -17.429  1.00  0.00     0.084 C 
ENDROOT
TORSDOF 0
ENDMDL
MODEL 9
REMARK VINA RESULT:    -4.039     12.528     15.055
REMARK INTER + INTRA:          -4.039
REMARK INTER:                  -4.039
REMARK INTRA:                   0.000
REMARK UNBOUND:                 0.000
REMARK SMILES CC(C)=C1CC[C@@H](C)CC1=O
REMARK SMILES IDX 8 1 7 2 6 3 5 4 4 5 2 6 1 7 3 8 10 9 11 10 9 11
REMARK H PARENT
REMARK Flexibility Score: inf
ROOT
ATOM      1  C   UNL     1       0.399  81.369 -29.361  1.00  0.00     0.008 C 
ATOM      2  C   UNL     1       1.204  80.100 -29.056  1.00  0.00    -0.006 C 
ATOM      3  C   UNL     1       2.115  79.739 -30.240  1.00  0.00     0.008 C 
ATOM      4  C   UNL     1       3.002  78.531 -29.914  1.00  0.00     0.039 C 
ATOM      5  C   UNL     1       2.202  77.339 -29.407  1.00  0.00    -0.006 C 
ATOM      6  C   UNL     1       2.603  76.057 -29.657  1.00  0.00    -0.070 C 
ATOM      7  C   UNL     1       1.788  74.866 -29.208  1.00  0.00     0.039 C 
ATOM      8  C   UNL     1       3.870  75.769 -30.430  1.00  0.00     0.039 C 
ATOM      9  C   UNL     1       1.033  77.657 -28.534  1.00  0.00     0.159 C 
ATOM     10  O   UNL     1       0.675  76.878 -27.610  1.00  0.00    -0.295 OA
ATOM     11  C   UNL     1       0.262  78.928 -28.743  1.00  0.00     0.084 C 
ENDROOT
TORSDOF 0
ENDMDL
