MODEL 1
REMARK VINA RESULT:    -4.124      0.000      0.000
REMARK INTER + INTRA:          -9.308
REMARK INTER:                  -7.499
REMARK INTRA:                  -1.809
REMARK UNBOUND:                -1.809
REMARK SMILES CCCCCCCCCCCCCC[C@H](C)C(=O)[O-]
REMARK SMILES IDX 9 1 10 2 11 3 12 4 13 5 14 6 15 7 16 8 17 9 18 10 19 11 8 12
REMARK SMILES IDX 7 13 6 14 5 15 4 16 3 17 2 18 1 19
REMARK H PARENT
REMARK Flexibility Score: inf
ROOT
ATOM      1  C   UNL     1      -2.760   9.146 -59.144  1.00  0.00     0.000 C 
ENDROOT
BRANCH   1   2
ATOM      2  C   UNL     1      -1.504   8.275 -58.958  1.00  0.00     0.000 C 
BRANCH   2   3
ATOM      3  C   UNL     1      -1.802   6.770 -59.010  1.00  0.00     0.000 C 
BRANCH   3   4
ATOM      4  C   UNL     1      -0.736   5.971 -58.244  1.00  0.00     0.000 C 
BRANCH   4   5
ATOM      5  C   UNL     1      -1.344   5.003 -57.215  1.00  0.00     0.001 C 
BRANCH   5   6
ATOM      6  C   UNL     1      -0.620   5.056 -55.855  1.00  0.00     0.009 C 
BRANCH   6   7
ATOM      7  C   UNL     1      -1.387   5.823 -54.755  1.00  0.00     0.032 C 
ATOM      8  C   UNL     1      -1.406   7.341 -54.990  1.00  0.00     0.014 C 
BRANCH   7   9
ATOM      9  C   UNL     1      -0.884   5.475 -53.378  1.00  0.00     0.044 C 
ATOM     10  O   UNL     1      -1.557   5.759 -52.352  1.00  0.00    -0.550 OA
ATOM     11  O   UNL     1       0.363   4.879 -53.232  1.00  0.00    -0.550 OA
ENDBRANCH   7   9
ENDBRANCH   6   7
ENDBRANCH   5   6
ENDBRANCH   4   5
ENDBRANCH   3   4
ENDBRANCH   2   3
ENDBRANCH   1   2
BRANCH   1  12
ATOM     12  C   UNL     1      -3.541   9.459 -57.855  1.00  0.00     0.000 C 
BRANCH  12  13
ATOM     13  C   UNL     1      -4.713   8.493 -57.614  1.00  0.00    -0.000 C 
BRANCH  13  14
ATOM     14  C   UNL     1      -4.467   7.535 -56.435  1.00  0.00    -0.000 C 
BRANCH  14  15
ATOM     15  C   UNL     1      -4.862   6.064 -56.684  1.00  0.00    -0.000 C 
BRANCH  15  16
ATOM     16  C   UNL     1      -5.689   5.818 -57.957  1.00  0.00    -0.000 C 
BRANCH  16  17
ATOM     17  C   UNL     1      -6.931   4.947 -57.700  1.00  0.00    -0.000 C 
BRANCH  17  18
ATOM     18  C   UNL     1      -8.235   5.757 -57.746  1.00  0.00    -0.003 C 
ATOM     19  C   UNL     1      -9.479   4.878 -57.613  1.00  0.00     0.004 C 
ENDBRANCH  17  18
ENDBRANCH  16  17
ENDBRANCH  15  16
ENDBRANCH  14  15
ENDBRANCH  13  14
ENDBRANCH  12  13
ENDBRANCH   1  12
TORSDOF 14
ENDMDL
MODEL 2
REMARK VINA RESULT:    -4.098      1.606      3.525
REMARK INTER + INTRA:          -9.262
REMARK INTER:                  -6.985
REMARK INTRA:                  -2.277
REMARK UNBOUND:                -1.809
REMARK SMILES CCCCCCCCCCCCCC[C@H](C)C(=O)[O-]
REMARK SMILES IDX 9 1 10 2 11 3 12 4 13 5 14 6 15 7 16 8 17 9 18 10 19 11 8 12
REMARK SMILES IDX 7 13 6 14 5 15 4 16 3 17 2 18 1 19
REMARK H PARENT
REMARK Flexibility Score: inf
ROOT
ATOM      1  C   UNL     1      -4.207   8.639 -57.690  1.00  0.00     0.000 C 
ENDROOT
BRANCH   1   2
ATOM      2  C   UNL     1      -3.965   8.299 -56.208  1.00  0.00     0.000 C 
BRANCH   2   3
ATOM      3  C   UNL     1      -2.584   7.676 -55.951  1.00  0.00     0.000 C 
BRANCH   3   4
ATOM      4  C   UNL     1      -2.697   6.159 -55.735  1.00  0.00     0.000 C 
BRANCH   4   5
ATOM      5  C   UNL     1      -1.332   5.489 -55.503  1.00  0.00     0.001 C 
BRANCH   5   6
ATOM      6  C   UNL     1      -1.189   4.919 -54.078  1.00  0.00     0.009 C 
BRANCH   6   7
ATOM      7  C   UNL     1      -1.228   5.984 -52.959  1.00  0.00     0.032 C 
ATOM      8  C   UNL     1      -0.128   7.047 -53.109  1.00  0.00     0.014 C 
BRANCH   7   9
ATOM      9  C   UNL     1      -1.218   5.356 -51.590  1.00  0.00     0.044 C 
ATOM     10  O   UNL     1      -2.288   5.185 -50.948  1.00  0.00    -0.550 OA
ATOM     11  O   UNL     1      -0.008   5.007 -51.002  1.00  0.00    -0.550 OA
ENDBRANCH   7   9
ENDBRANCH   6   7
ENDBRANCH   5   6
ENDBRANCH   4   5
ENDBRANCH   3   4
ENDBRANCH   2   3
ENDBRANCH   1   2
BRANCH   1  12
ATOM     12  C   UNL     1      -5.426   7.952 -58.332  1.00  0.00     0.000 C 
BRANCH  12  13
ATOM     13  C   UNL     1      -6.028   6.849 -57.446  1.00  0.00    -0.000 C 
BRANCH  13  14
ATOM     14  C   UNL     1      -6.002   5.463 -58.115  1.00  0.00    -0.000 C 
BRANCH  14  15
ATOM     15  C   UNL     1      -4.599   4.919 -58.455  1.00  0.00    -0.000 C 
BRANCH  15  16
ATOM     16  C   UNL     1      -4.262   4.876 -59.956  1.00  0.00    -0.000 C 
BRANCH  16  17
ATOM     17  C   UNL     1      -3.096   5.806 -60.330  1.00  0.00    -0.000 C 
BRANCH  17  18
ATOM     18  C   UNL     1      -2.053   5.921 -59.208  1.00  0.00    -0.003 C 
ATOM     19  C   UNL     1      -1.222   7.201 -59.305  1.00  0.00     0.004 C 
ENDBRANCH  17  18
ENDBRANCH  16  17
ENDBRANCH  15  16
ENDBRANCH  14  15
ENDBRANCH  13  14
ENDBRANCH  12  13
ENDBRANCH   1  12
TORSDOF 14
ENDMDL
MODEL 3
REMARK VINA RESULT:    -4.023     12.177     15.056
REMARK INTER + INTRA:          -9.124
REMARK INTER:                  -7.110
REMARK INTRA:                  -2.014
REMARK UNBOUND:                -1.809
REMARK SMILES CCCCCCCCCCCCCC[C@H](C)C(=O)[O-]
REMARK SMILES IDX 9 1 10 2 11 3 12 4 13 5 14 6 15 7 16 8 17 9 18 10 19 11 8 12
REMARK SMILES IDX 7 13 6 14 5 15 4 16 3 17 2 18 1 19
REMARK H PARENT
REMARK Flexibility Score: inf
ROOT
ATOM      1  C   UNL     1      -4.403  20.324 -64.094  1.00  0.00     0.000 C 
ENDROOT
BRANCH   1   2
ATOM      2  C   UNL     1      -4.550  19.102 -65.020  1.00  0.00     0.000 C 
BRANCH   2   3
ATOM      3  C   UNL     1      -5.996  18.597 -65.125  1.00  0.00     0.000 C 
BRANCH   3   4
ATOM      4  C   UNL     1      -6.117  17.161 -64.594  1.00  0.00     0.000 C 
BRANCH   4   5
ATOM      5  C   UNL     1      -6.202  17.100 -63.059  1.00  0.00     0.001 C 
BRANCH   5   6
ATOM      6  C   UNL     1      -7.426  17.856 -62.505  1.00  0.00     0.009 C 
BRANCH   6   7
ATOM      7  C   UNL     1      -8.504  16.947 -61.874  1.00  0.00     0.032 C 
ATOM      8  C   UNL     1      -7.963  16.097 -60.714  1.00  0.00     0.014 C 
BRANCH   7   9
ATOM      9  C   UNL     1      -9.199  16.104 -62.911  1.00  0.00     0.044 C 
ATOM     10  O   UNL     1      -9.389  14.873 -62.724  1.00  0.00    -0.550 OA
ATOM     11  O   UNL     1      -9.591  16.679 -64.114  1.00  0.00    -0.550 OA
ENDBRANCH   7   9
ENDBRANCH   6   7
ENDBRANCH   5   6
ENDBRANCH   4   5
ENDBRANCH   3   4
ENDBRANCH   2   3
ENDBRANCH   1   2
BRANCH   1  12
ATOM     12  C   UNL     1      -5.193  21.573 -64.523  1.00  0.00     0.000 C 
BRANCH  12  13
ATOM     13  C   UNL     1      -6.364  21.895 -63.579  1.00  0.00    -0.000 C 
BRANCH  13  14
ATOM     14  C   UNL     1      -6.030  23.008 -62.569  1.00  0.00    -0.000 C 
BRANCH  14  15
ATOM     15  C   UNL     1      -5.884  22.548 -61.103  1.00  0.00    -0.000 C 
BRANCH  15  16
ATOM     16  C   UNL     1      -6.307  21.095 -60.830  1.00  0.00    -0.000 C 
BRANCH  16  17
ATOM     17  C   UNL     1      -5.360  20.372 -59.858  1.00  0.00    -0.000 C 
BRANCH  17  18
ATOM     18  C   UNL     1      -4.632  19.190 -60.515  1.00  0.00    -0.003 C 
ATOM     19  C   UNL     1      -3.977  18.259 -59.494  1.00  0.00     0.004 C 
ENDBRANCH  17  18
ENDBRANCH  16  17
ENDBRANCH  15  16
ENDBRANCH  14  15
ENDBRANCH  13  14
ENDBRANCH  12  13
ENDBRANCH   1  12
TORSDOF 14
ENDMDL
MODEL 4
REMARK VINA RESULT:    -4.008      1.401      2.295
REMARK INTER + INTRA:          -9.097
REMARK INTER:                  -7.035
REMARK INTRA:                  -2.062
REMARK UNBOUND:                -1.809
REMARK SMILES CCCCCCCCCCCCCC[C@H](C)C(=O)[O-]
REMARK SMILES IDX 9 1 10 2 11 3 12 4 13 5 14 6 15 7 16 8 17 9 18 10 19 11 8 12
REMARK SMILES IDX 7 13 6 14 5 15 4 16 3 17 2 18 1 19
REMARK H PARENT
REMARK Flexibility Score: inf
ROOT
ATOM      1  C   UNL     1      -3.675   9.166 -58.365  1.00  0.00     0.000 C 
ENDROOT
BRANCH   1   2
ATOM      2  C   UNL     1      -2.718   8.022 -57.985  1.00  0.00     0.000 C 
BRANCH   2   3
ATOM      3  C   UNL     1      -1.773   7.624 -59.129  1.00  0.00     0.000 C 
BRANCH   3   4
ATOM      4  C   UNL     1      -0.621   6.749 -58.611  1.00  0.00     0.000 C 
BRANCH   4   5
ATOM      5  C   UNL     1      -1.102   5.629 -57.673  1.00  0.00     0.001 C 
BRANCH   5   6
ATOM      6  C   UNL     1      -0.176   5.441 -56.455  1.00  0.00     0.009 C 
BRANCH   6   7
ATOM      7  C   UNL     1      -0.903   4.996 -55.166  1.00  0.00     0.032 C 
ATOM      8  C   UNL     1      -2.433   5.079 -55.285  1.00  0.00     0.014 C 
BRANCH   7   9
ATOM      9  C   UNL     1      -0.393   5.732 -53.955  1.00  0.00     0.044 C 
ATOM     10  O   UNL     1      -0.561   5.269 -52.796  1.00  0.00    -0.550 OA
ATOM     11  O   UNL     1       0.225   6.967 -54.112  1.00  0.00    -0.550 OA
ENDBRANCH   7   9
ENDBRANCH   6   7
ENDBRANCH   5   6
ENDBRANCH   4   5
ENDBRANCH   3   4
ENDBRANCH   2   3
ENDBRANCH   1   2
BRANCH   1  12
ATOM     12  C   UNL     1      -5.083   8.728 -58.806  1.00  0.00     0.000 C 
BRANCH  12  13
ATOM     13  C   UNL     1      -6.040   8.504 -57.623  1.00  0.00    -0.000 C 
BRANCH  13  14
ATOM     14  C   UNL     1      -7.227   7.590 -57.978  1.00  0.00    -0.000 C 
BRANCH  14  15
ATOM     15  C   UNL     1      -7.068   6.110 -57.567  1.00  0.00    -0.000 C 
BRANCH  15  16
ATOM     16  C   UNL     1      -5.726   5.760 -56.901  1.00  0.00    -0.000 C 
BRANCH  16  17
ATOM     17  C   UNL     1      -4.835   4.875 -57.788  1.00  0.00    -0.000 C 
BRANCH  17  18
ATOM     18  C   UNL     1      -5.041   5.149 -59.286  1.00  0.00    -0.003 C 
ATOM     19  C   UNL     1      -3.749   5.018 -60.092  1.00  0.00     0.004 C 
ENDBRANCH  17  18
ENDBRANCH  16  17
ENDBRANCH  15  16
ENDBRANCH  14  15
ENDBRANCH  13  14
ENDBRANCH  12  13
ENDBRANCH   1  12
TORSDOF 14
ENDMDL
MODEL 5
REMARK VINA RESULT:    -3.918      1.528      2.058
REMARK INTER + INTRA:          -8.933
REMARK INTER:                  -7.650
REMARK INTRA:                  -1.283
REMARK UNBOUND:                -1.809
REMARK SMILES CCCCCCCCCCCCCC[C@H](C)C(=O)[O-]
REMARK SMILES IDX 9 1 10 2 11 3 12 4 13 5 14 6 15 7 16 8 17 9 18 10 19 11 8 12
REMARK SMILES IDX 7 13 6 14 5 15 4 16 3 17 2 18 1 19
REMARK H PARENT
REMARK Flexibility Score: inf
ROOT
ATOM      1  C   UNL     1      -1.594   7.985 -58.880  1.00  0.00     0.000 C 
ENDROOT
BRANCH   1   2
ATOM      2  C   UNL     1      -0.603   6.825 -58.679  1.00  0.00     0.000 C 
BRANCH   2   3
ATOM      3  C   UNL     1      -1.277   5.446 -58.703  1.00  0.00     0.000 C 
BRANCH   3   4
ATOM      4  C   UNL     1      -1.414   4.875 -57.283  1.00  0.00     0.000 C 
BRANCH   4   5
ATOM      5  C   UNL     1      -0.332   5.401 -56.325  1.00  0.00     0.001 C 
BRANCH   5   6
ATOM      6  C   UNL     1      -0.517   4.885 -54.884  1.00  0.00     0.009 C 
BRANCH   6   7
ATOM      7  C   UNL     1       0.053   5.821 -53.795  1.00  0.00     0.032 C 
ATOM      8  C   UNL     1      -0.228   5.318 -52.371  1.00  0.00     0.014 C 
BRANCH   7   9
ATOM      9  C   UNL     1      -0.402   7.244 -53.988  1.00  0.00     0.044 C 
ATOM     10  O   UNL     1      -1.571   7.503 -54.380  1.00  0.00    -0.550 OA
ATOM     11  O   UNL     1       0.495   8.286 -53.782  1.00  0.00    -0.550 OA
ENDBRANCH   7   9
ENDBRANCH   6   7
ENDBRANCH   5   6
ENDBRANCH   4   5
ENDBRANCH   3   4
ENDBRANCH   2   3
ENDBRANCH   1   2
BRANCH   1  12
ATOM     12  C   UNL     1      -2.860   7.929 -58.006  1.00  0.00     0.000 C 
BRANCH  12  13
ATOM     13  C   UNL     1      -4.157   8.083 -58.818  1.00  0.00    -0.000 C 
BRANCH  13  14
ATOM     14  C   UNL     1      -4.637   6.757 -59.437  1.00  0.00    -0.000 C 
BRANCH  14  15
ATOM     15  C   UNL     1      -4.901   5.616 -58.432  1.00  0.00    -0.000 C 
BRANCH  15  16
ATOM     16  C   UNL     1      -5.792   5.994 -57.237  1.00  0.00    -0.000 C 
BRANCH  16  17
ATOM     17  C   UNL     1      -7.143   5.259 -57.246  1.00  0.00    -0.000 C 
BRANCH  17  18
ATOM     18  C   UNL     1      -8.292   6.146 -57.748  1.00  0.00    -0.003 C 
ATOM     19  C   UNL     1      -7.867   7.601 -57.952  1.00  0.00     0.004 C 
ENDBRANCH  17  18
ENDBRANCH  16  17
ENDBRANCH  15  16
ENDBRANCH  14  15
ENDBRANCH  13  14
ENDBRANCH  12  13
ENDBRANCH   1  12
TORSDOF 14
ENDMDL
MODEL 6
REMARK VINA RESULT:    -3.849      3.281      6.806
REMARK INTER + INTRA:          -8.808
REMARK INTER:                  -7.515
REMARK INTRA:                  -1.294
REMARK UNBOUND:                -1.809
REMARK SMILES CCCCCCCCCCCCCC[C@H](C)C(=O)[O-]
REMARK SMILES IDX 9 1 10 2 11 3 12 4 13 5 14 6 15 7 16 8 17 9 18 10 19 11 8 12
REMARK SMILES IDX 7 13 6 14 5 15 4 16 3 17 2 18 1 19
REMARK H PARENT
REMARK Flexibility Score: inf
ROOT
ATOM      1  C   UNL     1      -1.765   6.465 -57.181  1.00  0.00     0.000 C 
ENDROOT
BRANCH   1   2
ATOM      2  C   UNL     1      -1.813   7.082 -58.591  1.00  0.00     0.000 C 
BRANCH   2   3
ATOM      3  C   UNL     1      -2.232   6.077 -59.673  1.00  0.00     0.000 C 
BRANCH   3   4
ATOM      4  C   UNL     1      -3.737   6.180 -59.966  1.00  0.00     0.000 C 
BRANCH   4   5
ATOM      5  C   UNL     1      -4.570   5.173 -59.155  1.00  0.00     0.001 C 
BRANCH   5   6
ATOM      6  C   UNL     1      -5.225   5.813 -57.915  1.00  0.00     0.009 C 
BRANCH   6   7
ATOM      7  C   UNL     1      -5.885   7.185 -58.180  1.00  0.00     0.032 C 
ATOM      8  C   UNL     1      -5.169   8.339 -57.461  1.00  0.00     0.014 C 
BRANCH   7   9
ATOM      9  C   UNL     1      -7.360   7.163 -57.877  1.00  0.00     0.044 C 
ATOM     10  O   UNL     1      -7.959   6.078 -57.654  1.00  0.00    -0.550 OA
ATOM     11  O   UNL     1      -8.084   8.349 -57.896  1.00  0.00    -0.550 OA
ENDBRANCH   7   9
ENDBRANCH   6   7
ENDBRANCH   5   6
ENDBRANCH   4   5
ENDBRANCH   3   4
ENDBRANCH   2   3
ENDBRANCH   1   2
BRANCH   1  12
ATOM     12  C   UNL     1      -0.960   5.158 -57.061  1.00  0.00     0.000 C 
BRANCH  12  13
ATOM     13  C   UNL     1      -0.150   5.071 -55.756  1.00  0.00    -0.000 C 
BRANCH  13  14
ATOM     14  C   UNL     1       0.077   6.444 -55.099  1.00  0.00    -0.000 C 
BRANCH  14  15
ATOM     15  C   UNL     1      -0.257   6.519 -53.594  1.00  0.00    -0.000 C 
BRANCH  15  16
ATOM     16  C   UNL     1      -0.159   5.184 -52.837  1.00  0.00    -0.000 C 
BRANCH  16  17
ATOM     17  C   UNL     1      -0.956   5.186 -51.521  1.00  0.00    -0.000 C 
BRANCH  17  18
ATOM     18  C   UNL     1      -0.063   5.421 -50.294  1.00  0.00    -0.003 C 
ATOM     19  C   UNL     1      -0.868   5.706 -49.025  1.00  0.00     0.004 C 
ENDBRANCH  17  18
ENDBRANCH  16  17
ENDBRANCH  15  16
ENDBRANCH  14  15
ENDBRANCH  13  14
ENDBRANCH  12  13
ENDBRANCH   1  12
TORSDOF 14
ENDMDL
MODEL 7
REMARK VINA RESULT:    -3.837     12.402     15.303
REMARK INTER + INTRA:          -8.787
REMARK INTER:                  -6.625
REMARK INTRA:                  -2.162
REMARK UNBOUND:                -1.809
REMARK SMILES CCCCCCCCCCCCCC[C@H](C)C(=O)[O-]
REMARK SMILES IDX 9 1 10 2 11 3 12 4 13 5 14 6 15 7 16 8 17 9 18 10 19 11 8 12
REMARK SMILES IDX 7 13 6 14 5 15 4 16 3 17 2 18 1 19
REMARK H PARENT
REMARK Flexibility Score: inf
ROOT
ATOM      1  C   UNL     1      -5.809  20.505 -59.622  1.00  0.00     0.000 C 
ENDROOT
BRANCH   1   2
ATOM      2  C   UNL     1      -4.625  19.622 -59.186  1.00  0.00     0.000 C 
BRANCH   2   3
ATOM      3  C   UNL     1      -4.319  18.492 -60.180  1.00  0.00     0.000 C 
BRANCH   3   4
ATOM      4  C   UNL     1      -5.394  17.396 -60.113  1.00  0.00     0.000 C 
BRANCH   4   5
ATOM      5  C   UNL     1      -5.967  17.042 -61.496  1.00  0.00     0.001 C 
BRANCH   5   6
ATOM      6  C   UNL     1      -7.385  17.608 -61.709  1.00  0.00     0.009 C 
BRANCH   6   7
ATOM      7  C   UNL     1      -7.916  17.467 -63.154  1.00  0.00     0.032 C 
ATOM      8  C   UNL     1      -8.400  18.801 -63.743  1.00  0.00     0.014 C 
BRANCH   7   9
ATOM      9  C   UNL     1      -8.966  16.393 -63.260  1.00  0.00     0.044 C 
ATOM     10  O   UNL     1      -9.214  15.631 -62.288  1.00  0.00    -0.550 OA
ATOM     11  O   UNL     1      -9.636  16.202 -64.463  1.00  0.00    -0.550 OA
ENDBRANCH   7   9
ENDBRANCH   6   7
ENDBRANCH   5   6
ENDBRANCH   4   5
ENDBRANCH   3   4
ENDBRANCH   2   3
ENDBRANCH   1   2
BRANCH   1  12
ATOM     12  C   UNL     1      -5.807  20.924 -61.103  1.00  0.00     0.000 C 
BRANCH  12  13
ATOM     13  C   UNL     1      -5.784  22.450 -61.295  1.00  0.00    -0.000 C 
BRANCH  13  14
ATOM     14  C   UNL     1      -5.943  22.871 -62.767  1.00  0.00    -0.000 C 
BRANCH  14  15
ATOM     15  C   UNL     1      -6.051  21.711 -63.779  1.00  0.00    -0.000 C 
BRANCH  15  16
ATOM     16  C   UNL     1      -5.117  21.819 -64.996  1.00  0.00    -0.000 C 
BRANCH  16  17
ATOM     17  C   UNL     1      -4.012  20.749 -64.995  1.00  0.00    -0.000 C 
BRANCH  17  18
ATOM     18  C   UNL     1      -4.416  19.489 -64.216  1.00  0.00    -0.003 C 
ATOM     19  C   UNL     1      -4.948  18.380 -65.125  1.00  0.00     0.004 C 
ENDBRANCH  17  18
ENDBRANCH  16  17
ENDBRANCH  15  16
ENDBRANCH  14  15
ENDBRANCH  13  14
ENDBRANCH  12  13
ENDBRANCH   1  12
TORSDOF 14
ENDMDL
