MODEL 1
REMARK VINA RESULT:    -6.313      0.000      0.000
REMARK INTER + INTRA:          -7.850
REMARK INTER:                  -7.789
REMARK INTRA:                  -0.061
REMARK UNBOUND:                -0.061
REMARK SMILES O=c1c(O)c(-c2cc(O)c(O)c(O)c2)oc2cc(O)cc(O)c12
REMARK SMILES IDX 5 1 3 2 2 3 1 4 23 5 21 6 20 7 18 8 17 9 16 10 15 11 6 12
REMARK SMILES IDX 7 13 8 14 14 15 10 16 12 17 9 18 11 20 13 22 4 24 22 26
REMARK SMILES IDX 19 28
REMARK H PARENT 9 19 11 21 13 23 4 25 22 27 19 29
REMARK Flexibility Score: inf
ROOT
ATOM      1  C   UNL     1     129.556 131.783 113.772  1.00  0.00     0.180 A 
ATOM      2  C   UNL     1     130.309 130.655 113.391  1.00  0.00     0.208 A 
ATOM      3  C   UNL     1     130.155 130.144 112.093  1.00  0.00     0.238 A 
ATOM      4  O   UNL     1     130.817 129.129 111.744  1.00  0.00    -0.285 OA
ATOM      5  C   UNL     1     129.273 130.778 111.195  1.00  0.00     0.111 A 
ATOM      6  C   UNL     1     129.063 130.328 109.868  1.00  0.00     0.134 A 
ATOM      7  C   UNL     1     128.173 131.018 109.032  1.00  0.00     0.093 A 
ATOM      8  C   UNL     1     127.490 132.148 109.496  1.00  0.00     0.123 A 
ATOM      9  C   UNL     1     127.693 132.594 110.803  1.00  0.00     0.094 A 
ATOM     10  C   UNL     1     128.574 131.918 111.653  1.00  0.00     0.146 A 
ATOM     11  O   UNL     1     128.744 132.362 112.893  1.00  0.00    -0.452 OA
ENDROOT
BRANCH   1  12
ATOM     12  C   UNL     1     129.649 132.368 115.129  1.00  0.00     0.029 A 
ATOM     13  C   UNL     1     128.504 132.588 115.910  1.00  0.00     0.062 A 
ATOM     14  C   UNL     1     128.607 133.163 117.179  1.00  0.00     0.162 A 
ATOM     15  C   UNL     1     130.897 132.769 115.624  1.00  0.00     0.062 A 
ATOM     16  C   UNL     1     129.863 133.543 117.686  1.00  0.00     0.200 A 
ATOM     17  C   UNL     1     131.020 133.345 116.893  1.00  0.00     0.162 A 
BRANCH  14  18
ATOM     18  O   UNL     1     127.442 133.357 117.923  1.00  0.00    -0.504 OA
ATOM     19  H   UNL     1     126.530 133.072 117.586  1.00  0.00     0.293 HD
ENDBRANCH  14  18
BRANCH  16  20
ATOM     20  O   UNL     1     129.922 134.107 118.963  1.00  0.00    -0.502 OA
ATOM     21  H   UNL     1     129.968 135.099 119.144  1.00  0.00     0.293 HD
ENDBRANCH  16  20
BRANCH  17  22
ATOM     22  O   UNL     1     132.299 133.706 117.321  1.00  0.00    -0.504 OA
ATOM     23  H   UNL     1     132.486 134.263 118.142  1.00  0.00     0.293 HD
ENDBRANCH  17  22
ENDBRANCH   1  12
BRANCH   2  24
ATOM     24  O   UNL     1     131.215 130.077 114.284  1.00  0.00    -0.502 OA
ATOM     25  H   UNL     1     132.179 129.891 114.035  1.00  0.00     0.293 HD
ENDBRANCH   2  24
BRANCH   6  26
ATOM     26  O   UNL     1     129.731 129.205 109.377  1.00  0.00    -0.507 OA
ATOM     27  H   UNL     1     130.736 129.201 109.241  1.00  0.00     0.293 HD
ENDBRANCH   6  26
BRANCH   8  28
ATOM     28  O   UNL     1     126.606 132.834 108.666  1.00  0.00    -0.508 OA
ATOM     29  H   UNL     1     126.470 132.564 107.700  1.00  0.00     0.293 HD
ENDBRANCH   8  28
TORSDOF 7
ENDMDL
MODEL 2
REMARK VINA RESULT:    -6.269      1.555      2.382
REMARK INTER + INTRA:          -7.796
REMARK INTER:                  -7.455
REMARK INTRA:                  -0.340
REMARK UNBOUND:                -0.061
REMARK SMILES O=c1c(O)c(-c2cc(O)c(O)c(O)c2)oc2cc(O)cc(O)c12
REMARK SMILES IDX 5 1 3 2 2 3 1 4 23 5 21 6 20 7 18 8 17 9 16 10 15 11 6 12
REMARK SMILES IDX 7 13 8 14 14 15 10 16 12 17 9 18 11 20 13 22 4 24 22 26
REMARK SMILES IDX 19 28
REMARK H PARENT 9 19 11 21 13 23 4 25 22 27 19 29
REMARK Flexibility Score: inf
ROOT
ATOM      1  C   UNL     1     129.885 130.979 114.975  1.00  0.00     0.180 A 
ATOM      2  C   UNL     1     130.737 129.884 114.728  1.00  0.00     0.208 A 
ATOM      3  C   UNL     1     130.903 129.440 113.406  1.00  0.00     0.238 A 
ATOM      4  O   UNL     1     131.654 128.454 113.174  1.00  0.00    -0.285 OA
ATOM      5  C   UNL     1     130.238 130.106 112.358  1.00  0.00     0.111 A 
ATOM      6  C   UNL     1     130.355 129.723 110.999  1.00  0.00     0.134 A 
ATOM      7  C   UNL     1     129.666 130.443 110.012  1.00  0.00     0.093 A 
ATOM      8  C   UNL     1     128.864 131.537 110.356  1.00  0.00     0.123 A 
ATOM      9  C   UNL     1     128.744 131.917 111.694  1.00  0.00     0.094 A 
ATOM     10  C   UNL     1     129.421 131.211 112.694  1.00  0.00     0.146 A 
ATOM     11  O   UNL     1     129.285 131.592 113.958  1.00  0.00    -0.452 OA
ENDROOT
BRANCH   1  12
ATOM     12  C   UNL     1     129.644 131.494 116.341  1.00  0.00     0.029 A 
ATOM     13  C   UNL     1     130.372 132.580 116.852  1.00  0.00     0.062 A 
ATOM     14  C   UNL     1     130.148 133.038 118.153  1.00  0.00     0.162 A 
ATOM     15  C   UNL     1     128.711 130.852 117.167  1.00  0.00     0.062 A 
ATOM     16  C   UNL     1     129.194 132.408 118.974  1.00  0.00     0.200 A 
ATOM     17  C   UNL     1     128.473 131.298 118.471  1.00  0.00     0.162 A 
BRANCH  14  18
ATOM     18  O   UNL     1     130.891 134.125 118.617  1.00  0.00    -0.504 OA
ATOM     19  H   UNL     1     131.278 134.823 117.993  1.00  0.00     0.293 HD
ENDBRANCH  14  18
BRANCH  16  20
ATOM     20  O   UNL     1     128.995 132.904 120.265  1.00  0.00    -0.502 OA
ATOM     21  H   UNL     1     128.157 132.756 120.807  1.00  0.00     0.293 HD
ENDBRANCH  16  20
BRANCH  17  22
ATOM     22  O   UNL     1     127.519 130.612 119.228  1.00  0.00    -0.504 OA
ATOM     23  H   UNL     1     127.611 129.649 119.517  1.00  0.00     0.293 HD
ENDBRANCH  17  22
ENDBRANCH   1  12
BRANCH   2  24
ATOM     24  O   UNL     1     131.424 129.274 115.780  1.00  0.00    -0.502 OA
ATOM     25  H   UNL     1     130.952 128.731 116.493  1.00  0.00     0.293 HD
ENDBRANCH   2  24
BRANCH   6  26
ATOM     26  O   UNL     1     131.149 128.638 110.626  1.00  0.00    -0.507 OA
ATOM     27  H   UNL     1     131.901 128.735 109.952  1.00  0.00     0.293 HD
ENDBRANCH   6  26
BRANCH   8  28
ATOM     28  O   UNL     1     128.180 132.253 109.376  1.00  0.00    -0.508 OA
ATOM     29  H   UNL     1     127.722 133.132 109.585  1.00  0.00     0.293 HD
ENDBRANCH   8  28
TORSDOF 7
ENDMDL
MODEL 3
REMARK VINA RESULT:    -6.121      1.620      7.125
REMARK INTER + INTRA:          -7.613
REMARK INTER:                  -7.277
REMARK INTRA:                  -0.335
REMARK UNBOUND:                -0.061
REMARK SMILES O=c1c(O)c(-c2cc(O)c(O)c(O)c2)oc2cc(O)cc(O)c12
REMARK SMILES IDX 5 1 3 2 2 3 1 4 23 5 21 6 20 7 18 8 17 9 16 10 15 11 6 12
REMARK SMILES IDX 7 13 8 14 14 15 10 16 12 17 9 18 11 20 13 22 4 24 22 26
REMARK SMILES IDX 19 28
REMARK H PARENT 9 19 11 21 13 23 4 25 22 27 19 29
REMARK Flexibility Score: inf
ROOT
ATOM      1  C   UNL     1     129.784 131.686 114.089  1.00  0.00     0.180 A 
ATOM      2  C   UNL     1     130.654 132.741 114.427  1.00  0.00     0.208 A 
ATOM      3  C   UNL     1     130.708 133.174 115.762  1.00  0.00     0.238 A 
ATOM      4  O   UNL     1     131.475 134.125 116.074  1.00  0.00    -0.285 OA
ATOM      5  C   UNL     1     129.914 132.535 116.734  1.00  0.00     0.111 A 
ATOM      6  C   UNL     1     129.912 132.908 118.101  1.00  0.00     0.134 A 
ATOM      7  C   UNL     1     129.098 132.216 119.010  1.00  0.00     0.093 A 
ATOM      8  C   UNL     1     128.287 131.160 118.580  1.00  0.00     0.123 A 
ATOM      9  C   UNL     1     128.284 130.790 117.234  1.00  0.00     0.094 A 
ATOM     10  C   UNL     1     129.086 131.468 116.311  1.00  0.00     0.146 A 
ATOM     11  O   UNL     1     129.061 131.098 115.036  1.00  0.00    -0.452 OA
ENDROOT
BRANCH   1  12
ATOM     12  C   UNL     1     129.657 131.186 112.701  1.00  0.00     0.029 A 
ATOM     13  C   UNL     1     128.900 131.877 111.743  1.00  0.00     0.062 A 
ATOM     14  C   UNL     1     128.771 131.378 110.443  1.00  0.00     0.162 A 
ATOM     15  C   UNL     1     130.254 129.968 112.348  1.00  0.00     0.062 A 
ATOM     16  C   UNL     1     129.391 130.168 110.083  1.00  0.00     0.200 A 
ATOM     17  C   UNL     1     130.137 129.455 111.053  1.00  0.00     0.162 A 
BRANCH  14  18
ATOM     18  O   UNL     1     128.014 132.102 109.521  1.00  0.00    -0.504 OA
ATOM     19  H   UNL     1     127.730 131.713 108.629  1.00  0.00     0.293 HD
ENDBRANCH  14  18
BRANCH  16  20
ATOM     20  O   UNL     1     129.244 129.710 108.771  1.00  0.00    -0.502 OA
ATOM     21  H   UNL     1     129.034 130.304 107.982  1.00  0.00     0.293 HD
ENDBRANCH  16  20
BRANCH  17  22
ATOM     22  O   UNL     1     130.771 128.241 110.776  1.00  0.00    -0.504 OA
ATOM     23  H   UNL     1     131.194 128.013 109.888  1.00  0.00     0.293 HD
ENDBRANCH  17  22
ENDBRANCH   1  12
BRANCH   2  24
ATOM     24  O   UNL     1     131.469 133.324 113.453  1.00  0.00    -0.502 OA
ATOM     25  H   UNL     1     132.474 133.200 113.441  1.00  0.00     0.293 HD
ENDBRANCH   2  24
BRANCH   6  26
ATOM     26  O   UNL     1     130.712 133.956 118.559  1.00  0.00    -0.507 OA
ATOM     27  H   UNL     1     130.315 134.844 118.843  1.00  0.00     0.293 HD
ENDBRANCH   6  26
BRANCH   8  28
ATOM     28  O   UNL     1     127.478 130.473 119.482  1.00  0.00    -0.508 OA
ATOM     29  H   UNL     1     127.804 130.238 120.412  1.00  0.00     0.293 HD
ENDBRANCH   8  28
TORSDOF 7
ENDMDL
MODEL 4
REMARK VINA RESULT:    -6.021      2.595      4.123
REMARK INTER + INTRA:          -7.490
REMARK INTER:                  -7.133
REMARK INTRA:                  -0.357
REMARK UNBOUND:                -0.061
REMARK SMILES O=c1c(O)c(-c2cc(O)c(O)c(O)c2)oc2cc(O)cc(O)c12
REMARK SMILES IDX 5 1 3 2 2 3 1 4 23 5 21 6 20 7 18 8 17 9 16 10 15 11 6 12
REMARK SMILES IDX 7 13 8 14 14 15 10 16 12 17 9 18 11 20 13 22 4 24 22 26
REMARK SMILES IDX 19 28
REMARK H PARENT 9 19 11 21 13 23 4 25 22 27 19 29
REMARK Flexibility Score: inf
ROOT
ATOM      1  C   UNL     1     129.648 131.729 116.155  1.00  0.00     0.180 A 
ATOM      2  C   UNL     1     129.626 132.465 114.953  1.00  0.00     0.208 A 
ATOM      3  C   UNL     1     130.027 131.834 113.765  1.00  0.00     0.238 A 
ATOM      4  O   UNL     1     130.021 132.486 112.685  1.00  0.00    -0.285 OA
ATOM      5  C   UNL     1     130.421 130.481 113.792  1.00  0.00     0.111 A 
ATOM      6  C   UNL     1     130.835 129.772 112.639  1.00  0.00     0.134 A 
ATOM      7  C   UNL     1     131.204 128.423 112.746  1.00  0.00     0.093 A 
ATOM      8  C   UNL     1     131.167 127.771 113.984  1.00  0.00     0.123 A 
ATOM      9  C   UNL     1     130.760 128.467 115.124  1.00  0.00     0.094 A 
ATOM     10  C   UNL     1     130.390 129.812 115.038  1.00  0.00     0.146 A 
ATOM     11  O   UNL     1     130.011 130.450 116.139  1.00  0.00    -0.452 OA
ENDROOT
BRANCH   1  12
ATOM     12  C   UNL     1     129.257 132.329 117.451  1.00  0.00     0.029 A 
ATOM     13  C   UNL     1     127.920 132.345 117.875  1.00  0.00     0.062 A 
ATOM     14  C   UNL     1     127.565 132.936 119.091  1.00  0.00     0.162 A 
ATOM     15  C   UNL     1     130.231 132.946 118.247  1.00  0.00     0.062 A 
ATOM     16  C   UNL     1     128.547 133.534 119.902  1.00  0.00     0.200 A 
ATOM     17  C   UNL     1     129.895 133.541 119.468  1.00  0.00     0.162 A 
BRANCH  14  18
ATOM     18  O   UNL     1     126.224 132.923 119.475  1.00  0.00    -0.504 OA
ATOM     19  H   UNL     1     125.646 132.095 119.398  1.00  0.00     0.293 HD
ENDBRANCH  14  18
BRANCH  16  20
ATOM     20  O   UNL     1     128.151 134.106 121.114  1.00  0.00    -0.502 OA
ATOM     21  H   UNL     1     127.437 134.814 121.201  1.00  0.00     0.293 HD
ENDBRANCH  16  20
BRANCH  17  22
ATOM     22  O   UNL     1     130.925 134.125 120.210  1.00  0.00    -0.504 OA
ATOM     23  H   UNL     1     130.793 134.575 121.104  1.00  0.00     0.293 HD
ENDBRANCH  17  22
ENDBRANCH   1  12
BRANCH   2  24
ATOM     24  O   UNL     1     129.183 133.790 114.945  1.00  0.00    -0.502 OA
ATOM     25  H   UNL     1     129.742 134.546 114.570  1.00  0.00     0.293 HD
ENDBRANCH   2  24
BRANCH   6  26
ATOM     26  O   UNL     1     130.882 130.396 111.391  1.00  0.00    -0.507 OA
ATOM     27  H   UNL     1     131.488 130.061 110.650  1.00  0.00     0.293 HD
ENDBRANCH   6  26
BRANCH   8  28
ATOM     28  O   UNL     1     131.533 126.431 114.093  1.00  0.00    -0.508 OA
ATOM     29  H   UNL     1     132.476 126.122 113.887  1.00  0.00     0.293 HD
ENDBRANCH   8  28
TORSDOF 7
ENDMDL
MODEL 5
REMARK VINA RESULT:    -5.939      1.635      7.242
REMARK INTER + INTRA:          -7.389
REMARK INTER:                  -7.091
REMARK INTRA:                  -0.298
REMARK UNBOUND:                -0.061
REMARK SMILES O=c1c(O)c(-c2cc(O)c(O)c(O)c2)oc2cc(O)cc(O)c12
REMARK SMILES IDX 5 1 3 2 2 3 1 4 23 5 21 6 20 7 18 8 17 9 16 10 15 11 6 12
REMARK SMILES IDX 7 13 8 14 14 15 10 16 12 17 9 18 11 20 13 22 4 24 22 26
REMARK SMILES IDX 19 28
REMARK H PARENT 9 19 11 21 13 23 4 25 22 27 19 29
REMARK Flexibility Score: inf
ROOT
ATOM      1  C   UNL     1     129.778 131.644 114.160  1.00  0.00     0.180 A 
ATOM      2  C   UNL     1     130.638 132.714 114.477  1.00  0.00     0.208 A 
ATOM      3  C   UNL     1     130.704 133.161 115.806  1.00  0.00     0.238 A 
ATOM      4  O   UNL     1     131.462 134.125 116.099  1.00  0.00    -0.285 OA
ATOM      5  C   UNL     1     129.931 132.520 116.796  1.00  0.00     0.111 A 
ATOM      6  C   UNL     1     129.943 132.907 118.158  1.00  0.00     0.134 A 
ATOM      7  C   UNL     1     129.151 132.213 119.085  1.00  0.00     0.093 A 
ATOM      8  C   UNL     1     128.348 131.142 118.676  1.00  0.00     0.123 A 
ATOM      9  C   UNL     1     128.332 130.759 117.333  1.00  0.00     0.094 A 
ATOM     10  C   UNL     1     129.113 131.439 116.394  1.00  0.00     0.146 A 
ATOM     11  O   UNL     1     129.075 131.055 115.123  1.00  0.00    -0.452 OA
ENDROOT
BRANCH   1  12
ATOM     12  C   UNL     1     129.639 131.129 112.780  1.00  0.00     0.029 A 
ATOM     13  C   UNL     1     130.261 129.937 112.378  1.00  0.00     0.062 A 
ATOM     14  C   UNL     1     130.139 129.477 111.064  1.00  0.00     0.162 A 
ATOM     15  C   UNL     1     128.921 131.873 111.834  1.00  0.00     0.062 A 
ATOM     16  C   UNL     1     129.398 130.212 110.121  1.00  0.00     0.200 A 
ATOM     17  C   UNL     1     128.787 131.428 110.514  1.00  0.00     0.162 A 
BRANCH  14  18
ATOM     18  O   UNL     1     130.770 128.284 110.711  1.00  0.00    -0.504 OA
ATOM     19  H   UNL     1     130.952 128.031 109.747  1.00  0.00     0.293 HD
ENDBRANCH  14  18
BRANCH  16  20
ATOM     20  O   UNL     1     129.294 129.712 108.821  1.00  0.00    -0.502 OA
ATOM     21  H   UNL     1     128.762 128.892 108.568  1.00  0.00     0.293 HD
ENDBRANCH  16  20
BRANCH  17  22
ATOM     22  O   UNL     1     128.045 132.220 109.634  1.00  0.00    -0.504 OA
ATOM     23  H   UNL     1     127.337 132.878 109.924  1.00  0.00     0.293 HD
ENDBRANCH  17  22
ENDBRANCH   1  12
BRANCH   2  24
ATOM     24  O   UNL     1     131.431 133.298 113.486  1.00  0.00    -0.502 OA
ATOM     25  H   UNL     1     132.412 133.074 113.375  1.00  0.00     0.293 HD
ENDBRANCH   2  24
BRANCH   6  26
ATOM     26  O   UNL     1     130.734 133.970 118.596  1.00  0.00    -0.507 OA
ATOM     27  H   UNL     1     131.666 133.823 118.966  1.00  0.00     0.293 HD
ENDBRANCH   6  26
BRANCH   8  28
ATOM     28  O   UNL     1     127.561 130.453 119.595  1.00  0.00    -0.508 OA
ATOM     29  H   UNL     1     127.351 130.840 120.508  1.00  0.00     0.293 HD
ENDBRANCH   8  28
TORSDOF 7
ENDMDL
MODEL 6
REMARK VINA RESULT:    -5.673      2.004      7.197
REMARK INTER + INTRA:          -7.061
REMARK INTER:                  -6.695
REMARK INTRA:                  -0.366
REMARK UNBOUND:                -0.061
REMARK SMILES O=c1c(O)c(-c2cc(O)c(O)c(O)c2)oc2cc(O)cc(O)c12
REMARK SMILES IDX 5 1 3 2 2 3 1 4 23 5 21 6 20 7 18 8 17 9 16 10 15 11 6 12
REMARK SMILES IDX 7 13 8 14 14 15 10 16 12 17 9 18 11 20 13 22 4 24 22 26
REMARK SMILES IDX 19 28
REMARK H PARENT 9 19 11 21 13 23 4 25 22 27 19 29
REMARK Flexibility Score: inf
ROOT
ATOM      1  C   UNL     1     129.967 131.382 115.114  1.00  0.00     0.180 A 
ATOM      2  C   UNL     1     130.535 132.578 115.595  1.00  0.00     0.208 A 
ATOM      3  C   UNL     1     130.151 133.050 116.861  1.00  0.00     0.238 A 
ATOM      4  O   UNL     1     130.645 134.125 117.297  1.00  0.00    -0.285 OA
ATOM      5  C   UNL     1     129.228 132.312 117.629  1.00  0.00     0.111 A 
ATOM      6  C   UNL     1     128.792 132.717 118.914  1.00  0.00     0.134 A 
ATOM      7  C   UNL     1     127.876 131.924 119.620  1.00  0.00     0.093 A 
ATOM      8  C   UNL     1     127.388 130.734 119.066  1.00  0.00     0.123 A 
ATOM      9  C   UNL     1     127.815 130.332 117.799  1.00  0.00     0.094 A 
ATOM     10  C   UNL     1     128.725 131.111 117.079  1.00  0.00     0.146 A 
ATOM     11  O   UNL     1     129.110 130.706 115.874  1.00  0.00    -0.452 OA
ENDROOT
BRANCH   1  12
ATOM     12  C   UNL     1     130.307 130.830 113.783  1.00  0.00     0.029 A 
ATOM     13  C   UNL     1     129.630 131.245 112.626  1.00  0.00     0.062 A 
ATOM     14  C   UNL     1     129.947 130.696 111.381  1.00  0.00     0.162 A 
ATOM     15  C   UNL     1     131.282 129.829 113.679  1.00  0.00     0.062 A 
ATOM     16  C   UNL     1     130.944 129.709 111.273  1.00  0.00     0.200 A 
ATOM     17  C   UNL     1     131.614 129.270 112.441  1.00  0.00     0.162 A 
BRANCH  14  18
ATOM     18  O   UNL     1     129.253 131.143 110.256  1.00  0.00    -0.504 OA
ATOM     19  H   UNL     1     129.006 130.526 109.491  1.00  0.00     0.293 HD
ENDBRANCH  14  18
BRANCH  16  20
ATOM     20  O   UNL     1     131.236 129.193 110.008  1.00  0.00    -0.502 OA
ATOM     21  H   UNL     1     130.882 129.575 109.143  1.00  0.00     0.293 HD
ENDBRANCH  16  20
BRANCH  17  22
ATOM     22  O   UNL     1     132.606 128.286 112.418  1.00  0.00    -0.504 OA
ATOM     23  H   UNL     1     133.109 127.970 113.234  1.00  0.00     0.293 HD
ENDBRANCH  17  22
ENDBRANCH   1  12
BRANCH   2  24
ATOM     24  O   UNL     1     131.487 133.263 114.835  1.00  0.00    -0.502 OA
ATOM     25  H   UNL     1     131.680 133.028 113.869  1.00  0.00     0.293 HD
ENDBRANCH   2  24
BRANCH   6  26
ATOM     26  O   UNL     1     129.262 133.898 119.492  1.00  0.00    -0.507 OA
ATOM     27  H   UNL     1     128.995 134.174 120.431  1.00  0.00     0.293 HD
ENDBRANCH   6  26
BRANCH   8  28
ATOM     28  O   UNL     1     126.479 129.945 119.767  1.00  0.00    -0.508 OA
ATOM     29  H   UNL     1     126.612 128.946 119.867  1.00  0.00     0.293 HD
ENDBRANCH   8  28
TORSDOF 7
ENDMDL
MODEL 7
REMARK VINA RESULT:    -5.213      2.218      7.663
REMARK INTER + INTRA:          -6.493
REMARK INTER:                  -6.547
REMARK INTRA:                   0.054
REMARK UNBOUND:                -0.061
REMARK SMILES O=c1c(O)c(-c2cc(O)c(O)c(O)c2)oc2cc(O)cc(O)c12
REMARK SMILES IDX 5 1 3 2 2 3 1 4 23 5 21 6 20 7 18 8 17 9 16 10 15 11 6 12
REMARK SMILES IDX 7 13 8 14 14 15 10 16 12 17 9 18 11 20 13 22 4 24 22 26
REMARK SMILES IDX 19 28
REMARK H PARENT 9 19 11 21 13 23 4 25 22 27 19 29
REMARK Flexibility Score: inf
ROOT
ATOM      1  C   UNL     1     129.659 130.016 111.917  1.00  0.00     0.180 A 
ATOM      2  C   UNL     1     129.645 131.410 112.124  1.00  0.00     0.208 A 
ATOM      3  C   UNL     1     129.976 131.910 113.393  1.00  0.00     0.238 A 
ATOM      4  O   UNL     1     129.957 133.155 113.592  1.00  0.00    -0.285 OA
ATOM      5  C   UNL     1     130.335 131.017 114.422  1.00  0.00     0.111 A 
ATOM      6  C   UNL     1     130.685 131.440 115.728  1.00  0.00     0.134 A 
ATOM      7  C   UNL     1     131.039 130.489 116.696  1.00  0.00     0.093 A 
ATOM      8  C   UNL     1     131.048 129.124 116.385  1.00  0.00     0.123 A 
ATOM      9  C   UNL     1     130.702 128.703 115.099  1.00  0.00     0.094 A 
ATOM     10  C   UNL     1     130.345 129.635 114.121  1.00  0.00     0.146 A 
ATOM     11  O   UNL     1     130.016 129.205 112.908  1.00  0.00    -0.452 OA
ENDROOT
BRANCH   1  12
ATOM     12  C   UNL     1     129.304 129.411 110.613  1.00  0.00     0.029 A 
ATOM     13  C   UNL     1     128.218 129.884 109.860  1.00  0.00     0.062 A 
ATOM     14  C   UNL     1     127.882 129.286 108.642  1.00  0.00     0.162 A 
ATOM     15  C   UNL     1     130.027 128.306 110.145  1.00  0.00     0.062 A 
ATOM     16  C   UNL     1     128.624 128.192 108.161  1.00  0.00     0.200 A 
ATOM     17  C   UNL     1     129.706 127.695 108.928  1.00  0.00     0.162 A 
BRANCH  14  18
ATOM     18  O   UNL     1     126.799 129.793 107.924  1.00  0.00    -0.504 OA
ATOM     19  H   UNL     1     126.736 129.721 106.915  1.00  0.00     0.293 HD
ENDBRANCH  14  18
BRANCH  16  20
ATOM     20  O   UNL     1     128.260 127.629 106.935  1.00  0.00    -0.502 OA
ATOM     21  H   UNL     1     128.145 126.639 106.776  1.00  0.00     0.293 HD
ENDBRANCH  16  20
BRANCH  17  22
ATOM     22  O   UNL     1     130.482 126.606 108.524  1.00  0.00    -0.504 OA
ATOM     23  H   UNL     1     131.274 126.675 107.902  1.00  0.00     0.293 HD
ENDBRANCH  17  22
ENDBRANCH   1  12
BRANCH   2  24
ATOM     24  O   UNL     1     129.336 132.276 111.072  1.00  0.00    -0.502 OA
ATOM     25  H   UNL     1     128.916 133.185 111.224  1.00  0.00     0.293 HD
ENDBRANCH   2  24
BRANCH   6  26
ATOM     26  O   UNL     1     130.686 132.794 116.067  1.00  0.00    -0.507 OA
ATOM     27  H   UNL     1     129.927 133.410 115.800  1.00  0.00     0.293 HD
ENDBRANCH   6  26
BRANCH   8  28
ATOM     28  O   UNL     1     131.399 128.179 117.346  1.00  0.00    -0.508 OA
ATOM     29  H   UNL     1     130.941 128.146 118.248  1.00  0.00     0.293 HD
ENDBRANCH   8  28
TORSDOF 7
ENDMDL
MODEL 8
REMARK VINA RESULT:    -4.627      2.177      3.878
REMARK INTER + INTRA:          -5.770
REMARK INTER:                  -6.104
REMARK INTRA:                   0.334
REMARK UNBOUND:                -0.061
REMARK SMILES O=c1c(O)c(-c2cc(O)c(O)c(O)c2)oc2cc(O)cc(O)c12
REMARK SMILES IDX 5 1 3 2 2 3 1 4 23 5 21 6 20 7 18 8 17 9 16 10 15 11 6 12
REMARK SMILES IDX 7 13 8 14 14 15 10 16 12 17 9 18 11 20 13 22 4 24 22 26
REMARK SMILES IDX 19 28
REMARK H PARENT 9 19 11 21 13 23 4 25 22 27 19 29
REMARK Flexibility Score: inf
ROOT
ATOM      1  C   UNL     1     129.696 130.346 112.257  1.00  0.00     0.180 A 
ATOM      2  C   UNL     1     129.166 131.157 111.235  1.00  0.00     0.208 A 
ATOM      3  C   UNL     1     128.882 130.578 109.988  1.00  0.00     0.238 A 
ATOM      4  O   UNL     1     128.417 131.297 109.062  1.00  0.00    -0.285 OA
ATOM      5  C   UNL     1     129.110 129.201 109.791  1.00  0.00     0.111 A 
ATOM      6  C   UNL     1     128.847 128.539 108.566  1.00  0.00     0.134 A 
ATOM      7  C   UNL     1     129.094 127.164 108.451  1.00  0.00     0.093 A 
ATOM      8  C   UNL     1     129.597 126.437 109.537  1.00  0.00     0.123 A 
ATOM      9  C   UNL     1     129.859 127.085 110.745  1.00  0.00     0.094 A 
ATOM     10  C   UNL     1     129.622 128.456 110.879  1.00  0.00     0.146 A 
ATOM     11  O   UNL     1     129.884 129.048 112.039  1.00  0.00    -0.452 OA
ENDROOT
BRANCH   1  12
ATOM     12  C   UNL     1     130.038 130.886 113.592  1.00  0.00     0.029 A 
ATOM     13  C   UNL     1     130.243 132.260 113.793  1.00  0.00     0.062 A 
ATOM     14  C   UNL     1     130.589 132.751 115.055  1.00  0.00     0.162 A 
ATOM     15  C   UNL     1     130.221 130.006 114.667  1.00  0.00     0.062 A 
ATOM     16  C   UNL     1     130.748 131.870 116.140  1.00  0.00     0.200 A 
ATOM     17  C   UNL     1     130.566 130.479 115.938  1.00  0.00     0.162 A 
BRANCH  14  18
ATOM     18  O   UNL     1     130.776 134.125 115.211  1.00  0.00    -0.504 OA
ATOM     19  H   UNL     1     131.300 134.679 114.544  1.00  0.00     0.293 HD
ENDBRANCH  14  18
BRANCH  16  20
ATOM     20  O   UNL     1     131.086 132.403 117.387  1.00  0.00    -0.502 OA
ATOM     21  H   UNL     1     131.612 133.255 117.516  1.00  0.00     0.293 HD
ENDBRANCH  16  20
BRANCH  17  22
ATOM     22  O   UNL     1     130.719 129.541 116.961  1.00  0.00    -0.504 OA
ATOM     23  H   UNL     1     131.503 128.910 117.039  1.00  0.00     0.293 HD
ENDBRANCH  17  22
ENDBRANCH   1  12
BRANCH   2  24
ATOM     24  O   UNL     1     128.901 132.508 111.472  1.00  0.00    -0.502 OA
ATOM     25  H   UNL     1     128.122 132.992 111.043  1.00  0.00     0.293 HD
ENDBRANCH   2  24
BRANCH   6  26
ATOM     26  O   UNL     1     128.344 129.238 107.468  1.00  0.00    -0.507 OA
ATOM     27  H   UNL     1     127.389 129.114 107.150  1.00  0.00     0.293 HD
ENDBRANCH   6  26
BRANCH   8  28
ATOM     28  O   UNL     1     129.842 125.070 109.424  1.00  0.00    -0.508 OA
ATOM     29  H   UNL     1     130.126 124.654 108.545  1.00  0.00     0.293 HD
ENDBRANCH   8  28
TORSDOF 7
ENDMDL
