MODEL 1
REMARK VINA RESULT:    -3.673      0.000      0.000
REMARK INTER + INTRA:          -4.178
REMARK INTER:                  -4.102
REMARK INTRA:                  -0.076
REMARK UNBOUND:                -0.076
REMARK SMILES CC=C(C)C=CC=C(C)C
REMARK SMILES IDX 5 1 6 2 3 3 1 4 2 5 4 6 7 7 8 8 9 9 10 10
REMARK H PARENT
REMARK Flexibility Score: inf
ROOT
ATOM      1  C   UNL     1     137.476 137.868 123.392  1.00  0.00     0.003 C 
ATOM      2  C   UNL     1     137.629 136.803 122.594  1.00  0.00     0.000 C 
ENDROOT
BRANCH   1   3
ATOM      3  C   UNL     1     136.164 138.521 123.641  1.00  0.00    -0.055 C 
ATOM      4  C   UNL     1     134.926 140.541 124.486  1.00  0.00     0.036 C 
ATOM      5  C   UNL     1     136.167 139.776 124.131  1.00  0.00    -0.027 C 
ATOM      6  C   UNL     1     134.876 137.764 123.408  1.00  0.00     0.044 C 
ENDBRANCH   1   3
BRANCH   2   7
ATOM      7  C   UNL     1     138.963 136.195 122.397  1.00  0.00    -0.001 C 
ATOM      8  C   UNL     1     139.601 135.467 123.332  1.00  0.00    -0.076 C 
ATOM      9  C   UNL     1     140.956 134.902 123.003  1.00  0.00     0.039 C 
ATOM     10  C   UNL     1     138.997 135.205 124.688  1.00  0.00     0.039 C 
ENDBRANCH   2   7
TORSDOF 2
ENDMDL
MODEL 2
REMARK VINA RESULT:    -3.419      1.467      1.897
REMARK INTER + INTRA:          -3.894
REMARK INTER:                  -3.839
REMARK INTRA:                  -0.054
REMARK UNBOUND:                -0.076
REMARK SMILES CC=C(C)C=CC=C(C)C
REMARK SMILES IDX 5 1 6 2 3 3 1 4 2 5 4 6 7 7 8 8 9 9 10 10
REMARK H PARENT
REMARK Flexibility Score: inf
ROOT
ATOM      1  C   UNL     1     136.875 137.997 124.855  1.00  0.00     0.003 C 
ATOM      2  C   UNL     1     136.894 136.672 124.653  1.00  0.00     0.000 C 
ENDROOT
BRANCH   1   3
ATOM      3  C   UNL     1     135.930 138.915 124.167  1.00  0.00    -0.055 C 
ATOM      4  C   UNL     1     134.876 141.197 124.078  1.00  0.00     0.036 C 
ATOM      5  C   UNL     1     135.825 140.176 124.631  1.00  0.00    -0.027 C 
ATOM      6  C   UNL     1     135.072 138.417 123.026  1.00  0.00     0.044 C 
ENDBRANCH   1   3
BRANCH   2   7
ATOM      7  C   UNL     1     137.855 135.813 125.378  1.00  0.00    -0.001 C 
ATOM      8  C   UNL     1     139.178 135.797 125.134  1.00  0.00    -0.076 C 
ATOM      9  C   UNL     1     140.048 134.876 125.946  1.00  0.00     0.039 C 
ATOM     10  C   UNL     1     139.806 136.670 124.077  1.00  0.00     0.039 C 
ENDBRANCH   2   7
TORSDOF 2
ENDMDL
MODEL 3
REMARK VINA RESULT:    -1.310      1.672      2.908
REMARK INTER + INTRA:          -1.538
REMARK INTER:                  -1.393
REMARK INTRA:                  -0.145
REMARK UNBOUND:                -0.076
REMARK SMILES CC=C(C)C=CC=C(C)C
REMARK SMILES IDX 5 1 6 2 3 3 1 4 2 5 4 6 7 7 8 8 9 9 10 10
REMARK H PARENT
REMARK Flexibility Score: inf
ROOT
ATOM      1  C   UNL     1     138.169 137.457 123.419  1.00  0.00     0.003 C 
ATOM      2  C   UNL     1     138.978 136.392 123.342  1.00  0.00     0.000 C 
ENDROOT
BRANCH   1   3
ATOM      3  C   UNL     1     137.354 137.949 122.278  1.00  0.00    -0.055 C 
ATOM      4  C   UNL     1     137.205 138.367 119.802  1.00  0.00     0.036 C 
ATOM      5  C   UNL     1     137.882 137.861 121.041  1.00  0.00    -0.027 C 
ATOM      6  C   UNL     1     136.004 138.587 122.519  1.00  0.00     0.044 C 
ENDBRANCH   1   3
BRANCH   2   7
ATOM      7  C   UNL     1     139.755 135.950 124.520  1.00  0.00    -0.001 C 
ATOM      8  C   UNL     1     139.228 135.268 125.553  1.00  0.00    -0.076 C 
ATOM      9  C   UNL     1     140.130 134.875 126.692  1.00  0.00     0.039 C 
ATOM     10  C   UNL     1     137.769 134.888 125.598  1.00  0.00     0.039 C 
ENDBRANCH   2   7
TORSDOF 2
ENDMDL
MODEL 4
REMARK VINA RESULT:    -1.211      2.169      4.421
REMARK INTER + INTRA:          -1.428
REMARK INTER:                  -1.991
REMARK INTRA:                   0.563
REMARK UNBOUND:                -0.076
REMARK SMILES CC=C(C)C=CC=C(C)C
REMARK SMILES IDX 5 1 6 2 3 3 1 4 2 5 4 6 7 7 8 8 9 9 10 10
REMARK H PARENT
REMARK Flexibility Score: inf
ROOT
ATOM      1  C   UNL     1     137.828 136.522 123.454  1.00  0.00     0.003 C 
ATOM      2  C   UNL     1     137.609 137.837 123.327  1.00  0.00     0.000 C 
ENDROOT
BRANCH   1   3
ATOM      3  C   UNL     1     138.071 135.856 124.761  1.00  0.00    -0.055 C 
ATOM      4  C   UNL     1     139.743 134.875 126.363  1.00  0.00     0.036 C 
ATOM      5  C   UNL     1     139.347 135.592 125.107  1.00  0.00    -0.027 C 
ATOM      6  C   UNL     1     136.910 135.434 125.633  1.00  0.00     0.044 C 
ENDBRANCH   1   3
BRANCH   2   7
ATOM      7  C   UNL     1     137.364 138.435 121.997  1.00  0.00    -0.001 C 
ATOM      8  C   UNL     1     137.821 137.912 120.844  1.00  0.00    -0.076 C 
ATOM      9  C   UNL     1     137.499 138.619 119.556  1.00  0.00     0.039 C 
ATOM     10  C   UNL     1     138.638 136.645 120.811  1.00  0.00     0.039 C 
ENDBRANCH   2   7
TORSDOF 2
ENDMDL
MODEL 5
REMARK VINA RESULT:    -0.818     14.403     16.962
REMARK INTER + INTRA:          -0.989
REMARK INTER:                  -0.749
REMARK INTRA:                  -0.240
REMARK UNBOUND:                -0.076
REMARK SMILES CC=C(C)C=CC=C(C)C
REMARK SMILES IDX 5 1 6 2 3 3 1 4 2 5 4 6 7 7 8 8 9 9 10 10
REMARK H PARENT
REMARK Flexibility Score: inf
ROOT
ATOM      1  C   UNL     1     153.826 137.163 125.100  1.00  0.00     0.003 C 
ATOM      2  C   UNL     1     154.718 138.134 124.866  1.00  0.00     0.000 C 
ENDROOT
BRANCH   1   3
ATOM      3  C   UNL     1     153.385 136.190 124.066  1.00  0.00    -0.055 C 
ATOM      4  C   UNL     1     151.492 134.876 123.059  1.00  0.00     0.036 C 
ATOM      5  C   UNL     1     152.075 135.880 124.008  1.00  0.00    -0.027 C 
ATOM      6  C   UNL     1     154.397 135.528 123.158  1.00  0.00     0.044 C 
ENDBRANCH   1   3
BRANCH   2   7
ATOM      7  C   UNL     1     155.120 139.063 125.944  1.00  0.00    -0.001 C 
ATOM      8  C   UNL     1     154.630 140.309 126.081  1.00  0.00    -0.076 C 
ATOM      9  C   UNL     1     155.122 141.154 127.225  1.00  0.00     0.039 C 
ATOM     10  C   UNL     1     153.609 140.875 125.127  1.00  0.00     0.039 C 
ENDBRANCH   2   7
TORSDOF 2
ENDMDL
