MODEL 1
REMARK VINA RESULT:    -4.794      0.000      0.000
REMARK INTER + INTRA:          -5.646
REMARK INTER:                  -5.495
REMARK INTRA:                  -0.151
REMARK UNBOUND:                -0.151
REMARK SMILES O=C([O-])C=Cc1ccc(O)cc1
REMARK SMILES IDX 6 1 7 2 12 3 8 4 11 5 9 6 5 7 4 8 2 9 1 10 3 11 10 12
REMARK H PARENT 10 13
REMARK Flexibility Score: inf
ROOT
ATOM      1  C   UNL     1      13.094 -21.367  19.245  1.00  0.00    -0.025 A 
ATOM      2  C   UNL     1      11.864 -20.737  18.965  1.00  0.00     0.012 A 
ATOM      3  C   UNL     1      14.286 -20.708  18.902  1.00  0.00     0.012 A 
ATOM      4  C   UNL     1      11.836 -19.489  18.333  1.00  0.00     0.047 A 
ATOM      5  C   UNL     1      14.254 -19.461  18.269  1.00  0.00     0.047 A 
ATOM      6  C   UNL     1      13.027 -18.850  17.982  1.00  0.00     0.115 A 
ENDROOT
BRANCH   1   7
ATOM      7  C   UNL     1      13.181 -22.684  19.923  1.00  0.00     0.010 C 
ATOM      8  C   UNL     1      14.317 -23.193  20.419  1.00  0.00     0.025 C 
BRANCH   8   9
ATOM      9  C   UNL     1      14.355 -24.500  21.094  1.00  0.00     0.064 C 
ATOM     10  O   UNL     1      15.092 -25.413  20.641  1.00  0.00    -0.545 OA
ATOM     11  O   UNL     1      13.585 -24.744  22.227  1.00  0.00    -0.545 OA
ENDBRANCH   8   9
ENDBRANCH   1   7
BRANCH   6  12
ATOM     12  O   UNL     1      12.982 -17.608  17.352  1.00  0.00    -0.508 OA
ATOM     13  H   UNL     1      13.516 -16.819  17.699  1.00  0.00     0.293 HD
ENDBRANCH   6  12
TORSDOF 3
ENDMDL
MODEL 2
REMARK VINA RESULT:    -4.716     13.617     14.797
REMARK INTER + INTRA:          -5.556
REMARK INTER:                  -5.402
REMARK INTRA:                  -0.153
REMARK UNBOUND:                -0.151
REMARK SMILES O=C([O-])C=Cc1ccc(O)cc1
REMARK SMILES IDX 6 1 7 2 12 3 8 4 11 5 9 6 5 7 4 8 2 9 1 10 3 11 10 12
REMARK H PARENT 10 13
REMARK Flexibility Score: inf
ROOT
ATOM      1  C   UNL     1      21.100 -15.696  29.382  1.00  0.00    -0.025 A 
ATOM      2  C   UNL     1      21.653 -16.954  29.698  1.00  0.00     0.012 A 
ATOM      3  C   UNL     1      21.275 -14.633  30.284  1.00  0.00     0.012 A 
ATOM      4  C   UNL     1      22.341 -17.142  30.901  1.00  0.00     0.047 A 
ATOM      5  C   UNL     1      21.963 -14.826  31.486  1.00  0.00     0.047 A 
ATOM      6  C   UNL     1      22.497 -16.082  31.798  1.00  0.00     0.115 A 
ENDROOT
BRANCH   1   7
ATOM      7  C   UNL     1      20.371 -15.439  28.116  1.00  0.00     0.010 C 
ATOM      8  C   UNL     1      19.669 -14.323  27.873  1.00  0.00     0.025 C 
BRANCH   8   9
ATOM      9  C   UNL     1      18.970 -14.105  26.597  1.00  0.00     0.064 C 
ATOM     10  O   UNL     1      19.426 -14.619  25.543  1.00  0.00    -0.545 OA
ATOM     11  O   UNL     1      17.812 -13.336  26.536  1.00  0.00    -0.545 OA
ENDBRANCH   8   9
ENDBRANCH   1   7
BRANCH   6  12
ATOM     12  O   UNL     1      23.184 -16.286  32.993  1.00  0.00    -0.508 OA
ATOM     13  H   UNL     1      23.878 -15.626  33.323  1.00  0.00     0.293 HD
ENDBRANCH   6  12
TORSDOF 3
ENDMDL
MODEL 3
REMARK VINA RESULT:    -4.703      0.827      1.547
REMARK INTER + INTRA:          -5.542
REMARK INTER:                  -5.392
REMARK INTRA:                  -0.149
REMARK UNBOUND:                -0.151
REMARK SMILES O=C([O-])C=Cc1ccc(O)cc1
REMARK SMILES IDX 6 1 7 2 12 3 8 4 11 5 9 6 5 7 4 8 2 9 1 10 3 11 10 12
REMARK H PARENT 10 13
REMARK Flexibility Score: inf
ROOT
ATOM      1  C   UNL     1      13.847 -20.616  19.573  1.00  0.00    -0.025 A 
ATOM      2  C   UNL     1      14.694 -19.489  19.526  1.00  0.00     0.012 A 
ATOM      3  C   UNL     1      12.671 -20.611  18.803  1.00  0.00     0.012 A 
ATOM      4  C   UNL     1      14.354 -18.380  18.745  1.00  0.00     0.047 A 
ATOM      5  C   UNL     1      12.335 -19.499  18.024  1.00  0.00     0.047 A 
ATOM      6  C   UNL     1      13.176 -18.381  17.995  1.00  0.00     0.115 A 
ENDROOT
BRANCH   1   7
ATOM      7  C   UNL     1      14.165 -21.822  20.376  1.00  0.00     0.010 C 
ATOM      8  C   UNL     1      13.680 -23.043  20.110  1.00  0.00     0.025 C 
BRANCH   8   9
ATOM      9  C   UNL     1      14.031 -24.215  20.927  1.00  0.00     0.064 C 
ATOM     10  O   UNL     1      14.736 -25.131  20.429  1.00  0.00    -0.545 OA
ATOM     11  O   UNL     1      13.594 -24.330  22.243  1.00  0.00    -0.545 OA
ENDBRANCH   8   9
ENDBRANCH   1   7
BRANCH   6  12
ATOM     12  O   UNL     1      12.851 -17.267  17.223  1.00  0.00    -0.508 OA
ATOM     13  H   UNL     1      12.617 -17.354  16.241  1.00  0.00     0.293 HD
ENDBRANCH   6  12
TORSDOF 3
ENDMDL
MODEL 4
REMARK VINA RESULT:    -4.567      1.445      1.957
REMARK INTER + INTRA:          -5.386
REMARK INTER:                  -5.248
REMARK INTRA:                  -0.137
REMARK UNBOUND:                -0.151
REMARK SMILES O=C([O-])C=Cc1ccc(O)cc1
REMARK SMILES IDX 6 1 7 2 12 3 8 4 11 5 9 6 5 7 4 8 2 9 1 10 3 11 10 12
REMARK H PARENT 10 13
REMARK Flexibility Score: inf
ROOT
ATOM      1  C   UNL     1      13.819 -23.059  19.845  1.00  0.00    -0.025 A 
ATOM      2  C   UNL     1      12.489 -22.790  19.462  1.00  0.00     0.012 A 
ATOM      3  C   UNL     1      14.821 -22.132  19.511  1.00  0.00     0.012 A 
ATOM      4  C   UNL     1      12.181 -21.632  18.740  1.00  0.00     0.047 A 
ATOM      5  C   UNL     1      14.509 -20.977  18.788  1.00  0.00     0.047 A 
ATOM      6  C   UNL     1      13.187 -20.725  18.400  1.00  0.00     0.115 A 
ENDROOT
BRANCH   1   7
ATOM      7  C   UNL     1      14.198 -24.265  20.621  1.00  0.00     0.010 C 
ATOM      8  C   UNL     1      13.905 -24.441  21.917  1.00  0.00     0.025 C 
BRANCH   8   9
ATOM      9  C   UNL     1      14.291 -25.660  22.645  1.00  0.00     0.064 C 
ATOM     10  O   UNL     1      15.322 -26.291  22.296  1.00  0.00    -0.545 OA
ATOM     11  O   UNL     1      13.533 -26.129  23.713  1.00  0.00    -0.545 OA
ENDBRANCH   8   9
ENDBRANCH   1   7
BRANCH   6  12
ATOM     12  O   UNL     1      12.865 -19.577  17.679  1.00  0.00    -0.508 OA
ATOM     13  H   UNL     1      11.905 -19.356  17.439  1.00  0.00     0.293 HD
ENDBRANCH   6  12
TORSDOF 3
ENDMDL
MODEL 5
REMARK VINA RESULT:    -4.560      1.390      2.504
REMARK INTER + INTRA:          -5.378
REMARK INTER:                  -5.241
REMARK INTRA:                  -0.137
REMARK UNBOUND:                -0.151
REMARK SMILES O=C([O-])C=Cc1ccc(O)cc1
REMARK SMILES IDX 6 1 7 2 12 3 8 4 11 5 9 6 5 7 4 8 2 9 1 10 3 11 10 12
REMARK H PARENT 10 13
REMARK Flexibility Score: inf
ROOT
ATOM      1  C   UNL     1      13.785 -22.951  19.862  1.00  0.00    -0.025 A 
ATOM      2  C   UNL     1      14.740 -21.996  19.457  1.00  0.00     0.012 A 
ATOM      3  C   UNL     1      12.441 -22.762  19.500  1.00  0.00     0.012 A 
ATOM      4  C   UNL     1      14.346 -20.868  18.729  1.00  0.00     0.047 A 
ATOM      5  C   UNL     1      12.052 -21.632  18.773  1.00  0.00     0.047 A 
ATOM      6  C   UNL     1      13.005 -20.682  18.387  1.00  0.00     0.115 A 
ENDROOT
BRANCH   1   7
ATOM      7  C   UNL     1      14.149 -24.170  20.626  1.00  0.00     0.010 C 
ATOM      8  C   UNL     1      13.841 -24.361  21.916  1.00  0.00     0.025 C 
BRANCH   8   9
ATOM      9  C   UNL     1      14.213 -25.592  22.632  1.00  0.00     0.064 C 
ATOM     10  O   UNL     1      13.456 -26.040  23.532  1.00  0.00    -0.545 OA
ATOM     11  O   UNL     1      15.391 -26.268  22.331  1.00  0.00    -0.545 OA
ENDBRANCH   8   9
ENDBRANCH   1   7
BRANCH   6  12
ATOM     12  O   UNL     1      12.629 -19.553  17.662  1.00  0.00    -0.508 OA
ATOM     13  H   UNL     1      13.242 -19.142  16.967  1.00  0.00     0.293 HD
ENDBRANCH   6  12
TORSDOF 3
ENDMDL
MODEL 6
REMARK VINA RESULT:    -4.535      3.243      6.321
REMARK INTER + INTRA:          -5.349
REMARK INTER:                  -5.209
REMARK INTRA:                  -0.139
REMARK UNBOUND:                -0.151
REMARK SMILES O=C([O-])C=Cc1ccc(O)cc1
REMARK SMILES IDX 6 1 7 2 12 3 8 4 11 5 9 6 5 7 4 8 2 9 1 10 3 11 10 12
REMARK H PARENT 10 13
REMARK Flexibility Score: inf
ROOT
ATOM      1  C   UNL     1      14.306 -24.215  22.446  1.00  0.00    -0.025 A 
ATOM      2  C   UNL     1      13.864 -25.276  23.264  1.00  0.00     0.012 A 
ATOM      3  C   UNL     1      14.970 -23.130  23.044  1.00  0.00     0.012 A 
ATOM      4  C   UNL     1      14.064 -25.232  24.648  1.00  0.00     0.047 A 
ATOM      5  C   UNL     1      15.166 -23.091  24.428  1.00  0.00     0.047 A 
ATOM      6  C   UNL     1      14.711 -24.142  25.233  1.00  0.00     0.115 A 
ENDROOT
BRANCH   1   7
ATOM      7  C   UNL     1      14.131 -24.215  20.973  1.00  0.00     0.010 C 
ATOM      8  C   UNL     1      13.436 -23.284  20.306  1.00  0.00     0.025 C 
BRANCH   8   9
ATOM      9  C   UNL     1      13.297 -23.318  18.841  1.00  0.00     0.064 C 
ATOM     10  O   UNL     1      12.850 -24.353  18.282  1.00  0.00    -0.545 OA
ATOM     11  O   UNL     1      13.655 -22.222  18.061  1.00  0.00    -0.545 OA
ENDBRANCH   8   9
ENDBRANCH   1   7
BRANCH   6  12
ATOM     12  O   UNL     1      14.901 -24.114  26.613  1.00  0.00    -0.508 OA
ATOM     13  H   UNL     1      14.558 -23.345  27.179  1.00  0.00     0.293 HD
ENDBRANCH   6  12
TORSDOF 3
ENDMDL
MODEL 7
REMARK VINA RESULT:    -4.530      3.450      5.409
REMARK INTER + INTRA:          -5.343
REMARK INTER:                  -5.189
REMARK INTRA:                  -0.154
REMARK UNBOUND:                -0.151
REMARK SMILES O=C([O-])C=Cc1ccc(O)cc1
REMARK SMILES IDX 6 1 7 2 12 3 8 4 11 5 9 6 5 7 4 8 2 9 1 10 3 11 10 12
REMARK H PARENT 10 13
REMARK Flexibility Score: inf
ROOT
ATOM      1  C   UNL     1      13.505 -19.241  19.911  1.00  0.00    -0.025 A 
ATOM      2  C   UNL     1      12.256 -19.753  19.506  1.00  0.00     0.012 A 
ATOM      3  C   UNL     1      14.675 -19.888  19.478  1.00  0.00     0.012 A 
ATOM      4  C   UNL     1      12.186 -20.900  18.707  1.00  0.00     0.047 A 
ATOM      5  C   UNL     1      14.601 -21.035  18.680  1.00  0.00     0.047 A 
ATOM      6  C   UNL     1      13.355 -21.544  18.294  1.00  0.00     0.115 A 
ENDROOT
BRANCH   1   7
ATOM      7  C   UNL     1      13.637 -18.023  20.747  1.00  0.00     0.010 C 
ATOM      8  C   UNL     1      14.793 -17.610  21.284  1.00  0.00     0.025 C 
BRANCH   8   9
ATOM      9  C   UNL     1      14.879 -16.387  22.100  1.00  0.00     0.064 C 
ATOM     10  O   UNL     1      13.849 -15.949  22.674  1.00  0.00    -0.545 OA
ATOM     11  O   UNL     1      16.083 -15.705  22.244  1.00  0.00    -0.545 OA
ENDBRANCH   8   9
ENDBRANCH   1   7
BRANCH   6  12
ATOM     12  O   UNL     1      13.268 -22.685  17.500  1.00  0.00    -0.508 OA
ATOM     13  H   UNL     1      12.548 -22.785  16.794  1.00  0.00     0.293 HD
ENDBRANCH   6  12
TORSDOF 3
ENDMDL
MODEL 8
REMARK VINA RESULT:    -4.464      1.515      5.777
REMARK INTER + INTRA:          -5.267
REMARK INTER:                  -5.130
REMARK INTRA:                  -0.137
REMARK UNBOUND:                -0.151
REMARK SMILES O=C([O-])C=Cc1ccc(O)cc1
REMARK SMILES IDX 6 1 7 2 12 3 8 4 11 5 9 6 5 7 4 8 2 9 1 10 3 11 10 12
REMARK H PARENT 10 13
REMARK Flexibility Score: inf
ROOT
ATOM      1  C   UNL     1      14.005 -22.551  19.377  1.00  0.00    -0.025 A 
ATOM      2  C   UNL     1      15.169 -22.092  20.027  1.00  0.00     0.012 A 
ATOM      3  C   UNL     1      13.660 -23.910  19.484  1.00  0.00     0.012 A 
ATOM      4  C   UNL     1      15.976 -22.981  20.745  1.00  0.00     0.047 A 
ATOM      5  C   UNL     1      14.470 -24.795  20.202  1.00  0.00     0.047 A 
ATOM      6  C   UNL     1      15.632 -24.332  20.833  1.00  0.00     0.115 A 
ENDROOT
BRANCH   1   7
ATOM      7  C   UNL     1      13.108 -21.650  18.613  1.00  0.00     0.010 C 
ATOM      8  C   UNL     1      12.653 -20.480  19.081  1.00  0.00     0.025 C 
BRANCH   8   9
ATOM      9  C   UNL     1      11.773 -19.611  18.283  1.00  0.00     0.064 C 
ATOM     10  O   UNL     1      10.530 -19.643  18.473  1.00  0.00    -0.545 OA
ATOM     11  O   UNL     1      12.294 -18.756  17.317  1.00  0.00    -0.545 OA
ENDBRANCH   8   9
ENDBRANCH   1   7
BRANCH   6  12
ATOM     12  O   UNL     1      16.447 -25.205  21.550  1.00  0.00    -0.508 OA
ATOM     13  H   UNL     1      17.368 -24.927  21.869  1.00  0.00     0.293 HD
ENDBRANCH   6  12
TORSDOF 3
ENDMDL
MODEL 9
REMARK VINA RESULT:    -4.417      3.255      6.845
REMARK INTER + INTRA:          -5.214
REMARK INTER:                  -5.065
REMARK INTRA:                  -0.148
REMARK UNBOUND:                -0.151
REMARK SMILES O=C([O-])C=Cc1ccc(O)cc1
REMARK SMILES IDX 6 1 7 2 12 3 8 4 11 5 9 6 5 7 4 8 2 9 1 10 3 11 10 12
REMARK H PARENT 10 13
REMARK Flexibility Score: inf
ROOT
ATOM      1  C   UNL     1      14.758 -25.175  21.348  1.00  0.00    -0.025 A 
ATOM      2  C   UNL     1      16.086 -25.632  21.470  1.00  0.00     0.012 A 
ATOM      3  C   UNL     1      13.906 -25.266  22.462  1.00  0.00     0.012 A 
ATOM      4  C   UNL     1      16.537 -26.186  22.673  1.00  0.00     0.047 A 
ATOM      5  C   UNL     1      14.360 -25.821  23.662  1.00  0.00     0.047 A 
ATOM      6  C   UNL     1      15.677 -26.284  23.769  1.00  0.00     0.115 A 
ENDROOT
BRANCH   1   7
ATOM      7  C   UNL     1      14.232 -24.570  20.100  1.00  0.00     0.010 C 
ATOM      8  C   UNL     1      13.302 -23.605  20.075  1.00  0.00     0.025 C 
BRANCH   8   9
ATOM      9  C   UNL     1      12.817 -23.024  18.812  1.00  0.00     0.064 C 
ATOM     10  O   UNL     1      13.635 -22.492  18.018  1.00  0.00    -0.545 OA
ATOM     11  O   UNL     1      11.466 -23.051  18.483  1.00  0.00    -0.545 OA
ENDBRANCH   8   9
ENDBRANCH   1   7
BRANCH   6  12
ATOM     12  O   UNL     1      16.141 -26.840  24.960  1.00  0.00    -0.508 OA
ATOM     13  H   UNL     1      15.560 -27.455  25.518  1.00  0.00     0.293 HD
ENDBRANCH   6  12
TORSDOF 3
ENDMDL
