MODEL 1
REMARK VINA RESULT:    -4.021      0.000      0.000
REMARK INTER + INTRA:          -5.448
REMARK INTER:                  -5.196
REMARK INTRA:                  -0.251
REMARK UNBOUND:                -0.251
REMARK SMILES CCCCCCC(=O)[O-]
REMARK SMILES IDX 5 1 6 2 7 3 8 4 9 5 4 6 3 7 2 8 1 9
REMARK H PARENT
REMARK Flexibility Score: inf
ROOT
ATOM      1  C   UNL     1      -2.757 -37.479  21.391  1.00  0.00     0.006 C 
ENDROOT
BRANCH   1   2
ATOM      2  C   UNL     1      -3.027 -35.976  21.541  1.00  0.00     0.053 C 
BRANCH   2   3
ATOM      3  C   UNL     1      -1.767 -35.209  21.800  1.00  0.00     0.041 C 
ATOM      4  O   UNL     1      -1.754 -34.275  22.644  1.00  0.00    -0.550 OA
ATOM      5  O   UNL     1      -0.597 -35.549  21.132  1.00  0.00    -0.550 OA
ENDBRANCH   2   3
ENDBRANCH   1   2
BRANCH   1   6
ATOM      6  C   UNL     1      -3.642 -38.125  20.314  1.00  0.00     0.000 C 
BRANCH   6   7
ATOM      7  C   UNL     1      -3.134 -37.779  18.907  1.00  0.00    -0.000 C 
BRANCH   7   8
ATOM      8  C   UNL     1      -4.274 -37.448  17.932  1.00  0.00    -0.003 C 
ATOM      9  C   UNL     1      -4.415 -35.948  17.674  1.00  0.00     0.004 C 
ENDBRANCH   7   8
ENDBRANCH   6   7
ENDBRANCH   1   6
TORSDOF 5
ENDMDL
MODEL 2
REMARK VINA RESULT:    -3.811      2.986      4.562
REMARK INTER + INTRA:          -5.176
REMARK INTER:                  -4.927
REMARK INTRA:                  -0.250
REMARK UNBOUND:                -0.251
REMARK SMILES CCCCCCC(=O)[O-]
REMARK SMILES IDX 5 1 6 2 7 3 8 4 9 5 4 6 3 7 2 8 1 9
REMARK H PARENT
REMARK Flexibility Score: inf
ROOT
ATOM      1  C   UNL     1      -3.359 -37.843  19.993  1.00  0.00     0.006 C 
ENDROOT
BRANCH   1   2
ATOM      2  C   UNL     1      -3.490 -36.626  19.068  1.00  0.00     0.053 C 
BRANCH   2   3
ATOM      3  C   UNL     1      -4.189 -36.972  17.790  1.00  0.00     0.041 C 
ATOM      4  O   UNL     1      -4.073 -38.124  17.295  1.00  0.00    -0.550 OA
ATOM      5  O   UNL     1      -4.996 -36.032  17.162  1.00  0.00    -0.550 OA
ENDBRANCH   2   3
ENDBRANCH   1   2
BRANCH   1   6
ATOM      6  C   UNL     1      -2.684 -37.490  21.327  1.00  0.00     0.000 C 
BRANCH   6   7
ATOM      7  C   UNL     1      -3.154 -36.119  21.835  1.00  0.00    -0.000 C 
BRANCH   7   8
ATOM      8  C   UNL     1      -1.988 -35.150  22.085  1.00  0.00    -0.003 C 
ATOM      9  C   UNL     1      -0.708 -35.565  21.360  1.00  0.00     0.004 C 
ENDBRANCH   7   8
ENDBRANCH   6   7
ENDBRANCH   1   6
TORSDOF 5
ENDMDL
MODEL 3
REMARK VINA RESULT:    -3.769      2.500      3.503
REMARK INTER + INTRA:          -5.121
REMARK INTER:                  -4.946
REMARK INTRA:                  -0.175
REMARK UNBOUND:                -0.251
REMARK SMILES CCCCCCC(=O)[O-]
REMARK SMILES IDX 5 1 6 2 7 3 8 4 9 5 4 6 3 7 2 8 1 9
REMARK H PARENT
REMARK Flexibility Score: inf
ROOT
ATOM      1  C   UNL     1      -1.235 -34.382  22.028  1.00  0.00     0.006 C 
ENDROOT
BRANCH   1   2
ATOM      2  C   UNL     1      -2.127 -34.107  23.246  1.00  0.00     0.053 C 
BRANCH   2   3
ATOM      3  C   UNL     1      -1.903 -32.733  23.799  1.00  0.00     0.041 C 
ATOM      4  O   UNL     1      -0.828 -32.455  24.394  1.00  0.00    -0.550 OA
ATOM      5  O   UNL     1      -2.869 -31.750  23.628  1.00  0.00    -0.550 OA
ENDBRANCH   2   3
ENDBRANCH   1   2
BRANCH   1   6
ATOM      6  C   UNL     1      -1.567 -35.722  21.354  1.00  0.00     0.000 C 
BRANCH   6   7
ATOM      7  C   UNL     1      -2.968 -36.205  21.754  1.00  0.00    -0.000 C 
BRANCH   7   8
ATOM      8  C   UNL     1      -3.409 -37.453  20.973  1.00  0.00    -0.003 C 
ATOM      9  C   UNL     1      -2.253 -38.125  20.231  1.00  0.00     0.004 C 
ENDBRANCH   7   8
ENDBRANCH   6   7
ENDBRANCH   1   6
TORSDOF 5
ENDMDL
MODEL 4
REMARK VINA RESULT:    -3.743      3.087      4.195
REMARK INTER + INTRA:          -5.088
REMARK INTER:                  -4.934
REMARK INTRA:                  -0.154
REMARK UNBOUND:                -0.251
REMARK SMILES CCCCCCC(=O)[O-]
REMARK SMILES IDX 5 1 6 2 7 3 8 4 9 5 4 6 3 7 2 8 1 9
REMARK H PARENT
REMARK Flexibility Score: inf
ROOT
ATOM      1  C   UNL     1      -1.495 -34.239  22.526  1.00  0.00     0.006 C 
ENDROOT
BRANCH   1   2
ATOM      2  C   UNL     1      -2.183 -33.412  23.620  1.00  0.00     0.053 C 
BRANCH   2   3
ATOM      3  C   UNL     1      -1.337 -32.256  24.058  1.00  0.00     0.041 C 
ATOM      4  O   UNL     1      -1.860 -31.132  24.274  1.00  0.00    -0.550 OA
ATOM      5  O   UNL     1       0.027 -32.431  24.260  1.00  0.00    -0.550 OA
ENDBRANCH   2   3
ENDBRANCH   1   2
BRANCH   1   6
ATOM      6  C   UNL     1      -2.358 -35.420  22.059  1.00  0.00     0.000 C 
BRANCH   6   7
ATOM      7  C   UNL     1      -1.671 -36.185  20.918  1.00  0.00    -0.000 C 
BRANCH   7   8
ATOM      8  C   UNL     1      -0.139 -36.128  21.007  1.00  0.00    -0.003 C 
ATOM      9  C   UNL     1       0.505 -37.514  21.034  1.00  0.00     0.004 C 
ENDBRANCH   7   8
ENDBRANCH   6   7
ENDBRANCH   1   6
TORSDOF 5
ENDMDL
MODEL 5
REMARK VINA RESULT:    -3.636      3.293      4.264
REMARK INTER + INTRA:          -4.950
REMARK INTER:                  -4.748
REMARK INTRA:                  -0.202
REMARK UNBOUND:                -0.251
REMARK SMILES CCCCCCC(=O)[O-]
REMARK SMILES IDX 5 1 6 2 7 3 8 4 9 5 4 6 3 7 2 8 1 9
REMARK H PARENT
REMARK Flexibility Score: inf
ROOT
ATOM      1  C   UNL     1      -0.594 -36.971  21.010  1.00  0.00     0.006 C 
ENDROOT
BRANCH   1   2
ATOM      2  C   UNL     1      -0.966 -35.483  21.052  1.00  0.00     0.053 C 
BRANCH   2   3
ATOM      3  C   UNL     1      -2.065 -35.213  22.033  1.00  0.00     0.041 C 
ATOM      4  O   UNL     1      -2.008 -34.209  22.790  1.00  0.00    -0.550 OA
ATOM      5  O   UNL     1      -3.170 -36.053  22.087  1.00  0.00    -0.550 OA
ENDBRANCH   2   3
ENDBRANCH   1   2
BRANCH   1   6
ATOM      6  C   UNL     1       0.782 -37.209  20.369  1.00  0.00     0.000 C 
BRANCH   6   7
ATOM      7  C   UNL     1       1.502 -35.879  20.104  1.00  0.00    -0.000 C 
BRANCH   7   8
ATOM      8  C   UNL     1       2.570 -35.994  19.006  1.00  0.00    -0.003 C 
ATOM      9  C   UNL     1       2.426 -37.265  18.170  1.00  0.00     0.004 C 
ENDBRANCH   7   8
ENDBRANCH   6   7
ENDBRANCH   1   6
TORSDOF 5
ENDMDL
MODEL 6
REMARK VINA RESULT:    -3.619      4.117      5.078
REMARK INTER + INTRA:          -4.928
REMARK INTER:                  -4.752
REMARK INTRA:                  -0.175
REMARK UNBOUND:                -0.251
REMARK SMILES CCCCCCC(=O)[O-]
REMARK SMILES IDX 5 1 6 2 7 3 8 4 9 5 4 6 3 7 2 8 1 9
REMARK H PARENT
REMARK Flexibility Score: inf
ROOT
ATOM      1  C   UNL     1       1.170 -35.996  21.046  1.00  0.00     0.006 C 
ENDROOT
BRANCH   1   2
ATOM      2  C   UNL     1      -0.135 -36.803  21.018  1.00  0.00     0.053 C 
BRANCH   2   3
ATOM      3  C   UNL     1      -1.339 -35.915  21.092  1.00  0.00     0.041 C 
ATOM      4  O   UNL     1      -1.338 -34.906  21.846  1.00  0.00    -0.550 OA
ATOM      5  O   UNL     1      -2.450 -36.183  20.302  1.00  0.00    -0.550 OA
ENDBRANCH   2   3
ENDBRANCH   1   2
BRANCH   1   6
ATOM      6  C   UNL     1       1.730 -35.746  19.638  1.00  0.00     0.000 C 
BRANCH   6   7
ATOM      7  C   UNL     1       3.250 -35.961  19.605  1.00  0.00    -0.000 C 
BRANCH   7   8
ATOM      8  C   UNL     1       3.769 -36.301  18.200  1.00  0.00    -0.003 C 
ATOM      9  C   UNL     1       2.738 -37.048  17.352  1.00  0.00     0.004 C 
ENDBRANCH   7   8
ENDBRANCH   6   7
ENDBRANCH   1   6
TORSDOF 5
ENDMDL
MODEL 7
REMARK VINA RESULT:    -3.551      3.038      4.962
REMARK INTER + INTRA:          -4.841
REMARK INTER:                  -4.656
REMARK INTRA:                  -0.185
REMARK UNBOUND:                -0.251
REMARK SMILES CCCCCCC(=O)[O-]
REMARK SMILES IDX 5 1 6 2 7 3 8 4 9 5 4 6 3 7 2 8 1 9
REMARK H PARENT
REMARK Flexibility Score: inf
ROOT
ATOM      1  C   UNL     1      -0.689 -36.995  21.023  1.00  0.00     0.006 C 
ENDROOT
BRANCH   1   2
ATOM      2  C   UNL     1      -1.107 -35.519  21.017  1.00  0.00     0.053 C 
BRANCH   2   3
ATOM      3  C   UNL     1      -2.142 -35.231  22.061  1.00  0.00     0.041 C 
ATOM      4  O   UNL     1      -1.979 -34.282  22.871  1.00  0.00    -0.550 OA
ATOM      5  O   UNL     1      -3.303 -35.991  22.116  1.00  0.00    -0.550 OA
ENDBRANCH   2   3
ENDBRANCH   1   2
BRANCH   1   6
ATOM      6  C   UNL     1       0.828 -37.172  20.856  1.00  0.00     0.000 C 
BRANCH   6   7
ATOM      7  C   UNL     1       1.556 -35.829  21.006  1.00  0.00    -0.000 C 
BRANCH   7   8
ATOM      8  C   UNL     1       2.932 -35.974  21.675  1.00  0.00    -0.003 C 
ATOM      9  C   UNL     1       3.134 -34.998  22.833  1.00  0.00     0.004 C 
ENDBRANCH   7   8
ENDBRANCH   6   7
ENDBRANCH   1   6
TORSDOF 5
ENDMDL
MODEL 8
REMARK VINA RESULT:    -3.454      3.331      4.443
REMARK INTER + INTRA:          -4.715
REMARK INTER:                  -4.585
REMARK INTRA:                  -0.130
REMARK UNBOUND:                -0.251
REMARK SMILES CCCCCCC(=O)[O-]
REMARK SMILES IDX 5 1 6 2 7 3 8 4 9 5 4 6 3 7 2 8 1 9
REMARK H PARENT
REMARK Flexibility Score: inf
ROOT
ATOM      1  C   UNL     1       1.102 -35.844  20.651  1.00  0.00     0.006 C 
ENDROOT
BRANCH   1   2
ATOM      2  C   UNL     1       2.363 -36.485  21.246  1.00  0.00     0.053 C 
BRANCH   2   3
ATOM      3  C   UNL     1       3.145 -35.508  22.070  1.00  0.00     0.041 C 
ATOM      4  O   UNL     1       2.551 -34.688  22.816  1.00  0.00    -0.550 OA
ATOM      5  O   UNL     1       4.534 -35.529  22.037  1.00  0.00    -0.550 OA
ENDBRANCH   2   3
ENDBRANCH   1   2
BRANCH   1   6
ATOM      6  C   UNL     1      -0.184 -36.534  21.131  1.00  0.00     0.000 C 
BRANCH   6   7
ATOM      7  C   UNL     1      -1.371 -35.560  21.106  1.00  0.00    -0.000 C 
BRANCH   7   8
ATOM      8  C   UNL     1      -2.675 -36.206  21.600  1.00  0.00    -0.003 C 
ATOM      9  C   UNL     1      -3.018 -37.494  20.853  1.00  0.00     0.004 C 
ENDBRANCH   7   8
ENDBRANCH   6   7
ENDBRANCH   1   6
TORSDOF 5
ENDMDL
MODEL 9
REMARK VINA RESULT:    -3.410      2.363      3.343
REMARK INTER + INTRA:          -4.658
REMARK INTER:                  -4.490
REMARK INTRA:                  -0.168
REMARK UNBOUND:                -0.251
REMARK SMILES CCCCCCC(=O)[O-]
REMARK SMILES IDX 5 1 6 2 7 3 8 4 9 5 4 6 3 7 2 8 1 9
REMARK H PARENT
REMARK Flexibility Score: inf
ROOT
ATOM      1  C   UNL     1      -0.465 -35.535  21.353  1.00  0.00     0.006 C 
ENDROOT
BRANCH   1   2
ATOM      2  C   UNL     1       0.526 -36.605  20.878  1.00  0.00     0.053 C 
BRANCH   2   3
ATOM      3  C   UNL     1       1.911 -36.053  20.731  1.00  0.00     0.041 C 
ATOM      4  O   UNL     1       2.596 -35.776  21.751  1.00  0.00    -0.550 OA
ATOM      5  O   UNL     1       2.458 -35.875  19.466  1.00  0.00    -0.550 OA
ENDBRANCH   2   3
ENDBRANCH   1   2
BRANCH   1   6
ATOM      6  C   UNL     1      -1.924 -35.933  21.084  1.00  0.00     0.000 C 
BRANCH   6   7
ATOM      7  C   UNL     1      -2.072 -37.459  21.009  1.00  0.00    -0.000 C 
BRANCH   7   8
ATOM      8  C   UNL     1      -3.432 -37.894  20.440  1.00  0.00    -0.003 C 
ATOM      9  C   UNL     1      -3.395 -38.125  18.929  1.00  0.00     0.004 C 
ENDBRANCH   7   8
ENDBRANCH   6   7
ENDBRANCH   1   6
TORSDOF 5
ENDMDL
