MODEL 1
REMARK VINA RESULT:    -3.958      0.000      0.000
REMARK INTER + INTRA:         -13.145
REMARK INTER:                  -9.048
REMARK INTRA:                  -4.098
REMARK UNBOUND:                -4.098
REMARK SMILES CCCCCCCCCCCCCCCCCCCCCCCC(=O)[O-]
REMARK SMILES IDX 13 1 14 2 15 3 16 4 17 5 18 6 19 7 20 8 21 9 22 10 23 11
REMARK SMILES IDX 24 12 25 13 26 14 12 15 11 16 10 17 9 18 8 19 7 20 6 21 5 22
REMARK SMILES IDX 4 23 3 24 2 25 1 26
REMARK H PARENT
REMARK Flexibility Score: inf
ROOT
ATOM      1  C   UNL     1    -108.727 -43.179 -63.541  1.00  0.00     0.000 C 
ENDROOT
BRANCH   1   2
ATOM      2  C   UNL     1    -110.192 -43.423 -63.131  1.00  0.00     0.000 C 
BRANCH   2   3
ATOM      3  C   UNL     1    -111.199 -43.240 -64.286  1.00  0.00     0.000 C 
BRANCH   3   4
ATOM      4  C   UNL     1    -112.620 -42.931 -63.791  1.00  0.00     0.000 C 
BRANCH   4   5
ATOM      5  C   UNL     1    -113.375 -42.057 -64.803  1.00  0.00     0.000 C 
BRANCH   5   6
ATOM      6  C   UNL     1    -112.458 -41.067 -65.541  1.00  0.00     0.000 C 
BRANCH   6   7
ATOM      7  C   UNL     1    -112.740 -41.009 -67.051  1.00  0.00     0.000 C 
BRANCH   7   8
ATOM      8  C   UNL     1    -113.865 -41.968 -67.476  1.00  0.00     0.000 C 
BRANCH   8   9
ATOM      9  C   UNL     1    -113.345 -43.155 -68.301  1.00  0.00     0.000 C 
BRANCH   9  10
ATOM     10  C   UNL     1    -111.825 -43.314 -68.136  1.00  0.00     0.006 C 
BRANCH  10  11
ATOM     11  C   UNL     1    -111.139 -43.718 -69.447  1.00  0.00     0.053 C 
BRANCH  11  12
ATOM     12  C   UNL     1    -110.393 -42.573 -70.058  1.00  0.00     0.041 C 
ATOM     13  O   UNL     1    -110.953 -41.454 -70.200  1.00  0.00    -0.550 OA
ATOM     14  O   UNL     1    -109.087 -42.748 -70.497  1.00  0.00    -0.550 OA
ENDBRANCH  11  12
ENDBRANCH  10  11
ENDBRANCH   9  10
ENDBRANCH   8   9
ENDBRANCH   7   8
ENDBRANCH   6   7
ENDBRANCH   5   6
ENDBRANCH   4   5
ENDBRANCH   3   4
ENDBRANCH   2   3
ENDBRANCH   1   2
BRANCH   1  15
ATOM     15  C   UNL     1    -107.683 -43.494 -62.452  1.00  0.00     0.000 C 
BRANCH  15  16
ATOM     16  C   UNL     1    -107.249 -42.289 -61.598  1.00  0.00     0.000 C 
BRANCH  16  17
ATOM     17  C   UNL     1    -107.158 -40.984 -62.403  1.00  0.00     0.000 C 
BRANCH  17  18
ATOM     18  C   UNL     1    -105.936 -40.996 -63.335  1.00  0.00    -0.000 C 
BRANCH  18  19
ATOM     19  C   UNL     1    -106.018 -39.908 -64.427  1.00  0.00    -0.000 C 
BRANCH  19  20
ATOM     20  C   UNL     1    -107.168 -38.908 -64.217  1.00  0.00    -0.000 C 
BRANCH  20  21
ATOM     21  C   UNL     1    -108.153 -38.874 -65.398  1.00  0.00    -0.000 C 
BRANCH  21  22
ATOM     22  C   UNL     1    -109.003 -40.152 -65.498  1.00  0.00    -0.000 C 
BRANCH  22  23
ATOM     23  C   UNL     1    -109.034 -40.727 -66.924  1.00  0.00    -0.000 C 
BRANCH  23  24
ATOM     24  C   UNL     1    -108.495 -42.167 -67.002  1.00  0.00    -0.000 C 
BRANCH  24  25
ATOM     25  C   UNL     1    -106.978 -42.283 -67.230  1.00  0.00    -0.003 C 
ATOM     26  C   UNL     1    -106.304 -43.280 -66.290  1.00  0.00     0.004 C 
ENDBRANCH  24  25
ENDBRANCH  23  24
ENDBRANCH  22  23
ENDBRANCH  21  22
ENDBRANCH  20  21
ENDBRANCH  19  20
ENDBRANCH  18  19
ENDBRANCH  17  18
ENDBRANCH  16  17
ENDBRANCH  15  16
ENDBRANCH   1  15
TORSDOF 22
ENDMDL
MODEL 2
REMARK VINA RESULT:    -3.927      1.446      3.087
REMARK INTER + INTRA:         -13.076
REMARK INTER:                  -8.425
REMARK INTRA:                  -4.651
REMARK UNBOUND:                -4.098
REMARK SMILES CCCCCCCCCCCCCCCCCCCCCCCC(=O)[O-]
REMARK SMILES IDX 13 1 14 2 15 3 16 4 17 5 18 6 19 7 20 8 21 9 22 10 23 11
REMARK SMILES IDX 24 12 25 13 26 14 12 15 11 16 10 17 9 18 8 19 7 20 6 21 5 22
REMARK SMILES IDX 4 23 3 24 2 25 1 26
REMARK H PARENT
REMARK Flexibility Score: inf
ROOT
ATOM      1  C   UNL     1    -107.891 -40.225 -65.874  1.00  0.00     0.000 C 
ENDROOT
BRANCH   1   2
ATOM      2  C   UNL     1    -109.328 -39.856 -65.459  1.00  0.00     0.000 C 
BRANCH   2   3
ATOM      3  C   UNL     1    -110.417 -40.628 -66.233  1.00  0.00     0.000 C 
BRANCH   3   4
ATOM      4  C   UNL     1    -110.491 -42.109 -65.833  1.00  0.00     0.000 C 
BRANCH   4   5
ATOM      5  C   UNL     1    -111.788 -42.404 -65.063  1.00  0.00     0.000 C 
BRANCH   5   6
ATOM      6  C   UNL     1    -112.839 -41.293 -65.216  1.00  0.00     0.000 C 
BRANCH   6   7
ATOM      7  C   UNL     1    -114.134 -41.789 -65.882  1.00  0.00     0.000 C 
BRANCH   7   8
ATOM      8  C   UNL     1    -114.093 -41.662 -67.414  1.00  0.00     0.000 C 
BRANCH   8   9
ATOM      9  C   UNL     1    -113.700 -42.978 -68.103  1.00  0.00     0.000 C 
BRANCH   9  10
ATOM     10  C   UNL     1    -112.485 -42.774 -69.022  1.00  0.00     0.006 C 
BRANCH  10  11
ATOM     11  C   UNL     1    -112.294 -41.302 -69.412  1.00  0.00     0.053 C 
BRANCH  11  12
ATOM     12  C   UNL     1    -111.917 -41.155 -70.853  1.00  0.00     0.041 C 
ATOM     13  O   UNL     1    -111.661 -40.017 -71.328  1.00  0.00    -0.550 OA
ATOM     14  O   UNL     1    -111.876 -42.271 -71.679  1.00  0.00    -0.550 OA
ENDBRANCH  11  12
ENDBRANCH  10  11
ENDBRANCH   9  10
ENDBRANCH   8   9
ENDBRANCH   7   8
ENDBRANCH   6   7
ENDBRANCH   5   6
ENDBRANCH   4   5
ENDBRANCH   3   4
ENDBRANCH   2   3
ENDBRANCH   1   2
BRANCH   1  15
ATOM     15  C   UNL     1    -106.800 -39.849 -64.854  1.00  0.00     0.000 C 
BRANCH  15  16
ATOM     16  C   UNL     1    -107.251 -39.859 -63.382  1.00  0.00     0.000 C 
BRANCH  16  17
ATOM     17  C   UNL     1    -106.705 -41.060 -62.595  1.00  0.00     0.000 C 
BRANCH  17  18
ATOM     18  C   UNL     1    -107.845 -41.977 -62.126  1.00  0.00    -0.000 C 
BRANCH  18  19
ATOM     19  C   UNL     1    -108.147 -43.104 -63.137  1.00  0.00    -0.000 C 
BRANCH  19  20
ATOM     20  C   UNL     1    -106.931 -43.513 -63.986  1.00  0.00    -0.000 C 
BRANCH  20  21
ATOM     21  C   UNL     1    -107.300 -43.820 -65.447  1.00  0.00    -0.000 C 
BRANCH  21  22
ATOM     22  C   UNL     1    -106.151 -43.517 -66.424  1.00  0.00    -0.000 C 
BRANCH  22  23
ATOM     23  C   UNL     1    -106.657 -43.096 -67.814  1.00  0.00    -0.000 C 
BRANCH  23  24
ATOM     24  C   UNL     1    -108.060 -43.646 -68.133  1.00  0.00    -0.000 C 
BRANCH  24  25
ATOM     25  C   UNL     1    -108.815 -42.898 -69.246  1.00  0.00    -0.003 C 
ATOM     26  C   UNL     1    -108.466 -41.411 -69.312  1.00  0.00     0.004 C 
ENDBRANCH  24  25
ENDBRANCH  23  24
ENDBRANCH  22  23
ENDBRANCH  21  22
ENDBRANCH  20  21
ENDBRANCH  19  20
ENDBRANCH  18  19
ENDBRANCH  17  18
ENDBRANCH  16  17
ENDBRANCH  15  16
ENDBRANCH   1  15
TORSDOF 22
ENDMDL
MODEL 3
REMARK VINA RESULT:    -3.909      2.623      6.166
REMARK INTER + INTRA:         -13.034
REMARK INTER:                  -9.329
REMARK INTRA:                  -3.705
REMARK UNBOUND:                -4.098
REMARK SMILES CCCCCCCCCCCCCCCCCCCCCCCC(=O)[O-]
REMARK SMILES IDX 13 1 14 2 15 3 16 4 17 5 18 6 19 7 20 8 21 9 22 10 23 11
REMARK SMILES IDX 24 12 25 13 26 14 12 15 11 16 10 17 9 18 8 19 7 20 6 21 5 22
REMARK SMILES IDX 4 23 3 24 2 25 1 26
REMARK H PARENT
REMARK Flexibility Score: inf
ROOT
ATOM      1  C   UNL     1    -113.284 -40.753 -67.147  1.00  0.00     0.000 C 
ENDROOT
BRANCH   1   2
ATOM      2  C   UNL     1    -113.689 -42.033 -67.902  1.00  0.00     0.000 C 
BRANCH   2   3
ATOM      3  C   UNL     1    -112.786 -42.354 -69.112  1.00  0.00     0.000 C 
BRANCH   3   4
ATOM      4  C   UNL     1    -112.174 -43.761 -69.039  1.00  0.00     0.000 C 
BRANCH   4   5
ATOM      5  C   UNL     1    -110.730 -43.704 -68.519  1.00  0.00     0.000 C 
BRANCH   5   6
ATOM      6  C   UNL     1    -110.036 -42.367 -68.825  1.00  0.00     0.000 C 
BRANCH   6   7
ATOM      7  C   UNL     1    -109.171 -41.865 -67.657  1.00  0.00     0.000 C 
BRANCH   7   8
ATOM      8  C   UNL     1    -109.526 -40.429 -67.238  1.00  0.00     0.000 C 
BRANCH   8   9
ATOM      9  C   UNL     1    -109.247 -40.164 -65.750  1.00  0.00     0.000 C 
BRANCH   9  10
ATOM     10  C   UNL     1    -107.746 -39.939 -65.506  1.00  0.00     0.006 C 
BRANCH  10  11
ATOM     11  C   UNL     1    -107.476 -39.220 -64.178  1.00  0.00     0.053 C 
BRANCH  11  12
ATOM     12  C   UNL     1    -106.520 -38.081 -64.349  1.00  0.00     0.041 C 
ATOM     13  O   UNL     1    -106.651 -37.281 -65.313  1.00  0.00    -0.550 OA
ATOM     14  O   UNL     1    -105.465 -37.918 -63.460  1.00  0.00    -0.550 OA
ENDBRANCH  11  12
ENDBRANCH  10  11
ENDBRANCH   9  10
ENDBRANCH   8   9
ENDBRANCH   7   8
ENDBRANCH   6   7
ENDBRANCH   5   6
ENDBRANCH   4   5
ENDBRANCH   3   4
ENDBRANCH   2   3
ENDBRANCH   1   2
BRANCH   1  15
ATOM     15  C   UNL     1    -112.862 -40.966 -65.681  1.00  0.00     0.000 C 
BRANCH  15  16
ATOM     16  C   UNL     1    -113.392 -42.258 -65.031  1.00  0.00     0.000 C 
BRANCH  16  17
ATOM     17  C   UNL     1    -112.362 -42.934 -64.114  1.00  0.00     0.000 C 
BRANCH  17  18
ATOM     18  C   UNL     1    -111.053 -43.214 -64.868  1.00  0.00    -0.000 C 
BRANCH  18  19
ATOM     19  C   UNL     1    -109.844 -43.347 -63.917  1.00  0.00    -0.000 C 
BRANCH  19  20
ATOM     20  C   UNL     1    -108.513 -43.605 -64.643  1.00  0.00    -0.000 C 
BRANCH  20  21
ATOM     21  C   UNL     1    -107.287 -43.349 -63.751  1.00  0.00    -0.000 C 
BRANCH  21  22
ATOM     22  C   UNL     1    -107.649 -43.246 -62.260  1.00  0.00    -0.000 C 
BRANCH  22  23
ATOM     23  C   UNL     1    -107.363 -41.850 -61.681  1.00  0.00    -0.000 C 
BRANCH  23  24
ATOM     24  C   UNL     1    -105.967 -41.741 -61.039  1.00  0.00    -0.000 C 
BRANCH  24  25
ATOM     25  C   UNL     1    -105.508 -42.990 -60.267  1.00  0.00    -0.003 C 
ATOM     26  C   UNL     1    -105.885 -42.953 -58.787  1.00  0.00     0.004 C 
ENDBRANCH  24  25
ENDBRANCH  23  24
ENDBRANCH  22  23
ENDBRANCH  21  22
ENDBRANCH  20  21
ENDBRANCH  19  20
ENDBRANCH  18  19
ENDBRANCH  17  18
ENDBRANCH  16  17
ENDBRANCH  15  16
ENDBRANCH   1  15
TORSDOF 22
ENDMDL
MODEL 4
REMARK VINA RESULT:    -3.881      3.770      7.526
REMARK INTER + INTRA:         -12.970
REMARK INTER:                  -8.664
REMARK INTRA:                  -4.307
REMARK UNBOUND:                -4.098
REMARK SMILES CCCCCCCCCCCCCCCCCCCCCCCC(=O)[O-]
REMARK SMILES IDX 13 1 14 2 15 3 16 4 17 5 18 6 19 7 20 8 21 9 22 10 23 11
REMARK SMILES IDX 24 12 25 13 26 14 12 15 11 16 10 17 9 18 8 19 7 20 6 21 5 22
REMARK SMILES IDX 4 23 3 24 2 25 1 26
REMARK H PARENT
REMARK Flexibility Score: inf
ROOT
ATOM      1  C   UNL     1    -108.562 -40.149 -65.854  1.00  0.00     0.000 C 
ENDROOT
BRANCH   1   2
ATOM      2  C   UNL     1    -107.671 -41.262 -66.437  1.00  0.00     0.000 C 
BRANCH   2   3
ATOM      3  C   UNL     1    -106.244 -41.289 -65.849  1.00  0.00     0.000 C 
BRANCH   3   4
ATOM      4  C   UNL     1    -105.844 -42.677 -65.326  1.00  0.00     0.000 C 
BRANCH   4   5
ATOM      5  C   UNL     1    -107.087 -43.542 -65.067  1.00  0.00     0.000 C 
BRANCH   5   6
ATOM      6  C   UNL     1    -107.341 -43.793 -63.572  1.00  0.00     0.000 C 
BRANCH   6   7
ATOM      7  C   UNL     1    -108.294 -42.758 -62.950  1.00  0.00     0.000 C 
BRANCH   7   8
ATOM      8  C   UNL     1    -107.605 -41.892 -61.882  1.00  0.00     0.000 C 
BRANCH   8   9
ATOM      9  C   UNL     1    -107.091 -40.559 -62.446  1.00  0.00     0.000 C 
BRANCH   9  10
ATOM     10  C   UNL     1    -105.661 -40.273 -61.957  1.00  0.00     0.006 C 
BRANCH  10  11
ATOM     11  C   UNL     1    -105.225 -41.236 -60.845  1.00  0.00     0.053 C 
BRANCH  11  12
ATOM     12  C   UNL     1    -104.726 -40.501 -59.640  1.00  0.00     0.041 C 
ATOM     13  O   UNL     1    -104.844 -41.009 -58.494  1.00  0.00    -0.550 OA
ATOM     14  O   UNL     1    -104.154 -39.243 -59.779  1.00  0.00    -0.550 OA
ENDBRANCH  11  12
ENDBRANCH  10  11
ENDBRANCH   9  10
ENDBRANCH   8   9
ENDBRANCH   7   8
ENDBRANCH   6   7
ENDBRANCH   5   6
ENDBRANCH   4   5
ENDBRANCH   3   4
ENDBRANCH   2   3
ENDBRANCH   1   2
BRANCH   1  15
ATOM     15  C   UNL     1    -110.063 -40.485 -65.781  1.00  0.00     0.000 C 
BRANCH  15  16
ATOM     16  C   UNL     1    -110.396 -41.988 -65.799  1.00  0.00     0.000 C 
BRANCH  16  17
ATOM     17  C   UNL     1    -111.792 -42.300 -65.240  1.00  0.00     0.000 C 
BRANCH  17  18
ATOM     18  C   UNL     1    -112.751 -41.119 -65.462  1.00  0.00    -0.000 C 
BRANCH  18  19
ATOM     19  C   UNL     1    -113.733 -41.369 -66.626  1.00  0.00    -0.000 C 
BRANCH  19  20
ATOM     20  C   UNL     1    -113.266 -40.777 -67.966  1.00  0.00    -0.000 C 
BRANCH  20  21
ATOM     21  C   UNL     1    -113.292 -41.801 -69.113  1.00  0.00    -0.000 C 
BRANCH  21  22
ATOM     22  C   UNL     1    -113.080 -43.244 -68.625  1.00  0.00    -0.000 C 
BRANCH  22  23
ATOM     23  C   UNL     1    -111.619 -43.704 -68.767  1.00  0.00    -0.000 C 
BRANCH  23  24
ATOM     24  C   UNL     1    -110.868 -42.974 -69.896  1.00  0.00    -0.000 C 
BRANCH  24  25
ATOM     25  C   UNL     1    -109.592 -42.235 -69.457  1.00  0.00    -0.003 C 
ATOM     26  C   UNL     1    -109.724 -40.715 -69.530  1.00  0.00     0.004 C 
ENDBRANCH  24  25
ENDBRANCH  23  24
ENDBRANCH  22  23
ENDBRANCH  21  22
ENDBRANCH  20  21
ENDBRANCH  19  20
ENDBRANCH  18  19
ENDBRANCH  17  18
ENDBRANCH  16  17
ENDBRANCH  15  16
ENDBRANCH   1  15
TORSDOF 22
ENDMDL
MODEL 5
REMARK VINA RESULT:    -3.871      1.345      3.604
REMARK INTER + INTRA:         -12.948
REMARK INTER:                  -9.138
REMARK INTRA:                  -3.810
REMARK UNBOUND:                -4.098
REMARK SMILES CCCCCCCCCCCCCCCCCCCCCCCC(=O)[O-]
REMARK SMILES IDX 13 1 14 2 15 3 16 4 17 5 18 6 19 7 20 8 21 9 22 10 23 11
REMARK SMILES IDX 24 12 25 13 26 14 12 15 11 16 10 17 9 18 8 19 7 20 6 21 5 22
REMARK SMILES IDX 4 23 3 24 2 25 1 26
REMARK H PARENT
REMARK Flexibility Score: inf
ROOT
ATOM      1  C   UNL     1    -110.896 -41.115 -65.749  1.00  0.00     0.000 C 
ENDROOT
BRANCH   1   2
ATOM      2  C   UNL     1    -111.496 -42.371 -65.088  1.00  0.00     0.000 C 
BRANCH   2   3
ATOM      3  C   UNL     1    -112.942 -42.177 -64.583  1.00  0.00     0.000 C 
BRANCH   3   4
ATOM      4  C   UNL     1    -113.731 -41.160 -65.420  1.00  0.00     0.000 C 
BRANCH   4   5
ATOM      5  C   UNL     1    -114.561 -41.867 -66.502  1.00  0.00     0.000 C 
BRANCH   5   6
ATOM      6  C   UNL     1    -113.864 -41.886 -67.873  1.00  0.00     0.000 C 
BRANCH   6   7
ATOM      7  C   UNL     1    -113.466 -43.304 -68.316  1.00  0.00     0.000 C 
BRANCH   7   8
ATOM      8  C   UNL     1    -111.968 -43.417 -68.646  1.00  0.00     0.000 C 
BRANCH   8   9
ATOM      9  C   UNL     1    -111.420 -42.159 -69.336  1.00  0.00     0.000 C 
BRANCH   9  10
ATOM     10  C   UNL     1    -110.258 -42.513 -70.278  1.00  0.00     0.006 C 
BRANCH  10  11
ATOM     11  C   UNL     1    -109.319 -43.563 -69.671  1.00  0.00     0.053 C 
BRANCH  11  12
ATOM     12  C   UNL     1    -107.880 -43.208 -69.881  1.00  0.00     0.041 C 
ATOM     13  O   UNL     1    -107.526 -42.578 -70.912  1.00  0.00    -0.550 OA
ATOM     14  O   UNL     1    -106.924 -43.598 -68.952  1.00  0.00    -0.550 OA
ENDBRANCH  11  12
ENDBRANCH  10  11
ENDBRANCH   9  10
ENDBRANCH   8   9
ENDBRANCH   7   8
ENDBRANCH   6   7
ENDBRANCH   5   6
ENDBRANCH   4   5
ENDBRANCH   3   4
ENDBRANCH   2   3
ENDBRANCH   1   2
BRANCH   1  15
ATOM     15  C   UNL     1    -109.490 -41.302 -66.348  1.00  0.00     0.000 C 
BRANCH  15  16
ATOM     16  C   UNL     1    -108.881 -42.703 -66.160  1.00  0.00     0.000 C 
BRANCH  16  17
ATOM     17  C   UNL     1    -107.474 -42.668 -65.546  1.00  0.00     0.000 C 
BRANCH  17  18
ATOM     18  C   UNL     1    -107.407 -43.524 -64.271  1.00  0.00    -0.000 C 
BRANCH  18  19
ATOM     19  C   UNL     1    -108.374 -43.024 -63.177  1.00  0.00    -0.000 C 
BRANCH  19  20
ATOM     20  C   UNL     1    -107.687 -42.202 -62.074  1.00  0.00    -0.000 C 
BRANCH  20  21
ATOM     21  C   UNL     1    -106.195 -41.960 -62.351  1.00  0.00    -0.000 C 
BRANCH  21  22
ATOM     22  C   UNL     1    -105.919 -40.563 -62.934  1.00  0.00    -0.000 C 
BRANCH  22  23
ATOM     23  C   UNL     1    -107.134 -39.628 -62.819  1.00  0.00    -0.000 C 
BRANCH  23  24
ATOM     24  C   UNL     1    -107.599 -39.079 -64.181  1.00  0.00    -0.000 C 
BRANCH  24  25
ATOM     25  C   UNL     1    -106.470 -38.781 -65.182  1.00  0.00    -0.003 C 
ATOM     26  C   UNL     1    -106.159 -37.290 -65.310  1.00  0.00     0.004 C 
ENDBRANCH  24  25
ENDBRANCH  23  24
ENDBRANCH  22  23
ENDBRANCH  21  22
ENDBRANCH  20  21
ENDBRANCH  19  20
ENDBRANCH  18  19
ENDBRANCH  17  18
ENDBRANCH  16  17
ENDBRANCH  15  16
ENDBRANCH   1  15
TORSDOF 22
ENDMDL
MODEL 6
REMARK VINA RESULT:    -3.866      1.610      3.640
REMARK INTER + INTRA:         -12.936
REMARK INTER:                  -8.659
REMARK INTRA:                  -4.277
REMARK UNBOUND:                -4.098
REMARK SMILES CCCCCCCCCCCCCCCCCCCCCCCC(=O)[O-]
REMARK SMILES IDX 13 1 14 2 15 3 16 4 17 5 18 6 19 7 20 8 21 9 22 10 23 11
REMARK SMILES IDX 24 12 25 13 26 14 12 15 11 16 10 17 9 18 8 19 7 20 6 21 5 22
REMARK SMILES IDX 4 23 3 24 2 25 1 26
REMARK H PARENT
REMARK Flexibility Score: inf
ROOT
ATOM      1  C   UNL     1    -111.624 -40.659 -65.765  1.00  0.00     0.000 C 
ENDROOT
BRANCH   1   2
ATOM      2  C   UNL     1    -112.669 -41.540 -65.055  1.00  0.00     0.000 C 
BRANCH   2   3
ATOM      3  C   UNL     1    -114.084 -41.444 -65.666  1.00  0.00     0.000 C 
BRANCH   3   4
ATOM      4  C   UNL     1    -114.084 -41.633 -67.190  1.00  0.00     0.000 C 
BRANCH   4   5
ATOM      5  C   UNL     1    -113.621 -43.048 -67.566  1.00  0.00     0.000 C 
BRANCH   5   6
ATOM      6  C   UNL     1    -113.461 -43.243 -69.083  1.00  0.00     0.000 C 
BRANCH   6   7
ATOM      7  C   UNL     1    -112.062 -43.750 -69.473  1.00  0.00     0.000 C 
BRANCH   7   8
ATOM      8  C   UNL     1    -110.948 -43.103 -68.632  1.00  0.00     0.000 C 
BRANCH   8   9
ATOM      9  C   UNL     1    -109.893 -42.398 -69.497  1.00  0.00     0.000 C 
BRANCH   9  10
ATOM     10  C   UNL     1    -109.923 -40.878 -69.267  1.00  0.00     0.006 C 
BRANCH  10  11
ATOM     11  C   UNL     1    -111.330 -40.293 -69.445  1.00  0.00     0.053 C 
BRANCH  11  12
ATOM     12  C   UNL     1    -111.683 -40.129 -70.891  1.00  0.00     0.041 C 
ATOM     13  O   UNL     1    -112.757 -40.609 -71.340  1.00  0.00    -0.550 OA
ATOM     14  O   UNL     1    -110.812 -39.471 -71.750  1.00  0.00    -0.550 OA
ENDBRANCH  11  12
ENDBRANCH  10  11
ENDBRANCH   9  10
ENDBRANCH   8   9
ENDBRANCH   7   8
ENDBRANCH   6   7
ENDBRANCH   5   6
ENDBRANCH   4   5
ENDBRANCH   3   4
ENDBRANCH   2   3
ENDBRANCH   1   2
BRANCH   1  15
ATOM     15  C   UNL     1    -110.177 -41.181 -65.700  1.00  0.00     0.000 C 
BRANCH  15  16
ATOM     16  C   UNL     1    -110.015 -42.578 -65.073  1.00  0.00     0.000 C 
BRANCH  16  17
ATOM     17  C   UNL     1    -108.757 -43.312 -65.560  1.00  0.00     0.000 C 
BRANCH  17  18
ATOM     18  C   UNL     1    -107.800 -43.598 -64.393  1.00  0.00    -0.000 C 
BRANCH  18  19
ATOM     19  C   UNL     1    -108.198 -42.841 -63.107  1.00  0.00    -0.000 C 
BRANCH  19  20
ATOM     20  C   UNL     1    -107.083 -41.938 -62.553  1.00  0.00    -0.000 C 
BRANCH  20  21
ATOM     21  C   UNL     1    -107.360 -40.442 -62.777  1.00  0.00    -0.000 C 
BRANCH  21  22
ATOM     22  C   UNL     1    -106.983 -39.976 -64.193  1.00  0.00    -0.000 C 
BRANCH  22  23
ATOM     23  C   UNL     1    -105.652 -40.575 -64.675  1.00  0.00    -0.000 C 
BRANCH  23  24
ATOM     24  C   UNL     1    -105.538 -40.628 -66.210  1.00  0.00    -0.000 C 
BRANCH  24  25
ATOM     25  C   UNL     1    -106.858 -40.403 -66.968  1.00  0.00    -0.003 C 
ATOM     26  C   UNL     1    -106.795 -39.233 -67.949  1.00  0.00     0.004 C 
ENDBRANCH  24  25
ENDBRANCH  23  24
ENDBRANCH  22  23
ENDBRANCH  21  22
ENDBRANCH  20  21
ENDBRANCH  19  20
ENDBRANCH  18  19
ENDBRANCH  17  18
ENDBRANCH  16  17
ENDBRANCH  15  16
ENDBRANCH   1  15
TORSDOF 22
ENDMDL
MODEL 7
REMARK VINA RESULT:    -3.858      3.652      7.092
REMARK INTER + INTRA:         -12.919
REMARK INTER:                  -9.383
REMARK INTRA:                  -3.535
REMARK UNBOUND:                -4.098
REMARK SMILES CCCCCCCCCCCCCCCCCCCCCCCC(=O)[O-]
REMARK SMILES IDX 13 1 14 2 15 3 16 4 17 5 18 6 19 7 20 8 21 9 22 10 23 11
REMARK SMILES IDX 24 12 25 13 26 14 12 15 11 16 10 17 9 18 8 19 7 20 6 21 5 22
REMARK SMILES IDX 4 23 3 24 2 25 1 26
REMARK H PARENT
REMARK Flexibility Score: inf
ROOT
ATOM      1  C   UNL     1    -113.790 -41.081 -67.525  1.00  0.00     0.000 C 
ENDROOT
BRANCH   1   2
ATOM      2  C   UNL     1    -113.744 -41.146 -65.987  1.00  0.00     0.000 C 
BRANCH   2   3
ATOM      3  C   UNL     1    -112.314 -41.206 -65.409  1.00  0.00     0.000 C 
BRANCH   3   4
ATOM      4  C   UNL     1    -111.808 -42.645 -65.227  1.00  0.00     0.000 C 
BRANCH   4   5
ATOM      5  C   UNL     1    -110.336 -42.657 -64.790  1.00  0.00     0.000 C 
BRANCH   5   6
ATOM      6  C   UNL     1    -109.525 -43.783 -65.451  1.00  0.00     0.000 C 
BRANCH   6   7
ATOM      7  C   UNL     1    -108.049 -43.786 -65.018  1.00  0.00     0.000 C 
BRANCH   7   8
ATOM      8  C   UNL     1    -107.821 -43.012 -63.708  1.00  0.00     0.000 C 
BRANCH   8   9
ATOM      9  C   UNL     1    -107.749 -43.936 -62.483  1.00  0.00     0.000 C 
BRANCH   9  10
ATOM     10  C   UNL     1    -106.480 -43.659 -61.661  1.00  0.00     0.006 C 
BRANCH  10  11
ATOM     11  C   UNL     1    -106.585 -42.360 -60.852  1.00  0.00     0.053 C 
BRANCH  11  12
ATOM     12  C   UNL     1    -105.844 -42.453 -59.555  1.00  0.00     0.041 C 
ATOM     13  O   UNL     1    -105.892 -43.509 -58.871  1.00  0.00    -0.550 OA
ATOM     14  O   UNL     1    -105.123 -41.362 -59.086  1.00  0.00    -0.550 OA
ENDBRANCH  11  12
ENDBRANCH  10  11
ENDBRANCH   9  10
ENDBRANCH   8   9
ENDBRANCH   7   8
ENDBRANCH   6   7
ENDBRANCH   5   6
ENDBRANCH   4   5
ENDBRANCH   3   4
ENDBRANCH   2   3
ENDBRANCH   1   2
BRANCH   1  15
ATOM     15  C   UNL     1    -113.933 -42.442 -68.232  1.00  0.00     0.000 C 
BRANCH  15  16
ATOM     16  C   UNL     1    -112.867 -42.734 -69.305  1.00  0.00     0.000 C 
BRANCH  16  17
ATOM     17  C   UNL     1    -111.834 -43.777 -68.855  1.00  0.00     0.000 C 
BRANCH  17  18
ATOM     18  C   UNL     1    -110.405 -43.225 -68.979  1.00  0.00    -0.000 C 
BRANCH  18  19
ATOM     19  C   UNL     1    -110.374 -41.684 -69.054  1.00  0.00    -0.000 C 
BRANCH  19  20
ATOM     20  C   UNL     1    -109.668 -41.021 -67.859  1.00  0.00    -0.000 C 
BRANCH  20  21
ATOM     21  C   UNL     1    -108.205 -40.656 -68.158  1.00  0.00    -0.000 C 
BRANCH  21  22
ATOM     22  C   UNL     1    -107.445 -40.183 -66.907  1.00  0.00    -0.000 C 
BRANCH  22  23
ATOM     23  C   UNL     1    -108.388 -39.695 -65.795  1.00  0.00    -0.000 C 
BRANCH  23  24
ATOM     24  C   UNL     1    -107.661 -38.889 -64.703  1.00  0.00    -0.000 C 
BRANCH  24  25
ATOM     25  C   UNL     1    -107.350 -39.671 -63.415  1.00  0.00    -0.003 C 
ATOM     26  C   UNL     1    -106.042 -39.241 -62.754  1.00  0.00     0.004 C 
ENDBRANCH  24  25
ENDBRANCH  23  24
ENDBRANCH  22  23
ENDBRANCH  21  22
ENDBRANCH  20  21
ENDBRANCH  19  20
ENDBRANCH  18  19
ENDBRANCH  17  18
ENDBRANCH  16  17
ENDBRANCH  15  16
ENDBRANCH   1  15
TORSDOF 22
ENDMDL
MODEL 8
REMARK VINA RESULT:    -3.853      2.161      5.887
REMARK INTER + INTRA:         -12.905
REMARK INTER:                  -9.009
REMARK INTRA:                  -3.897
REMARK UNBOUND:                -4.098
REMARK SMILES CCCCCCCCCCCCCCCCCCCCCCCC(=O)[O-]
REMARK SMILES IDX 13 1 14 2 15 3 16 4 17 5 18 6 19 7 20 8 21 9 22 10 23 11
REMARK SMILES IDX 24 12 25 13 26 14 12 15 11 16 10 17 9 18 8 19 7 20 6 21 5 22
REMARK SMILES IDX 4 23 3 24 2 25 1 26
REMARK H PARENT
REMARK Flexibility Score: inf
ROOT
ATOM      1  C   UNL     1    -108.696 -43.366 -64.183  1.00  0.00     0.000 C 
ENDROOT
BRANCH   1   2
ATOM      2  C   UNL     1    -108.394 -42.659 -62.848  1.00  0.00     0.000 C 
BRANCH   2   3
ATOM      3  C   UNL     1    -106.908 -42.714 -62.437  1.00  0.00     0.000 C 
BRANCH   3   4
ATOM      4  C   UNL     1    -106.236 -41.333 -62.452  1.00  0.00     0.000 C 
BRANCH   4   5
ATOM      5  C   UNL     1    -107.259 -40.231 -62.767  1.00  0.00     0.000 C 
BRANCH   5   6
ATOM      6  C   UNL     1    -106.633 -39.020 -63.480  1.00  0.00     0.000 C 
BRANCH   6   7
ATOM      7  C   UNL     1    -107.400 -38.619 -64.751  1.00  0.00     0.000 C 
BRANCH   7   8
ATOM      8  C   UNL     1    -108.395 -39.700 -65.203  1.00  0.00     0.000 C 
BRANCH   8   9
ATOM      9  C   UNL     1    -108.098 -40.219 -66.618  1.00  0.00     0.000 C 
BRANCH   9  10
ATOM     10  C   UNL     1    -106.635 -40.675 -66.739  1.00  0.00     0.006 C 
BRANCH  10  11
ATOM     11  C   UNL     1    -106.509 -42.201 -66.831  1.00  0.00     0.053 C 
BRANCH  11  12
ATOM     12  C   UNL     1    -105.448 -42.726 -65.914  1.00  0.00     0.041 C 
ATOM     13  O   UNL     1    -105.473 -43.927 -65.536  1.00  0.00    -0.550 OA
ATOM     14  O   UNL     1    -104.446 -41.881 -65.454  1.00  0.00    -0.550 OA
ENDBRANCH  11  12
ENDBRANCH  10  11
ENDBRANCH   9  10
ENDBRANCH   8   9
ENDBRANCH   7   8
ENDBRANCH   6   7
ENDBRANCH   5   6
ENDBRANCH   4   5
ENDBRANCH   3   4
ENDBRANCH   2   3
ENDBRANCH   1   2
BRANCH   1  15
ATOM     15  C   UNL     1    -110.120 -43.151 -64.730  1.00  0.00     0.000 C 
BRANCH  15  16
ATOM     16  C   UNL     1    -111.254 -43.473 -63.739  1.00  0.00     0.000 C 
BRANCH  16  17
ATOM     17  C   UNL     1    -112.582 -42.794 -64.105  1.00  0.00     0.000 C 
BRANCH  17  18
ATOM     18  C   UNL     1    -112.386 -41.781 -65.245  1.00  0.00    -0.000 C 
BRANCH  18  19
ATOM     19  C   UNL     1    -113.719 -41.160 -65.715  1.00  0.00    -0.000 C 
BRANCH  19  20
ATOM     20  C   UNL     1    -114.083 -41.504 -67.169  1.00  0.00    -0.000 C 
BRANCH  20  21
ATOM     21  C   UNL     1    -113.676 -42.934 -67.564  1.00  0.00    -0.000 C 
BRANCH  21  22
ATOM     22  C   UNL     1    -113.524 -43.108 -69.084  1.00  0.00    -0.000 C 
BRANCH  22  23
ATOM     23  C   UNL     1    -112.129 -43.620 -69.480  1.00  0.00    -0.000 C 
BRANCH  23  24
ATOM     24  C   UNL     1    -111.109 -43.532 -68.330  1.00  0.00    -0.000 C 
BRANCH  24  25
ATOM     25  C   UNL     1    -110.174 -42.311 -68.380  1.00  0.00    -0.003 C 
ATOM     26  C   UNL     1    -110.105 -41.665 -69.764  1.00  0.00     0.004 C 
ENDBRANCH  24  25
ENDBRANCH  23  24
ENDBRANCH  22  23
ENDBRANCH  21  22
ENDBRANCH  20  21
ENDBRANCH  19  20
ENDBRANCH  18  19
ENDBRANCH  17  18
ENDBRANCH  16  17
ENDBRANCH  15  16
ENDBRANCH   1  15
TORSDOF 22
ENDMDL
MODEL 9
REMARK VINA RESULT:    -3.851      3.291      7.101
REMARK INTER + INTRA:         -12.902
REMARK INTER:                  -9.255
REMARK INTRA:                  -3.647
REMARK UNBOUND:                -4.098
REMARK SMILES CCCCCCCCCCCCCCCCCCCCCCCC(=O)[O-]
REMARK SMILES IDX 13 1 14 2 15 3 16 4 17 5 18 6 19 7 20 8 21 9 22 10 23 11
REMARK SMILES IDX 24 12 25 13 26 14 12 15 11 16 10 17 9 18 8 19 7 20 6 21 5 22
REMARK SMILES IDX 4 23 3 24 2 25 1 26
REMARK H PARENT
REMARK Flexibility Score: inf
ROOT
ATOM      1  C   UNL     1    -107.700 -43.538 -64.368  1.00  0.00     0.000 C 
ENDROOT
BRANCH   1   2
ATOM      2  C   UNL     1    -107.583 -43.932 -65.852  1.00  0.00     0.000 C 
BRANCH   2   3
ATOM      3  C   UNL     1    -106.697 -42.978 -66.682  1.00  0.00     0.000 C 
BRANCH   3   4
ATOM      4  C   UNL     1    -106.016 -41.903 -65.822  1.00  0.00     0.000 C 
BRANCH   4   5
ATOM      5  C   UNL     1    -106.436 -40.496 -66.271  1.00  0.00     0.000 C 
BRANCH   5   6
ATOM      6  C   UNL     1    -106.238 -39.434 -65.176  1.00  0.00     0.000 C 
BRANCH   6   7
ATOM      7  C   UNL     1    -107.496 -39.227 -64.316  1.00  0.00     0.000 C 
BRANCH   7   8
ATOM      8  C   UNL     1    -107.365 -39.864 -62.922  1.00  0.00     0.000 C 
BRANCH   8   9
ATOM      9  C   UNL     1    -105.925 -39.824 -62.390  1.00  0.00     0.000 C 
BRANCH   9  10
ATOM     10  C   UNL     1    -105.402 -41.245 -62.119  1.00  0.00     0.006 C 
BRANCH  10  11
ATOM     11  C   UNL     1    -105.166 -41.500 -60.625  1.00  0.00     0.053 C 
BRANCH  11  12
ATOM     12  C   UNL     1    -106.006 -42.629 -60.116  1.00  0.00     0.041 C 
ATOM     13  O   UNL     1    -106.108 -42.836 -58.878  1.00  0.00    -0.550 OA
ATOM     14  O   UNL     1    -106.655 -43.472 -61.010  1.00  0.00    -0.550 OA
ENDBRANCH  11  12
ENDBRANCH  10  11
ENDBRANCH   9  10
ENDBRANCH   8   9
ENDBRANCH   7   8
ENDBRANCH   6   7
ENDBRANCH   5   6
ENDBRANCH   4   5
ENDBRANCH   3   4
ENDBRANCH   2   3
ENDBRANCH   1   2
BRANCH   1  15
ATOM     15  C   UNL     1    -109.074 -42.987 -63.944  1.00  0.00     0.000 C 
BRANCH  15  16
ATOM     16  C   UNL     1    -110.081 -42.792 -65.092  1.00  0.00     0.000 C 
BRANCH  16  17
ATOM     17  C   UNL     1    -110.060 -41.370 -65.673  1.00  0.00     0.000 C 
BRANCH  17  18
ATOM     18  C   UNL     1    -111.481 -40.794 -65.769  1.00  0.00    -0.000 C 
BRANCH  18  19
ATOM     19  C   UNL     1    -112.525 -41.681 -65.057  1.00  0.00    -0.000 C 
BRANCH  19  20
ATOM     20  C   UNL     1    -113.962 -41.470 -65.562  1.00  0.00    -0.000 C 
BRANCH  20  21
ATOM     21  C   UNL     1    -114.084 -41.606 -67.089  1.00  0.00    -0.000 C 
BRANCH  21  22
ATOM     22  C   UNL     1    -113.731 -43.016 -67.589  1.00  0.00    -0.000 C 
BRANCH  22  23
ATOM     23  C   UNL     1    -113.417 -43.045 -69.094  1.00  0.00    -0.000 C 
BRANCH  23  24
ATOM     24  C   UNL     1    -112.123 -43.812 -69.423  1.00  0.00    -0.000 C 
BRANCH  24  25
ATOM     25  C   UNL     1    -110.943 -43.533 -68.476  1.00  0.00    -0.003 C 
ATOM     26  C   UNL     1    -109.584 -43.837 -69.105  1.00  0.00     0.004 C 
ENDBRANCH  24  25
ENDBRANCH  23  24
ENDBRANCH  22  23
ENDBRANCH  21  22
ENDBRANCH  20  21
ENDBRANCH  19  20
ENDBRANCH  18  19
ENDBRANCH  17  18
ENDBRANCH  16  17
ENDBRANCH  15  16
ENDBRANCH   1  15
TORSDOF 22
ENDMDL
