MODEL 1
REMARK VINA RESULT:    -4.899      0.000      0.000
REMARK INTER + INTRA:         -11.982
REMARK INTER:                  -9.482
REMARK INTRA:                  -2.501
REMARK UNBOUND:                -2.501
REMARK SMILES CCCCCCCCCCCCCCCCCC(=O)[O-]
REMARK SMILES IDX 10 1 11 2 12 3 13 4 14 5 15 6 16 7 17 8 18 9 19 10 20 11
REMARK SMILES IDX 9 12 8 13 7 14 6 15 5 16 4 17 3 18 2 19 1 20
REMARK H PARENT
REMARK Flexibility Score: inf
ROOT
ATOM      1  C   UNL     1      19.072  -3.233  32.927  1.00  0.00     0.000 C 
ENDROOT
BRANCH   1   2
ATOM      2  C   UNL     1      20.046  -2.351  33.728  1.00  0.00     0.000 C 
BRANCH   2   3
ATOM      3  C   UNL     1      20.630  -3.074  34.952  1.00  0.00     0.000 C 
BRANCH   3   4
ATOM      4  C   UNL     1      22.111  -3.459  34.772  1.00  0.00     0.000 C 
BRANCH   4   5
ATOM      5  C   UNL     1      23.094  -2.775  35.743  1.00  0.00     0.000 C 
BRANCH   5   6
ATOM      6  C   UNL     1      22.510  -1.600  36.547  1.00  0.00     0.000 C 
BRANCH   6   7
ATOM      7  C   UNL     1      23.004  -0.231  36.047  1.00  0.00     0.006 C 
BRANCH   7   8
ATOM      8  C   UNL     1      22.107   0.337  34.939  1.00  0.00     0.053 C 
BRANCH   8   9
ATOM      9  C   UNL     1      21.126   1.332  35.480  1.00  0.00     0.041 C 
ATOM     10  O   UNL     1      20.082   0.939  36.065  1.00  0.00    -0.550 OA
ATOM     11  O   UNL     1      21.349   2.692  35.309  1.00  0.00    -0.550 OA
ENDBRANCH   8   9
ENDBRANCH   7   8
ENDBRANCH   6   7
ENDBRANCH   5   6
ENDBRANCH   4   5
ENDBRANCH   3   4
ENDBRANCH   2   3
ENDBRANCH   1   2
BRANCH   1  12
ATOM     12  C   UNL     1      19.521  -3.494  31.474  1.00  0.00     0.000 C 
BRANCH  12  13
ATOM     13  C   UNL     1      18.844  -4.737  30.872  1.00  0.00    -0.000 C 
BRANCH  13  14
ATOM     14  C   UNL     1      18.236  -5.657  31.954  1.00  0.00    -0.000 C 
BRANCH  14  15
ATOM     15  C   UNL     1      18.690  -7.122  31.841  1.00  0.00    -0.000 C 
BRANCH  15  16
ATOM     16  C   UNL     1      19.467  -7.603  33.075  1.00  0.00    -0.000 C 
BRANCH  16  17
ATOM     17  C   UNL     1      20.513  -6.583  33.557  1.00  0.00    -0.000 C 
BRANCH  17  18
ATOM     18  C   UNL     1      21.931  -6.847  33.006  1.00  0.00    -0.000 C 
BRANCH  18  19
ATOM     19  C   UNL     1      22.387  -5.754  32.027  1.00  0.00    -0.003 C 
ATOM     20  C   UNL     1      22.159  -6.182  30.581  1.00  0.00     0.004 C 
ENDBRANCH  18  19
ENDBRANCH  17  18
ENDBRANCH  16  17
ENDBRANCH  15  16
ENDBRANCH  14  15
ENDBRANCH  13  14
ENDBRANCH  12  13
ENDBRANCH   1  12
TORSDOF 16
ENDMDL
MODEL 2
REMARK VINA RESULT:    -4.869      2.103      4.022
REMARK INTER + INTRA:         -11.925
REMARK INTER:                  -9.527
REMARK INTRA:                  -2.398
REMARK UNBOUND:                -2.501
REMARK SMILES CCCCCCCCCCCCCCCCCC(=O)[O-]
REMARK SMILES IDX 10 1 11 2 12 3 13 4 14 5 15 6 16 7 17 8 18 9 19 10 20 11
REMARK SMILES IDX 9 12 8 13 7 14 6 15 5 16 4 17 3 18 2 19 1 20
REMARK H PARENT
REMARK Flexibility Score: inf
ROOT
ATOM      1  C   UNL     1      19.527  -5.489  30.263  1.00  0.00     0.000 C 
ENDROOT
BRANCH   1   2
ATOM      2  C   UNL     1      18.764  -4.405  31.043  1.00  0.00     0.000 C 
BRANCH   2   3
ATOM      3  C   UNL     1      19.680  -3.276  31.542  1.00  0.00     0.000 C 
BRANCH   3   4
ATOM      4  C   UNL     1      19.389  -2.867  32.999  1.00  0.00     0.000 C 
BRANCH   4   5
ATOM      5  C   UNL     1      20.621  -2.806  33.925  1.00  0.00     0.000 C 
BRANCH   5   6
ATOM      6  C   UNL     1      20.776  -1.499  34.722  1.00  0.00     0.000 C 
BRANCH   6   7
ATOM      7  C   UNL     1      22.160  -1.363  35.381  1.00  0.00     0.006 C 
BRANCH   7   8
ATOM      8  C   UNL     1      22.867  -2.717  35.522  1.00  0.00     0.053 C 
BRANCH   8   9
ATOM      9  C   UNL     1      23.133  -3.055  36.957  1.00  0.00     0.041 C 
ATOM     10  O   UNL     1      22.692  -2.313  37.874  1.00  0.00    -0.550 OA
ATOM     11  O   UNL     1      23.894  -4.170  37.280  1.00  0.00    -0.550 OA
ENDBRANCH   8   9
ENDBRANCH   7   8
ENDBRANCH   6   7
ENDBRANCH   5   6
ENDBRANCH   4   5
ENDBRANCH   3   4
ENDBRANCH   2   3
ENDBRANCH   1   2
BRANCH   1  12
ATOM     12  C   UNL     1      21.040  -5.213  30.135  1.00  0.00     0.000 C 
BRANCH  12  13
ATOM     13  C   UNL     1      21.888  -6.283  30.844  1.00  0.00    -0.000 C 
BRANCH  13  14
ATOM     14  C   UNL     1      22.719  -5.698  32.006  1.00  0.00    -0.000 C 
BRANCH  14  15
ATOM     15  C   UNL     1      22.064  -5.882  33.386  1.00  0.00    -0.000 C 
BRANCH  15  16
ATOM     16  C   UNL     1      21.225  -7.166  33.481  1.00  0.00    -0.000 C 
BRANCH  16  17
ATOM     17  C   UNL     1      19.722  -6.886  33.655  1.00  0.00    -0.000 C 
BRANCH  17  18
ATOM     18  C   UNL     1      18.817  -7.925  32.958  1.00  0.00    -0.000 C 
BRANCH  18  19
ATOM     19  C   UNL     1      17.371  -7.429  32.809  1.00  0.00    -0.003 C 
ATOM     20  C   UNL     1      16.642  -7.448  34.149  1.00  0.00     0.004 C 
ENDBRANCH  18  19
ENDBRANCH  17  18
ENDBRANCH  16  17
ENDBRANCH  15  16
ENDBRANCH  14  15
ENDBRANCH  13  14
ENDBRANCH  12  13
ENDBRANCH   1  12
TORSDOF 16
ENDMDL
MODEL 3
REMARK VINA RESULT:    -4.795      3.540      7.106
REMARK INTER + INTRA:         -11.781
REMARK INTER:                  -9.432
REMARK INTRA:                  -2.349
REMARK UNBOUND:                -2.501
REMARK SMILES CCCCCCCCCCCCCCCCCC(=O)[O-]
REMARK SMILES IDX 10 1 11 2 12 3 13 4 14 5 15 6 16 7 17 8 18 9 19 10 20 11
REMARK SMILES IDX 9 12 8 13 7 14 6 15 5 16 4 17 3 18 2 19 1 20
REMARK H PARENT
REMARK Flexibility Score: inf
ROOT
ATOM      1  C   UNL     1      22.549  -6.119  32.179  1.00  0.00     0.000 C 
ENDROOT
BRANCH   1   2
ATOM      2  C   UNL     1      21.650  -6.273  30.940  1.00  0.00     0.000 C 
BRANCH   2   3
ATOM      3  C   UNL     1      20.584  -5.169  30.840  1.00  0.00     0.000 C 
BRANCH   3   4
ATOM      4  C   UNL     1      19.173  -5.662  31.215  1.00  0.00     0.000 C 
BRANCH   4   5
ATOM      5  C   UNL     1      19.036  -7.187  31.406  1.00  0.00     0.000 C 
BRANCH   5   6
ATOM      6  C   UNL     1      18.892  -7.653  32.866  1.00  0.00     0.000 C 
BRANCH   6   7
ATOM      7  C   UNL     1      17.564  -7.211  33.505  1.00  0.00     0.006 C 
BRANCH   7   8
ATOM      8  C   UNL     1      16.702  -8.406  33.931  1.00  0.00     0.053 C 
BRANCH   8   9
ATOM      9  C   UNL     1      15.872  -8.087  35.136  1.00  0.00     0.041 C 
ATOM     10  O   UNL     1      14.754  -8.643  35.301  1.00  0.00    -0.550 OA
ATOM     11  O   UNL     1      16.318  -7.151  36.060  1.00  0.00    -0.550 OA
ENDBRANCH   8   9
ENDBRANCH   7   8
ENDBRANCH   6   7
ENDBRANCH   5   6
ENDBRANCH   4   5
ENDBRANCH   3   4
ENDBRANCH   2   3
ENDBRANCH   1   2
BRANCH   1  12
ATOM     12  C   UNL     1      22.143  -4.951  33.101  1.00  0.00     0.000 C 
BRANCH  12  13
ATOM     13  C   UNL     1      21.361  -5.431  34.336  1.00  0.00    -0.000 C 
BRANCH  13  14
ATOM     14  C   UNL     1      20.235  -4.453  34.735  1.00  0.00    -0.000 C 
BRANCH  14  15
ATOM     15  C   UNL     1      20.143  -3.216  33.825  1.00  0.00    -0.000 C 
BRANCH  15  16
ATOM     16  C   UNL     1      19.406  -2.042  34.486  1.00  0.00    -0.000 C 
BRANCH  16  17
ATOM     17  C   UNL     1      20.235  -1.359  35.587  1.00  0.00    -0.000 C 
BRANCH  17  18
ATOM     18  C   UNL     1      21.643  -0.929  35.120  1.00  0.00    -0.000 C 
BRANCH  18  19
ATOM     19  C   UNL     1      22.734  -1.317  36.131  1.00  0.00    -0.003 C 
ATOM     20  C   UNL     1      23.404  -2.629  35.740  1.00  0.00     0.004 C 
ENDBRANCH  18  19
ENDBRANCH  17  18
ENDBRANCH  16  17
ENDBRANCH  15  16
ENDBRANCH  14  15
ENDBRANCH  13  14
ENDBRANCH  12  13
ENDBRANCH   1  12
TORSDOF 16
ENDMDL
MODEL 4
REMARK VINA RESULT:    -4.755      1.319      3.176
REMARK INTER + INTRA:         -11.704
REMARK INTER:                  -9.399
REMARK INTRA:                  -2.304
REMARK UNBOUND:                -2.501
REMARK SMILES CCCCCCCCCCCCCCCCCC(=O)[O-]
REMARK SMILES IDX 10 1 11 2 12 3 13 4 14 5 15 6 16 7 17 8 18 9 19 10 20 11
REMARK SMILES IDX 9 12 8 13 7 14 6 15 5 16 4 17 3 18 2 19 1 20
REMARK H PARENT
REMARK Flexibility Score: inf
ROOT
ATOM      1  C   UNL     1      21.588  -6.217  33.655  1.00  0.00     0.000 C 
ENDROOT
BRANCH   1   2
ATOM      2  C   UNL     1      21.347  -5.208  34.791  1.00  0.00     0.000 C 
BRANCH   2   3
ATOM      3  C   UNL     1      21.888  -3.806  34.465  1.00  0.00     0.000 C 
BRANCH   3   4
ATOM      4  C   UNL     1      23.046  -3.380  35.387  1.00  0.00     0.000 C 
BRANCH   4   5
ATOM      5  C   UNL     1      22.638  -2.532  36.610  1.00  0.00     0.000 C 
BRANCH   5   6
ATOM      6  C   UNL     1      22.824  -1.014  36.444  1.00  0.00     0.000 C 
BRANCH   6   7
ATOM      7  C   UNL     1      21.539  -0.302  35.986  1.00  0.00     0.006 C 
BRANCH   7   8
ATOM      8  C   UNL     1      21.709   0.371  34.618  1.00  0.00     0.053 C 
BRANCH   8   9
ATOM      9  C   UNL     1      22.221   1.773  34.753  1.00  0.00     0.041 C 
ATOM     10  O   UNL     1      21.467   2.684  35.185  1.00  0.00    -0.550 OA
ATOM     11  O   UNL     1      23.520   2.078  34.371  1.00  0.00    -0.550 OA
ENDBRANCH   8   9
ENDBRANCH   7   8
ENDBRANCH   6   7
ENDBRANCH   5   6
ENDBRANCH   4   5
ENDBRANCH   3   4
ENDBRANCH   2   3
ENDBRANCH   1   2
BRANCH   1  12
ATOM     12  C   UNL     1      22.501  -5.682  32.532  1.00  0.00     0.000 C 
BRANCH  12  13
ATOM     13  C   UNL     1      21.847  -5.803  31.145  1.00  0.00    -0.000 C 
BRANCH  13  14
ATOM     14  C   UNL     1      20.346  -6.154  31.232  1.00  0.00    -0.000 C 
BRANCH  14  15
ATOM     15  C   UNL     1      19.431  -5.123  30.550  1.00  0.00    -0.000 C 
BRANCH  15  16
ATOM     16  C   UNL     1      19.633  -3.698  31.089  1.00  0.00    -0.000 C 
BRANCH  16  17
ATOM     17  C   UNL     1      18.884  -3.448  32.410  1.00  0.00    -0.000 C 
BRANCH  17  18
ATOM     18  C   UNL     1      17.610  -4.306  32.568  1.00  0.00    -0.000 C 
BRANCH  18  19
ATOM     19  C   UNL     1      17.502  -4.934  33.967  1.00  0.00    -0.003 C 
ATOM     20  C   UNL     1      17.736  -6.440  33.913  1.00  0.00     0.004 C 
ENDBRANCH  18  19
ENDBRANCH  17  18
ENDBRANCH  16  17
ENDBRANCH  15  16
ENDBRANCH  14  15
ENDBRANCH  13  14
ENDBRANCH  12  13
ENDBRANCH   1  12
TORSDOF 16
ENDMDL
MODEL 5
REMARK VINA RESULT:    -4.737      3.440      6.839
REMARK INTER + INTRA:         -11.668
REMARK INTER:                  -9.688
REMARK INTRA:                  -1.980
REMARK UNBOUND:                -2.501
REMARK SMILES CCCCCCCCCCCCCCCCCC(=O)[O-]
REMARK SMILES IDX 10 1 11 2 12 3 13 4 14 5 15 6 16 7 17 8 18 9 19 10 20 11
REMARK SMILES IDX 9 12 8 13 7 14 6 15 5 16 4 17 3 18 2 19 1 20
REMARK H PARENT
REMARK Flexibility Score: inf
ROOT
ATOM      1  C   UNL     1      21.276  -5.219  30.337  1.00  0.00     0.000 C 
ENDROOT
BRANCH   1   2
ATOM      2  C   UNL     1      22.015  -6.308  31.134  1.00  0.00     0.000 C 
BRANCH   2   3
ATOM      3  C   UNL     1      22.567  -5.793  32.473  1.00  0.00     0.000 C 
BRANCH   3   4
ATOM      4  C   UNL     1      21.675  -6.165  33.672  1.00  0.00     0.000 C 
BRANCH   4   5
ATOM      5  C   UNL     1      20.665  -7.302  33.416  1.00  0.00     0.000 C 
BRANCH   5   6
ATOM      6  C   UNL     1      19.187  -6.922  33.620  1.00  0.00     0.000 C 
BRANCH   6   7
ATOM      7  C   UNL     1      18.233  -7.743  32.735  1.00  0.00     0.006 C 
BRANCH   7   8
ATOM      8  C   UNL     1      17.406  -8.744  33.552  1.00  0.00     0.053 C 
BRANCH   8   9
ATOM      9  C   UNL     1      16.147  -8.123  34.075  1.00  0.00     0.041 C 
ATOM     10  O   UNL     1      16.183  -6.999  34.641  1.00  0.00    -0.550 OA
ATOM     11  O   UNL     1      14.940  -8.800  33.965  1.00  0.00    -0.550 OA
ENDBRANCH   8   9
ENDBRANCH   7   8
ENDBRANCH   6   7
ENDBRANCH   5   6
ENDBRANCH   4   5
ENDBRANCH   3   4
ENDBRANCH   2   3
ENDBRANCH   1   2
BRANCH   1  12
ATOM     12  C   UNL     1      19.773  -5.507  30.138  1.00  0.00     0.000 C 
BRANCH  12  13
ATOM     13  C   UNL     1      18.886  -4.546  30.948  1.00  0.00    -0.000 C 
BRANCH  13  14
ATOM     14  C   UNL     1      19.621  -3.238  31.318  1.00  0.00    -0.000 C 
BRANCH  14  15
ATOM     15  C   UNL     1      19.334  -2.755  32.750  1.00  0.00    -0.000 C 
BRANCH  15  16
ATOM     16  C   UNL     1      20.540  -2.918  33.687  1.00  0.00    -0.000 C 
BRANCH  16  17
ATOM     17  C   UNL     1      20.688  -1.749  34.677  1.00  0.00    -0.000 C 
BRANCH  17  18
ATOM     18  C   UNL     1      21.990  -1.805  35.505  1.00  0.00    -0.000 C 
BRANCH  18  19
ATOM     19  C   UNL     1      22.644  -0.423  35.655  1.00  0.00    -0.003 C 
ATOM     20  C   UNL     1      21.925   0.620  34.806  1.00  0.00     0.004 C 
ENDBRANCH  18  19
ENDBRANCH  17  18
ENDBRANCH  16  17
ENDBRANCH  15  16
ENDBRANCH  14  15
ENDBRANCH  13  14
ENDBRANCH  12  13
ENDBRANCH   1  12
TORSDOF 16
ENDMDL
MODEL 6
REMARK VINA RESULT:    -4.696      1.228      2.925
REMARK INTER + INTRA:         -11.589
REMARK INTER:                  -9.035
REMARK INTRA:                  -2.554
REMARK UNBOUND:                -2.501
REMARK SMILES CCCCCCCCCCCCCCCCCC(=O)[O-]
REMARK SMILES IDX 10 1 11 2 12 3 13 4 14 5 15 6 16 7 17 8 18 9 19 10 20 11
REMARK SMILES IDX 9 12 8 13 7 14 6 15 5 16 4 17 3 18 2 19 1 20
REMARK H PARENT
REMARK Flexibility Score: inf
ROOT
ATOM      1  C   UNL     1      22.571  -6.457  31.299  1.00  0.00     0.000 C 
ENDROOT
BRANCH   1   2
ATOM      2  C   UNL     1      22.579  -6.361  32.835  1.00  0.00     0.000 C 
BRANCH   2   3
ATOM      3  C   UNL     1      22.260  -4.946  33.343  1.00  0.00     0.000 C 
BRANCH   3   4
ATOM      4  C   UNL     1      22.033  -4.892  34.865  1.00  0.00     0.000 C 
BRANCH   4   5
ATOM      5  C   UNL     1      21.830  -3.480  35.453  1.00  0.00     0.000 C 
BRANCH   5   6
ATOM      6  C   UNL     1      23.068  -2.568  35.407  1.00  0.00     0.000 C 
BRANCH   6   7
ATOM      7  C   UNL     1      22.775  -1.139  35.898  1.00  0.00     0.006 C 
BRANCH   7   8
ATOM      8  C   UNL     1      21.726  -0.434  35.029  1.00  0.00     0.053 C 
BRANCH   8   9
ATOM      9  C   UNL     1      22.030   1.024  34.871  1.00  0.00     0.041 C 
ATOM     10  O   UNL     1      23.200   1.402  34.598  1.00  0.00    -0.550 OA
ATOM     11  O   UNL     1      21.029   1.968  35.058  1.00  0.00    -0.550 OA
ENDBRANCH   8   9
ENDBRANCH   7   8
ENDBRANCH   6   7
ENDBRANCH   5   6
ENDBRANCH   4   5
ENDBRANCH   3   4
ENDBRANCH   2   3
ENDBRANCH   1   2
BRANCH   1  12
ATOM     12  C   UNL     1      21.467  -5.611  30.629  1.00  0.00     0.000 C 
BRANCH  12  13
ATOM     13  C   UNL     1      20.273  -6.469  30.177  1.00  0.00    -0.000 C 
BRANCH  13  14
ATOM     14  C   UNL     1      19.068  -6.350  31.135  1.00  0.00    -0.000 C 
BRANCH  14  15
ATOM     15  C   UNL     1      19.066  -7.404  32.255  1.00  0.00    -0.000 C 
BRANCH  15  16
ATOM     16  C   UNL     1      18.965  -6.785  33.657  1.00  0.00    -0.000 C 
BRANCH  16  17
ATOM     17  C   UNL     1      17.890  -5.688  33.749  1.00  0.00    -0.000 C 
BRANCH  17  18
ATOM     18  C   UNL     1      18.447  -4.315  34.186  1.00  0.00    -0.000 C 
BRANCH  18  19
ATOM     19  C   UNL     1      18.241  -3.236  33.111  1.00  0.00    -0.003 C 
ATOM     20  C   UNL     1      19.555  -2.894  32.417  1.00  0.00     0.004 C 
ENDBRANCH  18  19
ENDBRANCH  17  18
ENDBRANCH  16  17
ENDBRANCH  15  16
ENDBRANCH  14  15
ENDBRANCH  13  14
ENDBRANCH  12  13
ENDBRANCH   1  12
TORSDOF 16
ENDMDL
MODEL 7
REMARK VINA RESULT:    -4.682      3.841      5.444
REMARK INTER + INTRA:         -11.563
REMARK INTER:                  -9.718
REMARK INTRA:                  -1.845
REMARK UNBOUND:                -2.501
REMARK SMILES CCCCCCCCCCCCCCCCCC(=O)[O-]
REMARK SMILES IDX 10 1 11 2 12 3 13 4 14 5 15 6 16 7 17 8 18 9 19 10 20 11
REMARK SMILES IDX 9 12 8 13 7 14 6 15 5 16 4 17 3 18 2 19 1 20
REMARK H PARENT
REMARK Flexibility Score: inf
ROOT
ATOM      1  C   UNL     1      21.740  -0.759  35.149  1.00  0.00     0.000 C 
ENDROOT
BRANCH   1   2
ATOM      2  C   UNL     1      22.791  -1.317  36.124  1.00  0.00     0.000 C 
BRANCH   2   3
ATOM      3  C   UNL     1      23.384  -2.656  35.655  1.00  0.00     0.000 C 
BRANCH   3   4
ATOM      4  C   UNL     1      22.540  -3.870  36.088  1.00  0.00     0.000 C 
BRANCH   4   5
ATOM      5  C   UNL     1      22.037  -3.837  37.547  1.00  0.00     0.000 C 
BRANCH   5   6
ATOM      6  C   UNL     1      22.287  -5.124  38.354  1.00  0.00     0.000 C 
BRANCH   6   7
ATOM      7  C   UNL     1      23.450  -5.962  37.794  1.00  0.00     0.006 C 
BRANCH   7   8
ATOM      8  C   UNL     1      24.794  -5.576  38.424  1.00  0.00     0.053 C 
BRANCH   8   9
ATOM      9  C   UNL     1      24.920  -6.100  39.822  1.00  0.00     0.041 C 
ATOM     10  O   UNL     1      25.235  -5.326  40.763  1.00  0.00    -0.550 OA
ATOM     11  O   UNL     1      24.720  -7.450  40.079  1.00  0.00    -0.550 OA
ENDBRANCH   8   9
ENDBRANCH   7   8
ENDBRANCH   6   7
ENDBRANCH   5   6
ENDBRANCH   4   5
ENDBRANCH   3   4
ENDBRANCH   2   3
ENDBRANCH   1   2
BRANCH   1  12
ATOM     12  C   UNL     1      20.287  -0.912  35.647  1.00  0.00     0.000 C 
BRANCH  12  13
ATOM     13  C   UNL     1      19.448  -1.811  34.723  1.00  0.00    -0.000 C 
BRANCH  13  14
ATOM     14  C   UNL     1      20.274  -2.378  33.548  1.00  0.00    -0.000 C 
BRANCH  14  15
ATOM     15  C   UNL     1      19.613  -3.584  32.858  1.00  0.00    -0.000 C 
BRANCH  15  16
ATOM     16  C   UNL     1      19.533  -3.428  31.332  1.00  0.00    -0.000 C 
BRANCH  16  17
ATOM     17  C   UNL     1      19.967  -4.698  30.579  1.00  0.00    -0.000 C 
BRANCH  17  18
ATOM     18  C   UNL     1      20.484  -5.819  31.506  1.00  0.00    -0.000 C 
BRANCH  18  19
ATOM     19  C   UNL     1      22.015  -5.946  31.466  1.00  0.00    -0.003 C 
ATOM     20  C   UNL     1      22.616  -5.807  32.860  1.00  0.00     0.004 C 
ENDBRANCH  18  19
ENDBRANCH  17  18
ENDBRANCH  16  17
ENDBRANCH  15  16
ENDBRANCH  14  15
ENDBRANCH  13  14
ENDBRANCH  12  13
ENDBRANCH   1  12
TORSDOF 16
ENDMDL
MODEL 8
REMARK VINA RESULT:    -4.669      3.839      5.200
REMARK INTER + INTRA:         -11.536
REMARK INTER:                  -9.734
REMARK INTRA:                  -1.802
REMARK UNBOUND:                -2.501
REMARK SMILES CCCCCCCCCCCCCCCCCC(=O)[O-]
REMARK SMILES IDX 10 1 11 2 12 3 13 4 14 5 15 6 16 7 17 8 18 9 19 10 20 11
REMARK SMILES IDX 9 12 8 13 7 14 6 15 5 16 4 17 3 18 2 19 1 20
REMARK H PARENT
REMARK Flexibility Score: inf
ROOT
ATOM      1  C   UNL     1      20.722  -1.250  35.346  1.00  0.00     0.000 C 
ENDROOT
BRANCH   1   2
ATOM      2  C   UNL     1      22.035  -0.490  35.602  1.00  0.00     0.000 C 
BRANCH   2   3
ATOM      3  C   UNL     1      23.052  -1.316  36.406  1.00  0.00     0.000 C 
BRANCH   3   4
ATOM      4  C   UNL     1      22.386  -2.361  37.321  1.00  0.00     0.000 C 
BRANCH   4   5
ATOM      5  C   UNL     1      23.215  -3.636  37.580  1.00  0.00     0.000 C 
BRANCH   5   6
ATOM      6  C   UNL     1      22.532  -4.692  38.467  1.00  0.00     0.000 C 
BRANCH   6   7
ATOM      7  C   UNL     1      23.527  -5.701  39.066  1.00  0.00     0.006 C 
BRANCH   7   8
ATOM      8  C   UNL     1      24.943  -5.517  38.505  1.00  0.00     0.053 C 
BRANCH   8   9
ATOM      9  C   UNL     1      25.959  -5.400  39.600  1.00  0.00     0.041 C 
ATOM     10  O   UNL     1      25.621  -5.577  40.800  1.00  0.00    -0.550 OA
ATOM     11  O   UNL     1      27.272  -5.063  39.298  1.00  0.00    -0.550 OA
ENDBRANCH   8   9
ENDBRANCH   7   8
ENDBRANCH   6   7
ENDBRANCH   5   6
ENDBRANCH   4   5
ENDBRANCH   3   4
ENDBRANCH   2   3
ENDBRANCH   1   2
BRANCH   1  12
ATOM     12  C   UNL     1      20.713  -2.049  34.025  1.00  0.00     0.000 C 
BRANCH  12  13
ATOM     13  C   UNL     1      20.507  -3.555  34.259  1.00  0.00    -0.000 C 
BRANCH  13  14
ATOM     14  C   UNL     1      21.835  -4.343  34.215  1.00  0.00    -0.000 C 
BRANCH  14  15
ATOM     15  C   UNL     1      21.671  -5.842  34.519  1.00  0.00    -0.000 C 
BRANCH  15  16
ATOM     16  C   UNL     1      21.858  -6.727  33.278  1.00  0.00    -0.000 C 
BRANCH  16  17
ATOM     17  C   UNL     1      22.638  -6.023  32.154  1.00  0.00    -0.000 C 
BRANCH  17  18
ATOM     18  C   UNL     1      21.930  -6.078  30.784  1.00  0.00    -0.000 C 
BRANCH  18  19
ATOM     19  C   UNL     1      20.535  -5.434  30.823  1.00  0.00    -0.003 C 
ATOM     20  C   UNL     1      19.439  -6.495  30.798  1.00  0.00     0.004 C 
ENDBRANCH  18  19
ENDBRANCH  17  18
ENDBRANCH  16  17
ENDBRANCH  15  16
ENDBRANCH  14  15
ENDBRANCH  13  14
ENDBRANCH  12  13
ENDBRANCH   1  12
TORSDOF 16
ENDMDL
MODEL 9
REMARK VINA RESULT:    -4.656      4.377      5.680
REMARK INTER + INTRA:         -11.511
REMARK INTER:                  -9.555
REMARK INTRA:                  -1.956
REMARK UNBOUND:                -2.501
REMARK SMILES CCCCCCCCCCCCCCCCCC(=O)[O-]
REMARK SMILES IDX 10 1 11 2 12 3 13 4 14 5 15 6 16 7 17 8 18 9 19 10 20 11
REMARK SMILES IDX 9 12 8 13 7 14 6 15 5 16 4 17 3 18 2 19 1 20
REMARK H PARENT
REMARK Flexibility Score: inf
ROOT
ATOM      1  C   UNL     1      22.183  -5.260  33.065  1.00  0.00     0.000 C 
ENDROOT
BRANCH   1   2
ATOM      2  C   UNL     1      22.244  -5.129  34.596  1.00  0.00     0.000 C 
BRANCH   2   3
ATOM      3  C   UNL     1      22.181  -3.668  35.071  1.00  0.00     0.000 C 
BRANCH   3   4
ATOM      4  C   UNL     1      23.274  -3.324  36.100  1.00  0.00     0.000 C 
BRANCH   4   5
ATOM      5  C   UNL     1      23.148  -4.041  37.461  1.00  0.00     0.000 C 
BRANCH   5   6
ATOM      6  C   UNL     1      24.294  -5.012  37.797  1.00  0.00     0.000 C 
BRANCH   6   7
ATOM      7  C   UNL     1      24.159  -5.630  39.200  1.00  0.00     0.006 C 
BRANCH   7   8
ATOM      8  C   UNL     1      25.451  -5.494  40.016  1.00  0.00     0.053 C 
BRANCH   8   9
ATOM      9  C   UNL     1      26.279  -6.741  39.950  1.00  0.00     0.041 C 
ATOM     10  O   UNL     1      25.727  -7.872  40.015  1.00  0.00    -0.550 OA
ATOM     11  O   UNL     1      27.661  -6.655  39.851  1.00  0.00    -0.550 OA
ENDBRANCH   8   9
ENDBRANCH   7   8
ENDBRANCH   6   7
ENDBRANCH   5   6
ENDBRANCH   4   5
ENDBRANCH   3   4
ENDBRANCH   2   3
ENDBRANCH   1   2
BRANCH   1  12
ATOM     12  C   UNL     1      21.532  -6.572  32.578  1.00  0.00     0.000 C 
BRANCH  12  13
ATOM     13  C   UNL     1      20.889  -6.421  31.188  1.00  0.00    -0.000 C 
BRANCH  13  14
ATOM     14  C   UNL     1      19.405  -6.847  31.178  1.00  0.00    -0.000 C 
BRANCH  14  15
ATOM     15  C   UNL     1      18.930  -7.454  32.510  1.00  0.00    -0.000 C 
BRANCH  15  16
ATOM     16  C   UNL     1      17.821  -6.630  33.180  1.00  0.00    -0.000 C 
BRANCH  16  17
ATOM     17  C   UNL     1      18.349  -5.346  33.844  1.00  0.00    -0.000 C 
BRANCH  17  18
ATOM     18  C   UNL     1      17.923  -4.054  33.113  1.00  0.00    -0.000 C 
BRANCH  18  19
ATOM     19  C   UNL     1      19.114  -3.127  32.829  1.00  0.00    -0.003 C 
ATOM     20  C   UNL     1      19.451  -3.104  31.342  1.00  0.00     0.004 C 
ENDBRANCH  18  19
ENDBRANCH  17  18
ENDBRANCH  16  17
ENDBRANCH  15  16
ENDBRANCH  14  15
ENDBRANCH  13  14
ENDBRANCH  12  13
ENDBRANCH   1  12
TORSDOF 16
ENDMDL
