MODEL 1
REMARK VINA RESULT:    -3.976      0.000      0.000
REMARK INTER + INTRA:          -5.137
REMARK INTER:                  -4.905
REMARK INTRA:                  -0.232
REMARK UNBOUND:                -0.232
REMARK SMILES C=CC[C@@H](C)C(=O)CC
REMARK SMILES IDX 4 1 5 2 6 3 7 4 8 5 9 6 3 7 2 8 1 9
REMARK H PARENT
REMARK Flexibility Score: inf
ROOT
ATOM      1  C   UNL     1      14.090  31.564  29.940  1.00  0.00     0.057 C 
ATOM      2  C   UNL     1      13.018  30.708  30.628  1.00  0.00     0.016 C 
ENDROOT
BRANCH   1   3
ATOM      3  C   UNL     1      15.426  30.847  29.923  1.00  0.00     0.135 C 
ATOM      4  O   UNL     1      15.469  29.635  30.080  1.00  0.00    -0.299 OA
BRANCH   3   5
ATOM      5  C   UNL     1      16.714  31.603  29.730  1.00  0.00     0.072 C 
ATOM      6  C   UNL     1      16.707  32.898  30.537  1.00  0.00     0.012 C 
ENDBRANCH   3   5
ENDBRANCH   1   3
BRANCH   1   7
ATOM      7  C   UNL     1      13.670  32.022  28.526  1.00  0.00     0.038 C 
BRANCH   7   8
ATOM      8  C   UNL     1      12.179  32.155  28.345  1.00  0.00    -0.034 C 
ATOM      9  C   UNL     1      11.621  33.271  27.869  1.00  0.00     0.004 C 
ENDBRANCH   7   8
ENDBRANCH   1   7
TORSDOF 4
ENDMDL
MODEL 2
REMARK VINA RESULT:    -3.802      2.513      4.261
REMARK INTER + INTRA:          -4.924
REMARK INTER:                  -4.728
REMARK INTRA:                  -0.195
REMARK UNBOUND:                -0.232
REMARK SMILES C=CC[C@@H](C)C(=O)CC
REMARK SMILES IDX 4 1 5 2 6 3 7 4 8 5 9 6 3 7 2 8 1 9
REMARK H PARENT
REMARK Flexibility Score: inf
ROOT
ATOM      1  C   UNL     1      12.768  31.764  28.526  1.00  0.00     0.057 C 
ATOM      2  C   UNL     1      11.710  31.369  29.565  1.00  0.00     0.016 C 
ENDROOT
BRANCH   1   3
ATOM      3  C   UNL     1      12.362  33.030  27.795  1.00  0.00     0.135 C 
ATOM      4  O   UNL     1      11.178  33.276  27.615  1.00  0.00    -0.299 OA
BRANCH   3   5
ATOM      5  C   UNL     1      13.395  33.990  27.268  1.00  0.00     0.072 C 
ATOM      6  C   UNL     1      13.394  34.003  25.743  1.00  0.00     0.012 C 
ENDBRANCH   3   5
ENDBRANCH   1   3
BRANCH   1   7
ATOM      7  C   UNL     1      14.183  31.885  29.133  1.00  0.00     0.038 C 
BRANCH   7   8
ATOM      8  C   UNL     1      14.540  30.764  30.076  1.00  0.00    -0.034 C 
ATOM      9  C   UNL     1      15.621  30.001  29.890  1.00  0.00     0.004 C 
ENDBRANCH   7   8
ENDBRANCH   1   7
TORSDOF 4
ENDMDL
MODEL 3
REMARK VINA RESULT:    -3.752      1.272      3.846
REMARK INTER + INTRA:          -4.861
REMARK INTER:                  -4.609
REMARK INTRA:                  -0.252
REMARK UNBOUND:                -0.232
REMARK SMILES C=CC[C@@H](C)C(=O)CC
REMARK SMILES IDX 4 1 5 2 6 3 7 4 8 5 9 6 3 7 2 8 1 9
REMARK H PARENT
REMARK Flexibility Score: inf
ROOT
ATOM      1  C   UNL     1      15.337  30.970  29.687  1.00  0.00     0.057 C 
ATOM      2  C   UNL     1      15.754  29.509  29.902  1.00  0.00     0.016 C 
ENDROOT
BRANCH   1   3
ATOM      3  C   UNL     1      13.827  31.111  29.712  1.00  0.00     0.135 C 
ATOM      4  O   UNL     1      13.189  30.658  30.651  1.00  0.00    -0.299 OA
BRANCH   3   5
ATOM      5  C   UNL     1      13.090  31.790  28.588  1.00  0.00     0.072 C 
ATOM      6  C   UNL     1      11.640  32.059  28.977  1.00  0.00     0.012 C 
ENDBRANCH   3   5
ENDBRANCH   1   3
BRANCH   1   7
ATOM      7  C   UNL     1      16.017  31.936  30.683  1.00  0.00     0.038 C 
BRANCH   7   8
ATOM      8  C   UNL     1      16.850  33.006  30.023  1.00  0.00    -0.034 C 
ATOM      9  C   UNL     1      17.331  32.864  28.785  1.00  0.00     0.004 C 
ENDBRANCH   7   8
ENDBRANCH   1   7
TORSDOF 4
ENDMDL
MODEL 4
REMARK VINA RESULT:    -3.313     13.077     14.886
REMARK INTER + INTRA:          -4.320
REMARK INTER:                  -4.022
REMARK INTRA:                  -0.299
REMARK UNBOUND:                -0.232
REMARK SMILES C=CC[C@@H](C)C(=O)CC
REMARK SMILES IDX 4 1 5 2 6 3 7 4 8 5 9 6 3 7 2 8 1 9
REMARK H PARENT
REMARK Flexibility Score: inf
ROOT
ATOM      1  C   UNL     1      27.487  30.044  24.892  1.00  0.00     0.057 C 
ATOM      2  C   UNL     1      26.059  29.613  25.253  1.00  0.00     0.016 C 
ENDROOT
BRANCH   1   3
ATOM      3  C   UNL     1      28.427  29.836  26.065  1.00  0.00     0.135 C 
ATOM      4  O   UNL     1      28.679  28.703  26.450  1.00  0.00    -0.299 OA
BRANCH   3   5
ATOM      5  C   UNL     1      29.051  31.005  26.780  1.00  0.00     0.072 C 
ATOM      6  C   UNL     1      29.123  30.744  28.281  1.00  0.00     0.012 C 
ENDBRANCH   3   5
ENDBRANCH   1   3
BRANCH   1   7
ATOM      7  C   UNL     1      28.012  29.357  23.612  1.00  0.00     0.038 C 
BRANCH   7   8
ATOM      8  C   UNL     1      29.079  30.142  22.892  1.00  0.00    -0.034 C 
ATOM      9  C   UNL     1      29.028  31.473  22.786  1.00  0.00     0.004 C 
ENDBRANCH   7   8
ENDBRANCH   1   7
TORSDOF 4
ENDMDL
MODEL 5
REMARK VINA RESULT:    -3.309     14.598     15.501
REMARK INTER + INTRA:          -4.315
REMARK INTER:                  -3.978
REMARK INTRA:                  -0.338
REMARK UNBOUND:                -0.232
REMARK SMILES C=CC[C@@H](C)C(=O)CC
REMARK SMILES IDX 4 1 5 2 6 3 7 4 8 5 9 6 3 7 2 8 1 9
REMARK H PARENT
REMARK Flexibility Score: inf
ROOT
ATOM      1  C   UNL     1      28.744  30.822  23.750  1.00  0.00     0.057 C 
ATOM      2  C   UNL     1      28.754  29.831  22.578  1.00  0.00     0.016 C 
ENDROOT
BRANCH   1   3
ATOM      3  C   UNL     1      28.716  32.253  23.248  1.00  0.00     0.135 C 
ATOM      4  O   UNL     1      28.692  32.476  22.045  1.00  0.00    -0.299 OA
BRANCH   3   5
ATOM      5  C   UNL     1      28.732  33.416  24.205  1.00  0.00     0.072 C 
ATOM      6  C   UNL     1      27.643  34.423  23.850  1.00  0.00     0.012 C 
ENDBRANCH   3   5
ENDBRANCH   1   3
BRANCH   1   7
ATOM      7  C   UNL     1      27.602  30.547  24.753  1.00  0.00     0.038 C 
BRANCH   7   8
ATOM      8  C   UNL     1      28.075  30.063  26.100  1.00  0.00    -0.034 C 
ATOM      9  C   UNL     1      28.950  30.758  26.833  1.00  0.00     0.004 C 
ENDBRANCH   7   8
ENDBRANCH   1   7
TORSDOF 4
ENDMDL
MODEL 6
REMARK VINA RESULT:    -3.232     14.411     15.783
REMARK INTER + INTRA:          -4.219
REMARK INTER:                  -3.729
REMARK INTRA:                  -0.491
REMARK UNBOUND:                -0.232
REMARK SMILES C=CC[C@@H](C)C(=O)CC
REMARK SMILES IDX 4 1 5 2 6 3 7 4 8 5 9 6 3 7 2 8 1 9
REMARK H PARENT
REMARK Flexibility Score: inf
ROOT
ATOM      1  C   UNL     1      26.632  37.333  19.883  1.00  0.00     0.057 C 
ATOM      2  C   UNL     1      26.582  38.516  18.907  1.00  0.00     0.016 C 
ENDROOT
BRANCH   1   3
ATOM      3  C   UNL     1      25.912  37.667  21.176  1.00  0.00     0.135 C 
ATOM      4  O   UNL     1      26.060  36.952  22.157  1.00  0.00    -0.299 OA
BRANCH   3   5
ATOM      5  C   UNL     1      25.001  38.862  21.274  1.00  0.00     0.072 C 
ATOM      6  C   UNL     1      23.592  38.436  21.673  1.00  0.00     0.012 C 
ENDBRANCH   3   5
ENDBRANCH   1   3
BRANCH   1   7
ATOM      7  C   UNL     1      26.103  36.023  19.259  1.00  0.00     0.038 C 
BRANCH   7   8
ATOM      8  C   UNL     1      24.798  36.181  18.520  1.00  0.00    -0.034 C 
ATOM      9  C   UNL     1      23.634  35.797  19.052  1.00  0.00     0.004 C 
ENDBRANCH   7   8
ENDBRANCH   1   7
TORSDOF 4
ENDMDL
MODEL 7
REMARK VINA RESULT:    -3.199     14.568     16.173
REMARK INTER + INTRA:          -4.179
REMARK INTER:                  -3.929
REMARK INTRA:                  -0.250
REMARK UNBOUND:                -0.232
REMARK SMILES C=CC[C@@H](C)C(=O)CC
REMARK SMILES IDX 4 1 5 2 6 3 7 4 8 5 9 6 3 7 2 8 1 9
REMARK H PARENT
REMARK Flexibility Score: inf
ROOT
ATOM      1  C   UNL     1      26.028  37.017  19.405  1.00  0.00     0.057 C 
ATOM      2  C   UNL     1      25.020  36.116  18.679  1.00  0.00     0.016 C 
ENDROOT
BRANCH   1   3
ATOM      3  C   UNL     1      25.575  37.303  20.824  1.00  0.00     0.135 C 
ATOM      4  O   UNL     1      26.379  37.718  21.648  1.00  0.00    -0.299 OA
BRANCH   3   5
ATOM      5  C   UNL     1      24.149  37.072  21.248  1.00  0.00     0.072 C 
ATOM      6  C   UNL     1      23.496  38.379  21.685  1.00  0.00     0.012 C 
ENDBRANCH   3   5
ENDBRANCH   1   3
BRANCH   1   7
ATOM      7  C   UNL     1      27.466  36.453  19.367  1.00  0.00     0.038 C 
BRANCH   7   8
ATOM      8  C   UNL     1      27.529  34.947  19.318  1.00  0.00    -0.034 C 
ATOM      9  C   UNL     1      28.360  34.249  20.097  1.00  0.00     0.004 C 
ENDBRANCH   7   8
ENDBRANCH   1   7
TORSDOF 4
ENDMDL
MODEL 8
REMARK VINA RESULT:    -3.189     14.928     16.202
REMARK INTER + INTRA:          -4.166
REMARK INTER:                  -3.718
REMARK INTRA:                  -0.449
REMARK UNBOUND:                -0.232
REMARK SMILES C=CC[C@@H](C)C(=O)CC
REMARK SMILES IDX 4 1 5 2 6 3 7 4 8 5 9 6 3 7 2 8 1 9
REMARK H PARENT
REMARK Flexibility Score: inf
ROOT
ATOM      1  C   UNL     1      26.073  36.937  19.998  1.00  0.00     0.057 C 
ATOM      2  C   UNL     1      25.141  36.253  18.988  1.00  0.00     0.016 C 
ENDROOT
BRANCH   1   3
ATOM      3  C   UNL     1      26.606  38.245  19.443  1.00  0.00     0.135 C 
ATOM      4  O   UNL     1      26.497  38.489  18.250  1.00  0.00    -0.299 OA
BRANCH   3   5
ATOM      5  C   UNL     1      27.286  39.250  20.335  1.00  0.00     0.072 C 
ATOM      6  C   UNL     1      26.480  40.543  20.405  1.00  0.00     0.012 C 
ENDBRANCH   3   5
ENDBRANCH   1   3
BRANCH   1   7
ATOM      7  C   UNL     1      25.413  37.131  21.381  1.00  0.00     0.038 C 
BRANCH   7   8
ATOM      8  C   UNL     1      23.926  37.378  21.318  1.00  0.00    -0.034 C 
ATOM      9  C   UNL     1      23.384  38.530  21.722  1.00  0.00     0.004 C 
ENDBRANCH   7   8
ENDBRANCH   1   7
TORSDOF 4
ENDMDL
MODEL 9
REMARK VINA RESULT:    -3.139     13.199     15.198
REMARK INTER + INTRA:          -4.105
REMARK INTER:                  -3.885
REMARK INTRA:                  -0.220
REMARK UNBOUND:                -0.232
REMARK SMILES C=CC[C@@H](C)C(=O)CC
REMARK SMILES IDX 4 1 5 2 6 3 7 4 8 5 9 6 3 7 2 8 1 9
REMARK H PARENT
REMARK Flexibility Score: inf
ROOT
ATOM      1  C   UNL     1      28.153  31.144  24.791  1.00  0.00     0.057 C 
ATOM      2  C   UNL     1      29.123  31.372  25.958  1.00  0.00     0.016 C 
ENDROOT
BRANCH   1   3
ATOM      3  C   UNL     1      28.395  32.151  23.682  1.00  0.00     0.135 C 
ATOM      4  O   UNL     1      28.016  33.306  23.815  1.00  0.00    -0.299 OA
BRANCH   3   5
ATOM      5  C   UNL     1      29.084  31.752  22.404  1.00  0.00     0.072 C 
ATOM      6  C   UNL     1      29.117  32.918  21.421  1.00  0.00     0.012 C 
ENDBRANCH   3   5
ENDBRANCH   1   3
BRANCH   1   7
ATOM      7  C   UNL     1      28.188  29.694  24.262  1.00  0.00     0.038 C 
BRANCH   7   8
ATOM      8  C   UNL     1      26.973  28.880  24.630  1.00  0.00    -0.034 C 
ATOM      9  C   UNL     1      26.143  29.253  25.609  1.00  0.00     0.004 C 
ENDBRANCH   7   8
ENDBRANCH   1   7
TORSDOF 4
ENDMDL
