MODEL 1
REMARK VINA RESULT:    -4.150      0.000      0.000
REMARK INTER + INTRA:          -6.882
REMARK INTER:                  -6.334
REMARK INTRA:                  -0.548
REMARK UNBOUND:                -0.548
REMARK SMILES O=C([O-])CCCCCCCCC(=O)[O-]
REMARK SMILES IDX 7 1 6 2 5 3 4 4 2 5 1 6 3 7 8 8 9 9 10 10 11 11 12 12 13 13
REMARK SMILES IDX 14 14
REMARK H PARENT
REMARK Flexibility Score: inf
ROOT
ATOM      1  C   UNL     1      37.085  -7.737  11.089  1.00  0.00     0.000 C 
ENDROOT
BRANCH   1   2
ATOM      2  C   UNL     1      37.637  -7.587  12.516  1.00  0.00     0.000 C 
BRANCH   2   3
ATOM      3  C   UNL     1      36.865  -6.543  13.343  1.00  0.00     0.006 C 
BRANCH   3   4
ATOM      4  C   UNL     1      35.345  -6.709  13.211  1.00  0.00     0.053 C 
BRANCH   4   5
ATOM      5  C   UNL     1      34.812  -7.736  14.163  1.00  0.00     0.041 C 
ATOM      6  O   UNL     1      34.624  -8.919  13.777  1.00  0.00    -0.550 OA
ATOM      7  O   UNL     1      34.550  -7.393  15.482  1.00  0.00    -0.550 OA
ENDBRANCH   4   5
ENDBRANCH   3   4
ENDBRANCH   2   3
ENDBRANCH   1   2
BRANCH   1   8
ATOM      8  C   UNL     1      38.191  -7.928  10.042  1.00  0.00     0.000 C 
BRANCH   8   9
ATOM      9  C   UNL     1      39.530  -7.382  10.553  1.00  0.00     0.000 C 
BRANCH   9  10
ATOM     10  C   UNL     1      40.203  -6.494   9.499  1.00  0.00     0.006 C 
BRANCH  10  11
ATOM     11  C   UNL     1      39.763  -6.888   8.087  1.00  0.00     0.053 C 
BRANCH  11  12
ATOM     12  C   UNL     1      40.919  -7.438   7.312  1.00  0.00     0.041 C 
ATOM     13  O   UNL     1      41.082  -7.119   6.104  1.00  0.00    -0.550 OA
ATOM     14  O   UNL     1      41.786  -8.344   7.908  1.00  0.00    -0.550 OA
ENDBRANCH  11  12
ENDBRANCH  10  11
ENDBRANCH   9  10
ENDBRANCH   8   9
ENDBRANCH   1   8
TORSDOF 9
ENDMDL
MODEL 2
REMARK VINA RESULT:    -4.106      1.660      7.750
REMARK INTER + INTRA:          -6.815
REMARK INTER:                  -6.328
REMARK INTRA:                  -0.486
REMARK UNBOUND:                -0.548
REMARK SMILES O=C([O-])CCCCCCCCC(=O)[O-]
REMARK SMILES IDX 7 1 6 2 5 3 4 4 2 5 1 6 3 7 8 8 9 9 10 10 11 11 12 12 13 13
REMARK SMILES IDX 14 14
REMARK H PARENT
REMARK Flexibility Score: inf
ROOT
ATOM      1  C   UNL     1      36.402  -7.717  11.573  1.00  0.00     0.000 C 
ENDROOT
BRANCH   1   2
ATOM      2  C   UNL     1      37.856  -7.331  11.890  1.00  0.00     0.000 C 
BRANCH   2   3
ATOM      3  C   UNL     1      38.870  -8.040  10.974  1.00  0.00     0.006 C 
BRANCH   3   4
ATOM      4  C   UNL     1      38.572  -7.801   9.487  1.00  0.00     0.053 C 
BRANCH   4   5
ATOM      5  C   UNL     1      39.549  -6.850   8.869  1.00  0.00     0.041 C 
ATOM      6  O   UNL     1      39.513  -6.620   7.632  1.00  0.00    -0.550 OA
ATOM      7  O   UNL     1      40.481  -6.195   9.663  1.00  0.00    -0.550 OA
ENDBRANCH   4   5
ENDBRANCH   3   4
ENDBRANCH   2   3
ENDBRANCH   1   2
BRANCH   1   8
ATOM      8  C   UNL     1      35.391  -7.043  12.513  1.00  0.00     0.000 C 
BRANCH   8   9
ATOM      9  C   UNL     1      36.109  -6.223  13.592  1.00  0.00     0.000 C 
BRANCH   9  10
ATOM     10  C   UNL     1      35.830  -6.788  14.990  1.00  0.00     0.006 C 
BRANCH  10  11
ATOM     11  C   UNL     1      34.669  -7.785  14.959  1.00  0.00     0.053 C 
BRANCH  11  12
ATOM     12  C   UNL     1      33.704  -7.503  16.067  1.00  0.00     0.041 C 
ATOM     13  O   UNL     1      34.126  -7.176  17.207  1.00  0.00    -0.550 OA
ATOM     14  O   UNL     1      32.339  -7.650  15.853  1.00  0.00    -0.550 OA
ENDBRANCH  11  12
ENDBRANCH  10  11
ENDBRANCH   9  10
ENDBRANCH   8   9
ENDBRANCH   1   8
TORSDOF 9
ENDMDL
MODEL 3
REMARK VINA RESULT:    -4.080      1.498      6.909
REMARK INTER + INTRA:          -6.775
REMARK INTER:                  -6.066
REMARK INTRA:                  -0.708
REMARK UNBOUND:                -0.548
REMARK SMILES O=C([O-])CCCCCCCCC(=O)[O-]
REMARK SMILES IDX 7 1 6 2 5 3 4 4 2 5 1 6 3 7 8 8 9 9 10 10 11 11 12 12 13 13
REMARK SMILES IDX 14 14
REMARK H PARENT
REMARK Flexibility Score: inf
ROOT
ATOM      1  C   UNL     1      38.803  -7.738  11.354  1.00  0.00     0.000 C 
ENDROOT
BRANCH   1   2
ATOM      2  C   UNL     1      38.131  -7.144  10.105  1.00  0.00     0.000 C 
BRANCH   2   3
ATOM      3  C   UNL     1      39.143  -6.514   9.131  1.00  0.00     0.006 C 
BRANCH   3   4
ATOM      4  C   UNL     1      40.592  -6.857   9.501  1.00  0.00     0.053 C 
BRANCH   4   5
ATOM      5  C   UNL     1      41.163  -7.910   8.600  1.00  0.00     0.041 C 
ATOM      6  O   UNL     1      42.136  -7.640   7.849  1.00  0.00    -0.550 OA
ATOM      7  O   UNL     1      40.639  -9.196   8.613  1.00  0.00    -0.550 OA
ENDBRANCH   4   5
ENDBRANCH   3   4
ENDBRANCH   2   3
ENDBRANCH   1   2
BRANCH   1   8
ATOM      8  C   UNL     1      38.125  -9.029  11.834  1.00  0.00     0.000 C 
BRANCH   8   9
ATOM      9  C   UNL     1      36.615  -8.987  11.571  1.00  0.00     0.000 C 
BRANCH   9  10
ATOM     10  C   UNL     1      35.832  -8.792  12.875  1.00  0.00     0.006 C 
BRANCH  10  11
ATOM     11  C   UNL     1      35.397  -7.334  13.043  1.00  0.00     0.053 C 
BRANCH  11  12
ATOM     12  C   UNL     1      36.128  -6.695  14.181  1.00  0.00     0.041 C 
ATOM     13  O   UNL     1      37.256  -6.166  13.992  1.00  0.00    -0.550 OA
ATOM     14  O   UNL     1      35.588  -6.728  15.460  1.00  0.00    -0.550 OA
ENDBRANCH  11  12
ENDBRANCH  10  11
ENDBRANCH   9  10
ENDBRANCH   8   9
ENDBRANCH   1   8
TORSDOF 9
ENDMDL
MODEL 4
REMARK VINA RESULT:    -4.077      1.606      1.913
REMARK INTER + INTRA:          -6.770
REMARK INTER:                  -6.088
REMARK INTRA:                  -0.682
REMARK UNBOUND:                -0.548
REMARK SMILES O=C([O-])CCCCCCCCC(=O)[O-]
REMARK SMILES IDX 7 1 6 2 5 3 4 4 2 5 1 6 3 7 8 8 9 9 10 10 11 11 12 12 13 13
REMARK SMILES IDX 14 14
REMARK H PARENT
REMARK Flexibility Score: inf
ROOT
ATOM      1  C   UNL     1      38.700  -9.214  11.802  1.00  0.00     0.000 C 
ENDROOT
BRANCH   1   2
ATOM      2  C   UNL     1      37.382  -9.918  12.163  1.00  0.00     0.000 C 
BRANCH   2   3
ATOM      3  C   UNL     1      36.850  -9.504  13.547  1.00  0.00     0.006 C 
BRANCH   3   4
ATOM      4  C   UNL     1      35.400  -9.006  13.484  1.00  0.00     0.053 C 
BRANCH   4   5
ATOM      5  C   UNL     1      35.318  -7.513  13.578  1.00  0.00     0.041 C 
ATOM      6  O   UNL     1      35.097  -6.825  12.548  1.00  0.00    -0.550 OA
ATOM      7  O   UNL     1      35.457  -6.884  14.809  1.00  0.00    -0.550 OA
ENDBRANCH   4   5
ENDBRANCH   3   4
ENDBRANCH   2   3
ENDBRANCH   1   2
BRANCH   1   8
ATOM      8  C   UNL     1      38.527  -7.703  11.592  1.00  0.00     0.000 C 
BRANCH   8   9
ATOM      9  C   UNL     1      37.914  -7.407  10.217  1.00  0.00     0.000 C 
BRANCH   9  10
ATOM     10  C   UNL     1      38.866  -6.566   9.358  1.00  0.00     0.006 C 
BRANCH  10  11
ATOM     11  C   UNL     1      40.326  -6.828   9.736  1.00  0.00     0.053 C 
BRANCH  11  12
ATOM     12  C   UNL     1      40.948  -7.799   8.784  1.00  0.00     0.041 C 
ATOM     13  O   UNL     1      41.424  -7.397   7.689  1.00  0.00    -0.550 OA
ATOM     14  O   UNL     1      40.958  -9.156   9.082  1.00  0.00    -0.550 OA
ENDBRANCH  11  12
ENDBRANCH  10  11
ENDBRANCH   9  10
ENDBRANCH   8   9
ENDBRANCH   1   8
TORSDOF 9
ENDMDL
MODEL 5
REMARK VINA RESULT:    -4.053      1.544      6.923
REMARK INTER + INTRA:          -6.734
REMARK INTER:                  -6.018
REMARK INTRA:                  -0.716
REMARK UNBOUND:                -0.548
REMARK SMILES O=C([O-])CCCCCCCCC(=O)[O-]
REMARK SMILES IDX 7 1 6 2 5 3 4 4 2 5 1 6 3 7 8 8 9 9 10 10 11 11 12 12 13 13
REMARK SMILES IDX 14 14
REMARK H PARENT
REMARK Flexibility Score: inf
ROOT
ATOM      1  C   UNL     1      37.718  -9.520  10.810  1.00  0.00     0.000 C 
ENDROOT
BRANCH   1   2
ATOM      2  C   UNL     1      39.223  -9.241  10.955  1.00  0.00     0.000 C 
BRANCH   2   3
ATOM      3  C   UNL     1      39.911  -8.987   9.602  1.00  0.00     0.006 C 
BRANCH   3   4
ATOM      4  C   UNL     1      40.316  -7.517   9.426  1.00  0.00     0.053 C 
BRANCH   4   5
ATOM      5  C   UNL     1      39.446  -6.815   8.428  1.00  0.00     0.041 C 
ATOM      6  O   UNL     1      38.337  -6.336   8.782  1.00  0.00    -0.550 OA
ATOM      7  O   UNL     1      39.873  -6.665   7.115  1.00  0.00    -0.550 OA
ENDBRANCH   4   5
ENDBRANCH   3   4
ENDBRANCH   2   3
ENDBRANCH   1   2
BRANCH   1   8
ATOM      8  C   UNL     1      36.848  -8.377  11.351  1.00  0.00     0.000 C 
BRANCH   8   9
ATOM      9  C   UNL     1      37.698  -7.357  12.119  1.00  0.00     0.000 C 
BRANCH   9  10
ATOM     10  C   UNL     1      36.861  -6.624  13.174  1.00  0.00     0.006 C 
BRANCH  10  11
ATOM     11  C   UNL     1      35.371  -6.930  13.004  1.00  0.00     0.053 C 
BRANCH  11  12
ATOM     12  C   UNL     1      34.771  -7.363  14.305  1.00  0.00     0.041 C 
ATOM     13  O   UNL     1      35.301  -7.015  15.393  1.00  0.00    -0.550 OA
ATOM     14  O   UNL     1      33.658  -8.194  14.314  1.00  0.00    -0.550 OA
ENDBRANCH  11  12
ENDBRANCH  10  11
ENDBRANCH   9  10
ENDBRANCH   8   9
ENDBRANCH   1   8
TORSDOF 9
ENDMDL
MODEL 6
REMARK VINA RESULT:    -4.034      1.533      2.329
REMARK INTER + INTRA:          -6.705
REMARK INTER:                  -6.312
REMARK INTRA:                  -0.392
REMARK UNBOUND:                -0.548
REMARK SMILES O=C([O-])CCCCCCCCC(=O)[O-]
REMARK SMILES IDX 7 1 6 2 5 3 4 4 2 5 1 6 3 7 8 8 9 9 10 10 11 11 12 12 13 13
REMARK SMILES IDX 14 14
REMARK H PARENT
REMARK Flexibility Score: inf
ROOT
ATOM      1  C   UNL     1      35.384  -7.003  12.553  1.00  0.00     0.000 C 
ENDROOT
BRANCH   1   2
ATOM      2  C   UNL     1      36.186  -6.637  13.813  1.00  0.00     0.000 C 
BRANCH   2   3
ATOM      3  C   UNL     1      35.421  -6.948  15.112  1.00  0.00     0.006 C 
BRANCH   3   4
ATOM      4  C   UNL     1      34.336  -8.014  14.904  1.00  0.00     0.053 C 
BRANCH   4   5
ATOM      5  C   UNL     1      33.248  -7.909  15.929  1.00  0.00     0.041 C 
ATOM      6  O   UNL     1      33.506  -8.093  17.147  1.00  0.00    -0.550 OA
ATOM      7  O   UNL     1      31.956  -7.580  15.541  1.00  0.00    -0.550 OA
ENDBRANCH   4   5
ENDBRANCH   3   4
ENDBRANCH   2   3
ENDBRANCH   1   2
BRANCH   1   8
ATOM      8  C   UNL     1      36.241  -7.703  11.488  1.00  0.00     0.000 C 
BRANCH   8   9
ATOM      9  C   UNL     1      37.729  -7.389  11.688  1.00  0.00     0.000 C 
BRANCH   9  10
ATOM     10  C   UNL     1      38.550  -7.809  10.463  1.00  0.00     0.006 C 
BRANCH  10  11
ATOM     11  C   UNL     1      38.569  -6.701   9.407  1.00  0.00     0.053 C 
BRANCH  11  12
ATOM     12  C   UNL     1      39.768  -6.840   8.522  1.00  0.00     0.041 C 
ATOM     13  O   UNL     1      39.668  -6.634   7.283  1.00  0.00    -0.550 OA
ATOM     14  O   UNL     1      40.983  -7.246   9.057  1.00  0.00    -0.550 OA
ENDBRANCH  11  12
ENDBRANCH  10  11
ENDBRANCH   9  10
ENDBRANCH   8   9
ENDBRANCH   1   8
TORSDOF 9
ENDMDL
MODEL 7
REMARK VINA RESULT:    -4.032      1.831      6.515
REMARK INTER + INTRA:          -6.702
REMARK INTER:                  -5.720
REMARK INTRA:                  -0.982
REMARK UNBOUND:                -0.548
REMARK SMILES O=C([O-])CCCCCCCCC(=O)[O-]
REMARK SMILES IDX 7 1 6 2 5 3 4 4 2 5 1 6 3 7 8 8 9 9 10 10 11 11 12 12 13 13
REMARK SMILES IDX 14 14
REMARK H PARENT
REMARK Flexibility Score: inf
ROOT
ATOM      1  C   UNL     1      38.848  -9.695  11.282  1.00  0.00     0.000 C 
ENDROOT
BRANCH   1   2
ATOM      2  C   UNL     1      40.014 -10.099  10.365  1.00  0.00     0.000 C 
BRANCH   2   3
ATOM      3  C   UNL     1      39.827  -9.608   8.918  1.00  0.00     0.006 C 
BRANCH   3   4
ATOM      4  C   UNL     1      40.826  -8.504   8.548  1.00  0.00     0.053 C 
BRANCH   4   5
ATOM      5  C   UNL     1      40.282  -7.139   8.839  1.00  0.00     0.041 C 
ATOM      6  O   UNL     1      40.555  -6.567   9.927  1.00  0.00    -0.550 OA
ATOM      7  O   UNL     1      39.497  -6.487   7.897  1.00  0.00    -0.550 OA
ENDBRANCH   4   5
ENDBRANCH   3   4
ENDBRANCH   2   3
ENDBRANCH   1   2
BRANCH   1   8
ATOM      8  C   UNL     1      37.641  -9.154  10.502  1.00  0.00     0.000 C 
BRANCH   8   9
ATOM      9  C   UNL     1      37.321  -7.712  10.916  1.00  0.00     0.000 C 
BRANCH   9  10
ATOM     10  C   UNL     1      38.007  -7.354  12.239  1.00  0.00     0.006 C 
BRANCH  10  11
ATOM     11  C   UNL     1      37.013  -6.734  13.225  1.00  0.00     0.053 C 
BRANCH  11  12
ATOM     12  C   UNL     1      35.913  -7.700  13.537  1.00  0.00     0.041 C 
ATOM     13  O   UNL     1      34.709  -7.337  13.456  1.00  0.00    -0.550 OA
ATOM     14  O   UNL     1      36.217  -8.985  13.966  1.00  0.00    -0.550 OA
ENDBRANCH  11  12
ENDBRANCH  10  11
ENDBRANCH   9  10
ENDBRANCH   8   9
ENDBRANCH   1   8
TORSDOF 9
ENDMDL
MODEL 8
REMARK VINA RESULT:    -4.021      1.482      2.153
REMARK INTER + INTRA:          -6.686
REMARK INTER:                  -6.172
REMARK INTRA:                  -0.514
REMARK UNBOUND:                -0.548
REMARK SMILES O=C([O-])CCCCCCCCC(=O)[O-]
REMARK SMILES IDX 7 1 6 2 5 3 4 4 2 5 1 6 3 7 8 8 9 9 10 10 11 11 12 12 13 13
REMARK SMILES IDX 14 14
REMARK H PARENT
REMARK Flexibility Score: inf
ROOT
ATOM      1  C   UNL     1      39.160  -7.570  11.075  1.00  0.00     0.000 C 
ENDROOT
BRANCH   1   2
ATOM      2  C   UNL     1      37.822  -7.668  10.323  1.00  0.00     0.000 C 
BRANCH   2   3
ATOM      3  C   UNL     1      36.616  -7.777  11.273  1.00  0.00     0.006 C 
BRANCH   3   4
ATOM      4  C   UNL     1      37.041  -8.079  12.716  1.00  0.00     0.053 C 
BRANCH   4   5
ATOM      5  C   UNL     1      36.197  -7.343  13.712  1.00  0.00     0.041 C 
ATOM      6  O   UNL     1      35.520  -7.980  14.561  1.00  0.00    -0.550 OA
ATOM      7  O   UNL     1      36.181  -5.955  13.720  1.00  0.00    -0.550 OA
ENDBRANCH   4   5
ENDBRANCH   3   4
ENDBRANCH   2   3
ENDBRANCH   1   2
BRANCH   1   8
ATOM      8  C   UNL     1      40.274  -6.944  10.224  1.00  0.00     0.000 C 
BRANCH   8   9
ATOM      9  C   UNL     1      39.765  -6.604   8.818  1.00  0.00     0.000 C 
BRANCH   9  10
ATOM     10  C   UNL     1      40.586  -7.328   7.743  1.00  0.00     0.006 C 
BRANCH  10  11
ATOM     11  C   UNL     1      41.734  -8.122   8.371  1.00  0.00     0.053 C 
BRANCH  11  12
ATOM     12  C   UNL     1      42.980  -7.978   7.556  1.00  0.00     0.041 C 
ATOM     13  O   UNL     1      42.935  -7.434   6.421  1.00  0.00    -0.550 OA
ATOM     14  O   UNL     1      44.182  -8.489   8.029  1.00  0.00    -0.550 OA
ENDBRANCH  11  12
ENDBRANCH  10  11
ENDBRANCH   9  10
ENDBRANCH   8   9
ENDBRANCH   1   8
TORSDOF 9
ENDMDL
MODEL 9
REMARK VINA RESULT:    -4.011      1.489      7.463
REMARK INTER + INTRA:          -6.669
REMARK INTER:                  -6.142
REMARK INTRA:                  -0.528
REMARK UNBOUND:                -0.548
REMARK SMILES O=C([O-])CCCCCCCCC(=O)[O-]
REMARK SMILES IDX 7 1 6 2 5 3 4 4 2 5 1 6 3 7 8 8 9 9 10 10 11 11 12 12 13 13
REMARK SMILES IDX 14 14
REMARK H PARENT
REMARK Flexibility Score: inf
ROOT
ATOM      1  C   UNL     1      40.026  -6.970  10.256  1.00  0.00     0.000 C 
ENDROOT
BRANCH   1   2
ATOM      2  C   UNL     1      39.362  -6.506   8.950  1.00  0.00     0.000 C 
BRANCH   2   3
ATOM      3  C   UNL     1      40.125  -6.975   7.698  1.00  0.00     0.006 C 
BRANCH   3   4
ATOM      4  C   UNL     1      41.180  -8.040   8.029  1.00  0.00     0.053 C 
BRANCH   4   5
ATOM      5  C   UNL     1      42.444  -7.833   7.253  1.00  0.00     0.041 C 
ATOM      6  O   UNL     1      43.560  -8.073   7.784  1.00  0.00    -0.550 OA
ATOM      7  O   UNL     1      42.389  -7.402   5.933  1.00  0.00    -0.550 OA
ENDBRANCH   4   5
ENDBRANCH   3   4
ENDBRANCH   2   3
ENDBRANCH   1   2
BRANCH   1   8
ATOM      8  C   UNL     1      39.106  -7.857  11.107  1.00  0.00     0.000 C 
BRANCH   8   9
ATOM      9  C   UNL     1      37.633  -7.625  10.745  1.00  0.00     0.000 C 
BRANCH   9  10
ATOM     10  C   UNL     1      36.719  -8.593  11.506  1.00  0.00     0.006 C 
BRANCH  10  11
ATOM     11  C   UNL     1      36.757  -8.317  13.011  1.00  0.00     0.053 C 
BRANCH  11  12
ATOM     12  C   UNL     1      36.281  -6.929  13.303  1.00  0.00     0.041 C 
ATOM     13  O   UNL     1      36.995  -6.143  13.980  1.00  0.00    -0.550 OA
ATOM     14  O   UNL     1      35.025  -6.521  12.871  1.00  0.00    -0.550 OA
ENDBRANCH  11  12
ENDBRANCH  10  11
ENDBRANCH   9  10
ENDBRANCH   8   9
ENDBRANCH   1   8
TORSDOF 9
ENDMDL
