MODEL 1
REMARK VINA RESULT:     9.079      0.000      0.000
REMARK INTER + INTRA:          16.866
REMARK INTER:                  17.041
REMARK INTRA:                  -0.175
REMARK UNBOUND:                -0.175
REMARK SMILES O=C([O-])CCCCCCCCCCCCCCC(=O)[O-]
REMARK SMILES IDX 10 1 9 2 8 3 7 4 6 5 5 6 4 7 2 8 1 9 3 10 11 11 12 12 13 13
REMARK SMILES IDX 14 14 15 15 16 16 17 17 18 18 19 19 20 20
REMARK H PARENT
REMARK Flexibility Score: inf
ROOT
ATOM      1  C   UNL     1     -11.060  18.966 -15.905  1.00  0.00     0.000 C 
ENDROOT
BRANCH   1   2
ATOM      2  C   UNL     1     -10.956  19.754 -17.224  1.00  0.00     0.000 C 
BRANCH   2   3
ATOM      3  C   UNL     1     -11.576  19.057 -18.448  1.00  0.00     0.000 C 
BRANCH   3   4
ATOM      4  C   UNL     1     -12.072  20.005 -19.561  1.00  0.00     0.000 C 
BRANCH   4   5
ATOM      5  C   UNL     1     -13.419  19.618 -20.198  1.00  0.00     0.000 C 
BRANCH   5   6
ATOM      6  C   UNL     1     -14.183  20.829 -20.762  1.00  0.00     0.006 C 
BRANCH   6   7
ATOM      7  C   UNL     1     -14.010  20.965 -22.281  1.00  0.00     0.053 C 
BRANCH   7   8
ATOM      8  C   UNL     1     -13.313  19.777 -22.870  1.00  0.00     0.041 C 
ATOM      9  O   UNL     1     -12.081  19.826 -23.125  1.00  0.00    -0.550 OA
ATOM     10  O   UNL     1     -14.020  18.606 -23.112  1.00  0.00    -0.550 OA
ENDBRANCH   7   8
ENDBRANCH   6   7
ENDBRANCH   5   6
ENDBRANCH   4   5
ENDBRANCH   3   4
ENDBRANCH   2   3
ENDBRANCH   1   2
BRANCH   1  11
ATOM     11  C   UNL     1     -12.226  19.420 -15.000  1.00  0.00     0.000 C 
BRANCH  11  12
ATOM     12  C   UNL     1     -11.840  19.452 -13.513  1.00  0.00     0.000 C 
BRANCH  12  13
ATOM     13  C   UNL     1     -13.003  18.964 -12.634  1.00  0.00     0.000 C 
BRANCH  13  14
ATOM     14  C   UNL     1     -12.747  19.185 -11.134  1.00  0.00     0.000 C 
BRANCH  14  15
ATOM     15  C   UNL     1     -14.020  19.016 -10.286  1.00  0.00     0.000 C 
BRANCH  15  16
ATOM     16  C   UNL     1     -13.727  18.981  -8.774  1.00  0.00     0.006 C 
BRANCH  16  17
ATOM     17  C   UNL     1     -12.295  19.387  -8.394  1.00  0.00     0.053 C 
BRANCH  17  18
ATOM     18  C   UNL     1     -12.252  20.708  -7.690  1.00  0.00     0.041 C 
ATOM     19  O   UNL     1     -12.930  20.892  -6.645  1.00  0.00    -0.550 OA
ATOM     20  O   UNL     1     -11.437  21.725  -8.170  1.00  0.00    -0.550 OA
ENDBRANCH  17  18
ENDBRANCH  16  17
ENDBRANCH  15  16
ENDBRANCH  14  15
ENDBRANCH  13  14
ENDBRANCH  12  13
ENDBRANCH  11  12
ENDBRANCH   1  11
TORSDOF 15
ENDMDL
MODEL 2
REMARK VINA RESULT:     9.622      1.336     11.234
REMARK INTER + INTRA:          17.884
REMARK INTER:                  18.511
REMARK INTRA:                  -0.627
REMARK UNBOUND:                -0.175
REMARK SMILES O=C([O-])CCCCCCCCCCCCCCC(=O)[O-]
REMARK SMILES IDX 10 1 9 2 8 3 7 4 6 5 5 6 4 7 2 8 1 9 3 10 11 11 12 12 13 13
REMARK SMILES IDX 14 14 15 15 16 16 17 17 18 18 19 19 20 20
REMARK H PARENT
REMARK Flexibility Score: inf
ROOT
ATOM      1  C   UNL     1     -11.999  19.695 -14.628  1.00  0.00     0.000 C 
ENDROOT
BRANCH   1   2
ATOM      2  C   UNL     1     -12.148  19.847 -13.102  1.00  0.00     0.000 C 
BRANCH   2   3
ATOM      3  C   UNL     1     -12.799  18.647 -12.390  1.00  0.00     0.000 C 
BRANCH   3   4
ATOM      4  C   UNL     1     -13.253  18.914 -10.940  1.00  0.00     0.000 C 
BRANCH   4   5
ATOM      5  C   UNL     1     -12.736  17.907  -9.896  1.00  0.00     0.000 C 
BRANCH   5   6
ATOM      6  C   UNL     1     -12.559  18.531  -8.500  1.00  0.00     0.006 C 
BRANCH   6   7
ATOM      7  C   UNL     1     -13.225  19.909  -8.394  1.00  0.00     0.053 C 
BRANCH   7   8
ATOM      8  C   UNL     1     -12.322  20.915  -7.747  1.00  0.00     0.041 C 
ATOM      9  O   UNL     1     -11.288  21.316  -8.343  1.00  0.00    -0.550 OA
ATOM     10  O   UNL     1     -12.639  21.428  -6.496  1.00  0.00    -0.550 OA
ENDBRANCH   7   8
ENDBRANCH   6   7
ENDBRANCH   5   6
ENDBRANCH   4   5
ENDBRANCH   3   4
ENDBRANCH   2   3
ENDBRANCH   1   2
BRANCH   1  11
ATOM     11  C   UNL     1     -12.522  18.348 -15.171  1.00  0.00     0.000 C 
BRANCH  11  12
ATOM     12  C   UNL     1     -13.926  18.464 -15.784  1.00  0.00     0.000 C 
BRANCH  12  13
ATOM     13  C   UNL     1     -14.048  17.593 -17.045  1.00  0.00     0.000 C 
BRANCH  13  14
ATOM     14  C   UNL     1     -14.820  18.291 -18.177  1.00  0.00     0.000 C 
BRANCH  14  15
ATOM     15  C   UNL     1     -13.888  18.981 -19.188  1.00  0.00     0.000 C 
BRANCH  15  16
ATOM     16  C   UNL     1     -14.659  19.706 -20.308  1.00  0.00     0.006 C 
BRANCH  16  17
ATOM     17  C   UNL     1     -13.830  20.745 -21.080  1.00  0.00     0.053 C 
BRANCH  17  18
ATOM     18  C   UNL     1     -13.380  20.228 -22.413  1.00  0.00     0.041 C 
ATOM     19  O   UNL     1     -12.310  20.648 -22.926  1.00  0.00    -0.550 OA
ATOM     20  O   UNL     1     -14.125  19.257 -23.069  1.00  0.00    -0.550 OA
ENDBRANCH  17  18
ENDBRANCH  16  17
ENDBRANCH  15  16
ENDBRANCH  14  15
ENDBRANCH  13  14
ENDBRANCH  12  13
ENDBRANCH  11  12
ENDBRANCH   1  11
TORSDOF 15
ENDMDL
MODEL 3
REMARK VINA RESULT:     9.949      1.147     11.330
REMARK INTER + INTRA:          18.499
REMARK INTER:                  18.950
REMARK INTRA:                  -0.451
REMARK UNBOUND:                -0.175
REMARK SMILES O=C([O-])CCCCCCCCCCCCCCC(=O)[O-]
REMARK SMILES IDX 10 1 9 2 8 3 7 4 6 5 5 6 4 7 2 8 1 9 3 10 11 11 12 12 13 13
REMARK SMILES IDX 14 14 15 15 16 16 17 17 18 18 19 19 20 20
REMARK H PARENT
REMARK Flexibility Score: inf
ROOT
ATOM      1  C   UNL     1     -11.002  18.985 -15.175  1.00  0.00     0.000 C 
ENDROOT
BRANCH   1   2
ATOM      2  C   UNL     1     -11.570  19.665 -13.914  1.00  0.00     0.000 C 
BRANCH   2   3
ATOM      3  C   UNL     1     -13.014  19.269 -13.559  1.00  0.00     0.000 C 
BRANCH   3   4
ATOM      4  C   UNL     1     -13.353  19.312 -12.053  1.00  0.00     0.000 C 
BRANCH   4   5
ATOM      5  C   UNL     1     -12.813  18.131 -11.226  1.00  0.00     0.000 C 
BRANCH   5   6
ATOM      6  C   UNL     1     -12.815  18.410  -9.713  1.00  0.00     0.006 C 
BRANCH   6   7
ATOM      7  C   UNL     1     -13.118  19.881  -9.397  1.00  0.00     0.053 C 
BRANCH   7   8
ATOM      8  C   UNL     1     -12.724  20.242  -7.997  1.00  0.00     0.041 C 
ATOM      9  O   UNL     1     -13.076  19.515  -7.031  1.00  0.00    -0.550 OA
ATOM     10  O   UNL     1     -11.945  21.368  -7.763  1.00  0.00    -0.550 OA
ENDBRANCH   7   8
ENDBRANCH   6   7
ENDBRANCH   5   6
ENDBRANCH   4   5
ENDBRANCH   3   4
ENDBRANCH   2   3
ENDBRANCH   1   2
BRANCH   1  11
ATOM     11  C   UNL     1     -10.909  19.924 -16.397  1.00  0.00     0.000 C 
BRANCH  11  12
ATOM     12  C   UNL     1     -11.200  19.199 -17.720  1.00  0.00     0.000 C 
BRANCH  12  13
ATOM     13  C   UNL     1     -11.843  20.153 -18.739  1.00  0.00     0.000 C 
BRANCH  13  14
ATOM     14  C   UNL     1     -13.048  19.528 -19.462  1.00  0.00     0.000 C 
BRANCH  14  15
ATOM     15  C   UNL     1     -13.596  20.428 -20.583  1.00  0.00     0.000 C 
BRANCH  15  16
ATOM     16  C   UNL     1     -14.295  19.628 -21.699  1.00  0.00     0.006 C 
BRANCH  16  17
ATOM     17  C   UNL     1     -13.752  19.901 -23.111  1.00  0.00     0.053 C 
BRANCH  17  18
ATOM     18  C   UNL     1     -12.365  20.466 -23.081  1.00  0.00     0.041 C 
ATOM     19  O   UNL     1     -11.368  19.697 -23.046  1.00  0.00    -0.550 OA
ATOM     20  O   UNL     1     -12.173  21.841 -23.125  1.00  0.00    -0.550 OA
ENDBRANCH  17  18
ENDBRANCH  16  17
ENDBRANCH  15  16
ENDBRANCH  14  15
ENDBRANCH  13  14
ENDBRANCH  12  13
ENDBRANCH  11  12
ENDBRANCH   1  11
TORSDOF 15
ENDMDL
MODEL 4
REMARK VINA RESULT:     9.951      0.835     11.434
REMARK INTER + INTRA:          18.502
REMARK INTER:                  18.830
REMARK INTRA:                  -0.329
REMARK UNBOUND:                -0.175
REMARK SMILES O=C([O-])CCCCCCCCCCCCCCC(=O)[O-]
REMARK SMILES IDX 10 1 9 2 8 3 7 4 6 5 5 6 4 7 2 8 1 9 3 10 11 11 12 12 13 13
REMARK SMILES IDX 14 14 15 15 16 16 17 17 18 18 19 19 20 20
REMARK H PARENT
REMARK Flexibility Score: inf
ROOT
ATOM      1  C   UNL     1     -11.603  19.069 -14.207  1.00  0.00     0.000 C 
ENDROOT
BRANCH   1   2
ATOM      2  C   UNL     1     -12.787  19.391 -13.275  1.00  0.00     0.000 C 
BRANCH   2   3
ATOM      3  C   UNL     1     -12.456  19.364 -11.772  1.00  0.00     0.000 C 
BRANCH   3   4
ATOM      4  C   UNL     1     -13.579  18.819 -10.864  1.00  0.00     0.000 C 
BRANCH   4   5
ATOM      5  C   UNL     1     -13.103  17.954  -9.682  1.00  0.00     0.000 C 
BRANCH   5   6
ATOM      6  C   UNL     1     -12.203  18.725  -8.701  1.00  0.00     0.006 C 
BRANCH   6   7
ATOM      7  C   UNL     1     -13.005  19.685  -7.813  1.00  0.00     0.053 C 
BRANCH   7   8
ATOM      8  C   UNL     1     -12.263  20.963  -7.563  1.00  0.00     0.041 C 
ATOM      9  O   UNL     1     -12.562  21.689  -6.580  1.00  0.00    -0.550 OA
ATOM     10  O   UNL     1     -11.223  21.337  -8.404  1.00  0.00    -0.550 OA
ENDBRANCH   7   8
ENDBRANCH   6   7
ENDBRANCH   5   6
ENDBRANCH   4   5
ENDBRANCH   3   4
ENDBRANCH   2   3
ENDBRANCH   1   2
BRANCH   1  11
ATOM     11  C   UNL     1     -11.523  19.985 -15.447  1.00  0.00     0.000 C 
BRANCH  11  12
ATOM     12  C   UNL     1     -10.780  19.326 -16.619  1.00  0.00     0.000 C 
BRANCH  12  13
ATOM     13  C   UNL     1     -11.205  19.948 -17.959  1.00  0.00     0.000 C 
BRANCH  13  14
ATOM     14  C   UNL     1     -12.084  19.008 -18.799  1.00  0.00     0.000 C 
BRANCH  14  15
ATOM     15  C   UNL     1     -12.459  19.611 -20.164  1.00  0.00     0.000 C 
BRANCH  15  16
ATOM     16  C   UNL     1     -13.754  20.444 -20.111  1.00  0.00     0.006 C 
BRANCH  16  17
ATOM     17  C   UNL     1     -14.237  20.955 -21.478  1.00  0.00     0.053 C 
BRANCH  17  18
ATOM     18  C   UNL     1     -13.463  20.351 -22.610  1.00  0.00     0.041 C 
ATOM     19  O   UNL     1     -12.462  20.950 -23.084  1.00  0.00    -0.550 OA
ATOM     20  O   UNL     1     -13.829  19.111 -23.118  1.00  0.00    -0.550 OA
ENDBRANCH  17  18
ENDBRANCH  16  17
ENDBRANCH  15  16
ENDBRANCH  14  15
ENDBRANCH  13  14
ENDBRANCH  12  13
ENDBRANCH  11  12
ENDBRANCH   1  11
TORSDOF 15
ENDMDL
MODEL 5
REMARK VINA RESULT:    10.068      1.122     11.393
REMARK INTER + INTRA:          18.721
REMARK INTER:                  18.975
REMARK INTRA:                  -0.253
REMARK UNBOUND:                -0.175
REMARK SMILES O=C([O-])CCCCCCCCCCCCCCC(=O)[O-]
REMARK SMILES IDX 10 1 9 2 8 3 7 4 6 5 5 6 4 7 2 8 1 9 3 10 11 11 12 12 13 13
REMARK SMILES IDX 14 14 15 15 16 16 17 17 18 18 19 19 20 20
REMARK H PARENT
REMARK Flexibility Score: inf
ROOT
ATOM      1  C   UNL     1     -11.664  18.811 -15.342  1.00  0.00     0.000 C 
ENDROOT
BRANCH   1   2
ATOM      2  C   UNL     1     -11.666  19.362 -13.904  1.00  0.00     0.000 C 
BRANCH   2   3
ATOM      3  C   UNL     1     -13.030  19.309 -13.191  1.00  0.00     0.000 C 
BRANCH   3   4
ATOM      4  C   UNL     1     -12.972  19.461 -11.656  1.00  0.00     0.000 C 
BRANCH   4   5
ATOM      5  C   UNL     1     -12.805  18.146 -10.874  1.00  0.00     0.000 C 
BRANCH   5   6
ATOM      6  C   UNL     1     -12.783  18.355  -9.349  1.00  0.00     0.006 C 
BRANCH   6   7
ATOM      7  C   UNL     1     -13.472  19.662  -8.936  1.00  0.00     0.053 C 
BRANCH   7   8
ATOM      8  C   UNL     1     -12.741  20.348  -7.822  1.00  0.00     0.041 C 
ATOM      9  O   UNL     1     -11.900  21.250  -8.075  1.00  0.00    -0.550 OA
ATOM     10  O   UNL     1     -13.011  20.008  -6.502  1.00  0.00    -0.550 OA
ENDBRANCH   7   8
ENDBRANCH   6   7
ENDBRANCH   5   6
ENDBRANCH   4   5
ENDBRANCH   3   4
ENDBRANCH   2   3
ENDBRANCH   1   2
BRANCH   1  11
ATOM     11  C   UNL     1     -10.495  19.333 -16.205  1.00  0.00     0.000 C 
BRANCH  11  12
ATOM     12  C   UNL     1     -10.973  20.178 -17.396  1.00  0.00     0.000 C 
BRANCH  12  13
ATOM     13  C   UNL     1     -11.442  19.281 -18.552  1.00  0.00     0.000 C 
BRANCH  13  14
ATOM     14  C   UNL     1     -11.970  20.085 -19.752  1.00  0.00     0.000 C 
BRANCH  14  15
ATOM     15  C   UNL     1     -12.025  19.252 -21.044  1.00  0.00     0.000 C 
BRANCH  15  16
ATOM     16  C   UNL     1     -11.566  20.044 -22.283  1.00  0.00     0.006 C 
BRANCH  16  17
ATOM     17  C   UNL     1     -12.711  20.627 -23.125  1.00  0.00     0.053 C 
BRANCH  17  18
ATOM     18  C   UNL     1     -14.056  20.277 -22.564  1.00  0.00     0.041 C 
ATOM     19  O   UNL     1     -14.611  19.192 -22.880  1.00  0.00    -0.550 OA
ATOM     20  O   UNL     1     -14.679  21.136 -21.668  1.00  0.00    -0.550 OA
ENDBRANCH  17  18
ENDBRANCH  16  17
ENDBRANCH  15  16
ENDBRANCH  14  15
ENDBRANCH  13  14
ENDBRANCH  12  13
ENDBRANCH  11  12
ENDBRANCH   1  11
TORSDOF 15
ENDMDL
MODEL 6
REMARK VINA RESULT:    10.229      1.235      1.891
REMARK INTER + INTRA:          19.024
REMARK INTER:                  19.339
REMARK INTRA:                  -0.314
REMARK UNBOUND:                -0.175
REMARK SMILES O=C([O-])CCCCCCCCCCCCCCC(=O)[O-]
REMARK SMILES IDX 10 1 9 2 8 3 7 4 6 5 5 6 4 7 2 8 1 9 3 10 11 11 12 12 13 13
REMARK SMILES IDX 14 14 15 15 16 16 17 17 18 18 19 19 20 20
REMARK H PARENT
REMARK Flexibility Score: inf
ROOT
ATOM      1  C   UNL     1     -10.695  20.023 -16.996  1.00  0.00     0.000 C 
ENDROOT
BRANCH   1   2
ATOM      2  C   UNL     1     -11.134  19.103 -18.150  1.00  0.00     0.000 C 
BRANCH   2   3
ATOM      3  C   UNL     1     -11.754  19.827 -19.359  1.00  0.00     0.000 C 
BRANCH   3   4
ATOM      4  C   UNL     1     -11.656  19.068 -20.699  1.00  0.00     0.000 C 
BRANCH   4   5
ATOM      5  C   UNL     1     -11.042  19.868 -21.862  1.00  0.00     0.000 C 
BRANCH   5   6
ATOM      6  C   UNL     1     -11.923  19.861 -23.124  1.00  0.00     0.006 C 
BRANCH   6   7
ATOM      7  C   UNL     1     -12.980  20.972 -23.096  1.00  0.00     0.053 C 
BRANCH   7   8
ATOM      8  C   UNL     1     -14.097  20.653 -22.149  1.00  0.00     0.041 C 
ATOM      9  O   UNL     1     -14.284  21.362 -21.126  1.00  0.00    -0.550 OA
ATOM     10  O   UNL     1     -14.948  19.586 -22.412  1.00  0.00    -0.550 OA
ENDBRANCH   7   8
ENDBRANCH   6   7
ENDBRANCH   5   6
ENDBRANCH   4   5
ENDBRANCH   3   4
ENDBRANCH   2   3
ENDBRANCH   1   2
BRANCH   1  11
ATOM     11  C   UNL     1     -10.689  19.329 -15.617  1.00  0.00     0.000 C 
BRANCH  11  12
ATOM     12  C   UNL     1     -12.051  19.407 -14.911  1.00  0.00     0.000 C 
BRANCH  12  13
ATOM     13  C   UNL     1     -11.874  19.616 -13.398  1.00  0.00     0.000 C 
BRANCH  13  14
ATOM     14  C   UNL     1     -13.149  19.295 -12.601  1.00  0.00     0.000 C 
BRANCH  14  15
ATOM     15  C   UNL     1     -12.847  18.615 -11.254  1.00  0.00     0.000 C 
BRANCH  15  16
ATOM     16  C   UNL     1     -13.457  19.369 -10.057  1.00  0.00     0.006 C 
BRANCH  16  17
ATOM     17  C   UNL     1     -12.906  18.939  -8.688  1.00  0.00     0.053 C 
BRANCH  17  18
ATOM     18  C   UNL     1     -12.683  20.108  -7.779  1.00  0.00     0.041 C 
ATOM     19  O   UNL     1     -12.050  21.117  -8.188  1.00  0.00    -0.550 OA
ATOM     20  O   UNL     1     -13.203  20.096  -6.491  1.00  0.00    -0.550 OA
ENDBRANCH  17  18
ENDBRANCH  16  17
ENDBRANCH  15  16
ENDBRANCH  14  15
ENDBRANCH  13  14
ENDBRANCH  12  13
ENDBRANCH  11  12
ENDBRANCH   1  11
TORSDOF 15
ENDMDL
MODEL 7
REMARK VINA RESULT:    10.726      1.234      1.620
REMARK INTER + INTRA:          19.956
REMARK INTER:                  20.530
REMARK INTRA:                  -0.574
REMARK UNBOUND:                -0.175
REMARK SMILES O=C([O-])CCCCCCCCCCCCCCC(=O)[O-]
REMARK SMILES IDX 10 1 9 2 8 3 7 4 6 5 5 6 4 7 2 8 1 9 3 10 11 11 12 12 13 13
REMARK SMILES IDX 14 14 15 15 16 16 17 17 18 18 19 19 20 20
REMARK H PARENT
REMARK Flexibility Score: inf
ROOT
ATOM      1  C   UNL     1     -13.317  18.662 -15.349  1.00  0.00     0.000 C 
ENDROOT
BRANCH   1   2
ATOM      2  C   UNL     1     -13.190  17.795 -16.615  1.00  0.00     0.000 C 
BRANCH   2   3
ATOM      3  C   UNL     1     -14.244  18.073 -17.702  1.00  0.00     0.000 C 
BRANCH   3   4
ATOM      4  C   UNL     1     -13.707  18.768 -18.971  1.00  0.00     0.000 C 
BRANCH   4   5
ATOM      5  C   UNL     1     -14.734  19.630 -19.730  1.00  0.00     0.000 C 
BRANCH   5   6
ATOM      6  C   UNL     1     -14.076  20.706 -20.611  1.00  0.00     0.006 C 
BRANCH   6   7
ATOM      7  C   UNL     1     -14.212  20.390 -22.107  1.00  0.00     0.053 C 
BRANCH   7   8
ATOM      8  C   UNL     1     -12.892  20.463 -22.813  1.00  0.00     0.041 C 
ATOM      9  O   UNL     1     -12.389  21.580 -23.104  1.00  0.00    -0.550 OA
ATOM     10  O   UNL     1     -12.206  19.296 -23.125  1.00  0.00    -0.550 OA
ENDBRANCH   7   8
ENDBRANCH   6   7
ENDBRANCH   5   6
ENDBRANCH   4   5
ENDBRANCH   3   4
ENDBRANCH   2   3
ENDBRANCH   1   2
BRANCH   1  11
ATOM     11  C   UNL     1     -11.986  19.303 -14.899  1.00  0.00     0.000 C 
BRANCH  11  12
ATOM     12  C   UNL     1     -12.008  19.736 -13.425  1.00  0.00     0.000 C 
BRANCH  12  13
ATOM     13  C   UNL     1     -12.766  18.713 -12.564  1.00  0.00     0.000 C 
BRANCH  13  14
ATOM     14  C   UNL     1     -13.139  19.263 -11.178  1.00  0.00     0.000 C 
BRANCH  14  15
ATOM     15  C   UNL     1     -13.169  18.169 -10.096  1.00  0.00     0.000 C 
BRANCH  15  16
ATOM     16  C   UNL     1     -12.531  18.627  -8.770  1.00  0.00     0.006 C 
BRANCH  16  17
ATOM     17  C   UNL     1     -13.291  19.754  -8.055  1.00  0.00     0.053 C 
BRANCH  17  18
ATOM     18  C   UNL     1     -12.391  20.893  -7.684  1.00  0.00     0.041 C 
ATOM     19  O   UNL     1     -11.560  21.340  -8.516  1.00  0.00    -0.550 OA
ATOM     20  O   UNL     1     -12.495  21.480  -6.429  1.00  0.00    -0.550 OA
ENDBRANCH  17  18
ENDBRANCH  16  17
ENDBRANCH  15  16
ENDBRANCH  14  15
ENDBRANCH  13  14
ENDBRANCH  12  13
ENDBRANCH  11  12
ENDBRANCH   1  11
TORSDOF 15
ENDMDL
MODEL 8
REMARK VINA RESULT:    12.048     12.643     14.376
REMARK INTER + INTRA:          22.438
REMARK INTER:                  22.630
REMARK INTRA:                  -0.192
REMARK UNBOUND:                -0.175
REMARK SMILES O=C([O-])CCCCCCCCCCCCCCC(=O)[O-]
REMARK SMILES IDX 10 1 9 2 8 3 7 4 6 5 5 6 4 7 2 8 1 9 3 10 11 11 12 12 13 13
REMARK SMILES IDX 14 14 15 15 16 16 17 17 18 18 19 19 20 20
REMARK H PARENT
REMARK Flexibility Score: inf
ROOT
ATOM      1  C   UNL     1      -7.052   6.729 -18.553  1.00  0.00     0.000 C 
ENDROOT
BRANCH   1   2
ATOM      2  C   UNL     1      -7.823   5.399 -18.647  1.00  0.00     0.000 C 
BRANCH   2   3
ATOM      3  C   UNL     1      -7.876   4.778 -20.055  1.00  0.00     0.000 C 
BRANCH   3   4
ATOM      4  C   UNL     1      -6.824   3.682 -20.327  1.00  0.00     0.000 C 
BRANCH   4   5
ATOM      5  C   UNL     1      -6.791   3.151 -21.772  1.00  0.00     0.000 C 
BRANCH   5   6
ATOM      6  C   UNL     1      -8.006   3.600 -22.602  1.00  0.00     0.006 C 
BRANCH   6   7
ATOM      7  C   UNL     1      -7.858   5.039 -23.112  1.00  0.00     0.053 C 
BRANCH   7   8
ATOM      8  C   UNL     1      -9.154   5.789 -23.044  1.00  0.00     0.041 C 
ATOM      9  O   UNL     1      -9.165   7.046 -23.124  1.00  0.00    -0.550 OA
ATOM     10  O   UNL     1     -10.352   5.097 -22.919  1.00  0.00    -0.550 OA
ENDBRANCH   7   8
ENDBRANCH   6   7
ENDBRANCH   5   6
ENDBRANCH   4   5
ENDBRANCH   3   4
ENDBRANCH   2   3
ENDBRANCH   1   2
BRANCH   1  11
ATOM     11  C   UNL     1      -7.903   7.903 -18.022  1.00  0.00     0.000 C 
BRANCH  11  12
ATOM     12  C   UNL     1      -7.973   9.076 -19.012  1.00  0.00     0.000 C 
BRANCH  12  13
ATOM     13  C   UNL     1      -8.304  10.389 -18.285  1.00  0.00     0.000 C 
BRANCH  13  14
ATOM     14  C   UNL     1      -7.054  11.093 -17.731  1.00  0.00     0.000 C 
BRANCH  14  15
ATOM     15  C   UNL     1      -6.566  12.233 -18.642  1.00  0.00     0.000 C 
BRANCH  15  16
ATOM     16  C   UNL     1      -6.324  13.547 -17.874  1.00  0.00     0.006 C 
BRANCH  16  17
ATOM     17  C   UNL     1      -5.723  13.361 -16.472  1.00  0.00     0.053 C 
BRANCH  17  18
ATOM     18  C   UNL     1      -4.232  13.506 -16.475  1.00  0.00     0.041 C 
ATOM     19  O   UNL     1      -3.700  14.597 -16.140  1.00  0.00    -0.550 OA
ATOM     20  O   UNL     1      -3.429  12.425 -16.816  1.00  0.00    -0.550 OA
ENDBRANCH  17  18
ENDBRANCH  16  17
ENDBRANCH  15  16
ENDBRANCH  14  15
ENDBRANCH  13  14
ENDBRANCH  12  13
ENDBRANCH  11  12
ENDBRANCH   1  11
TORSDOF 15
ENDMDL
