MODEL 1
REMARK VINA RESULT:    -4.004      0.000      0.000
REMARK INTER + INTRA:          -6.125
REMARK INTER:                  -5.876
REMARK INTRA:                  -0.249
REMARK UNBOUND:                -0.249
REMARK SMILES C=C1C=C[C@@H](C(C)C)CCC(C)=CCC1
REMARK SMILES IDX 3 1 4 2 5 3 9 4 10 5 11 6 12 7 13 8 6 10 7 11 8 12 2 13 1 14
REMARK SMILES IDX 15 15 14 16
REMARK H PARENT
REMARK Flexibility Score: 70.00
ROOT
ATOM      1  C   UNL     1       4.548  -2.562  17.350  1.00  0.00    -0.001 C 
ATOM      2  C   UNL     1       3.512  -1.792  17.692  1.00  0.00    -0.023 C 
ENDROOT
BRANCH   2   3
ATOM      3  C   UNL     1       2.158  -1.928  17.040  1.00  0.00     0.014 C 
BRANCH   3   4
ATOM      4  C   UNL     1       1.238  -2.919  17.823  1.00  0.00     0.012 C 
BRANCH   4   5
ATOM      5  C   UNL     1       1.844  -4.299  18.192  1.00  0.00     0.031 C 
BRANCH   5   6
ATOM      6  C   UNL     1       2.061  -4.507  19.685  1.00  0.00    -0.077 C 
ATOM      7  C   UNL     1       0.849  -4.542  20.581  1.00  0.00     0.039 C 
ATOM      8  C   UNL     1       3.280  -4.680  20.262  1.00  0.00    -0.028 CG0
ATOM      9  G   UNL     1       4.626  -4.754  19.564  1.00  0.00     0.000 G0
ENDBRANCH   5   6
ENDBRANCH   4   5
ENDBRANCH   3   4
BRANCH   3  10
ATOM     10  C   UNL     1       2.280  -2.296  15.529  1.00  0.00    -0.010 C 
ATOM     11  C   UNL     1       1.000  -2.970  15.005  1.00  0.00     0.008 C 
ATOM     12  C   UNL     1       2.580  -1.055  14.669  1.00  0.00     0.008 C 
ENDBRANCH   3  10
ENDBRANCH   2   3
BRANCH   1  13
ATOM     13  C   UNL     1       5.670  -2.813  18.277  1.00  0.00    -0.055 C 
ATOM     14  C   UNL     1       6.919  -2.636  17.836  1.00  0.00     0.012 C 
BRANCH  13  15
ATOM     15  C   UNL     1       5.428  -3.421  19.649  1.00  0.00     0.039 C 
BRANCH  15  16
ATOM     16  C   UNL     1       4.638  -4.747  19.574  1.00  0.00     0.032 CG0
ATOM     17  G   UNL     1       3.288  -4.675  20.263  1.00  0.00     0.000 G0
ENDBRANCH  15  16
ENDBRANCH  13  15
ENDBRANCH   1  13
TORSDOF 1
ENDMDL
MODEL 2
REMARK VINA RESULT:    -3.841      1.170      3.530
REMARK INTER + INTRA:          -5.887
REMARK INTER:                  -5.579
REMARK INTRA:                  -0.308
REMARK UNBOUND:                -0.249
REMARK SMILES C=C1C=C[C@@H](C(C)C)CCC(C)=CCC1
REMARK SMILES IDX 3 1 4 2 5 3 9 4 10 5 11 6 12 7 13 8 6 10 7 11 8 12 2 13 1 14
REMARK SMILES IDX 15 15 14 16
REMARK H PARENT
REMARK Flexibility Score: 70.00
ROOT
ATOM      1  C   UNL     1       1.814  -3.445  19.008  1.00  0.00    -0.001 C 
ATOM      2  C   UNL     1       2.445  -3.863  17.907  1.00  0.00    -0.023 C 
ENDROOT
BRANCH   2   3
ATOM      3  C   UNL     1       3.077  -2.903  16.930  1.00  0.00     0.014 C 
BRANCH   3   4
ATOM      4  C   UNL     1       4.355  -2.231  17.528  1.00  0.00     0.012 C 
BRANCH   4   5
ATOM      5  C   UNL     1       5.272  -3.122  18.408  1.00  0.00     0.031 C 
BRANCH   5   6
ATOM      6  C   UNL     1       5.449  -2.619  19.834  1.00  0.00    -0.077 C 
ATOM      7  C   UNL     1       6.221  -1.341  20.047  1.00  0.00     0.039 C 
ATOM      8  C   UNL     1       4.940  -3.241  20.930  1.00  0.00    -0.028 CG0
ATOM      9  G   UNL     1       4.077  -4.489  20.963  1.00  0.00     0.000 G0
ENDBRANCH   5   6
ENDBRANCH   4   5
ENDBRANCH   3   4
BRANCH   3  10
ATOM     10  C   UNL     1       2.048  -1.860  16.397  1.00  0.00    -0.010 C 
ATOM     11  C   UNL     1       2.740  -0.731  15.613  1.00  0.00     0.008 C 
ATOM     12  C   UNL     1       0.990  -2.521  15.495  1.00  0.00     0.008 C 
ENDBRANCH   3  10
ENDBRANCH   2   3
BRANCH   1  13
ATOM     13  C   UNL     1       1.659  -4.315  20.193  1.00  0.00    -0.055 C 
ATOM     14  C   UNL     1       0.583  -5.103  20.275  1.00  0.00     0.012 C 
BRANCH  13  15
ATOM     15  C   UNL     1       2.608  -4.199  21.375  1.00  0.00     0.039 C 
BRANCH  15  16
ATOM     16  C   UNL     1       4.074  -4.490  20.983  1.00  0.00     0.032 CG0
ATOM     17  G   UNL     1       4.929  -3.238  20.908  1.00  0.00     0.000 G0
ENDBRANCH  15  16
ENDBRANCH  13  15
ENDBRANCH   1  13
TORSDOF 1
ENDMDL
MODEL 3
REMARK VINA RESULT:    -3.779      1.884      4.150
REMARK INTER + INTRA:          -5.796
REMARK INTER:                  -5.535
REMARK INTRA:                  -0.260
REMARK UNBOUND:                -0.249
REMARK SMILES C=C1C=C[C@@H](C(C)C)CCC(C)=CCC1
REMARK SMILES IDX 3 1 4 2 5 3 9 4 10 5 11 6 12 7 13 8 6 10 7 11 8 12 2 13 1 14
REMARK SMILES IDX 15 15 14 16
REMARK H PARENT
REMARK Flexibility Score: 70.00
ROOT
ATOM      1  C   UNL     1       1.446  -2.518  18.790  1.00  0.00    -0.001 C 
ATOM      2  C   UNL     1       1.938  -3.675  18.342  1.00  0.00    -0.023 C 
ENDROOT
BRANCH   2   3
ATOM      3  C   UNL     1       3.419  -3.905  18.165  1.00  0.00     0.014 C 
BRANCH   3   4
ATOM      4  C   UNL     1       4.051  -4.585  19.421  1.00  0.00     0.012 C 
BRANCH   4   5
ATOM      5  C   UNL     1       3.730  -3.950  20.801  1.00  0.00     0.031 C 
BRANCH   5   6
ATOM      6  C   UNL     1       2.846  -4.810  21.694  1.00  0.00    -0.077 C 
ATOM      7  C   UNL     1       3.399  -6.122  22.190  1.00  0.00     0.039 C 
ATOM      8  C   UNL     1       1.592  -4.463  22.086  1.00  0.00    -0.028 CG0
ATOM      9  G   UNL     1       0.854  -3.173  21.775  1.00  0.00     0.000 G0
ENDBRANCH   5   6
ENDBRANCH   4   5
ENDBRANCH   3   4
BRANCH   3  10
ATOM     10  C   UNL     1       4.162  -2.595  17.759  1.00  0.00    -0.010 C 
ATOM     11  C   UNL     1       5.668  -2.682  18.058  1.00  0.00     0.008 C 
ATOM     12  C   UNL     1       3.965  -2.274  16.266  1.00  0.00     0.008 C 
ENDBRANCH   3  10
ENDBRANCH   2   3
BRANCH   1  13
ATOM     13  C   UNL     1       0.126  -2.436  19.448  1.00  0.00    -0.055 C 
ATOM     14  C   UNL     1      -0.727  -1.482  19.062  1.00  0.00     0.012 C 
BRANCH  13  15
ATOM     15  C   UNL     1      -0.200  -3.303  20.653  1.00  0.00     0.039 C 
BRANCH  15  16
ATOM     16  C   UNL     1       0.845  -3.157  21.783  1.00  0.00     0.032 CG0
ATOM     17  G   UNL     1       1.586  -4.449  22.077  1.00  0.00     0.000 G0
ENDBRANCH  15  16
ENDBRANCH  13  15
ENDBRANCH   1  13
TORSDOF 1
ENDMDL
MODEL 4
REMARK VINA RESULT:    -3.772      1.857      4.348
REMARK INTER + INTRA:          -5.786
REMARK INTER:                  -5.382
REMARK INTRA:                  -0.403
REMARK UNBOUND:                -0.249
REMARK SMILES C=C1C=C[C@@H](C(C)C)CCC(C)=CCC1
REMARK SMILES IDX 3 1 4 2 5 3 9 4 10 5 11 6 12 7 13 8 6 10 7 11 8 12 2 13 1 14
REMARK SMILES IDX 15 15 14 16
REMARK H PARENT
REMARK Flexibility Score: 70.00
ROOT
ATOM      1  C   UNL     1       2.848  -2.667  18.419  1.00  0.00    -0.001 C 
ATOM      2  C   UNL     1       3.477  -3.845  18.415  1.00  0.00    -0.023 C 
ENDROOT
BRANCH   2   3
ATOM      3  C   UNL     1       4.798  -4.053  19.114  1.00  0.00     0.014 C 
BRANCH   3   4
ATOM      4  C   UNL     1       4.626  -4.847  20.448  1.00  0.00     0.012 C 
BRANCH   4   5
ATOM      5  C   UNL     1       3.180  -5.247  20.846  1.00  0.00     0.031 C 
BRANCH   5   6
ATOM      6  C   UNL     1       2.495  -4.263  21.785  1.00  0.00    -0.077 C 
ATOM      7  C   UNL     1       3.186  -3.917  23.079  1.00  0.00     0.039 C 
ATOM      8  C   UNL     1       1.304  -3.662  21.523  1.00  0.00    -0.028 CG0
ATOM      9  G   UNL     1       0.462  -3.797  20.267  1.00  0.00     0.000 G0
ENDBRANCH   5   6
ENDBRANCH   4   5
ENDBRANCH   3   4
BRANCH   3  10
ATOM     10  C   UNL     1       5.563  -2.708  19.314  1.00  0.00    -0.010 C 
ATOM     11  C   UNL     1       6.200  -2.622  20.712  1.00  0.00     0.008 C 
ATOM     12  C   UNL     1       6.660  -2.520  18.251  1.00  0.00     0.008 C 
ENDBRANCH   3  10
ENDBRANCH   2   3
BRANCH   1  13
ATOM     13  C   UNL     1       1.387  -2.565  18.219  1.00  0.00    -0.055 C 
ATOM     14  C   UNL     1       0.920  -2.383  16.981  1.00  0.00     0.012 C 
BRANCH  13  15
ATOM     15  C   UNL     1       0.440  -2.497  19.406  1.00  0.00     0.039 C 
BRANCH  15  16
ATOM     16  C   UNL     1       0.464  -3.790  20.252  1.00  0.00     0.032 CG0
ATOM     17  G   UNL     1       1.300  -3.661  21.512  1.00  0.00     0.000 G0
ENDBRANCH  15  16
ENDBRANCH  13  15
ENDBRANCH   1  13
TORSDOF 1
ENDMDL
MODEL 5
REMARK VINA RESULT:    -3.735      3.433      6.449
REMARK INTER + INTRA:          -5.731
REMARK INTER:                  -5.353
REMARK INTRA:                  -0.378
REMARK UNBOUND:                -0.249
REMARK SMILES C=C1C=C[C@@H](C(C)C)CCC(C)=CCC1
REMARK SMILES IDX 3 1 4 2 5 3 9 4 10 5 11 6 12 7 13 8 6 10 7 11 8 12 2 13 1 14
REMARK SMILES IDX 15 15 14 16
REMARK H PARENT
REMARK Flexibility Score: 70.00
ROOT
ATOM      1  C   UNL     1       0.481  -2.991  14.587  1.00  0.00    -0.001 C 
ATOM      2  C   UNL     1       0.516  -1.817  15.223  1.00  0.00    -0.023 C 
ENDROOT
BRANCH   2   3
ATOM      3  C   UNL     1       1.267  -1.626  16.517  1.00  0.00     0.014 C 
BRANCH   3   4
ATOM      4  C   UNL     1       2.705  -1.067  16.270  1.00  0.00     0.012 C 
BRANCH   4   5
ATOM      5  C   UNL     1       3.011  -0.512  14.853  1.00  0.00     0.031 C 
BRANCH   5   6
ATOM      6  C   UNL     1       3.896  -1.416  14.006  1.00  0.00    -0.077 C 
ATOM      7  C   UNL     1       5.266  -1.765  14.531  1.00  0.00     0.039 C 
ATOM      8  C   UNL     1       3.524  -1.944  12.810  1.00  0.00    -0.028 CG0
ATOM      9  G   UNL     1       2.182  -1.794  12.116  1.00  0.00     0.000 G0
ENDBRANCH   5   6
ENDBRANCH   4   5
ENDBRANCH   3   4
BRANCH   3  10
ATOM     10  C   UNL     1       1.272  -2.925  17.379  1.00  0.00    -0.010 C 
ATOM     11  C   UNL     1       2.682  -3.534  17.478  1.00  0.00     0.008 C 
ATOM     12  C   UNL     1       0.740  -2.662  18.799  1.00  0.00     0.008 C 
ENDBRANCH   3  10
ENDBRANCH   2   3
BRANCH   1  13
ATOM     13  C   UNL     1       0.223  -3.082  13.134  1.00  0.00    -0.055 C 
ATOM     14  C   UNL     1      -1.031  -3.275  12.716  1.00  0.00     0.012 C 
BRANCH  13  15
ATOM     15  C   UNL     1       1.371  -3.125  12.140  1.00  0.00     0.039 C 
BRANCH  15  16
ATOM     16  C   UNL     1       2.186  -1.812  12.123  1.00  0.00     0.032 CG0
ATOM     17  G   UNL     1       3.534  -1.940  12.810  1.00  0.00     0.000 G0
ENDBRANCH  15  16
ENDBRANCH  13  15
ENDBRANCH   1  13
TORSDOF 1
ENDMDL
MODEL 6
REMARK VINA RESULT:    -3.701      2.125      4.500
REMARK INTER + INTRA:          -5.681
REMARK INTER:                  -5.427
REMARK INTRA:                  -0.254
REMARK UNBOUND:                -0.249
REMARK SMILES C=C1C=C[C@@H](C(C)C)CCC(C)=CCC1
REMARK SMILES IDX 3 1 4 2 5 3 9 4 10 5 11 6 12 7 13 8 6 10 7 11 8 12 2 13 1 14
REMARK SMILES IDX 15 15 14 16
REMARK H PARENT
REMARK Flexibility Score: 70.00
ROOT
ATOM      1  C   UNL     1       3.997  -2.893  18.216  1.00  0.00    -0.001 C 
ATOM      2  C   UNL     1       3.847  -4.202  18.433  1.00  0.00    -0.023 C 
ENDROOT
BRANCH   2   3
ATOM      3  C   UNL     1       3.652  -4.771  19.817  1.00  0.00     0.014 C 
BRANCH   3   4
ATOM      4  C   UNL     1       2.268  -4.363  20.417  1.00  0.00     0.012 C 
BRANCH   4   5
ATOM      5  C   UNL     1       1.065  -4.306  19.437  1.00  0.00     0.031 C 
BRANCH   5   6
ATOM      6  C   UNL     1       0.398  -2.941  19.346  1.00  0.00    -0.077 C 
ATOM      7  C   UNL     1      -0.314  -2.414  20.567  1.00  0.00     0.039 C 
ATOM      8  C   UNL     1       0.415  -2.156  18.236  1.00  0.00    -0.028 CG0
ATOM      9  G   UNL     1       1.120  -2.437  16.921  1.00  0.00     0.000 G0
ENDBRANCH   5   6
ENDBRANCH   4   5
ENDBRANCH   3   4
BRANCH   3  10
ATOM     10  C   UNL     1       4.840  -4.413  20.762  1.00  0.00    -0.010 C 
ATOM     11  C   UNL     1       4.492  -3.236  21.689  1.00  0.00     0.008 C 
ATOM     12  C   UNL     1       5.262  -5.619  21.619  1.00  0.00     0.008 C 
ENDBRANCH   3  10
ENDBRANCH   2   3
BRANCH   1  13
ATOM     13  C   UNL     1       3.672  -2.278  16.912  1.00  0.00    -0.055 C 
ATOM     14  C   UNL     1       4.607  -2.267  15.957  1.00  0.00     0.012 C 
BRANCH  13  15
ATOM     15  C   UNL     1       2.369  -1.524  16.708  1.00  0.00     0.039 C 
BRANCH  15  16
ATOM     16  C   UNL     1       1.130  -2.425  16.912  1.00  0.00     0.032 CG0
ATOM     17  G   UNL     1       0.408  -2.157  18.220  1.00  0.00     0.000 G0
ENDBRANCH  15  16
ENDBRANCH  13  15
ENDBRANCH   1  13
TORSDOF 1
ENDMDL
MODEL 7
REMARK VINA RESULT:    -3.593      1.650      3.700
REMARK INTER + INTRA:          -5.523
REMARK INTER:                  -5.389
REMARK INTRA:                  -0.134
REMARK UNBOUND:                -0.249
REMARK SMILES C=C1C=C[C@@H](C(C)C)CCC(C)=CCC1
REMARK SMILES IDX 3 1 4 2 5 3 9 4 10 5 11 6 12 7 13 8 6 10 7 11 8 12 2 13 1 14
REMARK SMILES IDX 15 15 14 16
REMARK H PARENT
REMARK Flexibility Score: 70.00
ROOT
ATOM      1  C   UNL     1       0.928  -2.036  18.706  1.00  0.00    -0.001 C 
ATOM      2  C   UNL     1       1.071  -2.705  17.559  1.00  0.00    -0.023 C 
ENDROOT
BRANCH   2   3
ATOM      3  C   UNL     1       2.400  -2.815  16.854  1.00  0.00     0.014 C 
BRANCH   3   4
ATOM      4  C   UNL     1       3.539  -3.241  17.835  1.00  0.00     0.012 C 
BRANCH   4   5
ATOM      5  C   UNL     1       3.319  -4.547  18.645  1.00  0.00     0.031 C 
BRANCH   5   6
ATOM      6  C   UNL     1       3.417  -4.369  20.154  1.00  0.00    -0.077 C 
ATOM      7  C   UNL     1       4.785  -4.181  20.760  1.00  0.00     0.039 C 
ATOM      8  C   UNL     1       2.346  -4.354  20.991  1.00  0.00    -0.028 CG0
ATOM      9  G   UNL     1       0.880  -4.453  20.611  1.00  0.00     0.000 G0
ENDBRANCH   5   6
ENDBRANCH   4   5
ENDBRANCH   3   4
BRANCH   3  10
ATOM     10  C   UNL     1       2.746  -1.514  16.067  1.00  0.00    -0.010 C 
ATOM     11  C   UNL     1       3.830  -1.766  15.004  1.00  0.00     0.008 C 
ATOM     12  C   UNL     1       1.501  -0.921  15.382  1.00  0.00     0.008 C 
ENDBRANCH   3  10
ENDBRANCH   2   3
BRANCH   1  13
ATOM     13  C   UNL     1      -0.169  -2.336  19.650  1.00  0.00    -0.055 C 
ATOM     14  C   UNL     1      -1.357  -1.754  19.460  1.00  0.00     0.012 C 
BRANCH  13  15
ATOM     15  C   UNL     1       0.085  -3.152  20.907  1.00  0.00     0.039 C 
BRANCH  15  16
ATOM     16  C   UNL     1       0.866  -4.453  20.616  1.00  0.00     0.032 CG0
ATOM     17  G   UNL     1       2.336  -4.359  20.984  1.00  0.00     0.000 G0
ENDBRANCH  15  16
ENDBRANCH  13  15
ENDBRANCH   1  13
TORSDOF 1
ENDMDL
MODEL 8
REMARK VINA RESULT:    -3.497      2.203      4.404
REMARK INTER + INTRA:          -5.382
REMARK INTER:                  -5.255
REMARK INTRA:                  -0.127
REMARK UNBOUND:                -0.249
REMARK SMILES C=C1C=C[C@@H](C(C)C)CCC(C)=CCC1
REMARK SMILES IDX 3 1 4 2 5 3 9 4 10 5 11 6 12 7 13 8 6 10 7 11 8 12 2 13 1 14
REMARK SMILES IDX 15 15 14 16
REMARK H PARENT
REMARK Flexibility Score: 70.00
ROOT
ATOM      1  C   UNL     1       4.350  -2.835  18.099  1.00  0.00    -0.001 C 
ATOM      2  C   UNL     1       3.693  -3.996  18.147  1.00  0.00    -0.023 C 
ENDROOT
BRANCH   2   3
ATOM      3  C   UNL     1       2.284  -4.101  18.677  1.00  0.00     0.014 C 
BRANCH   3   4
ATOM      4  C   UNL     1       1.227  -3.784  17.570  1.00  0.00     0.012 C 
BRANCH   4   5
ATOM      5  C   UNL     1       1.322  -2.395  16.884  1.00  0.00     0.031 C 
BRANCH   5   6
ATOM      6  C   UNL     1       1.629  -2.454  15.394  1.00  0.00    -0.077 C 
ATOM      7  C   UNL     1       0.580  -3.026  14.474  1.00  0.00     0.039 C 
ATOM      8  C   UNL     1       2.786  -2.009  14.835  1.00  0.00    -0.028 CG0
ATOM      9  G   UNL     1       3.949  -1.336  15.541  1.00  0.00     0.000 G0
ENDBRANCH   5   6
ENDBRANCH   4   5
ENDBRANCH   3   4
BRANCH   3  10
ATOM     10  C   UNL     1       2.083  -3.235  19.958  1.00  0.00    -0.010 C 
ATOM     11  C   UNL     1       0.623  -3.270  20.443  1.00  0.00     0.008 C 
ATOM     12  C   UNL     1       3.002  -3.699  21.102  1.00  0.00     0.008 C 
ENDBRANCH   3  10
ENDBRANCH   2   3
BRANCH   1  13
ATOM     13  C   UNL     1       5.461  -2.609  17.150  1.00  0.00    -0.055 C 
ATOM     14  C   UNL     1       6.711  -2.578  17.621  1.00  0.00     0.012 C 
BRANCH  13  15
ATOM     15  C   UNL     1       5.186  -2.249  15.699  1.00  0.00     0.039 C 
BRANCH  15  16
ATOM     16  C   UNL     1       3.950  -1.336  15.543  1.00  0.00     0.032 CG0
ATOM     17  G   UNL     1       2.790  -2.020  14.841  1.00  0.00     0.000 G0
ENDBRANCH  15  16
ENDBRANCH  13  15
ENDBRANCH   1  13
TORSDOF 1
ENDMDL
MODEL 9
REMARK VINA RESULT:    -3.496      4.369      7.797
REMARK INTER + INTRA:          -5.380
REMARK INTER:                  -5.165
REMARK INTRA:                  -0.215
REMARK UNBOUND:                -0.249
REMARK SMILES C=C1C=C[C@@H](C(C)C)CCC(C)=CCC1
REMARK SMILES IDX 3 1 4 2 5 3 9 4 10 5 11 6 12 7 13 8 6 10 7 11 8 12 2 13 1 14
REMARK SMILES IDX 15 15 14 16
REMARK H PARENT
REMARK Flexibility Score: 70.00
ROOT
ATOM      1  C   UNL     1      -0.193  -3.069  13.751  1.00  0.00    -0.001 C 
ATOM      2  C   UNL     1      -0.051  -1.778  14.061  1.00  0.00    -0.023 C 
ENDROOT
BRANCH   2   3
ATOM      3  C   UNL     1       1.139  -1.262  14.832  1.00  0.00     0.014 C 
BRANCH   3   4
ATOM      4  C   UNL     1       2.248  -0.712  13.880  1.00  0.00     0.012 C 
BRANCH   4   5
ATOM      5  C   UNL     1       2.762  -1.669  12.771  1.00  0.00     0.031 C 
BRANCH   5   6
ATOM      6  C   UNL     1       2.380  -1.250  11.358  1.00  0.00    -0.077 C 
ATOM      7  C   UNL     1       3.002   0.004  10.796  1.00  0.00     0.039 C 
ATOM      8  C   UNL     1       1.524  -1.944  10.562  1.00  0.00    -0.028 CG0
ATOM      9  G   UNL     1       0.836  -3.260  10.878  1.00  0.00     0.000 G0
ENDBRANCH   5   6
ENDBRANCH   4   5
ENDBRANCH   3   4
BRANCH   3  10
ATOM     10  C   UNL     1       1.686  -2.329  15.831  1.00  0.00    -0.010 C 
ATOM     11  C   UNL     1       3.178  -2.109  16.133  1.00  0.00     0.008 C 
ATOM     12  C   UNL     1       0.900  -2.317  17.154  1.00  0.00     0.008 C 
ENDBRANCH   3  10
ENDBRANCH   2   3
BRANCH   1  13
ATOM     13  C   UNL     1      -1.017  -3.508  12.606  1.00  0.00    -0.055 C 
ATOM     14  C   UNL     1      -1.983  -4.407  12.818  1.00  0.00     0.012 C 
BRANCH  13  15
ATOM     15  C   UNL     1      -0.674  -3.081  11.188  1.00  0.00     0.039 C 
BRANCH  15  16
ATOM     16  C   UNL     1       0.826  -3.265  10.865  1.00  0.00     0.032 CG0
ATOM     17  G   UNL     1       1.531  -1.958  10.550  1.00  0.00     0.000 G0
ENDBRANCH  15  16
ENDBRANCH  13  15
ENDBRANCH   1  13
TORSDOF 1
ENDMDL
