MODEL 1
REMARK VINA RESULT:    -3.829      0.000      0.000
REMARK INTER + INTRA:          -5.493
REMARK INTER:                  -5.172
REMARK INTRA:                  -0.321
REMARK UNBOUND:                -0.321
REMARK SMILES CCCCCCC=CC(=O)[O-]
REMARK SMILES IDX 5 1 6 2 7 3 8 4 9 5 10 6 11 7 4 8 3 9 2 10 1 11
REMARK H PARENT
REMARK Flexibility Score: inf
ROOT
ATOM      1  C   UNL     1       9.805  -8.816  30.532  1.00  0.00     0.004 C 
ENDROOT
BRANCH   1   2
ATOM      2  C   UNL     1       9.361  -8.966  29.066  1.00  0.00     0.027 C 
BRANCH   2   3
ATOM      3  C   UNL     1      10.406  -9.631  28.208  1.00  0.00    -0.025 C 
ATOM      4  C   UNL     1      11.019  -9.090  27.144  1.00  0.00     0.020 C 
BRANCH   4   5
ATOM      5  C   UNL     1      10.846  -7.713  26.635  1.00  0.00     0.064 C 
ATOM      6  O   UNL     1      10.320  -7.544  25.504  1.00  0.00    -0.545 OA
ATOM      7  O   UNL     1      11.279  -6.601  27.344  1.00  0.00    -0.545 OA
ENDBRANCH   4   5
ENDBRANCH   2   3
ENDBRANCH   1   2
BRANCH   1   8
ATOM      8  C   UNL     1       9.072  -9.746  31.520  1.00  0.00     0.000 C 
BRANCH   8   9
ATOM      9  C   UNL     1       9.561 -11.205  31.530  1.00  0.00    -0.000 C 
BRANCH   9  10
ATOM     10  C   UNL     1      10.160 -11.625  32.879  1.00  0.00    -0.003 C 
ATOM     11  C   UNL     1       9.262 -11.199  34.036  1.00  0.00     0.004 C 
ENDBRANCH   9  10
ENDBRANCH   8   9
ENDBRANCH   1   8
TORSDOF 6
ENDMDL
MODEL 2
REMARK VINA RESULT:    -3.794      1.530      2.391
REMARK INTER + INTRA:          -5.446
REMARK INTER:                  -4.781
REMARK INTRA:                  -0.664
REMARK UNBOUND:                -0.321
REMARK SMILES CCCCCCC=CC(=O)[O-]
REMARK SMILES IDX 5 1 6 2 7 3 8 4 9 5 10 6 11 7 4 8 3 9 2 10 1 11
REMARK H PARENT
REMARK Flexibility Score: inf
ROOT
ATOM      1  C   UNL     1      10.041  -8.460  32.735  1.00  0.00     0.004 C 
ENDROOT
BRANCH   1   2
ATOM      2  C   UNL     1      10.253  -8.178  31.236  1.00  0.00     0.027 C 
BRANCH   2   3
ATOM      3  C   UNL     1       9.073  -8.589  30.395  1.00  0.00    -0.025 C 
ATOM      4  C   UNL     1       9.086  -8.826  29.074  1.00  0.00     0.020 C 
BRANCH   4   5
ATOM      5  C   UNL     1      10.267  -8.800  28.187  1.00  0.00     0.064 C 
ATOM      6  O   UNL     1      10.871  -9.877  27.946  1.00  0.00    -0.545 OA
ATOM      7  O   UNL     1      10.757  -7.621  27.640  1.00  0.00    -0.545 OA
ENDBRANCH   4   5
ENDBRANCH   2   3
ENDBRANCH   1   2
BRANCH   1   8
ATOM      8  C   UNL     1      10.652  -9.788  33.228  1.00  0.00     0.000 C 
BRANCH   8   9
ATOM      9  C   UNL     1       9.634 -10.850  33.677  1.00  0.00    -0.000 C 
BRANCH   9  10
ATOM     10  C   UNL     1       8.940 -11.548  32.498  1.00  0.00    -0.003 C 
ATOM     11  C   UNL     1       9.961 -12.081  31.497  1.00  0.00     0.004 C 
ENDBRANCH   9  10
ENDBRANCH   8   9
ENDBRANCH   1   8
TORSDOF 6
ENDMDL
MODEL 3
REMARK VINA RESULT:    -3.775     13.486     16.301
REMARK INTER + INTRA:          -5.420
REMARK INTER:                  -5.180
REMARK INTRA:                  -0.240
REMARK UNBOUND:                -0.321
REMARK SMILES CCCCCCC=CC(=O)[O-]
REMARK SMILES IDX 5 1 6 2 7 3 8 4 9 5 10 6 11 7 4 8 3 9 2 10 1 11
REMARK H PARENT
REMARK Flexibility Score: inf
ROOT
ATOM      1  C   UNL     1       1.263  -0.757  17.278  1.00  0.00     0.004 C 
ENDROOT
BRANCH   1   2
ATOM      2  C   UNL     1       1.782  -1.757  18.328  1.00  0.00     0.027 C 
BRANCH   2   3
ATOM      3  C   UNL     1       0.876  -1.863  19.526  1.00  0.00    -0.025 C 
ATOM      4  C   UNL     1       0.892  -2.838  20.449  1.00  0.00     0.020 C 
BRANCH   4   5
ATOM      5  C   UNL     1       1.842  -3.968  20.517  1.00  0.00     0.064 C 
ATOM      6  O   UNL     1       1.757  -4.887  19.661  1.00  0.00    -0.545 OA
ATOM      7  O   UNL     1       2.801  -4.071  21.516  1.00  0.00    -0.545 OA
ENDBRANCH   4   5
ENDBRANCH   2   3
ENDBRANCH   1   2
BRANCH   1   8
ATOM      8  C   UNL     1       2.157   0.485  17.083  1.00  0.00     0.000 C 
BRANCH   8   9
ATOM      9  C   UNL     1       2.845   1.002  18.359  1.00  0.00    -0.000 C 
BRANCH   9  10
ATOM     10  C   UNL     1       3.607   2.316  18.135  1.00  0.00    -0.003 C 
ATOM     11  C   UNL     1       4.661   2.530  19.217  1.00  0.00     0.004 C 
ENDBRANCH   9  10
ENDBRANCH   8   9
ENDBRANCH   1   8
TORSDOF 6
ENDMDL
MODEL 4
REMARK VINA RESULT:    -3.773      4.897      7.716
REMARK INTER + INTRA:          -5.417
REMARK INTER:                  -4.943
REMARK INTRA:                  -0.474
REMARK UNBOUND:                -0.321
REMARK SMILES CCCCCCC=CC(=O)[O-]
REMARK SMILES IDX 5 1 6 2 7 3 8 4 9 5 10 6 11 7 4 8 3 9 2 10 1 11
REMARK H PARENT
REMARK Flexibility Score: inf
ROOT
ATOM      1  C   UNL     1      11.620 -13.001  23.985  1.00  0.00     0.004 C 
ENDROOT
BRANCH   1   2
ATOM      2  C   UNL     1      12.730 -12.579  24.967  1.00  0.00     0.027 C 
BRANCH   2   3
ATOM      3  C   UNL     1      12.191 -11.875  26.184  1.00  0.00    -0.025 C 
ATOM      4  C   UNL     1      12.039 -10.549  26.329  1.00  0.00     0.020 C 
BRANCH   4   5
ATOM      5  C   UNL     1      12.303  -9.516  25.306  1.00  0.00     0.064 C 
ATOM      6  O   UNL     1      11.343  -9.084  24.615  1.00  0.00    -0.545 OA
ATOM      7  O   UNL     1      13.580  -9.031  25.054  1.00  0.00    -0.545 OA
ENDBRANCH   4   5
ENDBRANCH   2   3
ENDBRANCH   1   2
BRANCH   1   8
ATOM      8  C   UNL     1      11.640 -12.249  22.639  1.00  0.00     0.000 C 
BRANCH   8   9
ATOM      9  C   UNL     1      10.342 -11.501  22.288  1.00  0.00    -0.000 C 
BRANCH   9  10
ATOM     10  C   UNL     1      10.426 -10.752  20.951  1.00  0.00    -0.003 C 
ATOM     11  C   UNL     1       9.039 -10.348  20.459  1.00  0.00     0.004 C 
ENDBRANCH   9  10
ENDBRANCH   8   9
ENDBRANCH   1   8
TORSDOF 6
ENDMDL
MODEL 5
REMARK VINA RESULT:    -3.743      4.240      6.087
REMARK INTER + INTRA:          -5.378
REMARK INTER:                  -4.922
REMARK INTRA:                  -0.456
REMARK UNBOUND:                -0.321
REMARK SMILES CCCCCCC=CC(=O)[O-]
REMARK SMILES IDX 5 1 6 2 7 3 8 4 9 5 10 6 11 7 4 8 3 9 2 10 1 11
REMARK H PARENT
REMARK Flexibility Score: inf
ROOT
ATOM      1  C   UNL     1      11.634  -9.737  24.547  1.00  0.00     0.004 C 
ENDROOT
BRANCH   1   2
ATOM      2  C   UNL     1      12.454 -11.034  24.678  1.00  0.00     0.027 C 
BRANCH   2   3
ATOM      3  C   UNL     1      11.714 -12.243  24.170  1.00  0.00    -0.025 C 
ATOM      4  C   UNL     1      11.756 -13.477  24.696  1.00  0.00     0.020 C 
BRANCH   4   5
ATOM      5  C   UNL     1      12.481 -13.889  25.915  1.00  0.00     0.064 C 
ATOM      6  O   UNL     1      12.027 -13.548  27.039  1.00  0.00    -0.545 OA
ATOM      7  O   UNL     1      13.669 -14.607  25.865  1.00  0.00    -0.545 OA
ENDBRANCH   4   5
ENDBRANCH   2   3
ENDBRANCH   1   2
BRANCH   1   8
ATOM      8  C   UNL     1      11.181  -9.131  25.891  1.00  0.00     0.000 C 
BRANCH   8   9
ATOM      9  C   UNL     1      11.476  -9.993  27.130  1.00  0.00    -0.000 C 
BRANCH   9  10
ATOM     10  C   UNL     1      10.405  -9.858  28.221  1.00  0.00    -0.003 C 
ATOM     11  C   UNL     1       9.532  -8.629  27.984  1.00  0.00     0.004 C 
ENDBRANCH   9  10
ENDBRANCH   8   9
ENDBRANCH   1   8
TORSDOF 6
ENDMDL
MODEL 6
REMARK VINA RESULT:    -3.741      3.014      6.150
REMARK INTER + INTRA:          -5.374
REMARK INTER:                  -4.916
REMARK INTRA:                  -0.458
REMARK UNBOUND:                -0.321
REMARK SMILES CCCCCCC=CC(=O)[O-]
REMARK SMILES IDX 5 1 6 2 7 3 8 4 9 5 10 6 11 7 4 8 3 9 2 10 1 11
REMARK H PARENT
REMARK Flexibility Score: inf
ROOT
ATOM      1  C   UNL     1      10.874  -8.001  26.932  1.00  0.00     0.004 C 
ENDROOT
BRANCH   1   2
ATOM      2  C   UNL     1      10.269  -9.222  27.649  1.00  0.00     0.027 C 
BRANCH   2   3
ATOM      3  C   UNL     1       9.875  -8.924  29.072  1.00  0.00    -0.025 C 
ATOM      4  C   UNL     1       8.708  -8.399  29.478  1.00  0.00     0.020 C 
BRANCH   4   5
ATOM      5  C   UNL     1       7.548  -8.068  28.624  1.00  0.00     0.064 C 
ATOM      6  O   UNL     1       6.555  -8.841  28.621  1.00  0.00    -0.545 OA
ATOM      7  O   UNL     1       7.531  -6.954  27.795  1.00  0.00    -0.545 OA
ENDBRANCH   4   5
ENDBRANCH   2   3
ENDBRANCH   1   2
BRANCH   1   8
ATOM      8  C   UNL     1      10.248  -7.693  25.557  1.00  0.00     0.000 C 
BRANCH   8   9
ATOM      9  C   UNL     1       9.864  -6.221  25.328  1.00  0.00    -0.000 C 
BRANCH   9  10
ATOM     10  C   UNL     1      10.933  -5.240  25.828  1.00  0.00    -0.003 C 
ATOM     11  C   UNL     1      10.804  -3.886  25.135  1.00  0.00     0.004 C 
ENDBRANCH   9  10
ENDBRANCH   8   9
ENDBRANCH   1   8
TORSDOF 6
ENDMDL
MODEL 7
REMARK VINA RESULT:    -3.725      2.879      5.943
REMARK INTER + INTRA:          -5.353
REMARK INTER:                  -4.825
REMARK INTRA:                  -0.527
REMARK UNBOUND:                -0.321
REMARK SMILES CCCCCCC=CC(=O)[O-]
REMARK SMILES IDX 5 1 6 2 7 3 8 4 9 5 10 6 11 7 4 8 3 9 2 10 1 11
REMARK H PARENT
REMARK Flexibility Score: inf
ROOT
ATOM      1  C   UNL     1      11.150  -9.451  26.683  1.00  0.00     0.004 C 
ENDROOT
BRANCH   1   2
ATOM      2  C   UNL     1      10.582  -9.715  28.090  1.00  0.00     0.027 C 
BRANCH   2   3
ATOM      3  C   UNL     1       9.336  -8.917  28.373  1.00  0.00    -0.025 C 
ATOM      4  C   UNL     1       8.845  -8.619  29.586  1.00  0.00     0.020 C 
BRANCH   4   5
ATOM      5  C   UNL     1       9.456  -8.951  30.889  1.00  0.00     0.064 C 
ATOM      6  O   UNL     1      10.159  -8.084  31.471  1.00  0.00    -0.545 OA
ATOM      7  O   UNL     1       9.315 -10.202  31.476  1.00  0.00    -0.545 OA
ENDBRANCH   4   5
ENDBRANCH   2   3
ENDBRANCH   1   2
BRANCH   1   8
ATOM      8  C   UNL     1      11.264  -7.959  26.311  1.00  0.00     0.000 C 
BRANCH   8   9
ATOM      9  C   UNL     1      10.277  -7.476  25.233  1.00  0.00    -0.000 C 
BRANCH   9  10
ATOM     10  C   UNL     1       9.779  -6.045  25.477  1.00  0.00    -0.003 C 
ATOM     11  C   UNL     1       8.417  -6.047  26.165  1.00  0.00     0.004 C 
ENDBRANCH   9  10
ENDBRANCH   8   9
ENDBRANCH   1   8
TORSDOF 6
ENDMDL
MODEL 8
REMARK VINA RESULT:    -3.697      3.643      6.100
REMARK INTER + INTRA:          -5.315
REMARK INTER:                  -5.077
REMARK INTRA:                  -0.238
REMARK UNBOUND:                -0.321
REMARK SMILES CCCCCCC=CC(=O)[O-]
REMARK SMILES IDX 5 1 6 2 7 3 8 4 9 5 10 6 11 7 4 8 3 9 2 10 1 11
REMARK H PARENT
REMARK Flexibility Score: inf
ROOT
ATOM      1  C   UNL     1       9.752  -8.523  29.579  1.00  0.00     0.004 C 
ENDROOT
BRANCH   1   2
ATOM      2  C   UNL     1       9.310  -9.225  30.877  1.00  0.00     0.027 C 
BRANCH   2   3
ATOM      3  C   UNL     1      10.216  -8.919  32.040  1.00  0.00    -0.025 C 
ATOM      4  C   UNL     1      10.450  -9.718  33.094  1.00  0.00     0.020 C 
BRANCH   4   5
ATOM      5  C   UNL     1       9.922 -11.082  33.298  1.00  0.00     0.064 C 
ATOM      6  O   UNL     1       9.154 -11.299  34.271  1.00  0.00    -0.545 OA
ATOM      7  O   UNL     1      10.274 -12.144  32.474  1.00  0.00    -0.545 OA
ENDBRANCH   4   5
ENDBRANCH   2   3
ENDBRANCH   1   2
BRANCH   1   8
ATOM      8  C   UNL     1      10.242  -9.478  28.473  1.00  0.00     0.000 C 
BRANCH   8   9
ATOM      9  C   UNL     1      10.321  -8.863  27.065  1.00  0.00    -0.000 C 
BRANCH   9  10
ATOM     10  C   UNL     1      11.402  -9.511  26.189  1.00  0.00    -0.003 C 
ATOM     11  C   UNL     1      11.982 -10.752  26.861  1.00  0.00     0.004 C 
ENDBRANCH   9  10
ENDBRANCH   8   9
ENDBRANCH   1   8
TORSDOF 6
ENDMDL
MODEL 9
REMARK VINA RESULT:    -3.686      3.980      5.043
REMARK INTER + INTRA:          -5.301
REMARK INTER:                  -4.505
REMARK INTRA:                  -0.796
REMARK UNBOUND:                -0.321
REMARK SMILES CCCCCCC=CC(=O)[O-]
REMARK SMILES IDX 5 1 6 2 7 3 8 4 9 5 10 6 11 7 4 8 3 9 2 10 1 11
REMARK H PARENT
REMARK Flexibility Score: inf
ROOT
ATOM      1  C   UNL     1       7.745  -9.836  35.050  1.00  0.00     0.004 C 
ENDROOT
BRANCH   1   2
ATOM      2  C   UNL     1       8.758  -8.676  35.051  1.00  0.00     0.027 C 
BRANCH   2   3
ATOM      3  C   UNL     1      10.154  -9.124  34.708  1.00  0.00    -0.025 C 
ATOM      4  C   UNL     1      10.913  -8.655  33.705  1.00  0.00     0.020 C 
BRANCH   4   5
ATOM      5  C   UNL     1      10.564  -7.562  32.775  1.00  0.00     0.064 C 
ATOM      6  O   UNL     1      10.212  -7.850  31.601  1.00  0.00    -0.545 OA
ATOM      7  O   UNL     1      10.646  -6.224  33.138  1.00  0.00    -0.545 OA
ENDBRANCH   4   5
ENDBRANCH   2   3
ENDBRANCH   1   2
BRANCH   1   8
ATOM      8  C   UNL     1       7.068 -10.090  33.688  1.00  0.00     0.000 C 
BRANCH   8   9
ATOM      9  C   UNL     1       7.569 -11.332  32.930  1.00  0.00    -0.000 C 
BRANCH   9  10
ATOM     10  C   UNL     1       8.686 -11.008  31.927  1.00  0.00    -0.003 C 
ATOM     11  C   UNL     1       9.899 -11.908  32.147  1.00  0.00     0.004 C 
ENDBRANCH   9  10
ENDBRANCH   8   9
ENDBRANCH   1   8
TORSDOF 6
ENDMDL
