MODEL 1
REMARK VINA RESULT:    -3.496      0.000      0.000
REMARK INTER + INTRA:          -5.292
REMARK INTER:                  -5.029
REMARK INTRA:                  -0.263
REMARK UNBOUND:                -0.263
REMARK SMILES CCCCCCCCCO
REMARK SMILES IDX 6 1 5 2 4 3 3 4 2 5 1 6 7 7 8 8 9 9 10 10
REMARK H PARENT 10 11
REMARK Flexibility Score: inf
ROOT
ATOM      1  C   UNL     1     161.375 164.527 167.114  1.00  0.00     0.000 C 
ENDROOT
BRANCH   1   2
ATOM      2  C   UNL     1     162.128 164.713 168.444  1.00  0.00     0.000 C 
BRANCH   2   3
ATOM      3  C   UNL     1     163.645 164.934 168.309  1.00  0.00    -0.000 C 
BRANCH   3   4
ATOM      4  C   UNL     1     164.080 165.239 166.865  1.00  0.00    -0.000 C 
BRANCH   4   5
ATOM      5  C   UNL     1     165.535 164.832 166.591  1.00  0.00    -0.003 C 
ATOM      6  C   UNL     1     166.010 163.695 167.494  1.00  0.00     0.004 C 
ENDBRANCH   4   5
ENDBRANCH   3   4
ENDBRANCH   2   3
ENDBRANCH   1   2
BRANCH   1   7
ATOM      7  C   UNL     1     159.927 164.044 167.307  1.00  0.00     0.002 C 
BRANCH   7   8
ATOM      8  C   UNL     1     158.951 165.199 167.591  1.00  0.00     0.028 C 
BRANCH   8   9
ATOM      9  C   UNL     1     158.085 165.580 166.385  1.00  0.00     0.156 C 
BRANCH   9  10
ATOM     10  O   UNL     1     157.030 166.409 166.788  1.00  0.00    -0.396 OA
ATOM     11  H   UNL     1     156.788 166.121 167.706  1.00  0.00     0.210 HD
ENDBRANCH   9  10
ENDBRANCH   8   9
ENDBRANCH   7   8
ENDBRANCH   1   7
TORSDOF 8
ENDMDL
MODEL 2
REMARK VINA RESULT:    -3.445      6.836      9.502
REMARK INTER + INTRA:          -5.219
REMARK INTER:                  -4.906
REMARK INTRA:                  -0.313
REMARK UNBOUND:                -0.263
REMARK SMILES CCCCCCCCCO
REMARK SMILES IDX 6 1 5 2 4 3 3 4 2 5 1 6 7 7 8 8 9 9 10 10
REMARK H PARENT 10 11
REMARK Flexibility Score: inf
ROOT
ATOM      1  C   UNL     1     169.741 166.769 168.459  1.00  0.00     0.000 C 
ENDROOT
BRANCH   1   2
ATOM      2  C   UNL     1     168.242 166.419 168.498  1.00  0.00     0.000 C 
BRANCH   2   3
ATOM      3  C   UNL     1     167.614 166.085 167.134  1.00  0.00    -0.000 C 
BRANCH   3   4
ATOM      4  C   UNL     1     166.145 165.639 167.244  1.00  0.00    -0.000 C 
BRANCH   4   5
ATOM      5  C   UNL     1     165.959 164.146 166.934  1.00  0.00    -0.003 C 
ATOM      6  C   UNL     1     166.245 163.254 168.141  1.00  0.00     0.004 C 
ENDBRANCH   4   5
ENDBRANCH   3   4
ENDBRANCH   2   3
ENDBRANCH   1   2
BRANCH   1   7
ATOM      7  C   UNL     1     170.323 166.750 167.035  1.00  0.00     0.002 C 
BRANCH   7   8
ATOM      8  C   UNL     1     171.774 166.237 166.997  1.00  0.00     0.028 C 
BRANCH   8   9
ATOM      9  C   UNL     1     172.645 166.776 168.137  1.00  0.00     0.156 C 
BRANCH   9  10
ATOM     10  O   UNL     1     173.105 165.722 168.937  1.00  0.00    -0.396 OA
ATOM     11  H   UNL     1     172.381 165.533 169.587  1.00  0.00     0.210 HD
ENDBRANCH   9  10
ENDBRANCH   8   9
ENDBRANCH   7   8
ENDBRANCH   1   7
TORSDOF 8
ENDMDL
MODEL 3
REMARK VINA RESULT:    -3.429      6.031      7.161
REMARK INTER + INTRA:          -5.196
REMARK INTER:                  -4.848
REMARK INTRA:                  -0.348
REMARK UNBOUND:                -0.263
REMARK SMILES CCCCCCCCCO
REMARK SMILES IDX 6 1 5 2 4 3 3 4 2 5 1 6 7 7 8 8 9 9 10 10
REMARK H PARENT 10 11
REMARK Flexibility Score: inf
ROOT
ATOM      1  C   UNL     1     166.771 161.499 168.401  1.00  0.00     0.000 C 
ENDROOT
BRANCH   1   2
ATOM      2  C   UNL     1     166.356 162.981 168.445  1.00  0.00     0.000 C 
BRANCH   2   3
ATOM      3  C   UNL     1     166.103 163.628 167.073  1.00  0.00    -0.000 C 
BRANCH   3   4
ATOM      4  C   UNL     1     166.233 165.161 167.101  1.00  0.00    -0.000 C 
BRANCH   4   5
ATOM      5  C   UNL     1     167.089 165.657 168.275  1.00  0.00    -0.003 C 
ATOM      6  C   UNL     1     168.373 166.348 167.819  1.00  0.00     0.004 C 
ENDBRANCH   4   5
ENDBRANCH   3   4
ENDBRANCH   2   3
ENDBRANCH   1   2
BRANCH   1   7
ATOM      7  C   UNL     1     166.727 160.906 166.982  1.00  0.00     0.002 C 
BRANCH   7   8
ATOM      8  C   UNL     1     166.248 159.444 166.967  1.00  0.00     0.028 C 
BRANCH   8   9
ATOM      9  C   UNL     1     166.783 158.611 168.138  1.00  0.00     0.156 C 
BRANCH   9  10
ATOM     10  O   UNL     1     165.721 158.097 168.893  1.00  0.00    -0.396 OA
ATOM     11  H   UNL     1     165.317 157.376 168.343  1.00  0.00     0.210 HD
ENDBRANCH   9  10
ENDBRANCH   8   9
ENDBRANCH   7   8
ENDBRANCH   1   7
TORSDOF 8
ENDMDL
MODEL 4
REMARK VINA RESULT:    -3.376      5.196      6.481
REMARK INTER + INTRA:          -5.120
REMARK INTER:                  -4.747
REMARK INTRA:                  -0.373
REMARK UNBOUND:                -0.263
REMARK SMILES CCCCCCCCCO
REMARK SMILES IDX 6 1 5 2 4 3 3 4 2 5 1 6 7 7 8 8 9 9 10 10
REMARK H PARENT 10 11
REMARK Flexibility Score: inf
ROOT
ATOM      1  C   UNL     1     164.430 169.381 168.289  1.00  0.00     0.000 C 
ENDROOT
BRANCH   1   2
ATOM      2  C   UNL     1     164.990 167.947 168.294  1.00  0.00     0.000 C 
BRANCH   2   3
ATOM      3  C   UNL     1     165.201 167.324 166.903  1.00  0.00    -0.000 C 
BRANCH   3   4
ATOM      4  C   UNL     1     164.650 165.892 166.798  1.00  0.00    -0.000 C 
BRANCH   4   5
ATOM      5  C   UNL     1     164.186 165.339 168.154  1.00  0.00    -0.003 C 
ATOM      6  C   UNL     1     162.759 164.794 168.112  1.00  0.00     0.004 C 
ENDBRANCH   4   5
ENDBRANCH   3   4
ENDBRANCH   2   3
ENDBRANCH   1   2
BRANCH   1   7
ATOM      7  C   UNL     1     164.452 170.028 166.893  1.00  0.00     0.002 C 
BRANCH   7   8
ATOM      8  C   UNL     1     164.934 171.490 166.927  1.00  0.00     0.028 C 
BRANCH   8   9
ATOM      9  C   UNL     1     164.439 172.270 168.151  1.00  0.00     0.156 C 
BRANCH   9  10
ATOM     10  O   UNL     1     165.470 173.063 168.671  1.00  0.00    -0.396 OA
ATOM     11  H   UNL     1     165.231 173.241 169.617  1.00  0.00     0.210 HD
ENDBRANCH   9  10
ENDBRANCH   8   9
ENDBRANCH   7   8
ENDBRANCH   1   7
TORSDOF 8
ENDMDL
MODEL 5
REMARK VINA RESULT:    -3.355      5.595      7.268
REMARK INTER + INTRA:          -5.089
REMARK INTER:                  -4.794
REMARK INTRA:                  -0.295
REMARK UNBOUND:                -0.263
REMARK SMILES CCCCCCCCCO
REMARK SMILES IDX 6 1 5 2 4 3 3 4 2 5 1 6 7 7 8 8 9 9 10 10
REMARK H PARENT 10 11
REMARK Flexibility Score: inf
ROOT
ATOM      1  C   UNL     1     167.056 160.546 166.874  1.00  0.00     0.000 C 
ENDROOT
BRANCH   1   2
ATOM      2  C   UNL     1     166.396 161.935 166.813  1.00  0.00     0.000 C 
BRANCH   2   3
ATOM      3  C   UNL     1     166.375 162.707 168.145  1.00  0.00    -0.000 C 
BRANCH   3   4
ATOM      4  C   UNL     1     166.287 164.230 167.953  1.00  0.00    -0.000 C 
BRANCH   4   5
ATOM      5  C   UNL     1     165.622 164.619 166.624  1.00  0.00    -0.003 C 
ATOM      6  C   UNL     1     165.180 166.081 166.591  1.00  0.00     0.004 C 
ENDBRANCH   4   5
ENDBRANCH   3   4
ENDBRANCH   2   3
ENDBRANCH   1   2
BRANCH   1   7
ATOM      7  C   UNL     1     166.848 159.843 168.227  1.00  0.00     0.002 C 
BRANCH   7   8
ATOM      8  C   UNL     1     166.155 158.476 168.082  1.00  0.00     0.028 C 
BRANCH   8   9
ATOM      9  C   UNL     1     165.675 158.180 166.656  1.00  0.00     0.156 C 
BRANCH   9  10
ATOM     10  O   UNL     1     164.842 157.054 166.649  1.00  0.00    -0.396 OA
ATOM     11  H   UNL     1     164.141 157.225 167.330  1.00  0.00     0.210 HD
ENDBRANCH   9  10
ENDBRANCH   8   9
ENDBRANCH   7   8
ENDBRANCH   1   7
TORSDOF 8
ENDMDL
MODEL 6
REMARK VINA RESULT:    -3.349      5.488      6.580
REMARK INTER + INTRA:          -5.081
REMARK INTER:                  -4.792
REMARK INTRA:                  -0.289
REMARK UNBOUND:                -0.263
REMARK SMILES CCCCCCCCCO
REMARK SMILES IDX 6 1 5 2 4 3 3 4 2 5 1 6 7 7 8 8 9 9 10 10
REMARK H PARENT 10 11
REMARK Flexibility Score: inf
ROOT
ATOM      1  C   UNL     1     164.415 169.559 168.941  1.00  0.00     0.000 C 
ENDROOT
BRANCH   1   2
ATOM      2  C   UNL     1     164.822 168.658 167.761  1.00  0.00     0.000 C 
BRANCH   2   3
ATOM      3  C   UNL     1     164.990 167.168 168.105  1.00  0.00    -0.000 C 
BRANCH   3   4
ATOM      4  C   UNL     1     165.132 166.278 166.858  1.00  0.00    -0.000 C 
BRANCH   4   5
ATOM      5  C   UNL     1     166.600 166.021 166.483  1.00  0.00    -0.003 C 
ATOM      6  C   UNL     1     167.537 166.088 167.688  1.00  0.00     0.004 C 
ENDBRANCH   4   5
ENDBRANCH   3   4
ENDBRANCH   2   3
ENDBRANCH   1   2
BRANCH   1   7
ATOM      7  C   UNL     1     163.857 170.921 168.491  1.00  0.00     0.002 C 
BRANCH   7   8
ATOM      8  C   UNL     1     164.408 171.362 167.124  1.00  0.00     0.028 C 
BRANCH   8   9
ATOM      9  C   UNL     1     165.155 172.700 167.166  1.00  0.00     0.156 C 
BRANCH   9  10
ATOM     10  O   UNL     1     165.531 173.004 168.481  1.00  0.00    -0.396 OA
ATOM     11  H   UNL     1     165.982 173.887 168.442  1.00  0.00     0.210 HD
ENDBRANCH   9  10
ENDBRANCH   8   9
ENDBRANCH   7   8
ENDBRANCH   1   7
TORSDOF 8
ENDMDL
MODEL 7
REMARK VINA RESULT:    -3.339      4.712      7.161
REMARK INTER + INTRA:          -5.067
REMARK INTER:                  -4.795
REMARK INTRA:                  -0.272
REMARK UNBOUND:                -0.263
REMARK SMILES CCCCCCCCCO
REMARK SMILES IDX 6 1 5 2 4 3 3 4 2 5 1 6 7 7 8 8 9 9 10 10
REMARK H PARENT 10 11
REMARK Flexibility Score: inf
ROOT
ATOM      1  C   UNL     1     166.697 161.511 168.080  1.00  0.00     0.000 C 
ENDROOT
BRANCH   1   2
ATOM      2  C   UNL     1     166.294 162.967 167.785  1.00  0.00     0.000 C 
BRANCH   2   3
ATOM      3  C   UNL     1     166.271 163.898 169.010  1.00  0.00    -0.000 C 
BRANCH   3   4
ATOM      4  C   UNL     1     165.288 165.071 168.852  1.00  0.00    -0.000 C 
BRANCH   4   5
ATOM      5  C   UNL     1     164.406 164.936 167.602  1.00  0.00    -0.003 C 
ATOM      6  C   UNL     1     162.915 164.905 167.933  1.00  0.00     0.004 C 
ENDBRANCH   4   5
ENDBRANCH   3   4
ENDBRANCH   2   3
ENDBRANCH   1   2
BRANCH   1   7
ATOM      7  C   UNL     1     166.773 160.643 166.812  1.00  0.00     0.002 C 
BRANCH   7   8
ATOM      8  C   UNL     1     166.181 159.238 167.021  1.00  0.00     0.028 C 
BRANCH   8   9
ATOM      9  C   UNL     1     166.775 158.495 168.223  1.00  0.00     0.156 C 
BRANCH   9  10
ATOM     10  O   UNL     1     165.759 158.121 169.113  1.00  0.00    -0.396 OA
ATOM     11  H   UNL     1     165.956 157.186 169.379  1.00  0.00     0.210 HD
ENDBRANCH   9  10
ENDBRANCH   8   9
ENDBRANCH   7   8
ENDBRANCH   1   7
TORSDOF 8
ENDMDL
MODEL 8
REMARK VINA RESULT:    -3.322      1.611      2.203
REMARK INTER + INTRA:          -5.042
REMARK INTER:                  -4.737
REMARK INTRA:                  -0.305
REMARK UNBOUND:                -0.263
REMARK SMILES CCCCCCCCCO
REMARK SMILES IDX 6 1 5 2 4 3 3 4 2 5 1 6 7 7 8 8 9 9 10 10
REMARK H PARENT 10 11
REMARK Flexibility Score: inf
ROOT
ATOM      1  C   UNL     1     161.726 164.500 168.375  1.00  0.00     0.000 C 
ENDROOT
BRANCH   1   2
ATOM      2  C   UNL     1     163.233 164.813 168.326  1.00  0.00     0.000 C 
BRANCH   2   3
ATOM      3  C   UNL     1     163.773 165.204 166.939  1.00  0.00    -0.000 C 
BRANCH   3   4
ATOM      4  C   UNL     1     165.189 165.802 166.995  1.00  0.00    -0.000 C 
BRANCH   4   5
ATOM      5  C   UNL     1     165.190 167.330 166.840  1.00  0.00    -0.003 C 
ATOM      6  C   UNL     1     164.885 168.055 168.150  1.00  0.00     0.004 C 
ENDBRANCH   4   5
ENDBRANCH   3   4
ENDBRANCH   2   3
ENDBRANCH   1   2
BRANCH   1   7
ATOM      7  C   UNL     1     161.055 164.566 166.993  1.00  0.00     0.002 C 
BRANCH   7   8
ATOM      8  C   UNL     1     159.537 164.806 167.083  1.00  0.00     0.028 C 
BRANCH   8   9
ATOM      9  C   UNL     1     158.948 164.490 168.463  1.00  0.00     0.156 C 
BRANCH   9  10
ATOM     10  O   UNL     1     158.088 165.518 168.870  1.00  0.00    -0.396 OA
ATOM     11  H   UNL     1     157.450 165.106 169.509  1.00  0.00     0.210 HD
ENDBRANCH   9  10
ENDBRANCH   8   9
ENDBRANCH   7   8
ENDBRANCH   1   7
TORSDOF 8
ENDMDL
MODEL 9
REMARK VINA RESULT:    -3.248      6.174      7.044
REMARK INTER + INTRA:          -4.935
REMARK INTER:                  -4.402
REMARK INTRA:                  -0.533
REMARK UNBOUND:                -0.263
REMARK SMILES CCCCCCCCCO
REMARK SMILES IDX 6 1 5 2 4 3 3 4 2 5 1 6 7 7 8 8 9 9 10 10
REMARK H PARENT 10 11
REMARK Flexibility Score: inf
ROOT
ATOM      1  C   UNL     1     164.915 172.243 168.444  1.00  0.00     0.000 C 
ENDROOT
BRANCH   1   2
ATOM      2  C   UNL     1     164.651 171.571 167.084  1.00  0.00     0.000 C 
BRANCH   2   3
ATOM      3  C   UNL     1     164.505 170.040 167.130  1.00  0.00    -0.000 C 
BRANCH   3   4
ATOM      4  C   UNL     1     164.569 169.475 168.559  1.00  0.00    -0.000 C 
BRANCH   4   5
ATOM      5  C   UNL     1     164.848 167.964 168.583  1.00  0.00    -0.003 C 
ATOM      6  C   UNL     1     165.191 167.406 167.202  1.00  0.00     0.004 C 
ENDBRANCH   4   5
ENDBRANCH   3   4
ENDBRANCH   2   3
ENDBRANCH   1   2
BRANCH   1   7
ATOM      7  C   UNL     1     163.714 173.058 168.952  1.00  0.00     0.002 C 
BRANCH   7   8
ATOM      8  C   UNL     1     163.069 172.441 170.206  1.00  0.00     0.028 C 
BRANCH   8   9
ATOM      9  C   UNL     1     161.832 171.588 169.903  1.00  0.00     0.156 C 
BRANCH   9  10
ATOM     10  O   UNL     1     161.334 171.891 168.629  1.00  0.00    -0.396 OA
ATOM     11  H   UNL     1     161.067 172.846 168.658  1.00  0.00     0.210 HD
ENDBRANCH   9  10
ENDBRANCH   8   9
ENDBRANCH   7   8
ENDBRANCH   1   7
TORSDOF 8
ENDMDL
