MODEL 1
REMARK VINA RESULT:    -4.840      0.000      0.000
REMARK INTER + INTRA:          -4.840
REMARK INTER:                  -4.840
REMARK INTRA:                   0.000
REMARK UNBOUND:                 0.000
REMARK SMILES CC1=CC[C@H]2C[C@@H]1C2(C)C
REMARK SMILES IDX 1 1 2 2 3 3 4 4 5 5 6 6 7 7 8 8 9 9 10 10
REMARK H PARENT
REMARK Flexibility Score: inf
ROOT
ATOM      1  C   UNL     1     -43.169 -50.642  30.850  1.00  0.00     0.039 C 
ATOM      2  C   UNL     1     -44.397 -51.097  31.579  1.00  0.00    -0.074 C 
ATOM      3  C   UNL     1     -45.126 -52.168  31.148  1.00  0.00    -0.027 C 
ATOM      4  C   UNL     1     -46.394 -52.565  31.928  1.00  0.00     0.031 C 
ATOM      5  C   UNL     1     -46.581 -51.622  33.167  1.00  0.00    -0.000 C 
ATOM      6  C   UNL     1     -45.196 -51.540  33.843  1.00  0.00     0.013 C 
ATOM      7  C   UNL     1     -44.887 -50.398  32.856  1.00  0.00     0.021 C 
ATOM      8  C   UNL     1     -46.412 -50.136  32.745  1.00  0.00    -0.026 C 
ATOM      9  C   UNL     1     -46.921 -49.157  33.833  1.00  0.00     0.012 C 
ATOM     10  C   UNL     1     -46.985 -49.681  31.374  1.00  0.00     0.012 C 
ENDROOT
TORSDOF 0
ENDMDL
MODEL 2
REMARK VINA RESULT:    -4.820      0.892      3.297
REMARK INTER + INTRA:          -4.820
REMARK INTER:                  -4.820
REMARK INTRA:                   0.000
REMARK UNBOUND:                 0.000
REMARK SMILES CC1=CC[C@H]2C[C@@H]1C2(C)C
REMARK SMILES IDX 1 1 2 2 3 3 4 4 5 5 6 6 7 7 8 8 9 9 10 10
REMARK H PARENT
REMARK Flexibility Score: inf
ROOT
ATOM      1  C   UNL     1     -46.815 -49.246  33.711  1.00  0.00     0.039 C 
ATOM      2  C   UNL     1     -46.243 -50.285  32.794  1.00  0.00    -0.074 C 
ATOM      3  C   UNL     1     -46.735 -51.559  32.766  1.00  0.00    -0.027 C 
ATOM      4  C   UNL     1     -46.083 -52.585  31.820  1.00  0.00     0.031 C 
ATOM      5  C   UNL     1     -44.935 -51.904  30.996  1.00  0.00    -0.000 C 
ATOM      6  C   UNL     1     -45.525 -50.575  30.479  1.00  0.00     0.013 C 
ATOM      7  C   UNL     1     -45.093 -49.968  31.828  1.00  0.00     0.021 C 
ATOM      8  C   UNL     1     -44.013 -51.078  31.934  1.00  0.00    -0.026 C 
ATOM      9  C   UNL     1     -42.685 -50.674  31.243  1.00  0.00     0.012 C 
ATOM     10  C   UNL     1     -43.677 -51.649  33.340  1.00  0.00     0.012 C 
ENDROOT
TORSDOF 0
ENDMDL
MODEL 3
REMARK VINA RESULT:    -4.724     14.378     15.554
REMARK INTER + INTRA:          -4.724
REMARK INTER:                  -4.724
REMARK INTRA:                   0.000
REMARK UNBOUND:                 0.000
REMARK SMILES CC1=CC[C@H]2C[C@@H]1C2(C)C
REMARK SMILES IDX 1 1 2 2 3 3 4 4 5 5 6 6 7 7 8 8 9 9 10 10
REMARK H PARENT
REMARK Flexibility Score: inf
ROOT
ATOM      1  C   UNL     1     -49.272 -50.107  14.410  1.00  0.00     0.039 C 
ATOM      2  C   UNL     1     -48.749 -50.373  15.789  1.00  0.00    -0.074 C 
ATOM      3  C   UNL     1     -48.416 -51.634  16.194  1.00  0.00    -0.027 C 
ATOM      4  C   UNL     1     -47.910 -51.840  17.635  1.00  0.00     0.031 C 
ATOM      5  C   UNL     1     -47.837 -50.464  18.382  1.00  0.00    -0.000 C 
ATOM      6  C   UNL     1     -47.143 -49.494  17.403  1.00  0.00     0.013 C 
ATOM      7  C   UNL     1     -48.542 -49.243  16.808  1.00  0.00     0.021 C 
ATOM      8  C   UNL     1     -49.151 -49.663  18.172  1.00  0.00    -0.026 C 
ATOM      9  C   UNL     1     -49.274 -48.470  19.153  1.00  0.00     0.012 C 
ATOM     10  C   UNL     1     -50.501 -50.435  18.170  1.00  0.00     0.012 C 
ENDROOT
TORSDOF 0
ENDMDL
MODEL 4
REMARK VINA RESULT:    -4.641     14.205     15.584
REMARK INTER + INTRA:          -4.641
REMARK INTER:                  -4.641
REMARK INTRA:                   0.000
REMARK UNBOUND:                 0.000
REMARK SMILES CC1=CC[C@H]2C[C@@H]1C2(C)C
REMARK SMILES IDX 1 1 2 2 3 3 4 4 5 5 6 6 7 7 8 8 9 9 10 10
REMARK H PARENT
REMARK Flexibility Score: inf
ROOT
ATOM      1  C   UNL     1     -50.741 -49.930  19.171  1.00  0.00     0.039 C 
ATOM      2  C   UNL     1     -49.636 -50.398  18.274  1.00  0.00    -0.074 C 
ATOM      3  C   UNL     1     -48.890 -51.501  18.578  1.00  0.00    -0.027 C 
ATOM      4  C   UNL     1     -47.750 -51.911  17.625  1.00  0.00     0.031 C 
ATOM      5  C   UNL     1     -47.699 -50.938  16.397  1.00  0.00    -0.000 C 
ATOM      6  C   UNL     1     -49.158 -50.799  15.914  1.00  0.00     0.013 C 
ATOM      7  C   UNL     1     -49.298 -49.677  16.961  1.00  0.00     0.021 C 
ATOM      8  C   UNL     1     -47.764 -49.461  16.873  1.00  0.00    -0.026 C 
ATOM      9  C   UNL     1     -47.374 -48.466  15.750  1.00  0.00     0.012 C 
ATOM     10  C   UNL     1     -47.000 -49.061  18.166  1.00  0.00     0.012 C 
ENDROOT
TORSDOF 0
ENDMDL
MODEL 5
REMARK VINA RESULT:    -4.568     14.211     15.359
REMARK INTER + INTRA:          -4.568
REMARK INTER:                  -4.568
REMARK INTRA:                   0.000
REMARK UNBOUND:                 0.000
REMARK SMILES CC1=CC[C@H]2C[C@@H]1C2(C)C
REMARK SMILES IDX 1 1 2 2 3 3 4 4 5 5 6 6 7 7 8 8 9 9 10 10
REMARK H PARENT
REMARK Flexibility Score: inf
ROOT
ATOM      1  C   UNL     1     -47.597 -48.329  15.779  1.00  0.00     0.039 C 
ATOM      2  C   UNL     1     -47.967 -49.490  16.652  1.00  0.00    -0.074 C 
ATOM      3  C   UNL     1     -47.386 -50.715  16.492  1.00  0.00    -0.027 C 
ATOM      4  C   UNL     1     -47.832 -51.873  17.405  1.00  0.00     0.031 C 
ATOM      5  C   UNL     1     -48.906 -51.367  18.430  1.00  0.00    -0.000 C 
ATOM      6  C   UNL     1     -48.350 -50.045  18.998  1.00  0.00     0.013 C 
ATOM      7  C   UNL     1     -48.999 -49.358  17.781  1.00  0.00     0.021 C 
ATOM      8  C   UNL     1     -50.001 -50.540  17.702  1.00  0.00    -0.026 C 
ATOM      9  C   UNL     1     -51.251 -50.312  18.590  1.00  0.00     0.012 C 
ATOM     10  C   UNL     1     -50.479 -51.009  16.299  1.00  0.00     0.012 C 
ENDROOT
TORSDOF 0
ENDMDL
MODEL 6
REMARK VINA RESULT:    -4.277      4.658      7.321
REMARK INTER + INTRA:          -4.277
REMARK INTER:                  -4.277
REMARK INTRA:                   0.000
REMARK UNBOUND:                 0.000
REMARK SMILES CC1=CC[C@H]2C[C@@H]1C2(C)C
REMARK SMILES IDX 1 1 2 2 3 3 4 4 5 5 6 6 7 7 8 8 9 9 10 10
REMARK H PARENT
REMARK Flexibility Score: inf
ROOT
ATOM      1  C   UNL     1     -43.791 -49.666  29.100  1.00  0.00     0.039 C 
ATOM      2  C   UNL     1     -42.973 -48.924  28.087  1.00  0.00    -0.074 C 
ATOM      3  C   UNL     1     -43.024 -49.240  26.760  1.00  0.00    -0.027 C 
ATOM      4  C   UNL     1     -42.135 -48.454  25.775  1.00  0.00     0.031 C 
ATOM      5  C   UNL     1     -41.328 -47.350  26.542  1.00  0.00    -0.000 C 
ATOM      6  C   UNL     1     -42.351 -46.648  27.460  1.00  0.00     0.013 C 
ATOM      7  C   UNL     1     -42.053 -47.760  28.485  1.00  0.00     0.021 C 
ATOM      8  C   UNL     1     -40.667 -47.948  27.814  1.00  0.00    -0.026 C 
ATOM      9  C   UNL     1     -39.591 -47.007  28.413  1.00  0.00     0.012 C 
ATOM     10  C   UNL     1     -40.072 -49.383  27.739  1.00  0.00     0.012 C 
ENDROOT
TORSDOF 0
ENDMDL
MODEL 7
REMARK VINA RESULT:    -4.256     10.736     12.421
REMARK INTER + INTRA:          -4.256
REMARK INTER:                  -4.256
REMARK INTRA:                   0.000
REMARK UNBOUND:                 0.000
REMARK SMILES CC1=CC[C@H]2C[C@@H]1C2(C)C
REMARK SMILES IDX 1 1 2 2 3 3 4 4 5 5 6 6 7 7 8 8 9 9 10 10
REMARK H PARENT
REMARK Flexibility Score: inf
ROOT
ATOM      1  C   UNL     1     -50.275 -48.747  20.477  1.00  0.00     0.039 C 
ATOM      2  C   UNL     1     -51.085 -48.444  21.701  1.00  0.00    -0.074 C 
ATOM      3  C   UNL     1     -50.959 -49.186  22.841  1.00  0.00    -0.027 C 
ATOM      4  C   UNL     1     -51.843 -48.837  24.054  1.00  0.00     0.031 C 
ATOM      5  C   UNL     1     -52.739 -47.592  23.728  1.00  0.00    -0.000 C 
ATOM      6  C   UNL     1     -51.796 -46.558  23.079  1.00  0.00     0.013 C 
ATOM      7  C   UNL     1     -52.080 -47.275  21.745  1.00  0.00     0.021 C 
ATOM      8  C   UNL     1     -53.424 -47.767  22.345  1.00  0.00    -0.026 C 
ATOM      9  C   UNL     1     -54.573 -46.749  22.127  1.00  0.00     0.012 C 
ATOM     10  C   UNL     1     -53.940 -49.177  21.942  1.00  0.00     0.012 C 
ENDROOT
TORSDOF 0
ENDMDL
MODEL 8
REMARK VINA RESULT:    -4.211      5.144      7.338
REMARK INTER + INTRA:          -4.211
REMARK INTER:                  -4.211
REMARK INTRA:                   0.000
REMARK UNBOUND:                 0.000
REMARK SMILES CC1=CC[C@H]2C[C@@H]1C2(C)C
REMARK SMILES IDX 1 1 2 2 3 3 4 4 5 5 6 6 7 7 8 8 9 9 10 10
REMARK H PARENT
REMARK Flexibility Score: inf
ROOT
ATOM      1  C   UNL     1     -39.149 -48.460  28.493  1.00  0.00     0.039 C 
ATOM      2  C   UNL     1     -40.419 -47.940  27.892  1.00  0.00    -0.074 C 
ATOM      3  C   UNL     1     -40.799 -46.637  28.043  1.00  0.00    -0.027 C 
ATOM      4  C   UNL     1     -42.131 -46.176  27.422  1.00  0.00     0.031 C 
ATOM      5  C   UNL     1     -42.808 -47.364  26.655  1.00  0.00    -0.000 C 
ATOM      6  C   UNL     1     -41.689 -48.005  25.808  1.00  0.00     0.013 C 
ATOM      7  C   UNL     1     -41.347 -48.837  27.059  1.00  0.00     0.021 C 
ATOM      8  C   UNL     1     -42.811 -48.644  27.536  1.00  0.00    -0.026 C 
ATOM      9  C   UNL     1     -43.760 -49.736  26.979  1.00  0.00     0.012 C 
ATOM     10  C   UNL     1     -43.078 -48.498  29.060  1.00  0.00     0.012 C 
ENDROOT
TORSDOF 0
ENDMDL
MODEL 9
REMARK VINA RESULT:    -4.114      4.327      6.206
REMARK INTER + INTRA:          -4.114
REMARK INTER:                  -4.114
REMARK INTRA:                   0.000
REMARK UNBOUND:                 0.000
REMARK SMILES CC1=CC[C@H]2C[C@@H]1C2(C)C
REMARK SMILES IDX 1 1 2 2 3 3 4 4 5 5 6 6 7 7 8 8 9 9 10 10
REMARK H PARENT
REMARK Flexibility Score: inf
ROOT
ATOM      1  C   UNL     1     -39.813 -47.056  28.129  1.00  0.00     0.039 C 
ATOM      2  C   UNL     1     -41.080 -47.778  27.782  1.00  0.00    -0.074 C 
ATOM      3  C   UNL     1     -41.460 -47.967  26.484  1.00  0.00    -0.027 C 
ATOM      4  C   UNL     1     -42.788 -48.694  26.198  1.00  0.00     0.031 C 
ATOM      5  C   UNL     1     -43.461 -49.134  27.544  1.00  0.00    -0.000 C 
ATOM      6  C   UNL     1     -42.337 -49.783  28.380  1.00  0.00     0.013 C 
ATOM      7  C   UNL     1     -42.003 -48.359  28.863  1.00  0.00     0.021 C 
ATOM      8  C   UNL     1     -43.470 -47.956  28.556  1.00  0.00    -0.026 C 
ATOM      9  C   UNL     1     -44.415 -48.220  29.755  1.00  0.00     0.012 C 
ATOM     10  C   UNL     1     -43.745 -46.521  28.025  1.00  0.00     0.012 C 
ENDROOT
TORSDOF 0
ENDMDL
