MODEL 1
REMARK VINA RESULT:    -4.144      0.000      0.000
REMARK INTER + INTRA:          -5.227
REMARK INTER:                  -4.991
REMARK INTRA:                  -0.235
REMARK UNBOUND:                -0.235
REMARK SMILES NC(=O)C[C@H]([NH3+])C(=O)[O-]
REMARK SMILES IDX 4 1 5 2 6 3 7 7 8 8 9 9 2 10 3 11 1 12
REMARK H PARENT 6 4 6 5 6 6 1 13 1 14
REMARK Flexibility Score: inf
ROOT
ATOM      1  C   UNL     1     126.025 114.384 130.855  1.00  0.00     0.171 C 
ENDROOT
BRANCH   1   2
ATOM      2  C   UNL     1     125.401 115.766 131.139  1.00  0.00     0.237 C 
BRANCH   2   3
ATOM      3  N   UNL     1     126.399 116.710 131.661  1.00  0.00    -0.350 N 
ATOM      4  H   UNL     1     125.924 117.486 132.176  1.00  0.00     0.345 HD
ATOM      5  H   UNL     1     126.971 117.114 130.882  1.00  0.00     0.345 HD
ATOM      6  H   UNL     1     127.033 116.220 132.333  1.00  0.00     0.345 HD
ENDBRANCH   2   3
BRANCH   2   7
ATOM      7  C   UNL     1     124.261 115.621 132.112  1.00  0.00     0.100 C 
ATOM      8  O   UNL     1     124.371 114.870 133.119  1.00  0.00    -0.544 OA
ATOM      9  O   UNL     1     123.072 116.305 131.894  1.00  0.00    -0.544 OA
ENDBRANCH   2   7
ENDBRANCH   1   2
BRANCH   1  10
ATOM     10  C   UNL     1     126.516 114.278 129.441  1.00  0.00     0.223 C 
ATOM     11  O   UNL     1     127.154 115.233 128.925  1.00  0.00    -0.275 OA
ATOM     12  N   UNL     1     126.239 113.111 128.668  1.00  0.00    -0.369 N 
ATOM     13  H   UNL     1     125.702 112.315 129.079  1.00  0.00     0.159 HD
ATOM     14  H   UNL     1     126.571 113.042 127.680  1.00  0.00     0.159 HD
ENDBRANCH   1  10
TORSDOF 4
ENDMDL
MODEL 2
REMARK VINA RESULT:    -3.725      1.793      4.006
REMARK INTER + INTRA:          -4.722
REMARK INTER:                  -4.478
REMARK INTRA:                  -0.244
REMARK UNBOUND:                -0.235
REMARK SMILES NC(=O)C[C@H]([NH3+])C(=O)[O-]
REMARK SMILES IDX 4 1 5 2 6 3 7 7 8 8 9 9 2 10 3 11 1 12
REMARK H PARENT 6 4 6 5 6 6 1 13 1 14
REMARK Flexibility Score: inf
ROOT
ATOM      1  C   UNL     1     124.251 115.662 130.792  1.00  0.00     0.171 C 
ENDROOT
BRANCH   1   2
ATOM      2  C   UNL     1     125.712 115.253 131.071  1.00  0.00     0.237 C 
BRANCH   2   3
ATOM      3  N   UNL     1     126.492 116.376 131.609  1.00  0.00    -0.350 N 
ATOM      4  H   UNL     1     126.940 116.102 132.513  1.00  0.00     0.345 HD
ATOM      5  H   UNL     1     125.879 117.211 131.769  1.00  0.00     0.345 HD
ATOM      6  H   UNL     1     127.253 116.633 130.939  1.00  0.00     0.345 HD
ENDBRANCH   2   3
BRANCH   2   7
ATOM      7  C   UNL     1     126.347 114.735 129.808  1.00  0.00     0.100 C 
ATOM      8  O   UNL     1     127.076 115.485 129.104  1.00  0.00    -0.544 OA
ATOM      9  O   UNL     1     126.117 113.427 129.401  1.00  0.00    -0.544 OA
ENDBRANCH   2   7
ENDBRANCH   1   2
BRANCH   1  10
ATOM     10  C   UNL     1     123.391 115.513 132.012  1.00  0.00     0.223 C 
ATOM     11  O   UNL     1     123.920 115.255 133.125  1.00  0.00    -0.275 OA
ATOM     12  N   UNL     1     121.973 115.634 131.913  1.00  0.00    -0.369 N 
ATOM     13  H   UNL     1     121.517 115.837 130.995  1.00  0.00     0.159 HD
ATOM     14  H   UNL     1     121.373 115.518 132.760  1.00  0.00     0.159 HD
ENDBRANCH   1  10
TORSDOF 4
ENDMDL
MODEL 3
REMARK VINA RESULT:    -3.668      1.051      3.967
REMARK INTER + INTRA:          -4.653
REMARK INTER:                  -4.494
REMARK INTRA:                  -0.159
REMARK UNBOUND:                -0.235
REMARK SMILES NC(=O)C[C@H]([NH3+])C(=O)[O-]
REMARK SMILES IDX 4 1 5 2 6 3 7 7 8 8 9 9 2 10 3 11 1 12
REMARK H PARENT 6 4 6 5 6 6 1 13 1 14
REMARK Flexibility Score: inf
ROOT
ATOM      1  C   UNL     1     126.163 114.309 130.944  1.00  0.00     0.171 C 
ENDROOT
BRANCH   1   2
ATOM      2  C   UNL     1     125.734 114.140 129.472  1.00  0.00     0.237 C 
BRANCH   2   3
ATOM      3  N   UNL     1     126.179 112.850 128.927  1.00  0.00    -0.350 N 
ATOM      4  H   UNL     1     125.369 112.340 128.505  1.00  0.00     0.345 HD
ATOM      5  H   UNL     1     126.605 112.257 129.678  1.00  0.00     0.345 HD
ATOM      6  H   UNL     1     126.886 113.008 128.172  1.00  0.00     0.345 HD
ENDBRANCH   2   3
BRANCH   2   7
ATOM      7  C   UNL     1     126.285 115.272 128.646  1.00  0.00     0.100 C 
ATOM      8  O   UNL     1     127.506 115.578 128.714  1.00  0.00    -0.544 OA
ATOM      9  O   UNL     1     125.442 115.999 127.815  1.00  0.00    -0.544 OA
ENDBRANCH   2   7
ENDBRANCH   1   2
BRANCH   1  10
ATOM     10  C   UNL     1     125.633 115.584 131.533  1.00  0.00     0.223 C 
ATOM     11  O   UNL     1     124.424 115.661 131.874  1.00  0.00    -0.275 OA
ATOM     12  N   UNL     1     126.486 116.718 131.682  1.00  0.00    -0.369 N 
ATOM     13  H   UNL     1     127.489 116.673 131.393  1.00  0.00     0.159 HD
ATOM     14  H   UNL     1     126.114 117.609 132.081  1.00  0.00     0.159 HD
ENDBRANCH   1  10
TORSDOF 4
ENDMDL
MODEL 4
REMARK VINA RESULT:    -3.655      1.880      4.149
REMARK INTER + INTRA:          -4.638
REMARK INTER:                  -4.346
REMARK INTRA:                  -0.292
REMARK UNBOUND:                -0.235
REMARK SMILES NC(=O)C[C@H]([NH3+])C(=O)[O-]
REMARK SMILES IDX 4 1 5 2 6 3 7 7 8 8 9 9 2 10 3 11 1 12
REMARK H PARENT 6 4 6 5 6 6 1 13 1 14
REMARK Flexibility Score: inf
ROOT
ATOM      1  C   UNL     1     124.628 115.170 132.374  1.00  0.00     0.171 C 
ENDROOT
BRANCH   1   2
ATOM      2  C   UNL     1     125.428 115.576 131.119  1.00  0.00     0.237 C 
BRANCH   2   3
ATOM      3  N   UNL     1     124.545 115.795 129.966  1.00  0.00    -0.350 N 
ATOM      4  H   UNL     1     124.076 114.901 129.697  1.00  0.00     0.345 HD
ATOM      5  H   UNL     1     125.087 116.159 129.147  1.00  0.00     0.345 HD
ATOM      6  H   UNL     1     123.799 116.485 130.216  1.00  0.00     0.345 HD
ENDBRANCH   2   3
BRANCH   2   7
ATOM      7  C   UNL     1     126.449 114.516 130.800  1.00  0.00     0.100 C 
ATOM      8  O   UNL     1     126.637 113.551 131.588  1.00  0.00    -0.544 OA
ATOM      9  O   UNL     1     127.203 114.607 129.637  1.00  0.00    -0.544 OA
ENDBRANCH   2   7
ENDBRANCH   1   2
BRANCH   1  10
ATOM     10  C   UNL     1     123.363 115.966 132.506  1.00  0.00     0.223 C 
ATOM     11  O   UNL     1     122.283 115.509 132.047  1.00  0.00    -0.275 OA
ATOM     12  N   UNL     1     123.381 117.252 133.124  1.00  0.00    -0.369 N 
ATOM     13  H   UNL     1     124.271 117.650 133.500  1.00  0.00     0.159 HD
ATOM     14  H   UNL     1     122.503 117.811 133.206  1.00  0.00     0.159 HD
ENDBRANCH   1  10
TORSDOF 4
ENDMDL
MODEL 5
REMARK VINA RESULT:    -3.513     13.834     15.223
REMARK INTER + INTRA:          -4.467
REMARK INTER:                  -4.201
REMARK INTRA:                  -0.265
REMARK UNBOUND:                -0.235
REMARK SMILES NC(=O)C[C@H]([NH3+])C(=O)[O-]
REMARK SMILES IDX 4 1 5 2 6 3 7 7 8 8 9 9 2 10 3 11 1 12
REMARK H PARENT 6 4 6 5 6 6 1 13 1 14
REMARK Flexibility Score: inf
ROOT
ATOM      1  C   UNL     1     113.486 122.269 130.574  1.00  0.00     0.171 C 
ENDROOT
BRANCH   1   2
ATOM      2  C   UNL     1     112.092 122.918 130.450  1.00  0.00     0.237 C 
BRANCH   2   3
ATOM      3  N   UNL     1     111.123 122.287 131.356  1.00  0.00    -0.350 N 
ATOM      4  H   UNL     1     111.472 121.350 131.660  1.00  0.00     0.345 HD
ATOM      5  H   UNL     1     110.194 122.172 130.885  1.00  0.00     0.345 HD
ATOM      6  H   UNL     1     111.002 122.877 132.212  1.00  0.00     0.345 HD
ENDBRANCH   2   3
BRANCH   2   7
ATOM      7  C   UNL     1     111.612 122.824 129.026  1.00  0.00     0.100 C 
ATOM      8  O   UNL     1     110.551 123.403 128.670  1.00  0.00    -0.544 OA
ATOM      9  O   UNL     1     112.331 122.081 128.098  1.00  0.00    -0.544 OA
ENDBRANCH   2   7
ENDBRANCH   1   2
BRANCH   1  10
ATOM     10  C   UNL     1     114.228 122.775 131.777  1.00  0.00     0.223 C 
ATOM     11  O   UNL     1     113.636 123.499 132.620  1.00  0.00    -0.275 OA
ATOM     12  N   UNL     1     115.609 122.465 131.955  1.00  0.00    -0.369 N 
ATOM     13  H   UNL     1     116.117 121.875 131.259  1.00  0.00     0.159 HD
ATOM     14  H   UNL     1     116.128 122.827 132.786  1.00  0.00     0.159 HD
ENDBRANCH   1  10
TORSDOF 4
ENDMDL
MODEL 6
REMARK VINA RESULT:    -3.211     13.033     14.536
REMARK INTER + INTRA:          -4.103
REMARK INTER:                  -3.863
REMARK INTRA:                  -0.240
REMARK UNBOUND:                -0.235
REMARK SMILES NC(=O)C[C@H]([NH3+])C(=O)[O-]
REMARK SMILES IDX 4 1 5 2 6 3 7 7 8 8 9 9 2 10 3 11 1 12
REMARK H PARENT 6 4 6 5 6 6 1 13 1 14
REMARK Flexibility Score: inf
ROOT
ATOM      1  C   UNL     1     113.787 121.753 130.988  1.00  0.00     0.171 C 
ENDROOT
BRANCH   1   2
ATOM      2  C   UNL     1     113.039 123.088 130.795  1.00  0.00     0.237 C 
BRANCH   2   3
ATOM      3  N   UNL     1     112.455 123.564 132.057  1.00  0.00    -0.350 N 
ATOM      4  H   UNL     1     113.131 123.422 132.842  1.00  0.00     0.345 HD
ATOM      5  H   UNL     1     111.567 123.051 132.271  1.00  0.00     0.345 HD
ATOM      6  H   UNL     1     112.251 124.588 131.990  1.00  0.00     0.345 HD
ENDBRANCH   2   3
BRANCH   2   7
ATOM      7  C   UNL     1     111.966 122.927 129.752  1.00  0.00     0.100 C 
ATOM      8  O   UNL     1     110.816 123.408 129.937  1.00  0.00    -0.544 OA
ATOM      9  O   UNL     1     112.236 122.227 128.583  1.00  0.00    -0.544 OA
ENDBRANCH   2   7
ENDBRANCH   1   2
BRANCH   1  10
ATOM     10  C   UNL     1     114.816 121.846 132.076  1.00  0.00     0.223 C 
ATOM     11  O   UNL     1     115.630 122.806 132.090  1.00  0.00    -0.275 OA
ATOM     12  N   UNL     1     114.896 120.835 133.081  1.00  0.00    -0.369 N 
ATOM     13  H   UNL     1     114.234 120.026 133.077  1.00  0.00     0.159 HD
ATOM     14  H   UNL     1     115.619 120.893 133.832  1.00  0.00     0.159 HD
ENDBRANCH   1  10
TORSDOF 4
ENDMDL
MODEL 7
REMARK VINA RESULT:    -3.175     14.702     15.829
REMARK INTER + INTRA:          -4.060
REMARK INTER:                  -3.979
REMARK INTRA:                  -0.081
REMARK UNBOUND:                -0.235
REMARK SMILES NC(=O)C[C@H]([NH3+])C(=O)[O-]
REMARK SMILES IDX 4 1 5 2 6 3 7 7 8 8 9 9 2 10 3 11 1 12
REMARK H PARENT 6 4 6 5 6 6 1 13 1 14
REMARK Flexibility Score: inf
ROOT
ATOM      1  C   UNL     1     111.265 123.480 129.935  1.00  0.00     0.171 C 
ENDROOT
BRANCH   1   2
ATOM      2  C   UNL     1     112.036 122.449 130.786  1.00  0.00     0.237 C 
BRANCH   2   3
ATOM      3  N   UNL     1     111.129 121.666 131.636  1.00  0.00    -0.350 N 
ATOM      4  H   UNL     1     110.712 120.880 131.087  1.00  0.00     0.345 HD
ATOM      5  H   UNL     1     110.359 122.269 132.011  1.00  0.00     0.345 HD
ATOM      6  H   UNL     1     111.661 121.252 132.435  1.00  0.00     0.345 HD
ENDBRANCH   2   3
BRANCH   2   7
ATOM      7  C   UNL     1     113.065 123.152 131.631  1.00  0.00     0.100 C 
ATOM      8  O   UNL     1     114.265 122.769 131.628  1.00  0.00    -0.544 OA
ATOM      9  O   UNL     1     112.689 124.221 132.435  1.00  0.00    -0.544 OA
ENDBRANCH   2   7
ENDBRANCH   1   2
BRANCH   1  10
ATOM     10  C   UNL     1     111.162 123.049 128.501  1.00  0.00     0.223 C 
ATOM     11  O   UNL     1     110.075 123.192 127.881  1.00  0.00    -0.275 OA
ATOM     12  N   UNL     1     112.280 122.453 127.846  1.00  0.00    -0.369 N 
ATOM     13  H   UNL     1     113.184 122.318 128.351  1.00  0.00     0.159 HD
ATOM     14  H   UNL     1     112.204 122.142 126.851  1.00  0.00     0.159 HD
ENDBRANCH   1  10
TORSDOF 4
ENDMDL
MODEL 8
REMARK VINA RESULT:    -2.740     12.912     14.275
REMARK INTER + INTRA:          -3.536
REMARK INTER:                  -3.603
REMARK INTRA:                   0.067
REMARK UNBOUND:                -0.235
REMARK SMILES NC(=O)C[C@H]([NH3+])C(=O)[O-]
REMARK SMILES IDX 4 1 5 2 6 3 7 7 8 8 9 9 2 10 3 11 1 12
REMARK H PARENT 6 4 6 5 6 6 1 13 1 14
REMARK Flexibility Score: inf
ROOT
ATOM      1  C   UNL     1     113.546 122.471 130.562  1.00  0.00     0.171 C 
ENDROOT
BRANCH   1   2
ATOM      2  C   UNL     1     113.828 122.359 132.074  1.00  0.00     0.237 C 
BRANCH   2   3
ATOM      3  N   UNL     1     113.577 123.632 132.763  1.00  0.00    -0.350 N 
ATOM      4  H   UNL     1     112.928 124.225 132.197  1.00  0.00     0.345 HD
ATOM      5  H   UNL     1     114.472 124.153 132.919  1.00  0.00     0.345 HD
ATOM      6  H   UNL     1     113.121 123.451 133.688  1.00  0.00     0.345 HD
ENDBRANCH   2   3
BRANCH   2   7
ATOM      7  C   UNL     1     115.250 121.918 132.296  1.00  0.00     0.100 C 
ATOM      8  O   UNL     1     116.208 122.701 132.057  1.00  0.00    -0.544 OA
ATOM      9  O   UNL     1     115.514 120.632 132.752  1.00  0.00    -0.544 OA
ENDBRANCH   2   7
ENDBRANCH   1   2
BRANCH   1  10
ATOM     10  C   UNL     1     112.074 122.542 130.276  1.00  0.00     0.223 C 
ATOM     11  O   UNL     1     111.672 122.940 129.151  1.00  0.00    -0.275 OA
ATOM     12  N   UNL     1     111.126 122.188 131.282  1.00  0.00    -0.369 N 
ATOM     13  H   UNL     1     111.444 121.866 132.224  1.00  0.00     0.159 HD
ATOM     14  H   UNL     1     110.102 122.249 131.087  1.00  0.00     0.159 HD
ENDBRANCH   1  10
TORSDOF 4
ENDMDL
