MODEL 1
REMARK VINA RESULT:    -5.643      0.000      0.000
REMARK INTER + INTRA:          -6.762
REMARK INTER:                  -6.633
REMARK INTRA:                  -0.129
REMARK UNBOUND:                -0.129
REMARK SMILES O=C([O-])C=Cc1ccc(O)c(O)c1
REMARK SMILES IDX 6 1 13 2 7 3 11 4 8 5 9 6 5 7 4 8 2 9 1 10 3 11 12 12 10 14
REMARK H PARENT 12 13 10 15
REMARK Flexibility Score: inf
ROOT
ATOM      1  C   UNL     1      -4.036  61.111 -13.044  1.00  0.00    -0.022 A 
ATOM      2  C   UNL     1      -5.233  61.783 -12.746  1.00  0.00     0.058 A 
ATOM      3  C   UNL     1      -4.025  60.174 -14.095  1.00  0.00     0.012 A 
ATOM      4  C   UNL     1      -6.394  61.545 -13.497  1.00  0.00     0.157 A 
ATOM      5  C   UNL     1      -5.182  59.937 -14.843  1.00  0.00     0.051 A 
ATOM      6  C   UNL     1      -6.367  60.622 -14.549  1.00  0.00     0.157 A 
ENDROOT
BRANCH   1   7
ATOM      7  C   UNL     1      -2.839  61.391 -12.211  1.00  0.00     0.010 C 
ATOM      8  C   UNL     1      -2.463  62.623 -11.837  1.00  0.00     0.025 C 
BRANCH   8   9
ATOM      9  C   UNL     1      -1.275  62.862 -11.002  1.00  0.00     0.064 C 
ATOM     10  O   UNL     1      -0.248  62.139 -11.104  1.00  0.00    -0.545 OA
ATOM     11  O   UNL     1      -1.286  63.904 -10.083  1.00  0.00    -0.545 OA
ENDBRANCH   8   9
ENDBRANCH   1   7
BRANCH   4  12
ATOM     12  O   UNL     1      -7.576  62.222 -13.203  1.00  0.00    -0.504 OA
ATOM     13  H   UNL     1      -8.372  61.746 -12.794  1.00  0.00     0.293 HD
ENDBRANCH   4  12
BRANCH   6  14
ATOM     14  O   UNL     1      -7.521  60.389 -15.295  1.00  0.00    -0.504 OA
ATOM     15  H   UNL     1      -7.980  61.134 -15.806  1.00  0.00     0.293 HD
ENDBRANCH   6  14
TORSDOF 4
ENDMDL
MODEL 2
REMARK VINA RESULT:    -5.639     12.485     13.322
REMARK INTER + INTRA:          -6.757
REMARK INTER:                  -6.627
REMARK INTRA:                  -0.130
REMARK UNBOUND:                -0.129
REMARK SMILES O=C([O-])C=Cc1ccc(O)c(O)c1
REMARK SMILES IDX 6 1 13 2 7 3 11 4 8 5 9 6 5 7 4 8 2 9 1 10 3 11 12 12 10 14
REMARK H PARENT 12 13 10 15
REMARK Flexibility Score: inf
ROOT
ATOM      1  C   UNL     1      -4.242  68.231 -24.143  1.00  0.00    -0.022 A 
ATOM      2  C   UNL     1      -3.234  67.520 -24.815  1.00  0.00     0.058 A 
ATOM      3  C   UNL     1      -5.349  68.699 -24.878  1.00  0.00     0.012 A 
ATOM      4  C   UNL     1      -3.337  67.257 -26.189  1.00  0.00     0.157 A 
ATOM      5  C   UNL     1      -5.452  68.437 -26.247  1.00  0.00     0.051 A 
ATOM      6  C   UNL     1      -4.450  67.714 -26.906  1.00  0.00     0.157 A 
ENDROOT
BRANCH   1   7
ATOM      7  C   UNL     1      -4.079  68.492 -22.691  1.00  0.00     0.010 C 
ATOM      8  C   UNL     1      -4.989  68.152 -21.766  1.00  0.00     0.025 C 
BRANCH   8   9
ATOM      9  C   UNL     1      -4.788  68.417 -20.332  1.00  0.00     0.064 C 
ATOM     10  O   UNL     1      -3.725  68.944 -19.908  1.00  0.00    -0.545 OA
ATOM     11  O   UNL     1      -5.789  68.080 -19.430  1.00  0.00    -0.545 OA
ENDBRANCH   8   9
ENDBRANCH   1   7
BRANCH   4  12
ATOM     12  O   UNL     1      -2.338  66.542 -26.848  1.00  0.00    -0.504 OA
ATOM     13  H   UNL     1      -2.292  65.531 -26.802  1.00  0.00     0.293 HD
ENDBRANCH   4  12
BRANCH   6  14
ATOM     14  O   UNL     1      -4.550  67.450 -28.270  1.00  0.00    -0.504 OA
ATOM     15  H   UNL     1      -4.879  68.152 -28.922  1.00  0.00     0.293 HD
ENDBRANCH   6  14
TORSDOF 4
ENDMDL
MODEL 3
REMARK VINA RESULT:    -5.594      1.046      1.972
REMARK INTER + INTRA:          -6.704
REMARK INTER:                  -6.571
REMARK INTRA:                  -0.134
REMARK UNBOUND:                -0.129
REMARK SMILES O=C([O-])C=Cc1ccc(O)c(O)c1
REMARK SMILES IDX 6 1 13 2 7 3 11 4 8 5 9 6 5 7 4 8 2 9 1 10 3 11 12 12 10 14
REMARK H PARENT 12 13 10 15
REMARK Flexibility Score: inf
ROOT
ATOM      1  C   UNL     1      -4.073  61.289 -13.256  1.00  0.00    -0.022 A 
ATOM      2  C   UNL     1      -3.814  60.792 -14.545  1.00  0.00     0.058 A 
ATOM      3  C   UNL     1      -5.410  61.459 -12.849  1.00  0.00     0.012 A 
ATOM      4  C   UNL     1      -4.868  60.447 -15.404  1.00  0.00     0.157 A 
ATOM      5  C   UNL     1      -6.460  61.115 -13.705  1.00  0.00     0.051 A 
ATOM      6  C   UNL     1      -6.193  60.606 -14.982  1.00  0.00     0.157 A 
ENDROOT
BRANCH   1   7
ATOM      7  C   UNL     1      -2.922  61.649 -12.391  1.00  0.00     0.010 C 
ATOM      8  C   UNL     1      -2.742  62.867 -11.859  1.00  0.00     0.025 C 
BRANCH   8   9
ATOM      9  C   UNL     1      -1.593  63.185 -10.996  1.00  0.00     0.064 C 
ATOM     10  O   UNL     1      -0.554  62.471 -11.001  1.00  0.00    -0.545 OA
ATOM     11  O   UNL     1      -1.655  64.292 -10.159  1.00  0.00    -0.545 OA
ENDBRANCH   8   9
ENDBRANCH   1   7
BRANCH   4  12
ATOM     12  O   UNL     1      -4.605  59.946 -16.678  1.00  0.00    -0.504 OA
ATOM     13  H   UNL     1      -5.321  59.915 -17.394  1.00  0.00     0.293 HD
ENDBRANCH   4  12
BRANCH   6  14
ATOM     14  O   UNL     1      -7.238  60.261 -15.838  1.00  0.00    -0.504 OA
ATOM     15  H   UNL     1      -8.196  60.522 -15.635  1.00  0.00     0.293 HD
ENDBRANCH   6  14
TORSDOF 4
ENDMDL
MODEL 4
REMARK VINA RESULT:    -5.570     10.469     10.818
REMARK INTER + INTRA:          -6.676
REMARK INTER:                  -6.545
REMARK INTRA:                  -0.131
REMARK UNBOUND:                -0.129
REMARK SMILES O=C([O-])C=Cc1ccc(O)c(O)c1
REMARK SMILES IDX 6 1 13 2 7 3 11 4 8 5 9 6 5 7 4 8 2 9 1 10 3 11 12 12 10 14
REMARK H PARENT 12 13 10 15
REMARK Flexibility Score: inf
ROOT
ATOM      1  C   UNL     1      -5.868  68.283 -20.938  1.00  0.00    -0.022 A 
ATOM      2  C   UNL     1      -6.979  69.141 -20.891  1.00  0.00     0.058 A 
ATOM      3  C   UNL     1      -5.864  67.225 -21.868  1.00  0.00     0.012 A 
ATOM      4  C   UNL     1      -8.058  68.964 -21.771  1.00  0.00     0.157 A 
ATOM      5  C   UNL     1      -6.939  67.049 -22.744  1.00  0.00     0.051 A 
ATOM      6  C   UNL     1      -8.036  67.918 -22.700  1.00  0.00     0.157 A 
ENDROOT
BRANCH   1   7
ATOM      7  C   UNL     1      -4.758  68.507 -19.978  1.00  0.00     0.010 C 
ATOM      8  C   UNL     1      -3.462  68.510 -20.324  1.00  0.00     0.025 C 
BRANCH   8   9
ATOM      9  C   UNL     1      -2.388  68.747 -19.346  1.00  0.00     0.064 C 
ATOM     10  O   UNL     1      -2.416  68.214 -18.204  1.00  0.00    -0.545 OA
ATOM     11  O   UNL     1      -1.325  69.573 -19.687  1.00  0.00    -0.545 OA
ENDBRANCH   8   9
ENDBRANCH   1   7
BRANCH   4  12
ATOM     12  O   UNL     1      -9.153  69.825 -21.725  1.00  0.00    -0.504 OA
ATOM     13  H   UNL     1      -9.555  70.126 -20.845  1.00  0.00     0.293 HD
ENDBRANCH   4  12
BRANCH   6  14
ATOM     14  O   UNL     1      -9.108  67.746 -23.574  1.00  0.00    -0.504 OA
ATOM     15  H   UNL     1     -10.067  67.833 -23.258  1.00  0.00     0.293 HD
ENDBRANCH   6  14
TORSDOF 4
ENDMDL
MODEL 5
REMARK VINA RESULT:    -5.569     10.365     11.686
REMARK INTER + INTRA:          -6.675
REMARK INTER:                  -6.544
REMARK INTRA:                  -0.132
REMARK UNBOUND:                -0.129
REMARK SMILES O=C([O-])C=Cc1ccc(O)c(O)c1
REMARK SMILES IDX 6 1 13 2 7 3 11 4 8 5 9 6 5 7 4 8 2 9 1 10 3 11 12 12 10 14
REMARK H PARENT 12 13 10 15
REMARK Flexibility Score: inf
ROOT
ATOM      1  C   UNL     1      -3.393  68.478 -20.082  1.00  0.00    -0.022 A 
ATOM      2  C   UNL     1      -2.942  68.091 -21.355  1.00  0.00     0.058 A 
ATOM      3  C   UNL     1      -2.495  69.124 -19.210  1.00  0.00     0.012 A 
ATOM      4  C   UNL     1      -1.628  68.364 -21.763  1.00  0.00     0.157 A 
ATOM      5  C   UNL     1      -1.185  69.396 -19.617  1.00  0.00     0.051 A 
ATOM      6  C   UNL     1      -0.749  69.020 -20.893  1.00  0.00     0.157 A 
ENDROOT
BRANCH   1   7
ATOM      7  C   UNL     1      -4.789  68.156 -19.696  1.00  0.00     0.010 C 
ATOM      8  C   UNL     1      -5.813  68.125 -20.561  1.00  0.00     0.025 C 
BRANCH   8   9
ATOM      9  C   UNL     1      -7.184  67.790 -20.143  1.00  0.00     0.064 C 
ATOM     10  O   UNL     1      -8.130  67.750 -20.975  1.00  0.00    -0.545 OA
ATOM     11  O   UNL     1      -7.441  67.514 -18.806  1.00  0.00    -0.545 OA
ENDBRANCH   8   9
ENDBRANCH   1   7
BRANCH   4  12
ATOM     12  O   UNL     1      -1.190  67.986 -23.031  1.00  0.00    -0.504 OA
ATOM     13  H   UNL     1      -1.584  68.392 -23.871  1.00  0.00     0.293 HD
ENDBRANCH   4  12
BRANCH   6  14
ATOM     14  O   UNL     1       0.556  69.291 -21.302  1.00  0.00    -0.504 OA
ATOM     15  H   UNL     1       0.770  70.084 -21.895  1.00  0.00     0.293 HD
ENDBRANCH   6  14
TORSDOF 4
ENDMDL
MODEL 6
REMARK VINA RESULT:    -5.499      3.344      4.275
REMARK INTER + INTRA:          -6.593
REMARK INTER:                  -6.458
REMARK INTRA:                  -0.135
REMARK UNBOUND:                -0.129
REMARK SMILES O=C([O-])C=Cc1ccc(O)c(O)c1
REMARK SMILES IDX 6 1 13 2 7 3 11 4 8 5 9 6 5 7 4 8 2 9 1 10 3 11 12 12 10 14
REMARK H PARENT 12 13 10 15
REMARK Flexibility Score: inf
ROOT
ATOM      1  C   UNL     1      -3.916  61.261 -14.364  1.00  0.00    -0.022 A 
ATOM      2  C   UNL     1      -5.191  61.816 -14.160  1.00  0.00     0.058 A 
ATOM      3  C   UNL     1      -3.443  60.292 -13.458  1.00  0.00     0.012 A 
ATOM      4  C   UNL     1      -5.991  61.397 -13.087  1.00  0.00     0.157 A 
ATOM      5  C   UNL     1      -4.240  59.875 -12.388  1.00  0.00     0.051 A 
ATOM      6  C   UNL     1      -5.515  60.422 -12.201  1.00  0.00     0.157 A 
ENDROOT
BRANCH   1   7
ATOM      7  C   UNL     1      -3.106  61.747 -15.509  1.00  0.00     0.010 C 
ATOM      8  C   UNL     1      -3.591  62.524 -16.488  1.00  0.00     0.025 C 
BRANCH   8   9
ATOM      9  C   UNL     1      -2.753  62.996 -17.603  1.00  0.00     0.064 C 
ATOM     10  O   UNL     1      -1.613  62.505 -17.817  1.00  0.00    -0.545 OA
ATOM     11  O   UNL     1      -3.229  64.002 -18.435  1.00  0.00    -0.545 OA
ENDBRANCH   8   9
ENDBRANCH   1   7
BRANCH   4  12
ATOM     12  O   UNL     1      -7.258  61.944 -12.896  1.00  0.00    -0.504 OA
ATOM     13  H   UNL     1      -7.946  61.494 -12.303  1.00  0.00     0.293 HD
ENDBRANCH   4  12
BRANCH   6  14
ATOM     14  O   UNL     1      -6.314  60.007 -11.136  1.00  0.00    -0.504 OA
ATOM     15  H   UNL     1      -6.035  60.162 -10.175  1.00  0.00     0.293 HD
ENDBRANCH   6  14
TORSDOF 4
ENDMDL
MODEL 7
REMARK VINA RESULT:    -5.431      3.503      4.590
REMARK INTER + INTRA:          -6.513
REMARK INTER:                  -6.385
REMARK INTRA:                  -0.128
REMARK UNBOUND:                -0.129
REMARK SMILES O=C([O-])C=Cc1ccc(O)c(O)c1
REMARK SMILES IDX 6 1 13 2 7 3 11 4 8 5 9 6 5 7 4 8 2 9 1 10 3 11 12 12 10 14
REMARK H PARENT 12 13 10 15
REMARK Flexibility Score: inf
ROOT
ATOM      1  C   UNL     1      -4.409  61.263 -14.690  1.00  0.00    -0.022 A 
ATOM      2  C   UNL     1      -3.510  60.793 -13.719  1.00  0.00     0.058 A 
ATOM      3  C   UNL     1      -5.789  61.243 -14.405  1.00  0.00     0.012 A 
ATOM      4  C   UNL     1      -3.972  60.333 -12.477  1.00  0.00     0.157 A 
ATOM      5  C   UNL     1      -6.249  60.784 -13.168  1.00  0.00     0.051 A 
ATOM      6  C   UNL     1      -5.344  60.331 -12.200  1.00  0.00     0.157 A 
ENDROOT
BRANCH   1   7
ATOM      7  C   UNL     1      -3.869  61.729 -15.992  1.00  0.00     0.010 C 
ATOM      8  C   UNL     1      -2.764  62.479 -16.114  1.00  0.00     0.025 C 
BRANCH   8   9
ATOM      9  C   UNL     1      -2.251  62.913 -17.424  1.00  0.00     0.064 C 
ATOM     10  O   UNL     1      -1.130  62.524 -17.848  1.00  0.00    -0.545 OA
ATOM     11  O   UNL     1      -3.017  63.767 -18.206  1.00  0.00    -0.545 OA
ENDBRANCH   8   9
ENDBRANCH   1   7
BRANCH   4  12
ATOM     12  O   UNL     1      -3.073  59.877 -11.514  1.00  0.00    -0.504 OA
ATOM     13  H   UNL     1      -2.145  60.274 -11.425  1.00  0.00     0.293 HD
ENDBRANCH   4  12
BRANCH   6  14
ATOM     14  O   UNL     1      -5.800  59.875 -10.965  1.00  0.00    -0.504 OA
ATOM     15  H   UNL     1      -5.350  59.104 -10.487  1.00  0.00     0.293 HD
ENDBRANCH   6  14
TORSDOF 4
ENDMDL
MODEL 8
REMARK VINA RESULT:    -5.385      1.305      5.849
REMARK INTER + INTRA:          -6.459
REMARK INTER:                  -6.330
REMARK INTRA:                  -0.129
REMARK UNBOUND:                -0.129
REMARK SMILES O=C([O-])C=Cc1ccc(O)c(O)c1
REMARK SMILES IDX 6 1 13 2 7 3 11 4 8 5 9 6 5 7 4 8 2 9 1 10 3 11 12 12 10 14
REMARK H PARENT 12 13 10 15
REMARK Flexibility Score: inf
ROOT
ATOM      1  C   UNL     1      -2.745  61.325 -11.972  1.00  0.00    -0.022 A 
ATOM      2  C   UNL     1      -2.728  62.726 -11.873  1.00  0.00     0.058 A 
ATOM      3  C   UNL     1      -1.971  60.570 -11.070  1.00  0.00     0.012 A 
ATOM      4  C   UNL     1      -1.973  63.365 -10.878  1.00  0.00     0.157 A 
ATOM      5  C   UNL     1      -1.218  61.206 -10.079  1.00  0.00     0.051 A 
ATOM      6  C   UNL     1      -1.219  62.603  -9.978  1.00  0.00     0.157 A 
ENDROOT
BRANCH   1   7
ATOM      7  C   UNL     1      -3.553  60.699 -13.050  1.00  0.00     0.010 C 
ATOM      8  C   UNL     1      -4.847  60.975 -13.267  1.00  0.00     0.025 C 
BRANCH   8   9
ATOM      9  C   UNL     1      -5.613  60.343 -14.353  1.00  0.00     0.064 C 
ATOM     10  O   UNL     1      -5.039  59.886 -15.377  1.00  0.00    -0.545 OA
ATOM     11  O   UNL     1      -6.995  60.248 -14.247  1.00  0.00    -0.545 OA
ENDBRANCH   8   9
ENDBRANCH   1   7
BRANCH   4  12
ATOM     12  O   UNL     1      -1.968  64.755 -10.779  1.00  0.00    -0.504 OA
ATOM     13  H   UNL     1      -2.301  65.341 -11.536  1.00  0.00     0.293 HD
ENDBRANCH   4  12
BRANCH   6  14
ATOM     14  O   UNL     1      -0.471  63.240  -8.990  1.00  0.00    -0.504 OA
ATOM     15  H   UNL     1       0.483  62.966  -8.788  1.00  0.00     0.293 HD
ENDBRANCH   6  14
TORSDOF 4
ENDMDL
MODEL 9
REMARK VINA RESULT:    -5.383     10.340     11.514
REMARK INTER + INTRA:          -6.456
REMARK INTER:                  -6.320
REMARK INTRA:                  -0.136
REMARK UNBOUND:                -0.129
REMARK SMILES O=C([O-])C=Cc1ccc(O)c(O)c1
REMARK SMILES IDX 6 1 13 2 7 3 11 4 8 5 9 6 5 7 4 8 2 9 1 10 3 11 12 12 10 14
REMARK H PARENT 12 13 10 15
REMARK Flexibility Score: inf
ROOT
ATOM      1  C   UNL     1      -2.470  68.064 -20.509  1.00  0.00    -0.022 A 
ATOM      2  C   UNL     1      -1.446  69.026 -20.519  1.00  0.00     0.058 A 
ATOM      3  C   UNL     1      -2.167  66.745 -20.897  1.00  0.00     0.012 A 
ATOM      4  C   UNL     1      -0.138  68.676 -20.884  1.00  0.00     0.157 A 
ATOM      5  C   UNL     1      -0.863  66.396 -21.261  1.00  0.00     0.051 A 
ATOM      6  C   UNL     1       0.155  67.358 -21.253  1.00  0.00     0.157 A 
ENDROOT
BRANCH   1   7
ATOM      7  C   UNL     1      -3.840  68.490 -20.126  1.00  0.00     0.010 C 
ATOM      8  C   UNL     1      -4.950  67.818 -20.463  1.00  0.00     0.025 C 
BRANCH   8   9
ATOM      9  C   UNL     1      -6.292  68.264 -20.055  1.00  0.00     0.064 C 
ATOM     10  O   UNL     1      -6.882  69.198 -20.661  1.00  0.00    -0.545 OA
ATOM     11  O   UNL     1      -6.920  67.644 -18.982  1.00  0.00    -0.545 OA
ENDBRANCH   8   9
ENDBRANCH   1   7
BRANCH   4  12
ATOM     12  O   UNL     1       0.876  69.633 -20.881  1.00  0.00    -0.504 OA
ATOM     13  H   UNL     1       1.665  69.571 -21.513  1.00  0.00     0.293 HD
ENDBRANCH   4  12
BRANCH   6  14
ATOM     14  O   UNL     1       1.456  67.013 -21.613  1.00  0.00    -0.504 OA
ATOM     15  H   UNL     1       1.646  66.222 -22.217  1.00  0.00     0.293 HD
ENDBRANCH   6  14
TORSDOF 4
ENDMDL
