MODEL 1
REMARK VINA RESULT:    -4.720      0.000      0.000
REMARK INTER + INTRA:          -9.423
REMARK INTER:                  -8.584
REMARK INTRA:                  -0.840
REMARK UNBOUND:                -0.840
REMARK SMILES CCCCCCCCCCCCCC[C@@H](C)C(=O)[O-]
REMARK SMILES IDX 9 1 10 2 11 3 12 4 13 5 14 6 15 7 16 8 17 9 18 10 19 11 8 12
REMARK SMILES IDX 7 13 6 14 5 15 4 16 3 17 2 18 1 19
REMARK H PARENT
REMARK Flexibility Score: inf
ROOT
ATOM      1  C   UNL     1      45.310  65.349  51.763  1.00  0.00     0.000 C 
ENDROOT
BRANCH   1   2
ATOM      2  C   UNL     1      45.551  65.863  50.332  1.00  0.00     0.000 C 
BRANCH   2   3
ATOM      3  C   UNL     1      44.366  66.622  49.702  1.00  0.00     0.000 C 
BRANCH   3   4
ATOM      4  C   UNL     1      44.180  66.402  48.189  1.00  0.00     0.000 C 
BRANCH   4   5
ATOM      5  C   UNL     1      43.155  67.362  47.568  1.00  0.00     0.001 C 
BRANCH   5   6
ATOM      6  C   UNL     1      41.720  66.871  47.819  1.00  0.00     0.009 C 
BRANCH   6   7
ATOM      7  C   UNL     1      41.063  66.280  46.554  1.00  0.00     0.032 C 
ATOM      8  C   UNL     1      41.573  66.945  45.267  1.00  0.00     0.014 C 
BRANCH   7   9
ATOM      9  C   UNL     1      41.322  64.800  46.492  1.00  0.00     0.044 C 
ATOM     10  O   UNL     1      40.497  63.990  46.991  1.00  0.00    -0.550 OA
ATOM     11  O   UNL     1      42.474  64.315  45.884  1.00  0.00    -0.550 OA
ENDBRANCH   7   9
ENDBRANCH   6   7
ENDBRANCH   5   6
ENDBRANCH   4   5
ENDBRANCH   3   4
ENDBRANCH   2   3
ENDBRANCH   1   2
BRANCH   1  12
ATOM     12  C   UNL     1      44.073  65.977  52.421  1.00  0.00     0.000 C 
BRANCH  12  13
ATOM     13  C   UNL     1      43.564  65.107  53.577  1.00  0.00    -0.000 C 
BRANCH  13  14
ATOM     14  C   UNL     1      42.163  65.543  54.020  1.00  0.00    -0.000 C 
BRANCH  14  15
ATOM     15  C   UNL     1      41.975  65.343  55.529  1.00  0.00    -0.000 C 
BRANCH  15  16
ATOM     16  C   UNL     1      43.256  64.795  56.174  1.00  0.00    -0.000 C 
BRANCH  16  17
ATOM     17  C   UNL     1      42.971  63.923  57.407  1.00  0.00    -0.000 C 
BRANCH  17  18
ATOM     18  C   UNL     1      43.914  62.715  57.508  1.00  0.00    -0.003 C 
ATOM     19  C   UNL     1      45.363  63.162  57.673  1.00  0.00     0.004 C 
ENDBRANCH  17  18
ENDBRANCH  16  17
ENDBRANCH  15  16
ENDBRANCH  14  15
ENDBRANCH  13  14
ENDBRANCH  12  13
ENDBRANCH   1  12
TORSDOF 14
ENDMDL
MODEL 2
REMARK VINA RESULT:    -4.524      2.094      3.218
REMARK INTER + INTRA:          -9.066
REMARK INTER:                  -8.287
REMARK INTRA:                  -0.780
REMARK UNBOUND:                -0.840
REMARK SMILES CCCCCCCCCCCCCC[C@@H](C)C(=O)[O-]
REMARK SMILES IDX 9 1 10 2 11 3 12 4 13 5 14 6 15 7 16 8 17 9 18 10 19 11 8 12
REMARK SMILES IDX 7 13 6 14 5 15 4 16 3 17 2 18 1 19
REMARK H PARENT
REMARK Flexibility Score: inf
ROOT
ATOM      1  C   UNL     1      44.849  65.159  51.929  1.00  0.00     0.000 C 
ENDROOT
BRANCH   1   2
ATOM      2  C   UNL     1      45.383  65.981  50.741  1.00  0.00     0.000 C 
BRANCH   2   3
ATOM      3  C   UNL     1      44.729  67.364  50.557  1.00  0.00     0.000 C 
BRANCH   3   4
ATOM      4  C   UNL     1      43.798  67.489  49.336  1.00  0.00     0.000 C 
BRANCH   4   5
ATOM      5  C   UNL     1      44.186  66.542  48.190  1.00  0.00     0.001 C 
BRANCH   5   6
ATOM      6  C   UNL     1      43.183  66.645  47.031  1.00  0.00     0.009 C 
BRANCH   6   7
ATOM      7  C   UNL     1      41.869  65.885  47.309  1.00  0.00     0.032 C 
ATOM      8  C   UNL     1      40.628  66.743  47.029  1.00  0.00     0.014 C 
BRANCH   7   9
ATOM      9  C   UNL     1      41.817  64.638  46.470  1.00  0.00     0.044 C 
ATOM     10  O   UNL     1      40.799  63.897  46.497  1.00  0.00    -0.550 OA
ATOM     11  O   UNL     1      42.892  64.292  45.659  1.00  0.00    -0.550 OA
ENDBRANCH   7   9
ENDBRANCH   6   7
ENDBRANCH   5   6
ENDBRANCH   4   5
ENDBRANCH   3   4
ENDBRANCH   2   3
ENDBRANCH   1   2
BRANCH   1  12
ATOM     12  C   UNL     1      43.933  65.975  52.853  1.00  0.00     0.000 C 
BRANCH  12  13
ATOM     13  C   UNL     1      43.238  65.068  53.876  1.00  0.00    -0.000 C 
BRANCH  13  14
ATOM     14  C   UNL     1      41.920  65.687  54.356  1.00  0.00    -0.000 C 
BRANCH  14  15
ATOM     15  C   UNL     1      40.730  64.782  54.014  1.00  0.00    -0.000 C 
BRANCH  15  16
ATOM     16  C   UNL     1      39.963  64.380  55.282  1.00  0.00    -0.000 C 
BRANCH  16  17
ATOM     17  C   UNL     1      38.583  65.050  55.377  1.00  0.00    -0.000 C 
BRANCH  17  18
ATOM     18  C   UNL     1      37.462  64.053  55.702  1.00  0.00    -0.003 C 
ATOM     19  C   UNL     1      36.195  64.375  54.916  1.00  0.00     0.004 C 
ENDBRANCH  17  18
ENDBRANCH  16  17
ENDBRANCH  15  16
ENDBRANCH  14  15
ENDBRANCH  13  14
ENDBRANCH  12  13
ENDBRANCH   1  12
TORSDOF 14
ENDMDL
MODEL 3
REMARK VINA RESULT:    -4.507      1.228      2.363
REMARK INTER + INTRA:          -9.036
REMARK INTER:                  -7.491
REMARK INTRA:                  -1.545
REMARK UNBOUND:                -0.840
REMARK SMILES CCCCCCCCCCCCCC[C@@H](C)C(=O)[O-]
REMARK SMILES IDX 9 1 10 2 11 3 12 4 13 5 14 6 15 7 16 8 17 9 18 10 19 11 8 12
REMARK SMILES IDX 7 13 6 14 5 15 4 16 3 17 2 18 1 19
REMARK H PARENT
REMARK Flexibility Score: inf
ROOT
ATOM      1  C   UNL     1      44.626  66.157  49.464  1.00  0.00     0.000 C 
ENDROOT
BRANCH   1   2
ATOM      2  C   UNL     1      43.788  67.326  48.915  1.00  0.00     0.000 C 
BRANCH   2   3
ATOM      3  C   UNL     1      43.006  68.125  49.976  1.00  0.00     0.000 C 
BRANCH   3   4
ATOM      4  C   UNL     1      41.570  67.633  50.237  1.00  0.00     0.000 C 
BRANCH   4   5
ATOM      5  C   UNL     1      40.641  67.834  49.030  1.00  0.00     0.001 C 
BRANCH   5   6
ATOM      6  C   UNL     1      40.300  66.489  48.370  1.00  0.00     0.009 C 
BRANCH   6   7
ATOM      7  C   UNL     1      40.557  66.490  46.848  1.00  0.00     0.032 C 
ATOM      8  C   UNL     1      41.237  67.781  46.372  1.00  0.00     0.014 C 
BRANCH   7   9
ATOM      9  C   UNL     1      41.409  65.307  46.477  1.00  0.00     0.044 C 
ATOM     10  O   UNL     1      42.616  65.471  46.160  1.00  0.00    -0.550 OA
ATOM     11  O   UNL     1      40.870  64.026  46.482  1.00  0.00    -0.550 OA
ENDBRANCH   7   9
ENDBRANCH   6   7
ENDBRANCH   5   6
ENDBRANCH   4   5
ENDBRANCH   3   4
ENDBRANCH   2   3
ENDBRANCH   1   2
BRANCH   1  12
ATOM     12  C   UNL     1      45.069  66.374  50.919  1.00  0.00     0.000 C 
BRANCH  12  13
ATOM     13  C   UNL     1      45.311  65.033  51.624  1.00  0.00    -0.000 C 
BRANCH  13  14
ATOM     14  C   UNL     1      44.365  64.860  52.818  1.00  0.00    -0.000 C 
BRANCH  14  15
ATOM     15  C   UNL     1      43.501  66.111  53.022  1.00  0.00    -0.000 C 
BRANCH  15  16
ATOM     16  C   UNL     1      42.575  65.946  54.236  1.00  0.00    -0.000 C 
BRANCH  16  17
ATOM     17  C   UNL     1      43.130  64.956  55.273  1.00  0.00    -0.000 C 
BRANCH  17  18
ATOM     18  C   UNL     1      42.711  65.307  56.708  1.00  0.00    -0.003 C 
ATOM     19  C   UNL     1      43.487  64.475  57.725  1.00  0.00     0.004 C 
ENDBRANCH  17  18
ENDBRANCH  16  17
ENDBRANCH  15  16
ENDBRANCH  14  15
ENDBRANCH  13  14
ENDBRANCH  12  13
ENDBRANCH   1  12
TORSDOF 14
ENDMDL
MODEL 4
REMARK VINA RESULT:    -4.437      1.243      2.856
REMARK INTER + INTRA:          -8.908
REMARK INTER:                  -7.401
REMARK INTRA:                  -1.507
REMARK UNBOUND:                -0.840
REMARK SMILES CCCCCCCCCCCCCC[C@@H](C)C(=O)[O-]
REMARK SMILES IDX 9 1 10 2 11 3 12 4 13 5 14 6 15 7 16 8 17 9 18 10 19 11 8 12
REMARK SMILES IDX 7 13 6 14 5 15 4 16 3 17 2 18 1 19
REMARK H PARENT
REMARK Flexibility Score: inf
ROOT
ATOM      1  C   UNL     1      44.060  66.618  48.604  1.00  0.00     0.000 C 
ENDROOT
BRANCH   1   2
ATOM      2  C   UNL     1      43.027  67.732  48.359  1.00  0.00     0.000 C 
BRANCH   2   3
ATOM      3  C   UNL     1      41.564  67.257  48.258  1.00  0.00     0.000 C 
BRANCH   3   4
ATOM      4  C   UNL     1      40.759  67.864  47.094  1.00  0.00     0.000 C 
BRANCH   4   5
ATOM      5  C   UNL     1      41.560  67.934  45.786  1.00  0.00     0.001 C 
BRANCH   5   6
ATOM      6  C   UNL     1      41.367  66.656  44.955  1.00  0.00     0.009 C 
BRANCH   6   7
ATOM      7  C   UNL     1      42.693  65.913  44.688  1.00  0.00     0.032 C 
ATOM      8  C   UNL     1      43.915  66.831  44.830  1.00  0.00     0.014 C 
BRANCH   7   9
ATOM      9  C   UNL     1      42.824  64.752  45.635  1.00  0.00     0.044 C 
ATOM     10  O   UNL     1      41.805  64.285  46.210  1.00  0.00    -0.550 OA
ATOM     11  O   UNL     1      44.069  64.187  45.884  1.00  0.00    -0.550 OA
ENDBRANCH   7   9
ENDBRANCH   6   7
ENDBRANCH   5   6
ENDBRANCH   4   5
ENDBRANCH   3   4
ENDBRANCH   2   3
ENDBRANCH   1   2
BRANCH   1  12
ATOM     12  C   UNL     1      44.506  66.532  50.072  1.00  0.00     0.000 C 
BRANCH  12  13
ATOM     13  C   UNL     1      44.199  67.838  50.815  1.00  0.00    -0.000 C 
BRANCH  13  14
ATOM     14  C   UNL     1      43.483  67.561  52.142  1.00  0.00    -0.000 C 
BRANCH  14  15
ATOM     15  C   UNL     1      44.010  66.277  52.794  1.00  0.00    -0.000 C 
BRANCH  15  16
ATOM     16  C   UNL     1      42.944  65.645  53.702  1.00  0.00    -0.000 C 
BRANCH  16  17
ATOM     17  C   UNL     1      43.426  64.343  54.364  1.00  0.00    -0.000 C 
BRANCH  17  18
ATOM     18  C   UNL     1      43.405  64.417  55.897  1.00  0.00    -0.003 C 
ATOM     19  C   UNL     1      44.211  63.278  56.513  1.00  0.00     0.004 C 
ENDBRANCH  17  18
ENDBRANCH  16  17
ENDBRANCH  15  16
ENDBRANCH  14  15
ENDBRANCH  13  14
ENDBRANCH  12  13
ENDBRANCH   1  12
TORSDOF 14
ENDMDL
MODEL 5
REMARK VINA RESULT:    -4.403      1.439      2.256
REMARK INTER + INTRA:          -8.846
REMARK INTER:                  -7.595
REMARK INTRA:                  -1.252
REMARK UNBOUND:                -0.840
REMARK SMILES CCCCCCCCCCCCCC[C@@H](C)C(=O)[O-]
REMARK SMILES IDX 9 1 10 2 11 3 12 4 13 5 14 6 15 7 16 8 17 9 18 10 19 11 8 12
REMARK SMILES IDX 7 13 6 14 5 15 4 16 3 17 2 18 1 19
REMARK H PARENT
REMARK Flexibility Score: inf
ROOT
ATOM      1  C   UNL     1      44.527  65.512  52.112  1.00  0.00     0.000 C 
ENDROOT
BRANCH   1   2
ATOM      2  C   UNL     1      45.110  66.157  50.842  1.00  0.00     0.000 C 
BRANCH   2   3
ATOM      3  C   UNL     1      44.413  67.455  50.388  1.00  0.00     0.000 C 
BRANCH   3   4
ATOM      4  C   UNL     1      43.489  67.306  49.165  1.00  0.00     0.000 C 
BRANCH   4   5
ATOM      5  C   UNL     1      44.000  66.271  48.152  1.00  0.00     0.001 C 
BRANCH   5   6
ATOM      6  C   UNL     1      43.853  66.792  46.714  1.00  0.00     0.009 C 
BRANCH   6   7
ATOM      7  C   UNL     1      43.087  65.812  45.800  1.00  0.00     0.032 C 
ATOM      8  C   UNL     1      43.792  64.454  45.683  1.00  0.00     0.014 C 
BRANCH   7   9
ATOM      9  C   UNL     1      41.693  65.612  46.327  1.00  0.00     0.044 C 
ATOM     10  O   UNL     1      40.906  66.590  46.424  1.00  0.00    -0.550 OA
ATOM     11  O   UNL     1      41.263  64.348  46.712  1.00  0.00    -0.550 OA
ENDBRANCH   7   9
ENDBRANCH   6   7
ENDBRANCH   5   6
ENDBRANCH   4   5
ENDBRANCH   3   4
ENDBRANCH   2   3
ENDBRANCH   1   2
BRANCH   1  12
ATOM     12  C   UNL     1      43.485  66.401  52.806  1.00  0.00     0.000 C 
BRANCH  12  13
ATOM     13  C   UNL     1      42.913  65.708  54.049  1.00  0.00    -0.000 C 
BRANCH  13  14
ATOM     14  C   UNL     1      43.575  64.343  54.272  1.00  0.00    -0.000 C 
BRANCH  14  15
ATOM     15  C   UNL     1      43.591  63.975  55.760  1.00  0.00    -0.000 C 
BRANCH  15  16
ATOM     16  C   UNL     1      43.076  65.139  56.620  1.00  0.00    -0.000 C 
BRANCH  16  17
ATOM     17  C   UNL     1      42.107  64.677  57.721  1.00  0.00    -0.000 C 
BRANCH  17  18
ATOM     18  C   UNL     1      40.794  64.116  57.156  1.00  0.00    -0.003 C 
ATOM     19  C   UNL     1      40.031  65.182  56.377  1.00  0.00     0.004 C 
ENDBRANCH  17  18
ENDBRANCH  16  17
ENDBRANCH  15  16
ENDBRANCH  14  15
ENDBRANCH  13  14
ENDBRANCH  12  13
ENDBRANCH   1  12
TORSDOF 14
ENDMDL
MODEL 6
REMARK VINA RESULT:    -4.368      3.430      8.159
REMARK INTER + INTRA:          -8.782
REMARK INTER:                  -7.514
REMARK INTRA:                  -1.268
REMARK UNBOUND:                -0.840
REMARK SMILES CCCCCCCCCCCCCC[C@@H](C)C(=O)[O-]
REMARK SMILES IDX 9 1 10 2 11 3 12 4 13 5 14 6 15 7 16 8 17 9 18 10 19 11 8 12
REMARK SMILES IDX 7 13 6 14 5 15 4 16 3 17 2 18 1 19
REMARK H PARENT
REMARK Flexibility Score: inf
ROOT
ATOM      1  C   UNL     1      44.071  67.536  49.536  1.00  0.00     0.000 C 
ENDROOT
BRANCH   1   2
ATOM      2  C   UNL     1      44.851  66.317  50.062  1.00  0.00     0.000 C 
BRANCH   2   3
ATOM      3  C   UNL     1      44.810  66.125  51.591  1.00  0.00     0.000 C 
BRANCH   3   4
ATOM      4  C   UNL     1      44.277  67.330  52.387  1.00  0.00     0.000 C 
BRANCH   4   5
ATOM      5  C   UNL     1      42.927  67.048  53.064  1.00  0.00     0.001 C 
BRANCH   5   6
ATOM      6  C   UNL     1      42.902  65.637  53.672  1.00  0.00     0.009 C 
BRANCH   6   7
ATOM      7  C   UNL     1      41.967  65.532  54.895  1.00  0.00     0.032 C 
ATOM      8  C   UNL     1      40.657  64.802  54.566  1.00  0.00     0.014 C 
BRANCH   7   9
ATOM      9  C   UNL     1      42.674  64.816  56.013  1.00  0.00     0.044 C 
ATOM     10  O   UNL     1      43.666  64.079  55.767  1.00  0.00    -0.550 OA
ATOM     11  O   UNL     1      42.239  64.961  57.325  1.00  0.00    -0.550 OA
ENDBRANCH   7   9
ENDBRANCH   6   7
ENDBRANCH   5   6
ENDBRANCH   4   5
ENDBRANCH   3   4
ENDBRANCH   2   3
ENDBRANCH   1   2
BRANCH   1  12
ATOM     12  C   UNL     1      43.965  67.559  48.004  1.00  0.00     0.000 C 
BRANCH  12  13
ATOM     13  C   UNL     1      44.231  66.168  47.414  1.00  0.00    -0.000 C 
BRANCH  13  14
ATOM     14  C   UNL     1      43.477  65.976  46.093  1.00  0.00    -0.000 C 
BRANCH  14  15
ATOM     15  C   UNL     1      42.845  64.581  46.017  1.00  0.00    -0.000 C 
BRANCH  15  16
ATOM     16  C   UNL     1      41.354  64.633  46.384  1.00  0.00    -0.000 C 
BRANCH  16  17
ATOM     17  C   UNL     1      40.848  66.069  46.601  1.00  0.00    -0.000 C 
BRANCH  17  18
ATOM     18  C   UNL     1      39.981  66.206  47.860  1.00  0.00    -0.003 C 
ATOM     19  C   UNL     1      40.363  67.450  48.657  1.00  0.00     0.004 C 
ENDBRANCH  17  18
ENDBRANCH  16  17
ENDBRANCH  15  16
ENDBRANCH  14  15
ENDBRANCH  13  14
ENDBRANCH  12  13
ENDBRANCH   1  12
TORSDOF 14
ENDMDL
MODEL 7
REMARK VINA RESULT:    -4.360      3.649      8.140
REMARK INTER + INTRA:          -8.768
REMARK INTER:                  -7.476
REMARK INTRA:                  -1.292
REMARK UNBOUND:                -0.840
REMARK SMILES CCCCCCCCCCCCCC[C@@H](C)C(=O)[O-]
REMARK SMILES IDX 9 1 10 2 11 3 12 4 13 5 14 6 15 7 16 8 17 9 18 10 19 11 8 12
REMARK SMILES IDX 7 13 6 14 5 15 4 16 3 17 2 18 1 19
REMARK H PARENT
REMARK Flexibility Score: inf
ROOT
ATOM      1  C   UNL     1      44.350  66.300  49.065  1.00  0.00     0.000 C 
ENDROOT
BRANCH   1   2
ATOM      2  C   UNL     1      45.429  65.918  50.095  1.00  0.00     0.000 C 
BRANCH   2   3
ATOM      3  C   UNL     1      45.149  66.382  51.538  1.00  0.00     0.000 C 
BRANCH   3   4
ATOM      4  C   UNL     1      44.431  65.351  52.429  1.00  0.00     0.000 C 
BRANCH   4   5
ATOM      5  C   UNL     1      43.384  65.988  53.355  1.00  0.00     0.001 C 
BRANCH   5   6
ATOM      6  C   UNL     1      42.508  64.911  54.015  1.00  0.00     0.009 C 
BRANCH   6   7
ATOM      7  C   UNL     1      41.695  65.454  55.209  1.00  0.00     0.032 C 
ATOM      8  C   UNL     1      40.278  64.866  55.265  1.00  0.00     0.014 C 
BRANCH   7   9
ATOM      9  C   UNL     1      42.416  65.150  56.494  1.00  0.00     0.044 C 
ATOM     10  O   UNL     1      43.584  64.682  56.469  1.00  0.00    -0.550 OA
ATOM     11  O   UNL     1      41.798  65.384  57.717  1.00  0.00    -0.550 OA
ENDBRANCH   7   9
ENDBRANCH   6   7
ENDBRANCH   5   6
ENDBRANCH   4   5
ENDBRANCH   3   4
ENDBRANCH   2   3
ENDBRANCH   1   2
BRANCH   1  12
ATOM     12  C   UNL     1      43.852  67.743  49.233  1.00  0.00     0.000 C 
BRANCH  12  13
ATOM     13  C   UNL     1      42.354  67.771  49.563  1.00  0.00    -0.000 C 
BRANCH  13  14
ATOM     14  C   UNL     1      41.523  68.111  48.320  1.00  0.00    -0.000 C 
BRANCH  14  15
ATOM     15  C   UNL     1      40.107  67.532  48.429  1.00  0.00    -0.000 C 
BRANCH  15  16
ATOM     16  C   UNL     1      40.020  66.163  47.738  1.00  0.00    -0.000 C 
BRANCH  16  17
ATOM     17  C   UNL     1      40.993  66.034  46.555  1.00  0.00    -0.000 C 
BRANCH  17  18
ATOM     18  C   UNL     1      41.681  64.661  46.502  1.00  0.00    -0.003 C 
ATOM     19  C   UNL     1      43.055  64.761  45.848  1.00  0.00     0.004 C 
ENDBRANCH  17  18
ENDBRANCH  16  17
ENDBRANCH  15  16
ENDBRANCH  14  15
ENDBRANCH  13  14
ENDBRANCH  12  13
ENDBRANCH   1  12
TORSDOF 14
ENDMDL
MODEL 8
REMARK VINA RESULT:    -4.356      2.941      8.349
REMARK INTER + INTRA:          -8.761
REMARK INTER:                  -7.585
REMARK INTRA:                  -1.176
REMARK UNBOUND:                -0.840
REMARK SMILES CCCCCCCCCCCCCC[C@@H](C)C(=O)[O-]
REMARK SMILES IDX 9 1 10 2 11 3 12 4 13 5 14 6 15 7 16 8 17 9 18 10 19 11 8 12
REMARK SMILES IDX 7 13 6 14 5 15 4 16 3 17 2 18 1 19
REMARK H PARENT
REMARK Flexibility Score: inf
ROOT
ATOM      1  C   UNL     1      43.963  66.377  52.423  1.00  0.00     0.000 C 
ENDROOT
BRANCH   1   2
ATOM      2  C   UNL     1      43.259  65.818  53.672  1.00  0.00     0.000 C 
BRANCH   2   3
ATOM      3  C   UNL     1      43.589  64.351  54.008  1.00  0.00     0.000 C 
BRANCH   3   4
ATOM      4  C   UNL     1      43.686  64.030  55.512  1.00  0.00     0.000 C 
BRANCH   4   5
ATOM      5  C   UNL     1      42.975  65.070  56.391  1.00  0.00     0.001 C 
BRANCH   5   6
ATOM      6  C   UNL     1      41.662  64.505  56.955  1.00  0.00     0.009 C 
BRANCH   6   7
ATOM      7  C   UNL     1      40.483  65.493  56.824  1.00  0.00     0.032 C 
ATOM      8  C   UNL     1      40.954  66.927  56.543  1.00  0.00     0.014 C 
BRANCH   7   9
ATOM      9  C   UNL     1      39.563  65.042  55.724  1.00  0.00     0.044 C 
ATOM     10  O   UNL     1      38.315  65.071  55.889  1.00  0.00    -0.550 OA
ATOM     11  O   UNL     1      40.082  64.588  54.517  1.00  0.00    -0.550 OA
ENDBRANCH   7   9
ENDBRANCH   6   7
ENDBRANCH   5   6
ENDBRANCH   4   5
ENDBRANCH   3   4
ENDBRANCH   2   3
ENDBRANCH   1   2
BRANCH   1  12
ATOM     12  C   UNL     1      45.104  65.474  51.929  1.00  0.00     0.000 C 
BRANCH  12  13
ATOM     13  C   UNL     1      45.450  65.777  50.466  1.00  0.00    -0.000 C 
BRANCH  13  14
ATOM     14  C   UNL     1      44.363  66.638  49.810  1.00  0.00    -0.000 C 
BRANCH  14  15
ATOM     15  C   UNL     1      44.343  66.436  48.290  1.00  0.00    -0.000 C 
BRANCH  15  16
ATOM     16  C   UNL     1      43.234  67.276  47.639  1.00  0.00    -0.000 C 
BRANCH  16  17
ATOM     17  C   UNL     1      41.926  66.490  47.457  1.00  0.00    -0.000 C 
BRANCH  17  18
ATOM     18  C   UNL     1      42.043  65.386  46.396  1.00  0.00    -0.003 C 
ATOM     19  C   UNL     1      40.983  64.309  46.605  1.00  0.00     0.004 C 
ENDBRANCH  17  18
ENDBRANCH  16  17
ENDBRANCH  15  16
ENDBRANCH  14  15
ENDBRANCH  13  14
ENDBRANCH  12  13
ENDBRANCH   1  12
TORSDOF 14
ENDMDL
MODEL 9
REMARK VINA RESULT:    -4.281     10.084     13.358
REMARK INTER + INTRA:          -8.625
REMARK INTER:                  -7.863
REMARK INTRA:                  -0.762
REMARK UNBOUND:                -0.840
REMARK SMILES CCCCCCCCCCCCCC[C@@H](C)C(=O)[O-]
REMARK SMILES IDX 9 1 10 2 11 3 12 4 13 5 14 6 15 7 16 8 17 9 18 10 19 11 8 12
REMARK SMILES IDX 7 13 6 14 5 15 4 16 3 17 2 18 1 19
REMARK H PARENT
REMARK Flexibility Score: inf
ROOT
ATOM      1  C   UNL     1      37.041  59.567  55.493  1.00  0.00     0.000 C 
ENDROOT
BRANCH   1   2
ATOM      2  C   UNL     1      37.290  58.061  55.690  1.00  0.00     0.000 C 
BRANCH   2   3
ATOM      3  C   UNL     1      37.833  57.664  57.078  1.00  0.00     0.000 C 
BRANCH   3   4
ATOM      4  C   UNL     1      37.195  56.405  57.694  1.00  0.00     0.000 C 
BRANCH   4   5
ATOM      5  C   UNL     1      36.847  55.338  56.645  1.00  0.00     0.001 C 
BRANCH   5   6
ATOM      6  C   UNL     1      35.497  54.676  56.963  1.00  0.00     0.009 C 
BRANCH   6   7
ATOM      7  C   UNL     1      35.339  53.293  56.296  1.00  0.00     0.032 C 
ATOM      8  C   UNL     1      35.328  52.150  57.321  1.00  0.00     0.014 C 
BRANCH   7   9
ATOM      9  C   UNL     1      34.069  53.260  55.492  1.00  0.00     0.044 C 
ATOM     10  O   UNL     1      33.145  54.081  55.733  1.00  0.00    -0.550 OA
ATOM     11  O   UNL     1      33.904  52.323  54.478  1.00  0.00    -0.550 OA
ENDBRANCH   7   9
ENDBRANCH   6   7
ENDBRANCH   5   6
ENDBRANCH   4   5
ENDBRANCH   3   4
ENDBRANCH   2   3
ENDBRANCH   1   2
BRANCH   1  12
ATOM     12  C   UNL     1      36.101  60.159  56.554  1.00  0.00     0.000 C 
BRANCH  12  13
ATOM     13  C   UNL     1      36.659  61.475  57.109  1.00  0.00    -0.000 C 
BRANCH  13  14
ATOM     14  C   UNL     1      37.251  62.338  55.988  1.00  0.00    -0.000 C 
BRANCH  14  15
ATOM     15  C   UNL     1      36.154  63.120  55.257  1.00  0.00    -0.000 C 
BRANCH  15  16
ATOM     16  C   UNL     1      35.810  64.415  56.008  1.00  0.00    -0.000 C 
BRANCH  16  17
ATOM     17  C   UNL     1      35.170  65.475  55.096  1.00  0.00    -0.000 C 
BRANCH  17  18
ATOM     18  C   UNL     1      34.086  66.294  55.812  1.00  0.00    -0.003 C 
ATOM     19  C   UNL     1      32.740  66.158  55.108  1.00  0.00     0.004 C 
ENDBRANCH  17  18
ENDBRANCH  16  17
ENDBRANCH  15  16
ENDBRANCH  14  15
ENDBRANCH  13  14
ENDBRANCH  12  13
ENDBRANCH   1  12
TORSDOF 14
ENDMDL
