MODEL 1
REMARK VINA RESULT:     4.819      0.000      0.000
REMARK INTER + INTRA:           5.533
REMARK INTER:                   5.806
REMARK INTRA:                  -0.272
REMARK UNBOUND:                -0.272
REMARK SMILES O=c1c(O)c(-c2ccc(O)cc2O)oc2cc(O)cc(O)c12
REMARK SMILES IDX 5 1 3 2 2 3 1 4 22 5 20 6 19 7 17 8 16 9 15 10 14 11 6 12
REMARK SMILES IDX 8 13 7 14 9 15 11 16 12 17 10 18 13 20 4 22 21 24 18 26
REMARK H PARENT 10 19 13 21 4 23 21 25 18 27
REMARK Flexibility Score: inf
ROOT
ATOM      1  C   UNL     1     160.653 146.023 172.319  1.00  0.00     0.184 A 
ATOM      2  C   UNL     1     160.627 145.227 171.164  1.00  0.00     0.208 A 
ATOM      3  C   UNL     1     160.278 145.815 169.939  1.00  0.00     0.238 A 
ATOM      4  O   UNL     1     160.309 145.109 168.898  1.00  0.00    -0.285 OA
ATOM      5  C   UNL     1     159.944 147.191 169.890  1.00  0.00     0.111 A 
ATOM      6  C   UNL     1     159.535 147.883 168.710  1.00  0.00     0.134 A 
ATOM      7  C   UNL     1     159.355 149.271 168.753  1.00  0.00     0.093 A 
ATOM      8  C   UNL     1     159.503 149.982 169.947  1.00  0.00     0.123 A 
ATOM      9  C   UNL     1     159.843 149.306 171.116  1.00  0.00     0.094 A 
ATOM     10  C   UNL     1     160.066 147.927 171.098  1.00  0.00     0.146 A 
ATOM     11  O   UNL     1     160.399 147.323 172.232  1.00  0.00    -0.451 OA
ENDROOT
BRANCH   1  12
ATOM     12  C   UNL     1     160.996 145.462 173.643  1.00  0.00     0.063 A 
ATOM     13  C   UNL     1     162.478 145.441 175.570  1.00  0.00     0.047 A 
ATOM     14  C   UNL     1     162.129 145.946 174.315  1.00  0.00     0.020 A 
ATOM     15  C   UNL     1     161.693 144.457 176.176  1.00  0.00     0.119 A 
ATOM     16  C   UNL     1     160.547 143.984 175.524  1.00  0.00     0.093 A 
ATOM     17  C   UNL     1     160.185 144.489 174.267  1.00  0.00     0.130 A 
BRANCH  15  18
ATOM     18  O   UNL     1     162.056 143.960 177.425  1.00  0.00    -0.508 OA
ATOM     19  H   UNL     1     162.719 144.447 178.017  1.00  0.00     0.293 HD
ENDBRANCH  15  18
BRANCH  17  20
ATOM     20  O   UNL     1     159.016 144.045 173.650  1.00  0.00    -0.507 OA
ATOM     21  H   UNL     1     158.669 143.103 173.783  1.00  0.00     0.293 HD
ENDBRANCH  17  20
ENDBRANCH   1  12
BRANCH   2  22
ATOM     22  O   UNL     1     160.979 143.876 171.239  1.00  0.00    -0.502 OA
ATOM     23  H   UNL     1     160.543 143.237 171.893  1.00  0.00     0.293 HD
ENDBRANCH   2  22
BRANCH   6  24
ATOM     24  O   UNL     1     159.271 147.256 167.489  1.00  0.00    -0.507 OA
ATOM     25  H   UNL     1     158.467 146.676 167.303  1.00  0.00     0.293 HD
ENDBRANCH   6  24
BRANCH   8  26
ATOM     26  O   UNL     1     159.305 151.361 169.983  1.00  0.00    -0.508 OA
ATOM     27  H   UNL     1     159.898 151.966 170.539  1.00  0.00     0.293 HD
ENDBRANCH   8  26
TORSDOF 6
ENDMDL
MODEL 2
REMARK VINA RESULT:     5.247      2.515      2.820
REMARK INTER + INTRA:           6.048
REMARK INTER:                   5.698
REMARK INTRA:                   0.350
REMARK UNBOUND:                -0.272
REMARK SMILES O=c1c(O)c(-c2ccc(O)cc2O)oc2cc(O)cc(O)c12
REMARK SMILES IDX 5 1 3 2 2 3 1 4 22 5 20 6 19 7 17 8 16 9 15 10 14 11 6 12
REMARK SMILES IDX 8 13 7 14 9 15 11 16 12 17 10 18 13 20 4 22 21 24 18 26
REMARK H PARENT 10 19 13 21 4 23 21 25 18 27
REMARK Flexibility Score: inf
ROOT
ATOM      1  C   UNL     1     160.926 145.202 172.435  1.00  0.00     0.184 A 
ATOM      2  C   UNL     1     161.809 145.435 171.369  1.00  0.00     0.208 A 
ATOM      3  C   UNL     1     161.300 145.491 170.063  1.00  0.00     0.238 A 
ATOM      4  O   UNL     1     162.087 145.754 169.117  1.00  0.00    -0.285 OA
ATOM      5  C   UNL     1     159.914 145.297 169.839  1.00  0.00     0.111 A 
ATOM      6  C   UNL     1     159.295 145.292 168.553  1.00  0.00     0.134 A 
ATOM      7  C   UNL     1     157.900 145.220 168.461  1.00  0.00     0.093 A 
ATOM      8  C   UNL     1     157.106 145.086 169.603  1.00  0.00     0.123 A 
ATOM      9  C   UNL     1     157.707 145.030 170.859  1.00  0.00     0.094 A 
ATOM     10  C   UNL     1     159.094 145.137 170.987  1.00  0.00     0.146 A 
ATOM     11  O   UNL     1     159.624 145.090 172.202  1.00  0.00    -0.451 OA
ENDROOT
BRANCH   1  12
ATOM     12  C   UNL     1     161.400 145.115 173.832  1.00  0.00     0.063 A 
ATOM     13  C   UNL     1     163.075 145.692 175.497  1.00  0.00     0.047 A 
ATOM     14  C   UNL     1     162.602 145.750 174.184  1.00  0.00     0.020 A 
ATOM     15  C   UNL     1     162.349 145.010 176.477  1.00  0.00     0.119 A 
ATOM     16  C   UNL     1     161.138 144.393 176.142  1.00  0.00     0.093 A 
ATOM     17  C   UNL     1     160.652 144.451 174.827  1.00  0.00     0.130 A 
BRANCH  15  18
ATOM     18  O   UNL     1     162.837 144.957 177.781  1.00  0.00    -0.508 OA
ATOM     19  H   UNL     1     163.315 145.746 178.201  1.00  0.00     0.293 HD
ENDBRANCH  15  18
BRANCH  17  20
ATOM     20  O   UNL     1     159.420 143.875 174.517  1.00  0.00    -0.507 OA
ATOM     21  H   UNL     1     158.873 144.187 173.723  1.00  0.00     0.293 HD
ENDBRANCH  17  20
ENDBRANCH   1  12
BRANCH   2  22
ATOM     22  O   UNL     1     163.169 145.642 171.621  1.00  0.00    -0.502 OA
ATOM     23  H   UNL     1     163.881 145.483 170.918  1.00  0.00     0.293 HD
ENDBRANCH   2  22
BRANCH   6  24
ATOM     24  O   UNL     1     159.999 145.329 167.347  1.00  0.00    -0.507 OA
ATOM     25  H   UNL     1     160.859 144.832 167.168  1.00  0.00     0.293 HD
ENDBRANCH   6  24
BRANCH   8  26
ATOM     26  O   UNL     1     155.720 145.000 169.500  1.00  0.00    -0.508 OA
ATOM     27  H   UNL     1     155.123 145.794 169.700  1.00  0.00     0.293 HD
ENDBRANCH   8  26
TORSDOF 6
ENDMDL
MODEL 3
REMARK VINA RESULT:     6.079      2.547      6.667
REMARK INTER + INTRA:           7.051
REMARK INTER:                   6.832
REMARK INTRA:                   0.219
REMARK UNBOUND:                -0.272
REMARK SMILES O=c1c(O)c(-c2ccc(O)cc2O)oc2cc(O)cc(O)c12
REMARK SMILES IDX 5 1 3 2 2 3 1 4 22 5 20 6 19 7 17 8 16 9 15 10 14 11 6 12
REMARK SMILES IDX 8 13 7 14 9 15 11 16 12 17 10 18 13 20 4 22 21 24 18 26
REMARK H PARENT 10 19 13 21 4 23 21 25 18 27
REMARK Flexibility Score: inf
ROOT
ATOM      1  C   UNL     1     160.594 145.125 172.275  1.00  0.00     0.184 A 
ATOM      2  C   UNL     1     159.773 144.490 173.220  1.00  0.00     0.208 A 
ATOM      3  C   UNL     1     160.212 144.396 174.550  1.00  0.00     0.238 A 
ATOM      4  O   UNL     1     159.449 143.875 175.404  1.00  0.00    -0.285 OA
ATOM      5  C   UNL     1     161.475 144.926 174.913  1.00  0.00     0.111 A 
ATOM      6  C   UNL     1     162.039 144.851 176.222  1.00  0.00     0.134 A 
ATOM      7  C   UNL     1     163.236 145.521 176.496  1.00  0.00     0.093 A 
ATOM      8  C   UNL     1     163.925 146.209 175.493  1.00  0.00     0.123 A 
ATOM      9  C   UNL     1     163.413 146.237 174.198  1.00  0.00     0.094 A 
ATOM     10  C   UNL     1     162.201 145.609 173.901  1.00  0.00     0.146 A 
ATOM     11  O   UNL     1     161.743 145.669 172.657  1.00  0.00    -0.451 OA
ENDROOT
BRANCH   1  12
ATOM     12  C   UNL     1     160.199 145.242 170.856  1.00  0.00     0.063 A 
ATOM     13  C   UNL     1     158.427 145.428 169.202  1.00  0.00     0.047 A 
ATOM     14  C   UNL     1     158.834 145.311 170.533  1.00  0.00     0.020 A 
ATOM     15  C   UNL     1     159.375 145.491 168.178  1.00  0.00     0.119 A 
ATOM     16  C   UNL     1     160.740 145.446 168.492  1.00  0.00     0.093 A 
ATOM     17  C   UNL     1     161.159 145.335 169.826  1.00  0.00     0.130 A 
BRANCH  15  18
ATOM     18  O   UNL     1     158.953 145.602 166.856  1.00  0.00    -0.508 OA
ATOM     19  H   UNL     1     159.178 146.416 166.294  1.00  0.00     0.293 HD
ENDBRANCH  15  18
BRANCH  17  20
ATOM     20  O   UNL     1     162.520 145.341 170.129  1.00  0.00    -0.507 OA
ATOM     21  H   UNL     1     163.147 146.036 169.743  1.00  0.00     0.293 HD
ENDBRANCH  17  20
ENDBRANCH   1  12
BRANCH   2  22
ATOM     22  O   UNL     1     158.523 143.994 172.838  1.00  0.00    -0.502 OA
ATOM     23  H   UNL     1     158.420 143.232 172.179  1.00  0.00     0.293 HD
ENDBRANCH   2  22
BRANCH   6  24
ATOM     24  O   UNL     1     161.480 144.115 177.271  1.00  0.00    -0.507 OA
ATOM     25  H   UNL     1     161.489 143.109 177.336  1.00  0.00     0.293 HD
ENDBRANCH   6  24
BRANCH   8  26
ATOM     26  O   UNL     1     165.124 146.860 175.772  1.00  0.00    -0.508 OA
ATOM     27  H   UNL     1     165.980 146.629 175.281  1.00  0.00     0.293 HD
ENDBRANCH   8  26
TORSDOF 6
ENDMDL
MODEL 4
REMARK VINA RESULT:     6.241      1.243      2.977
REMARK INTER + INTRA:           7.246
REMARK INTER:                   7.559
REMARK INTRA:                  -0.313
REMARK UNBOUND:                -0.272
REMARK SMILES O=c1c(O)c(-c2ccc(O)cc2O)oc2cc(O)cc(O)c12
REMARK SMILES IDX 5 1 3 2 2 3 1 4 22 5 20 6 19 7 17 8 16 9 15 10 14 11 6 12
REMARK SMILES IDX 8 13 7 14 9 15 11 16 12 17 10 18 13 20 4 22 21 24 18 26
REMARK H PARENT 10 19 13 21 4 23 21 25 18 27
REMARK Flexibility Score: inf
ROOT
ATOM      1  C   UNL     1     160.528 146.189 172.117  1.00  0.00     0.184 A 
ATOM      2  C   UNL     1     160.281 147.565 171.987  1.00  0.00     0.208 A 
ATOM      3  C   UNL     1     159.941 148.079 170.726  1.00  0.00     0.238 A 
ATOM      4  O   UNL     1     159.666 149.303 170.626  1.00  0.00    -0.285 OA
ATOM      5  C   UNL     1     159.868 147.211 169.609  1.00  0.00     0.111 A 
ATOM      6  C   UNL     1     159.573 147.630 168.276  1.00  0.00     0.134 A 
ATOM      7  C   UNL     1     159.400 146.668 167.274  1.00  0.00     0.093 A 
ATOM      8  C   UNL     1     159.579 145.308 167.540  1.00  0.00     0.123 A 
ATOM      9  C   UNL     1     159.926 144.895 168.824  1.00  0.00     0.094 A 
ATOM     10  C   UNL     1     160.069 145.827 169.855  1.00  0.00     0.146 A 
ATOM     11  O   UNL     1     160.390 145.390 171.066  1.00  0.00    -0.451 OA
ENDROOT
BRANCH   1  12
ATOM     12  C   UNL     1     160.908 145.587 173.412  1.00  0.00     0.063 A 
ATOM     13  C   UNL     1     162.435 145.517 175.302  1.00  0.00     0.047 A 
ATOM     14  C   UNL     1     162.052 146.061 174.074  1.00  0.00     0.020 A 
ATOM     15  C   UNL     1     161.675 144.504 175.891  1.00  0.00     0.119 A 
ATOM     16  C   UNL     1     160.519 144.040 175.250  1.00  0.00     0.093 A 
ATOM     17  C   UNL     1     160.124 144.583 174.020  1.00  0.00     0.130 A 
BRANCH  15  18
ATOM     18  O   UNL     1     162.073 143.969 177.114  1.00  0.00    -0.508 OA
ATOM     19  H   UNL     1     161.405 143.552 177.753  1.00  0.00     0.293 HD
ENDBRANCH  15  18
BRANCH  17  20
ATOM     20  O   UNL     1     158.945 144.147 173.415  1.00  0.00    -0.507 OA
ATOM     21  H   UNL     1     158.167 144.776 173.252  1.00  0.00     0.293 HD
ENDBRANCH  17  20
ENDBRANCH   1  12
BRANCH   2  22
ATOM     22  O   UNL     1     160.340 148.394 173.110  1.00  0.00    -0.502 OA
ATOM     23  H   UNL     1     160.050 148.084 174.030  1.00  0.00     0.293 HD
ENDBRANCH   2  22
BRANCH   6  24
ATOM     24  O   UNL     1     159.465 148.967 167.884  1.00  0.00    -0.507 OA
ATOM     25  H   UNL     1     160.207 149.504 167.463  1.00  0.00     0.293 HD
ENDBRANCH   6  24
BRANCH   8  26
ATOM     26  O   UNL     1     159.421 144.359 166.532  1.00  0.00    -0.508 OA
ATOM     27  H   UNL     1     160.174 143.735 166.269  1.00  0.00     0.293 HD
ENDBRANCH   8  26
TORSDOF 6
ENDMDL
