MODEL 1
REMARK VINA RESULT:    -1.153      0.000      0.000
REMARK INTER + INTRA:          -1.254
REMARK INTER:                  -1.220
REMARK INTRA:                  -0.034
REMARK UNBOUND:                -0.034
REMARK SMILES COc1ccc2ccc(=O)oc2c1
REMARK SMILES IDX 3 1 13 2 12 3 6 4 5 5 4 6 7 7 8 8 9 9 10 10 11 11 2 12 1 13
REMARK H PARENT
REMARK Flexibility Score: inf
ROOT
ATOM      1  C   UNL     1       2.676  -0.694   1.200  1.00  0.00     0.122 A 
ATOM      2  C   UNL     1       2.334  -1.079  -0.111  1.00  0.00     0.094 A 
ATOM      3  C   UNL     1       1.079  -1.637  -0.379  1.00  0.00     0.142 A 
ATOM      4  C   UNL     1       0.152  -1.814   0.670  1.00  0.00     0.018 A 
ATOM      5  C   UNL     1       0.491  -1.432   1.974  1.00  0.00     0.016 A 
ATOM      6  C   UNL     1       1.746  -0.875   2.233  1.00  0.00     0.047 A 
ATOM      7  C   UNL     1      -1.095  -2.374   0.372  1.00  0.00     0.019 A 
ATOM      8  C   UNL     1      -1.384  -2.739  -0.943  1.00  0.00     0.094 A 
ATOM      9  C   UNL     1      -0.415  -2.533  -1.932  1.00  0.00     0.336 A 
ATOM     10  O   UNL     1      -0.657  -2.856  -3.125  1.00  0.00    -0.246 OA
ATOM     11  O   UNL     1       0.762  -1.998  -1.620  1.00  0.00    -0.423 OA
ENDROOT
BRANCH   1  12
ATOM     12  O   UNL     1       3.921  -0.132   1.518  1.00  0.00    -0.497 OA
ATOM     13  C   UNL     1       5.167  -0.805   1.375  1.00  0.00     0.278 C 
ENDBRANCH   1  12
TORSDOF 1
ENDMDL
MODEL 2
REMARK VINA RESULT:     1.399      1.151      4.639
REMARK INTER + INTRA:           1.446
REMARK INTER:                   1.486
REMARK INTRA:                  -0.039
REMARK UNBOUND:                -0.034
REMARK SMILES COc1ccc2ccc(=O)oc2c1
REMARK SMILES IDX 3 1 13 2 12 3 6 4 5 5 4 6 7 7 8 8 9 9 10 10 11 11 2 12 1 13
REMARK H PARENT
REMARK Flexibility Score: inf
ROOT
ATOM      1  C   UNL     1      -0.427  -2.436  -0.738  1.00  0.00     0.122 A 
ATOM      2  C   UNL     1       0.894  -1.979  -0.917  1.00  0.00     0.094 A 
ATOM      3  C   UNL     1       1.613  -1.458   0.165  1.00  0.00     0.142 A 
ATOM      4  C   UNL     1       1.012  -1.390   1.439  1.00  0.00     0.018 A 
ATOM      5  C   UNL     1      -0.301  -1.843   1.618  1.00  0.00     0.016 A 
ATOM      6  C   UNL     1      -1.012  -2.363   0.533  1.00  0.00     0.047 A 
ATOM      7  C   UNL     1       1.756  -0.864   2.501  1.00  0.00     0.019 A 
ATOM      8  C   UNL     1       3.060  -0.425   2.272  1.00  0.00     0.094 A 
ATOM      9  C   UNL     1       3.590  -0.523   0.980  1.00  0.00     0.336 A 
ATOM     10  O   UNL     1       4.765  -0.132   0.753  1.00  0.00    -0.246 OA
ATOM     11  O   UNL     1       2.860  -1.028  -0.011  1.00  0.00    -0.423 OA
ENDROOT
BRANCH   1  12
ATOM     12  O   UNL     1      -1.188  -2.965  -1.791  1.00  0.00    -0.497 OA
ATOM     13  C   UNL     1      -0.716  -3.120  -3.125  1.00  0.00     0.278 C 
ENDBRANCH   1  12
TORSDOF 1
ENDMDL
