MODEL 1
REMARK VINA RESULT:    15.573      0.000      0.000
REMARK INTER + INTRA:          24.588
REMARK INTER:                  23.767
REMARK INTRA:                   0.820
REMARK UNBOUND:                 0.820
REMARK SMILES CC1=CCC[C@@H](C)C(=O)C[C@H](C(C)C)C(=O)C1
REMARK SMILES IDX 8 1 9 2 6 3 7 4 5 5 4 6 3 7 2 8 1 9 10 11 11 12 15 13 16 14
REMARK SMILES IDX 17 15 12 17 13 18 14 19
REMARK H PARENT
REMARK Flexibility Score: 70.00
ROOT
ATOM      1  C   UNL     1      18.179  19.013 -12.963  1.00  0.00     0.136 C 
ATOM      2  O   UNL     1      18.148  19.006 -14.187  1.00  0.00    -0.299 OA
ENDROOT
BRANCH   1   3
ATOM      3  C   UNL     1      18.519  20.296 -12.230  1.00  0.00     0.053 C 
ATOM      4  C   UNL     1      17.866  21.500 -12.922  1.00  0.00     0.016 C 
BRANCH   3   5
ATOM      5  C   UNL     1      20.052  20.470 -12.142  1.00  0.00     0.015 C 
BRANCH   5   6
ATOM      6  C   UNL     1      20.798  19.584 -13.160  1.00  0.00     0.028 C 
BRANCH   6   7
ATOM      7  C   UNL     1      21.958  18.868 -12.518  1.00  0.00    -0.028 C 
ATOM      8  C   UNL     1      21.852  17.854 -11.628  1.00  0.00    -0.070 CG0
ATOM      9  C   UNL     1      23.124  17.211 -11.135  1.00  0.00     0.039 C 
ATOM     10  G   UNL     1      20.521  17.328 -11.116  1.00  0.00     0.000 G0
ENDBRANCH   6   7
ENDBRANCH   5   6
ENDBRANCH   3   5
ENDBRANCH   1   3
BRANCH   1  11
ATOM     11  C   UNL     1      17.875  17.738 -12.212  1.00  0.00     0.087 C 
BRANCH  11  12
ATOM     12  C   UNL     1      18.620  16.511 -12.799  1.00  0.00     0.066 C 
BRANCH  12  13
ATOM     13  C   UNL     1      19.939  16.276 -12.073  1.00  0.00     0.140 C 
ATOM     14  O   UNL     1      20.502  15.200 -12.209  1.00  0.00    -0.299 OA
BRANCH  13  15
ATOM     15  C   UNL     1      20.531  17.303 -11.132  1.00  0.00     0.106 CG0
ATOM     16  G   UNL     1      21.862  17.842 -11.631  1.00  0.00     0.000 G0
ENDBRANCH  13  15
ENDBRANCH  12  13
BRANCH  12  17
ATOM     17  C   UNL     1      17.742  15.218 -12.827  1.00  0.00    -0.006 C 
ATOM     18  C   UNL     1      18.132  14.310 -14.008  1.00  0.00     0.008 C 
ATOM     19  C   UNL     1      16.238  15.532 -12.921  1.00  0.00     0.008 C 
ENDBRANCH  12  17
ENDBRANCH  11  12
ENDBRANCH   1  11
TORSDOF 1
ENDMDL
MODEL 2
REMARK VINA RESULT:    15.574      1.619      3.769
REMARK INTER + INTRA:          24.589
REMARK INTER:                  23.466
REMARK INTRA:                   1.123
REMARK UNBOUND:                 0.820
REMARK SMILES CC1=CCC[C@@H](C)C(=O)C[C@H](C(C)C)C(=O)C1
REMARK SMILES IDX 8 1 9 2 6 3 7 4 5 5 4 6 3 7 2 8 1 9 10 11 11 12 15 13 16 14
REMARK SMILES IDX 17 15 12 17 13 18 14 19
REMARK H PARENT
REMARK Flexibility Score: 70.00
ROOT
ATOM      1  C   UNL     1      20.755  16.675 -11.331  1.00  0.00     0.136 C 
ATOM      2  O   UNL     1      20.761  16.555 -10.114  1.00  0.00    -0.299 OA
ENDROOT
BRANCH   1   3
ATOM      3  C   UNL     1      21.645  17.713 -11.986  1.00  0.00     0.053 C 
ATOM      4  C   UNL     1      23.122  17.421 -11.687  1.00  0.00     0.016 C 
BRANCH   3   5
ATOM      5  C   UNL     1      21.253  19.130 -11.510  1.00  0.00     0.015 C 
BRANCH   5   6
ATOM      6  C   UNL     1      21.048  20.104 -12.687  1.00  0.00     0.028 C 
BRANCH   6   7
ATOM      7  C   UNL     1      19.682  20.739 -12.644  1.00  0.00    -0.028 C 
ATOM      8  C   UNL     1      18.514  20.089 -12.857  1.00  0.00    -0.070 CG0
ATOM      9  C   UNL     1      17.234  20.872 -12.713  1.00  0.00     0.039 C 
ATOM     10  G   UNL     1      18.432  18.615 -13.220  1.00  0.00     0.000 G0
ENDBRANCH   6   7
ENDBRANCH   5   6
ENDBRANCH   3   5
ENDBRANCH   1   3
BRANCH   1  11
ATOM     11  C   UNL     1      19.857  15.782 -12.155  1.00  0.00     0.087 C 
BRANCH  11  12
ATOM     12  C   UNL     1      18.371  16.225 -12.104  1.00  0.00     0.066 C 
BRANCH  12  13
ATOM     13  C   UNL     1      18.260  17.743 -12.008  1.00  0.00     0.140 C 
ATOM     14  O   UNL     1      17.981  18.245 -10.929  1.00  0.00    -0.299 OA
BRANCH  13  15
ATOM     15  C   UNL     1      18.408  18.636 -13.220  1.00  0.00     0.106 CG0
ATOM     16  G   UNL     1      18.507  20.105 -12.843  1.00  0.00     0.000 G0
ENDBRANCH  13  15
ENDBRANCH  12  13
BRANCH  12  17
ATOM     17  C   UNL     1      17.523  15.661 -13.289  1.00  0.00    -0.006 C 
ATOM     18  C   UNL     1      16.167  15.127 -12.793  1.00  0.00     0.008 C 
ATOM     19  C   UNL     1      18.250  14.535 -14.047  1.00  0.00     0.008 C 
ENDBRANCH  12  17
ENDBRANCH  11  12
ENDBRANCH   1  11
TORSDOF 1
ENDMDL
MODEL 3
REMARK VINA RESULT:    15.938      1.579      4.128
REMARK INTER + INTRA:          25.144
REMARK INTER:                  23.420
REMARK INTRA:                   1.725
REMARK UNBOUND:                 0.820
REMARK SMILES CC1=CCC[C@@H](C)C(=O)C[C@H](C(C)C)C(=O)C1
REMARK SMILES IDX 8 1 9 2 6 3 7 4 5 5 4 6 3 7 2 8 1 9 10 11 11 12 15 13 16 14
REMARK SMILES IDX 17 15 12 17 13 18 14 19
REMARK H PARENT
REMARK Flexibility Score: 70.00
ROOT
ATOM      1  C   UNL     1      17.737  16.583 -12.781  1.00  0.00     0.136 C 
ATOM      2  O   UNL     1      17.361  16.641 -11.618  1.00  0.00    -0.299 OA
ENDROOT
BRANCH   1   3
ATOM      3  C   UNL     1      17.702  15.256 -13.514  1.00  0.00     0.053 C 
ATOM      4  C   UNL     1      16.600  14.354 -12.942  1.00  0.00     0.016 C 
BRANCH   3   5
ATOM      5  C   UNL     1      19.082  14.565 -13.432  1.00  0.00     0.015 C 
BRANCH   5   6
ATOM      6  C   UNL     1      19.723  14.706 -12.038  1.00  0.00     0.028 C 
BRANCH   6   7
ATOM      7  C   UNL     1      21.068  15.381 -12.116  1.00  0.00    -0.028 C 
ATOM      8  C   UNL     1      21.344  16.625 -11.659  1.00  0.00    -0.070 CG0
ATOM      9  C   UNL     1      22.766  17.117 -11.766  1.00  0.00     0.039 C 
ATOM     10  G   UNL     1      20.300  17.537 -11.035  1.00  0.00     0.000 G0
ENDBRANCH   6   7
ENDBRANCH   5   6
ENDBRANCH   3   5
ENDBRANCH   1   3
BRANCH   1  11
ATOM     11  C   UNL     1      18.228  17.840 -13.460  1.00  0.00     0.087 C 
BRANCH  11  12
ATOM     12  C   UNL     1      18.601  18.955 -12.448  1.00  0.00     0.066 C 
BRANCH  12  13
ATOM     13  C   UNL     1      19.998  18.728 -11.881  1.00  0.00     0.140 C 
ATOM     14  O   UNL     1      20.890  19.507 -12.187  1.00  0.00    -0.299 OA
BRANCH  13  15
ATOM     15  C   UNL     1      20.329  17.531 -11.018  1.00  0.00     0.106 CG0
ATOM     16  G   UNL     1      21.365  16.625 -11.663  1.00  0.00     0.000 G0
ENDBRANCH  13  15
ENDBRANCH  12  13
BRANCH  12  17
ATOM     17  C   UNL     1      18.448  20.394 -13.039  1.00  0.00    -0.006 C 
ATOM     18  C   UNL     1      19.109  21.440 -12.123  1.00  0.00     0.008 C 
ATOM     19  C   UNL     1      16.974  20.786 -13.253  1.00  0.00     0.008 C 
ENDBRANCH  12  17
ENDBRANCH  11  12
ENDBRANCH   1  11
TORSDOF 1
ENDMDL
MODEL 4
REMARK VINA RESULT:    17.258      2.436      5.488
REMARK INTER + INTRA:          27.158
REMARK INTER:                  27.006
REMARK INTRA:                   0.152
REMARK UNBOUND:                 0.820
REMARK SMILES CC1=CCC[C@@H](C)C(=O)C[C@H](C(C)C)C(=O)C1
REMARK SMILES IDX 8 1 9 2 6 3 7 4 5 5 4 6 3 7 2 8 1 9 10 11 11 12 15 13 16 14
REMARK SMILES IDX 17 15 12 17 13 18 14 19
REMARK H PARENT
REMARK Flexibility Score: 70.00
ROOT
ATOM      1  C   UNL     1      18.465  16.045 -13.241  1.00  0.00     0.136 C 
ATOM      2  O   UNL     1      18.276  16.289 -14.425  1.00  0.00    -0.299 OA
ENDROOT
BRANCH   1   3
ATOM      3  C   UNL     1      18.088  14.684 -12.688  1.00  0.00     0.053 C 
ATOM      4  C   UNL     1      18.881  13.576 -13.396  1.00  0.00     0.016 C 
BRANCH   3   5
ATOM      5  C   UNL     1      16.566  14.453 -12.831  1.00  0.00     0.015 C 
BRANCH   5   6
ATOM      6  C   UNL     1      15.751  15.712 -12.478  1.00  0.00     0.028 C 
BRANCH   6   7
ATOM      7  C   UNL     1      15.243  15.660 -11.060  1.00  0.00    -0.028 C 
ATOM      8  C   UNL     1      15.936  16.064  -9.969  1.00  0.00    -0.070 CG0
ATOM      9  C   UNL     1      15.246  15.997  -8.630  1.00  0.00     0.039 C 
ATOM     10  G   UNL     1      17.360  16.591 -10.031  1.00  0.00     0.000 G0
ENDBRANCH   6   7
ENDBRANCH   5   6
ENDBRANCH   3   5
ENDBRANCH   1   3
BRANCH   1  11
ATOM     11  C   UNL     1      19.072  17.108 -12.357  1.00  0.00     0.087 C 
BRANCH  11  12
ATOM     12  C   UNL     1      18.050  18.206 -11.962  1.00  0.00     0.066 C 
BRANCH  12  13
ATOM     13  C   UNL     1      17.532  17.982 -10.546  1.00  0.00     0.140 C 
ATOM     14  O   UNL     1      17.286  18.956  -9.849  1.00  0.00    -0.299 OA
BRANCH  13  15
ATOM     15  C   UNL     1      17.385  16.597  -9.956  1.00  0.00     0.106 CG0
ATOM     16  G   UNL     1      15.949  16.101 -10.000  1.00  0.00     0.000 G0
ENDBRANCH  13  15
ENDBRANCH  12  13
BRANCH  12  17
ATOM     17  C   UNL     1      18.607  19.655 -12.147  1.00  0.00    -0.006 C 
ATOM     18  C   UNL     1      17.838  20.406 -13.249  1.00  0.00     0.008 C 
ATOM     19  C   UNL     1      20.107  19.668 -12.494  1.00  0.00     0.008 C 
ENDBRANCH  12  17
ENDBRANCH  11  12
ENDBRANCH   1  11
TORSDOF 1
ENDMDL
MODEL 5
REMARK VINA RESULT:    17.831      2.272      5.015
REMARK INTER + INTRA:          28.033
REMARK INTER:                  27.140
REMARK INTRA:                   0.893
REMARK UNBOUND:                 0.820
REMARK SMILES CC1=CCC[C@@H](C)C(=O)C[C@H](C(C)C)C(=O)C1
REMARK SMILES IDX 8 1 9 2 6 3 7 4 5 5 4 6 3 7 2 8 1 9 10 11 11 12 15 13 16 14
REMARK SMILES IDX 17 15 12 17 13 18 14 19
REMARK H PARENT
REMARK Flexibility Score: 70.00
ROOT
ATOM      1  C   UNL     1      16.859  16.939 -10.104  1.00  0.00     0.136 C 
ATOM      2  O   UNL     1      17.853  16.459  -9.576  1.00  0.00    -0.299 OA
ENDROOT
BRANCH   1   3
ATOM      3  C   UNL     1      15.504  16.299  -9.870  1.00  0.00     0.053 C 
ATOM      4  C   UNL     1      15.361  15.862  -8.406  1.00  0.00     0.016 C 
BRANCH   3   5
ATOM      5  C   UNL     1      15.307  15.102 -10.828  1.00  0.00     0.015 C 
BRANCH   5   6
ATOM      6  C   UNL     1      15.685  15.451 -12.281  1.00  0.00     0.028 C 
BRANCH   6   7
ATOM      7  C   UNL     1      16.896  14.678 -12.735  1.00  0.00    -0.028 C 
ATOM      8  C   UNL     1      18.044  15.229 -13.194  1.00  0.00    -0.070 CG0
ATOM      9  C   UNL     1      19.180  14.301 -13.547  1.00  0.00     0.039 C 
ATOM     10  G   UNL     1      18.246  16.726 -13.358  1.00  0.00     0.000 G0
ENDBRANCH   6   7
ENDBRANCH   5   6
ENDBRANCH   3   5
ENDBRANCH   1   3
BRANCH   1  11
ATOM     11  C   UNL     1      17.007  18.162 -10.978  1.00  0.00     0.087 C 
BRANCH  11  12
ATOM     12  C   UNL     1      18.486  18.458 -11.340  1.00  0.00     0.066 C 
BRANCH  12  13
ATOM     13  C   UNL     1      19.053  17.366 -12.240  1.00  0.00     0.140 C 
ATOM     14  O   UNL     1      20.220  17.030 -12.092  1.00  0.00    -0.299 OA
BRANCH  13  15
ATOM     15  C   UNL     1      18.243  16.743 -13.355  1.00  0.00     0.106 CG0
ATOM     16  G   UNL     1      18.062  15.245 -13.168  1.00  0.00     0.000 G0
ENDBRANCH  13  15
ENDBRANCH  12  13
BRANCH  12  17
ATOM     17  C   UNL     1      18.692  19.878 -11.960  1.00  0.00    -0.006 C 
ATOM     18  C   UNL     1      17.883  20.036 -13.260  1.00  0.00     0.008 C 
ATOM     19  C   UNL     1      20.172  20.177 -12.260  1.00  0.00     0.008 C 
ENDBRANCH  12  17
ENDBRANCH  11  12
ENDBRANCH   1  11
TORSDOF 1
ENDMDL
MODEL 6
REMARK VINA RESULT:    17.921      2.253      5.454
REMARK INTER + INTRA:          28.171
REMARK INTER:                  26.323
REMARK INTRA:                   1.848
REMARK UNBOUND:                 0.820
REMARK SMILES CC1=CCC[C@@H](C)C(=O)C[C@H](C(C)C)C(=O)C1
REMARK SMILES IDX 8 1 9 2 6 3 7 4 5 5 4 6 3 7 2 8 1 9 10 11 11 12 15 13 16 14
REMARK SMILES IDX 17 15 12 17 13 18 14 19
REMARK H PARENT
REMARK Flexibility Score: 70.00
ROOT
ATOM      1  C   UNL     1      20.507  16.149 -12.085  1.00  0.00     0.136 C 
ATOM      2  O   UNL     1      21.702  16.042 -12.325  1.00  0.00    -0.299 OA
ENDROOT
BRANCH   1   3
ATOM      3  C   UNL     1      19.565  15.021 -12.458  1.00  0.00     0.053 C 
ATOM      4  C   UNL     1      20.275  13.665 -12.343  1.00  0.00     0.016 C 
BRANCH   3   5
ATOM      5  C   UNL     1      19.011  15.237 -13.884  1.00  0.00     0.015 C 
BRANCH   5   6
ATOM      6  C   UNL     1      17.872  14.255 -14.223  1.00  0.00     0.028 C 
BRANCH   6   7
ATOM      7  C   UNL     1      16.826  14.232 -13.138  1.00  0.00    -0.028 C 
ATOM      8  C   UNL     1      16.259  15.327 -12.579  1.00  0.00    -0.070 CG0
ATOM      9  C   UNL     1      15.180  15.114 -11.547  1.00  0.00     0.039 C 
ATOM     10  G   UNL     1      16.646  16.750 -12.948  1.00  0.00     0.000 G0
ENDBRANCH   6   7
ENDBRANCH   5   6
ENDBRANCH   3   5
ENDBRANCH   1   3
BRANCH   1  11
ATOM     11  C   UNL     1      19.999  17.406 -11.420  1.00  0.00     0.087 C 
BRANCH  11  12
ATOM     12  C   UNL     1      18.841  18.069 -12.210  1.00  0.00     0.066 C 
BRANCH  12  13
ATOM     13  C   UNL     1      17.506  17.416 -11.869  1.00  0.00     0.140 C 
ATOM     14  O   UNL     1      17.154  17.374 -10.699  1.00  0.00    -0.299 OA
BRANCH  13  15
ATOM     15  C   UNL     1      16.645  16.754 -12.922  1.00  0.00     0.106 CG0
ATOM     16  G   UNL     1      16.281  15.325 -12.553  1.00  0.00     0.000 G0
ENDBRANCH  13  15
ENDBRANCH  12  13
BRANCH  12  17
ATOM     17  C   UNL     1      18.784  19.620 -12.027  1.00  0.00    -0.006 C 
ATOM     18  C   UNL     1      17.859  20.267 -13.074  1.00  0.00     0.008 C 
ATOM     19  C   UNL     1      20.175  20.274 -12.127  1.00  0.00     0.008 C 
ENDBRANCH  12  17
ENDBRANCH  11  12
ENDBRANCH   1  11
TORSDOF 1
ENDMDL
MODEL 7
REMARK VINA RESULT:    18.085      1.840      4.362
REMARK INTER + INTRA:          28.420
REMARK INTER:                  25.921
REMARK INTRA:                   2.499
REMARK UNBOUND:                 0.820
REMARK SMILES CC1=CCC[C@@H](C)C(=O)C[C@H](C(C)C)C(=O)C1
REMARK SMILES IDX 8 1 9 2 6 3 7 4 5 5 4 6 3 7 2 8 1 9 10 11 11 12 15 13 16 14
REMARK SMILES IDX 17 15 12 17 13 18 14 19
REMARK H PARENT
REMARK Flexibility Score: 70.00
ROOT
ATOM      1  C   UNL     1      18.690  15.561 -12.801  1.00  0.00     0.136 C 
ATOM      2  O   UNL     1      18.737  14.486 -13.385  1.00  0.00    -0.299 OA
ENDROOT
BRANCH   1   3
ATOM      3  C   UNL     1      17.413  16.378 -12.839  1.00  0.00     0.053 C 
ATOM      4  C   UNL     1      16.192  15.462 -12.996  1.00  0.00     0.016 C 
BRANCH   3   5
ATOM      5  C   UNL     1      17.477  17.417 -13.982  1.00  0.00     0.015 C 
BRANCH   5   6
ATOM      6  C   UNL     1      16.854  18.767 -13.577  1.00  0.00     0.028 C 
BRANCH   6   7
ATOM      7  C   UNL     1      17.895  19.855 -13.513  1.00  0.00    -0.028 C 
ATOM      8  C   UNL     1      18.597  20.197 -12.407  1.00  0.00    -0.070 CG0
ATOM      9  C   UNL     1      19.646  21.272 -12.542  1.00  0.00     0.039 C 
ATOM     10  G   UNL     1      18.389  19.545 -11.050  1.00  0.00     0.000 G0
ENDBRANCH   6   7
ENDBRANCH   5   6
ENDBRANCH   3   5
ENDBRANCH   1   3
BRANCH   1  11
ATOM     11  C   UNL     1      19.910  16.049 -12.055  1.00  0.00     0.087 C 
BRANCH  11  12
ATOM     12  C   UNL     1      19.963  17.595 -11.951  1.00  0.00     0.066 C 
BRANCH  12  13
ATOM     13  C   UNL     1      18.880  18.113 -11.011  1.00  0.00     0.140 C 
ATOM     14  O   UNL     1      18.333  17.325 -10.253  1.00  0.00    -0.299 OA
BRANCH  13  15
ATOM     15  C   UNL     1      18.413  19.551 -11.041  1.00  0.00     0.106 CG0
ATOM     16  G   UNL     1      18.596  20.188 -12.410  1.00  0.00     0.000 G0
ENDBRANCH  13  15
ENDBRANCH  12  13
BRANCH  12  17
ATOM     17  C   UNL     1      21.375  18.133 -11.553  1.00  0.00    -0.006 C 
ATOM     18  C   UNL     1      21.923  19.094 -12.624  1.00  0.00     0.008 C 
ATOM     19  C   UNL     1      22.396  17.001 -11.336  1.00  0.00     0.008 C 
ENDBRANCH  12  17
ENDBRANCH  11  12
ENDBRANCH   1  11
TORSDOF 1
ENDMDL
MODEL 8
REMARK VINA RESULT:    18.414      1.480      2.236
REMARK INTER + INTRA:          28.924
REMARK INTER:                  25.275
REMARK INTRA:                   3.649
REMARK UNBOUND:                 0.820
REMARK SMILES CC1=CCC[C@@H](C)C(=O)C[C@H](C(C)C)C(=O)C1
REMARK SMILES IDX 8 1 9 2 6 3 7 4 5 5 4 6 3 7 2 8 1 9 10 11 11 12 15 13 16 14
REMARK SMILES IDX 17 15 12 17 13 18 14 19
REMARK H PARENT
REMARK Flexibility Score: 70.00
ROOT
ATOM      1  C   UNL     1      17.907  18.869 -13.807  1.00  0.00     0.136 C 
ATOM      2  O   UNL     1      18.626  18.804 -14.795  1.00  0.00    -0.299 OA
ENDROOT
BRANCH   1   3
ATOM      3  C   UNL     1      17.592  20.221 -13.197  1.00  0.00     0.053 C 
ATOM      4  C   UNL     1      16.689  21.037 -14.133  1.00  0.00     0.016 C 
BRANCH   3   5
ATOM      5  C   UNL     1      18.900  20.984 -12.886  1.00  0.00     0.015 C 
BRANCH   5   6
ATOM      6  C   UNL     1      19.552  20.511 -11.572  1.00  0.00     0.028 C 
BRANCH   6   7
ATOM      7  C   UNL     1      18.668  19.533 -10.841  1.00  0.00    -0.028 C 
ATOM      8  C   UNL     1      18.815  18.187 -10.856  1.00  0.00    -0.070 CG0
ATOM      9  C   UNL     1      17.874  17.365 -10.014  1.00  0.00     0.039 C 
ATOM     10  G   UNL     1      19.883  17.473 -11.668  1.00  0.00     0.000 G0
ENDBRANCH   6   7
ENDBRANCH   5   6
ENDBRANCH   3   5
ENDBRANCH   1   3
BRANCH   1  11
ATOM     11  C   UNL     1      17.348  17.595 -13.217  1.00  0.00     0.087 C 
BRANCH  11  12
ATOM     12  C   UNL     1      18.262  16.370 -13.478  1.00  0.00     0.066 C 
BRANCH  12  13
ATOM     13  C   UNL     1      19.354  16.271 -12.419  1.00  0.00     0.140 C 
ATOM     14  O   UNL     1      19.777  15.165 -12.112  1.00  0.00    -0.299 OA
BRANCH  13  15
ATOM     15  C   UNL     1      19.872  17.487 -11.685  1.00  0.00     0.106 CG0
ATOM     16  G   UNL     1      18.796  18.153 -10.842  1.00  0.00     0.000 G0
ENDBRANCH  13  15
ENDBRANCH  12  13
BRANCH  12  17
ATOM     17  C   UNL     1      17.467  15.030 -13.610  1.00  0.00    -0.006 C 
ATOM     18  C   UNL     1      16.262  15.006 -12.652  1.00  0.00     0.008 C 
ATOM     19  C   UNL     1      18.345  13.797 -13.331  1.00  0.00     0.008 C 
ENDBRANCH  12  17
ENDBRANCH  11  12
ENDBRANCH   1  11
TORSDOF 1
ENDMDL
