MODEL 1
REMARK VINA RESULT:    -4.616      0.000      0.000
REMARK INTER + INTRA:          -7.837
REMARK INTER:                  -7.045
REMARK INTRA:                  -0.792
REMARK UNBOUND:                -0.792
REMARK SMILES O=C([O-])CCCCCCCCC(=O)[O-]
REMARK SMILES IDX 7 1 6 2 5 3 4 4 2 5 1 6 3 7 8 8 9 9 10 10 11 11 12 12 13 13
REMARK SMILES IDX 14 14
REMARK H PARENT
REMARK Flexibility Score: inf
ROOT
ATOM      1  C   UNL     1       8.242   7.175  10.775  1.00  0.00     0.000 C 
ENDROOT
BRANCH   1   2
ATOM      2  C   UNL     1       8.326   6.469  12.139  1.00  0.00     0.000 C 
BRANCH   2   3
ATOM      3  C   UNL     1       7.478   7.107  13.255  1.00  0.00     0.006 C 
BRANCH   3   4
ATOM      4  C   UNL     1       6.647   6.081  14.035  1.00  0.00     0.053 C 
BRANCH   4   5
ATOM      5  C   UNL     1       5.579   6.767  14.827  1.00  0.00     0.041 C 
ATOM      6  O   UNL     1       5.087   7.852  14.420  1.00  0.00    -0.550 OA
ATOM      7  O   UNL     1       5.162   6.233  16.039  1.00  0.00    -0.550 OA
ENDBRANCH   4   5
ENDBRANCH   3   4
ENDBRANCH   2   3
ENDBRANCH   1   2
BRANCH   1   8
ATOM      8  C   UNL     1       7.590   8.563  10.856  1.00  0.00     0.000 C 
BRANCH   8   9
ATOM      9  C   UNL     1       6.329   8.629   9.982  1.00  0.00     0.000 C 
BRANCH   9  10
ATOM     10  C   UNL     1       5.631   7.266   9.836  1.00  0.00     0.006 C 
BRANCH  10  11
ATOM     11  C   UNL     1       4.555   6.988  10.899  1.00  0.00     0.053 C 
BRANCH  11  12
ATOM     12  C   UNL     1       3.172   7.228  10.375  1.00  0.00     0.041 C 
ATOM     13  O   UNL     1       2.940   8.213   9.626  1.00  0.00    -0.550 OA
ATOM     14  O   UNL     1       2.148   6.343  10.687  1.00  0.00    -0.550 OA
ENDBRANCH  11  12
ENDBRANCH  10  11
ENDBRANCH   9  10
ENDBRANCH   8   9
ENDBRANCH   1   8
TORSDOF 9
ENDMDL
MODEL 2
REMARK VINA RESULT:    -4.593      1.033      4.484
REMARK INTER + INTRA:          -7.801
REMARK INTER:                  -6.961
REMARK INTRA:                  -0.840
REMARK UNBOUND:                -0.792
REMARK SMILES O=C([O-])CCCCCCCCC(=O)[O-]
REMARK SMILES IDX 7 1 6 2 5 3 4 4 2 5 1 6 3 7 8 8 9 9 10 10 11 11 12 12 13 13
REMARK SMILES IDX 14 14
REMARK H PARENT
REMARK Flexibility Score: inf
ROOT
ATOM      1  C   UNL     1       8.509   6.877  11.068  1.00  0.00     0.000 C 
ENDROOT
BRANCH   1   2
ATOM      2  C   UNL     1       7.885   8.280  10.966  1.00  0.00     0.000 C 
BRANCH   2   3
ATOM      3  C   UNL     1       6.694   8.393   9.998  1.00  0.00     0.006 C 
BRANCH   3   4
ATOM      4  C   UNL     1       5.828   7.127   9.965  1.00  0.00     0.053 C 
BRANCH   4   5
ATOM      5  C   UNL     1       4.384   7.486   9.811  1.00  0.00     0.041 C 
ATOM      6  O   UNL     1       4.038   8.390   9.006  1.00  0.00    -0.550 OA
ATOM      7  O   UNL     1       3.424   6.856  10.592  1.00  0.00    -0.550 OA
ENDBRANCH   4   5
ENDBRANCH   3   4
ENDBRANCH   2   3
ENDBRANCH   1   2
BRANCH   1   8
ATOM      8  C   UNL     1       8.353   6.250  12.461  1.00  0.00     0.000 C 
BRANCH   8   9
ATOM      9  C   UNL     1       7.456   7.118  13.356  1.00  0.00     0.000 C 
BRANCH   9  10
ATOM     10  C   UNL     1       6.098   6.461  13.657  1.00  0.00     0.006 C 
BRANCH  10  11
ATOM     11  C   UNL     1       4.930   7.452  13.790  1.00  0.00     0.053 C 
BRANCH  11  12
ATOM     12  C   UNL     1       4.491   7.615  15.213  1.00  0.00     0.041 C 
ATOM     13  O   UNL     1       4.148   6.610  15.889  1.00  0.00    -0.550 OA
ATOM     14  O   UNL     1       4.493   8.874  15.801  1.00  0.00    -0.550 OA
ENDBRANCH  11  12
ENDBRANCH  10  11
ENDBRANCH   9  10
ENDBRANCH   8   9
ENDBRANCH   1   8
TORSDOF 9
ENDMDL
MODEL 3
REMARK VINA RESULT:    -4.579      1.322      4.166
REMARK INTER + INTRA:          -7.780
REMARK INTER:                  -6.783
REMARK INTRA:                  -0.997
REMARK UNBOUND:                -0.792
REMARK SMILES O=C([O-])CCCCCCCCC(=O)[O-]
REMARK SMILES IDX 7 1 6 2 5 3 4 4 2 5 1 6 3 7 8 8 9 9 10 10 11 11 12 12 13 13
REMARK SMILES IDX 14 14
REMARK H PARENT
REMARK Flexibility Score: inf
ROOT
ATOM      1  C   UNL     1       7.874   7.644  10.522  1.00  0.00     0.000 C 
ENDROOT
BRANCH   1   2
ATOM      2  C   UNL     1       6.698   6.778  10.038  1.00  0.00     0.000 C 
BRANCH   2   3
ATOM      3  C   UNL     1       5.317   7.452  10.121  1.00  0.00     0.006 C 
BRANCH   3   4
ATOM      4  C   UNL     1       4.374   6.766  11.117  1.00  0.00     0.053 C 
BRANCH   4   5
ATOM      5  C   UNL     1       3.762   7.774  12.037  1.00  0.00     0.041 C 
ATOM      6  O   UNL     1       2.533   7.723  12.305  1.00  0.00    -0.550 OA
ATOM      7  O   UNL     1       4.538   8.800  12.560  1.00  0.00    -0.550 OA
ENDBRANCH   4   5
ENDBRANCH   3   4
ENDBRANCH   2   3
ENDBRANCH   1   2
BRANCH   1   8
ATOM      8  C   UNL     1       7.870   7.868  12.041  1.00  0.00     0.000 C 
BRANCH   8   9
ATOM      9  C   UNL     1       7.839   6.530  12.794  1.00  0.00     0.000 C 
BRANCH   9  10
ATOM     10  C   UNL     1       7.204   6.644  14.191  1.00  0.00     0.006 C 
BRANCH  10  11
ATOM     11  C   UNL     1       5.918   5.822  14.371  1.00  0.00     0.053 C 
BRANCH  11  12
ATOM     12  C   UNL     1       5.089   6.318  15.517  1.00  0.00     0.041 C 
ATOM     13  O   UNL     1       4.864   7.549  15.649  1.00  0.00    -0.550 OA
ATOM     14  O   UNL     1       4.538   5.416  16.418  1.00  0.00    -0.550 OA
ENDBRANCH  11  12
ENDBRANCH  10  11
ENDBRANCH   9  10
ENDBRANCH   8   9
ENDBRANCH   1   8
TORSDOF 9
ENDMDL
MODEL 4
REMARK VINA RESULT:    -4.561      2.818      5.038
REMARK INTER + INTRA:          -7.753
REMARK INTER:                  -6.967
REMARK INTRA:                  -0.786
REMARK UNBOUND:                -0.792
REMARK SMILES O=C([O-])CCCCCCCCC(=O)[O-]
REMARK SMILES IDX 7 1 6 2 5 3 4 4 2 5 1 6 3 7 8 8 9 9 10 10 11 11 12 12 13 13
REMARK SMILES IDX 14 14
REMARK H PARENT
REMARK Flexibility Score: inf
ROOT
ATOM      1  C   UNL     1       4.155   7.571  10.026  1.00  0.00     0.000 C 
ENDROOT
BRANCH   1   2
ATOM      2  C   UNL     1       5.624   7.837   9.651  1.00  0.00     0.000 C 
BRANCH   2   3
ATOM      3  C   UNL     1       6.604   6.708  10.019  1.00  0.00     0.006 C 
BRANCH   3   4
ATOM      4  C   UNL     1       7.887   7.222  10.684  1.00  0.00     0.053 C 
BRANCH   4   5
ATOM      5  C   UNL     1       8.926   6.146  10.716  1.00  0.00     0.041 C 
ATOM      6  O   UNL     1       9.414   5.705   9.643  1.00  0.00    -0.550 OA
ATOM      7  O   UNL     1       9.320   5.596  11.928  1.00  0.00    -0.550 OA
ENDBRANCH   4   5
ENDBRANCH   3   4
ENDBRANCH   2   3
ENDBRANCH   1   2
BRANCH   1   8
ATOM      8  C   UNL     1       4.002   6.792  11.341  1.00  0.00     0.000 C 
BRANCH   8   9
ATOM      9  C   UNL     1       3.732   7.745  12.515  1.00  0.00     0.000 C 
BRANCH   9  10
ATOM     10  C   UNL     1       4.836   7.702  13.585  1.00  0.00     0.006 C 
BRANCH  10  11
ATOM     11  C   UNL     1       5.640   6.393  13.615  1.00  0.00     0.053 C 
BRANCH  11  12
ATOM     12  C   UNL     1       6.523   6.302  14.822  1.00  0.00     0.041 C 
ATOM     13  O   UNL     1       6.029   6.389  15.976  1.00  0.00    -0.550 OA
ATOM     14  O   UNL     1       7.887   6.087  14.670  1.00  0.00    -0.550 OA
ENDBRANCH  11  12
ENDBRANCH  10  11
ENDBRANCH   9  10
ENDBRANCH   8   9
ENDBRANCH   1   8
TORSDOF 9
ENDMDL
MODEL 5
REMARK VINA RESULT:    -4.532      2.498      3.820
REMARK INTER + INTRA:          -7.707
REMARK INTER:                  -6.760
REMARK INTRA:                  -0.948
REMARK UNBOUND:                -0.792
REMARK SMILES O=C([O-])CCCCCCCCC(=O)[O-]
REMARK SMILES IDX 7 1 6 2 5 3 4 4 2 5 1 6 3 7 8 8 9 9 10 10 11 11 12 12 13 13
REMARK SMILES IDX 14 14
REMARK H PARENT
REMARK Flexibility Score: inf
ROOT
ATOM      1  C   UNL     1       4.378   6.848  11.158  1.00  0.00     0.000 C 
ENDROOT
BRANCH   1   2
ATOM      2  C   UNL     1       4.064   7.831  12.299  1.00  0.00     0.000 C 
BRANCH   2   3
ATOM      3  C   UNL     1       4.694   7.472  13.658  1.00  0.00     0.006 C 
BRANCH   3   4
ATOM      4  C   UNL     1       5.742   6.357  13.555  1.00  0.00     0.053 C 
BRANCH   4   5
ATOM      5  C   UNL     1       6.516   6.248  14.831  1.00  0.00     0.041 C 
ATOM      6  O   UNL     1       5.939   6.413  15.937  1.00  0.00    -0.550 OA
ATOM      7  O   UNL     1       7.884   6.012  14.796  1.00  0.00    -0.550 OA
ENDBRANCH   4   5
ENDBRANCH   3   4
ENDBRANCH   2   3
ENDBRANCH   1   2
BRANCH   1   8
ATOM      8  C   UNL     1       5.121   7.507   9.986  1.00  0.00     0.000 C 
BRANCH   8   9
ATOM      9  C   UNL     1       5.948   8.709  10.465  1.00  0.00     0.000 C 
BRANCH   9  10
ATOM     10  C   UNL     1       7.459   8.522  10.241  1.00  0.00     0.006 C 
BRANCH  10  11
ATOM     11  C   UNL     1       8.179   7.767  11.369  1.00  0.00     0.053 C 
BRANCH  11  12
ATOM     12  C   UNL     1       8.573   6.382  10.956  1.00  0.00     0.041 C 
ATOM     13  O   UNL     1       8.200   5.921   9.846  1.00  0.00    -0.550 OA
ATOM     14  O   UNL     1       9.383   5.614  11.784  1.00  0.00    -0.550 OA
ENDBRANCH  11  12
ENDBRANCH  10  11
ENDBRANCH   9  10
ENDBRANCH   8   9
ENDBRANCH   1   8
TORSDOF 9
ENDMDL
MODEL 6
REMARK VINA RESULT:    -4.528      1.745      4.283
REMARK INTER + INTRA:          -7.702
REMARK INTER:                  -6.916
REMARK INTRA:                  -0.787
REMARK UNBOUND:                -0.792
REMARK SMILES O=C([O-])CCCCCCCCC(=O)[O-]
REMARK SMILES IDX 7 1 6 2 5 3 4 4 2 5 1 6 3 7 8 8 9 9 10 10 11 11 12 12 13 13
REMARK SMILES IDX 14 14
REMARK H PARENT
REMARK Flexibility Score: inf
ROOT
ATOM      1  C   UNL     1       6.182   7.111   9.841  1.00  0.00     0.000 C 
ENDROOT
BRANCH   1   2
ATOM      2  C   UNL     1       4.675   7.413   9.921  1.00  0.00     0.000 C 
BRANCH   2   3
ATOM      3  C   UNL     1       3.930   6.705  11.068  1.00  0.00     0.006 C 
BRANCH   3   4
ATOM      4  C   UNL     1       2.962   7.631  11.814  1.00  0.00     0.053 C 
BRANCH   4   5
ATOM      5  C   UNL     1       3.657   8.305  12.954  1.00  0.00     0.041 C 
ATOM      6  O   UNL     1       4.138   9.459  12.810  1.00  0.00    -0.550 OA
ATOM      7  O   UNL     1       3.817   7.638  14.162  1.00  0.00    -0.550 OA
ENDBRANCH   4   5
ENDBRANCH   3   4
ENDBRANCH   2   3
ENDBRANCH   1   2
BRANCH   1   8
ATOM      8  C   UNL     1       7.056   8.307  10.247  1.00  0.00     0.000 C 
BRANCH   8   9
ATOM      9  C   UNL     1       8.250   7.851  11.099  1.00  0.00     0.000 C 
BRANCH   9  10
ATOM     10  C   UNL     1       7.882   6.736  12.094  1.00  0.00     0.006 C 
BRANCH  10  11
ATOM     11  C   UNL     1       7.180   7.232  13.368  1.00  0.00     0.053 C 
BRANCH  11  12
ATOM     12  C   UNL     1       7.372   6.290  14.518  1.00  0.00     0.041 C 
ATOM     13  O   UNL     1       6.613   6.350  15.520  1.00  0.00    -0.550 OA
ATOM     14  O   UNL     1       8.369   5.323  14.466  1.00  0.00    -0.550 OA
ENDBRANCH  11  12
ENDBRANCH  10  11
ENDBRANCH   9  10
ENDBRANCH   8   9
ENDBRANCH   1   8
TORSDOF 9
ENDMDL
MODEL 7
REMARK VINA RESULT:    -4.526      2.411      4.870
REMARK INTER + INTRA:          -7.699
REMARK INTER:                  -6.692
REMARK INTRA:                  -1.007
REMARK UNBOUND:                -0.792
REMARK SMILES O=C([O-])CCCCCCCCC(=O)[O-]
REMARK SMILES IDX 7 1 6 2 5 3 4 4 2 5 1 6 3 7 8 8 9 9 10 10 11 11 12 12 13 13
REMARK SMILES IDX 14 14
REMARK H PARENT
REMARK Flexibility Score: inf
ROOT
ATOM      1  C   UNL     1       5.293   7.464  14.940  1.00  0.00     0.000 C 
ENDROOT
BRANCH   1   2
ATOM      2  C   UNL     1       4.073   7.573  14.007  1.00  0.00     0.000 C 
BRANCH   2   3
ATOM      3  C   UNL     1       4.386   8.067  12.583  1.00  0.00     0.006 C 
BRANCH   3   4
ATOM      4  C   UNL     1       4.229   6.972  11.521  1.00  0.00     0.053 C 
BRANCH   4   5
ATOM      5  C   UNL     1       3.705   7.552  10.246  1.00  0.00     0.041 C 
ATOM      6  O   UNL     1       4.486   7.788   9.289  1.00  0.00    -0.550 OA
ATOM      7  O   UNL     1       2.359   7.877  10.133  1.00  0.00    -0.550 OA
ENDBRANCH   4   5
ENDBRANCH   3   4
ENDBRANCH   2   3
ENDBRANCH   1   2
BRANCH   1   8
ATOM      8  C   UNL     1       6.034   6.126  14.804  1.00  0.00     0.000 C 
BRANCH   8   9
ATOM      9  C   UNL     1       7.505   6.350  14.423  1.00  0.00     0.000 C 
BRANCH   9  10
ATOM     10  C   UNL     1       7.736   6.344  12.902  1.00  0.00     0.006 C 
BRANCH  10  11
ATOM     11  C   UNL     1       7.958   7.736  12.289  1.00  0.00     0.053 C 
BRANCH  11  12
ATOM     12  C   UNL     1       7.729   7.742  10.809  1.00  0.00     0.041 C 
ATOM     13  O   UNL     1       7.527   6.662  10.194  1.00  0.00    -0.550 OA
ATOM     14  O   UNL     1       7.703   8.944  10.114  1.00  0.00    -0.550 OA
ENDBRANCH  11  12
ENDBRANCH  10  11
ENDBRANCH   9  10
ENDBRANCH   8   9
ENDBRANCH   1   8
TORSDOF 9
ENDMDL
MODEL 8
REMARK VINA RESULT:    -4.509      1.444      2.087
REMARK INTER + INTRA:          -7.673
REMARK INTER:                  -6.768
REMARK INTRA:                  -0.904
REMARK UNBOUND:                -0.792
REMARK SMILES O=C([O-])CCCCCCCCC(=O)[O-]
REMARK SMILES IDX 7 1 6 2 5 3 4 4 2 5 1 6 3 7 8 8 9 9 10 10 11 11 12 12 13 13
REMARK SMILES IDX 14 14
REMARK H PARENT
REMARK Flexibility Score: inf
ROOT
ATOM      1  C   UNL     1       8.271   6.406  12.082  1.00  0.00     0.000 C 
ENDROOT
BRANCH   1   2
ATOM      2  C   UNL     1       7.446   7.116  13.170  1.00  0.00     0.000 C 
BRANCH   2   3
ATOM      3  C   UNL     1       6.079   6.476  13.471  1.00  0.00     0.006 C 
BRANCH   3   4
ATOM      4  C   UNL     1       5.052   7.482  14.004  1.00  0.00     0.053 C 
BRANCH   4   5
ATOM      5  C   UNL     1       4.852   7.295  15.475  1.00  0.00     0.041 C 
ATOM      6  O   UNL     1       4.918   6.145  15.982  1.00  0.00    -0.550 OA
ATOM      7  O   UNL     1       4.545   8.385  16.279  1.00  0.00    -0.550 OA
ENDBRANCH   4   5
ENDBRANCH   3   4
ENDBRANCH   2   3
ENDBRANCH   1   2
BRANCH   1   8
ATOM      8  C   UNL     1       8.544   7.295  10.860  1.00  0.00     0.000 C 
BRANCH   8   9
ATOM      9  C   UNL     1       8.147   8.751  11.141  1.00  0.00     0.000 C 
BRANCH   9  10
ATOM     10  C   UNL     1       7.193   9.326  10.079  1.00  0.00     0.006 C 
BRANCH  10  11
ATOM     11  C   UNL     1       5.706   9.257  10.461  1.00  0.00     0.053 C 
BRANCH  11  12
ATOM     12  C   UNL     1       4.983   8.177   9.714  1.00  0.00     0.041 C 
ATOM     13  O   UNL     1       4.144   8.475   8.825  1.00  0.00    -0.550 OA
ATOM     14  O   UNL     1       5.264   6.843   9.978  1.00  0.00    -0.550 OA
ENDBRANCH  11  12
ENDBRANCH  10  11
ENDBRANCH   9  10
ENDBRANCH   8   9
ENDBRANCH   1   8
TORSDOF 9
ENDMDL
MODEL 9
REMARK VINA RESULT:    -4.434      2.501      3.560
REMARK INTER + INTRA:          -7.558
REMARK INTER:                  -6.746
REMARK INTRA:                  -0.812
REMARK UNBOUND:                -0.792
REMARK SMILES O=C([O-])CCCCCCCCC(=O)[O-]
REMARK SMILES IDX 7 1 6 2 5 3 4 4 2 5 1 6 3 7 8 8 9 9 10 10 11 11 12 12 13 13
REMARK SMILES IDX 14 14
REMARK H PARENT
REMARK Flexibility Score: inf
ROOT
ATOM      1  C   UNL     1       3.744   7.594  12.398  1.00  0.00     0.000 C 
ENDROOT
BRANCH   1   2
ATOM      2  C   UNL     1       4.911   7.710  13.395  1.00  0.00     0.000 C 
BRANCH   2   3
ATOM      3  C   UNL     1       5.636   6.387  13.704  1.00  0.00     0.006 C 
BRANCH   3   4
ATOM      4  C   UNL     1       6.213   6.339  15.124  1.00  0.00     0.053 C 
BRANCH   4   5
ATOM      5  C   UNL     1       5.111   6.337  16.136  1.00  0.00     0.041 C 
ATOM      6  O   UNL     1       4.827   7.388  16.766  1.00  0.00    -0.550 OA
ATOM      7  O   UNL     1       4.429   5.160  16.418  1.00  0.00    -0.550 OA
ENDBRANCH   4   5
ENDBRANCH   3   4
ENDBRANCH   2   3
ENDBRANCH   1   2
BRANCH   1   8
ATOM      8  C   UNL     1       4.073   6.706  11.189  1.00  0.00     0.000 C 
BRANCH   8   9
ATOM      9  C   UNL     1       4.333   7.558   9.938  1.00  0.00     0.000 C 
BRANCH   9  10
ATOM     10  C   UNL     1       5.829   7.823   9.696  1.00  0.00     0.006 C 
BRANCH  10  11
ATOM     11  C   UNL     1       6.749   6.648  10.064  1.00  0.00     0.053 C 
BRANCH  11  12
ATOM     12  C   UNL     1       7.913   7.084  10.901  1.00  0.00     0.041 C 
ATOM     13  O   UNL     1       7.954   8.253  11.367  1.00  0.00    -0.550 OA
ATOM     14  O   UNL     1       8.934   6.189  11.193  1.00  0.00    -0.550 OA
ENDBRANCH  11  12
ENDBRANCH  10  11
ENDBRANCH   9  10
ENDBRANCH   8   9
ENDBRANCH   1   8
TORSDOF 9
ENDMDL
