MODEL 1
REMARK VINA RESULT:    -5.003      0.000      0.000
REMARK INTER + INTRA:          -8.454
REMARK INTER:                  -7.927
REMARK INTRA:                  -0.527
REMARK UNBOUND:                -0.527
REMARK SMILES CCCCCCCCCCCC(=O)[O-]
REMARK SMILES IDX 7 1 8 2 9 3 10 4 11 5 12 6 13 7 14 8 6 9 5 10 4 11 3 12 2 13
REMARK SMILES IDX 1 14
REMARK H PARENT
REMARK Flexibility Score: inf
ROOT
ATOM      1  C   UNL     1       1.828 -10.093  -2.880  1.00  0.00     0.000 C 
ENDROOT
BRANCH   1   2
ATOM      2  C   UNL     1       1.979  -9.001  -1.808  1.00  0.00     0.000 C 
BRANCH   2   3
ATOM      3  C   UNL     1       0.638  -8.349  -1.426  1.00  0.00     0.000 C 
BRANCH   3   4
ATOM      4  C   UNL     1      -0.580  -9.289  -1.487  1.00  0.00     0.006 C 
BRANCH   4   5
ATOM      5  C   UNL     1      -1.712  -8.863  -0.544  1.00  0.00     0.053 C 
BRANCH   5   6
ATOM      6  C   UNL     1      -1.610  -9.595   0.758  1.00  0.00     0.041 C 
ATOM      7  O   UNL     1      -2.635  -9.773   1.467  1.00  0.00    -0.550 OA
ATOM      8  O   UNL     1      -0.391 -10.124   1.164  1.00  0.00    -0.550 OA
ENDBRANCH   5   6
ENDBRANCH   4   5
ENDBRANCH   3   4
ENDBRANCH   2   3
ENDBRANCH   1   2
BRANCH   1   9
ATOM      9  C   UNL     1       2.976 -10.081  -3.902  1.00  0.00     0.000 C 
BRANCH   9  10
ATOM     10  C   UNL     1       4.037  -9.016  -3.585  1.00  0.00    -0.000 C 
BRANCH  10  11
ATOM     11  C   UNL     1       4.442  -8.251  -4.853  1.00  0.00    -0.000 C 
BRANCH  11  12
ATOM     12  C   UNL     1       4.915  -9.181  -5.981  1.00  0.00    -0.000 C 
BRANCH  12  13
ATOM     13  C   UNL     1       3.964  -9.177  -7.188  1.00  0.00    -0.003 C 
ATOM     14  C   UNL     1       3.176  -7.871  -7.261  1.00  0.00     0.004 C 
ENDBRANCH  12  13
ENDBRANCH  11  12
ENDBRANCH  10  11
ENDBRANCH   9  10
ENDBRANCH   1   9
TORSDOF 10
ENDMDL
MODEL 2
REMARK VINA RESULT:    -4.944      3.896      7.462
REMARK INTER + INTRA:          -8.361
REMARK INTER:                  -7.843
REMARK INTRA:                  -0.518
REMARK UNBOUND:                -0.527
REMARK SMILES CCCCCCCCCCCC(=O)[O-]
REMARK SMILES IDX 7 1 8 2 9 3 10 4 11 5 12 6 13 7 14 8 6 9 5 10 4 11 3 12 2 13
REMARK SMILES IDX 1 14
REMARK H PARENT
REMARK Flexibility Score: inf
ROOT
ATOM      1  C   UNL     1       1.851  -8.881  -2.746  1.00  0.00     0.000 C 
ENDROOT
BRANCH   1   2
ATOM      2  C   UNL     1       2.411  -9.848  -3.802  1.00  0.00     0.000 C 
BRANCH   2   3
ATOM      3  C   UNL     1       3.950  -9.839  -3.865  1.00  0.00     0.000 C 
BRANCH   3   4
ATOM      4  C   UNL     1       4.560  -8.630  -4.599  1.00  0.00     0.006 C 
BRANCH   4   5
ATOM      5  C   UNL     1       5.121  -8.992  -5.980  1.00  0.00     0.053 C 
BRANCH   5   6
ATOM      6  C   UNL     1       4.025  -9.015  -6.999  1.00  0.00     0.041 C 
ATOM      7  O   UNL     1       3.767 -10.074  -7.629  1.00  0.00    -0.550 OA
ATOM      8  O   UNL     1       3.254  -7.879  -7.216  1.00  0.00    -0.550 OA
ENDBRANCH   5   6
ENDBRANCH   4   5
ENDBRANCH   3   4
ENDBRANCH   2   3
ENDBRANCH   1   2
BRANCH   1   9
ATOM      9  C   UNL     1       1.396  -9.602  -1.467  1.00  0.00     0.000 C 
BRANCH   9  10
ATOM     10  C   UNL     1       0.764  -8.645  -0.444  1.00  0.00    -0.000 C 
BRANCH  10  11
ATOM     11  C   UNL     1      -0.365  -7.824  -1.084  1.00  0.00    -0.000 C 
BRANCH  11  12
ATOM     12  C   UNL     1      -1.746  -8.157  -0.497  1.00  0.00    -0.000 C 
BRANCH  12  13
ATOM     13  C   UNL     1      -1.861  -9.622  -0.051  1.00  0.00    -0.003 C 
ATOM     14  C   UNL     1      -2.399  -9.720   1.375  1.00  0.00     0.004 C 
ENDBRANCH  12  13
ENDBRANCH  11  12
ENDBRANCH  10  11
ENDBRANCH   9  10
ENDBRANCH   1   9
TORSDOF 10
ENDMDL
MODEL 3
REMARK VINA RESULT:    -4.652      3.931      7.180
REMARK INTER + INTRA:          -7.898
REMARK INTER:                  -7.192
REMARK INTRA:                  -0.707
REMARK UNBOUND:                -0.527
REMARK SMILES CCCCCCCCCCCC(=O)[O-]
REMARK SMILES IDX 7 1 8 2 9 3 10 4 11 5 12 6 13 7 14 8 6 9 5 10 4 11 3 12 2 13
REMARK SMILES IDX 1 14
REMARK H PARENT
REMARK Flexibility Score: inf
ROOT
ATOM      1  C   UNL     1       1.206  -8.884  -1.939  1.00  0.00     0.000 C 
ENDROOT
BRANCH   1   2
ATOM      2  C   UNL     1       1.532  -9.539  -3.292  1.00  0.00     0.000 C 
BRANCH   2   3
ATOM      3  C   UNL     1       3.000  -9.991  -3.398  1.00  0.00     0.000 C 
BRANCH   3   4
ATOM      4  C   UNL     1       3.972  -8.918  -3.921  1.00  0.00     0.006 C 
BRANCH   4   5
ATOM      5  C   UNL     1       3.402  -8.119  -5.100  1.00  0.00     0.053 C 
BRANCH   5   6
ATOM      6  C   UNL     1       3.906  -8.672  -6.397  1.00  0.00     0.041 C 
ATOM      7  O   UNL     1       3.420  -8.273  -7.487  1.00  0.00    -0.550 OA
ATOM      8  O   UNL     1       4.949  -9.589  -6.402  1.00  0.00    -0.550 OA
ENDBRANCH   5   6
ENDBRANCH   4   5
ENDBRANCH   3   4
ENDBRANCH   2   3
ENDBRANCH   1   2
BRANCH   1   9
ATOM      9  C   UNL     1       1.887  -9.595  -0.759  1.00  0.00     0.000 C 
BRANCH   9  10
ATOM     10  C   UNL     1       0.887 -10.038   0.320  1.00  0.00    -0.000 C 
BRANCH  10  11
ATOM     11  C   UNL     1      -0.536 -10.125  -0.253  1.00  0.00    -0.000 C 
BRANCH  11  12
ATOM     12  C   UNL     1      -1.616  -9.797   0.790  1.00  0.00    -0.000 C 
BRANCH  12  13
ATOM     13  C   UNL     1      -2.283  -8.436   0.542  1.00  0.00    -0.003 C 
ATOM     14  C   UNL     1      -1.847  -7.847  -0.797  1.00  0.00     0.004 C 
ENDBRANCH  12  13
ENDBRANCH  11  12
ENDBRANCH  10  11
ENDBRANCH   9  10
ENDBRANCH   1   9
TORSDOF 10
ENDMDL
MODEL 4
REMARK VINA RESULT:    -4.603     10.205     11.681
REMARK INTER + INTRA:          -7.821
REMARK INTER:                  -7.005
REMARK INTRA:                  -0.816
REMARK UNBOUND:                -0.527
REMARK SMILES CCCCCCCCCCCC(=O)[O-]
REMARK SMILES IDX 7 1 8 2 9 3 10 4 11 5 12 6 13 7 14 8 6 9 5 10 4 11 3 12 2 13
REMARK SMILES IDX 1 14
REMARK H PARENT
REMARK Flexibility Score: inf
ROOT
ATOM      1  C   UNL     1      -0.740   1.884   0.622  1.00  0.00     0.000 C 
ENDROOT
BRANCH   1   2
ATOM      2  C   UNL     1      -1.951   2.113  -0.297  1.00  0.00     0.000 C 
BRANCH   2   3
ATOM      3  C   UNL     1      -1.886   1.279  -1.590  1.00  0.00     0.000 C 
BRANCH   3   4
ATOM      4  C   UNL     1      -1.518   2.075  -2.856  1.00  0.00     0.006 C 
BRANCH   4   5
ATOM      5  C   UNL     1      -0.004   2.151  -3.095  1.00  0.00     0.053 C 
BRANCH   5   6
ATOM      6  C   UNL     1       0.463   3.572  -3.031  1.00  0.00     0.041 C 
ATOM      7  O   UNL     1      -0.059   4.375  -2.214  1.00  0.00    -0.550 OA
ATOM      8  O   UNL     1       1.510   3.995  -3.840  1.00  0.00    -0.550 OA
ENDBRANCH   5   6
ENDBRANCH   4   5
ENDBRANCH   3   4
ENDBRANCH   2   3
ENDBRANCH   1   2
BRANCH   1   9
ATOM      9  C   UNL     1       0.036   0.605   0.269  1.00  0.00     0.000 C 
BRANCH   9  10
ATOM     10  C   UNL     1       0.807   0.032   1.468  1.00  0.00    -0.000 C 
BRANCH  10  11
ATOM     11  C   UNL     1       0.994  -1.486   1.326  1.00  0.00    -0.000 C 
BRANCH  11  12
ATOM     12  C   UNL     1       0.306  -2.054   0.075  1.00  0.00    -0.000 C 
BRANCH  12  13
ATOM     13  C   UNL     1       0.953  -3.358  -0.414  1.00  0.00    -0.003 C 
ATOM     14  C   UNL     1       0.837  -3.493  -1.931  1.00  0.00     0.004 C 
ENDBRANCH  12  13
ENDBRANCH  11  12
ENDBRANCH  10  11
ENDBRANCH   9  10
ENDBRANCH   1   9
TORSDOF 10
ENDMDL
MODEL 5
REMARK VINA RESULT:    -4.568      1.687      2.219
REMARK INTER + INTRA:          -7.765
REMARK INTER:                  -7.411
REMARK INTRA:                  -0.354
REMARK UNBOUND:                -0.527
REMARK SMILES CCCCCCCCCCCC(=O)[O-]
REMARK SMILES IDX 7 1 8 2 9 3 10 4 11 5 12 6 13 7 14 8 6 9 5 10 4 11 3 12 2 13
REMARK SMILES IDX 1 14
REMARK H PARENT
REMARK Flexibility Score: inf
ROOT
ATOM      1  C   UNL     1       2.777  -9.885  -3.807  1.00  0.00     0.000 C 
ENDROOT
BRANCH   1   2
ATOM      2  C   UNL     1       2.263 -10.124  -2.377  1.00  0.00     0.000 C 
BRANCH   2   3
ATOM      3  C   UNL     1       1.202  -9.096  -1.944  1.00  0.00     0.000 C 
BRANCH   3   4
ATOM      4  C   UNL     1       0.641  -9.303  -0.526  1.00  0.00     0.006 C 
BRANCH   4   5
ATOM      5  C   UNL     1      -0.707 -10.036  -0.518  1.00  0.00     0.053 C 
BRANCH   5   6
ATOM      6  C   UNL     1      -1.751  -9.201   0.155  1.00  0.00     0.041 C 
ATOM      7  O   UNL     1      -2.310  -9.611   1.207  1.00  0.00    -0.550 OA
ATOM      8  O   UNL     1      -2.071  -7.947  -0.351  1.00  0.00    -0.550 OA
ENDBRANCH   5   6
ENDBRANCH   4   5
ENDBRANCH   3   4
ENDBRANCH   2   3
ENDBRANCH   1   2
BRANCH   1   9
ATOM      9  C   UNL     1       4.055  -9.033  -3.840  1.00  0.00     0.000 C 
BRANCH   9  10
ATOM     10  C   UNL     1       4.503  -8.695  -5.271  1.00  0.00    -0.000 C 
BRANCH  10  11
ATOM     11  C   UNL     1       3.339  -8.112  -6.086  1.00  0.00    -0.000 C 
BRANCH  11  12
ATOM     12  C   UNL     1       2.679  -6.906  -5.398  1.00  0.00    -0.000 C 
BRANCH  12  13
ATOM     13  C   UNL     1       2.053  -5.924  -6.400  1.00  0.00    -0.003 C 
ATOM     14  C   UNL     1       1.265  -4.833  -5.679  1.00  0.00     0.004 C 
ENDBRANCH  12  13
ENDBRANCH  11  12
ENDBRANCH  10  11
ENDBRANCH   9  10
ENDBRANCH   1   9
TORSDOF 10
ENDMDL
MODEL 6
REMARK VINA RESULT:    -4.560      1.674      2.824
REMARK INTER + INTRA:          -7.752
REMARK INTER:                  -7.112
REMARK INTRA:                  -0.640
REMARK UNBOUND:                -0.527
REMARK SMILES CCCCCCCCCCCC(=O)[O-]
REMARK SMILES IDX 7 1 8 2 9 3 10 4 11 5 12 6 13 7 14 8 6 9 5 10 4 11 3 12 2 13
REMARK SMILES IDX 1 14
REMARK H PARENT
REMARK Flexibility Score: inf
ROOT
ATOM      1  C   UNL     1       4.553  -8.852  -3.830  1.00  0.00     0.000 C 
ENDROOT
BRANCH   1   2
ATOM      2  C   UNL     1       3.351  -9.737  -3.462  1.00  0.00     0.000 C 
BRANCH   2   3
ATOM      3  C   UNL     1       2.124  -8.922  -3.016  1.00  0.00     0.000 C 
BRANCH   3   4
ATOM      4  C   UNL     1       1.828  -8.971  -1.505  1.00  0.00     0.006 C 
BRANCH   4   5
ATOM      5  C   UNL     1       0.373  -9.346  -1.193  1.00  0.00     0.053 C 
BRANCH   5   6
ATOM      6  C   UNL     1      -0.459  -8.113  -1.025  1.00  0.00     0.041 C 
ATOM      7  O   UNL     1       0.073  -6.975  -1.101  1.00  0.00    -0.550 OA
ATOM      8  O   UNL     1      -1.831  -8.222  -0.837  1.00  0.00    -0.550 OA
ENDBRANCH   5   6
ENDBRANCH   4   5
ENDBRANCH   3   4
ENDBRANCH   2   3
ENDBRANCH   1   2
BRANCH   1   9
ATOM      9  C   UNL     1       5.016  -9.059  -5.281  1.00  0.00     0.000 C 
BRANCH   9  10
ATOM     10  C   UNL     1       3.950  -9.744  -6.149  1.00  0.00    -0.000 C 
BRANCH  10  11
ATOM     11  C   UNL     1       3.801  -9.029  -7.501  1.00  0.00    -0.000 C 
BRANCH  11  12
ATOM     12  C   UNL     1       3.481  -7.534  -7.350  1.00  0.00    -0.000 C 
BRANCH  12  13
ATOM     13  C   UNL     1       2.404  -7.264  -6.289  1.00  0.00    -0.003 C 
ATOM     14  C   UNL     1       2.077  -5.776  -6.204  1.00  0.00     0.004 C 
ENDBRANCH  12  13
ENDBRANCH  11  12
ENDBRANCH  10  11
ENDBRANCH   9  10
ENDBRANCH   1   9
TORSDOF 10
ENDMDL
MODEL 7
REMARK VINA RESULT:    -4.525     10.408     11.892
REMARK INTER + INTRA:          -7.697
REMARK INTER:                  -7.088
REMARK INTRA:                  -0.609
REMARK UNBOUND:                -0.527
REMARK SMILES CCCCCCCCCCCC(=O)[O-]
REMARK SMILES IDX 7 1 8 2 9 3 10 4 11 5 12 6 13 7 14 8 6 9 5 10 4 11 3 12 2 13
REMARK SMILES IDX 1 14
REMARK H PARENT
REMARK Flexibility Score: inf
ROOT
ATOM      1  C   UNL     1      -0.849   1.841   0.761  1.00  0.00     0.000 C 
ENDROOT
BRANCH   1   2
ATOM      2  C   UNL     1      -1.998   1.984  -0.252  1.00  0.00     0.000 C 
BRANCH   2   3
ATOM      3  C   UNL     1      -2.109   3.405  -0.833  1.00  0.00     0.000 C 
BRANCH   3   4
ATOM      4  C   UNL     1      -0.953   3.816  -1.763  1.00  0.00     0.006 C 
BRANCH   4   5
ATOM      5  C   UNL     1      -0.616   2.743  -2.807  1.00  0.00     0.053 C 
BRANCH   5   6
ATOM      6  C   UNL     1       0.599   3.137  -3.588  1.00  0.00     0.041 C 
ATOM      7  O   UNL     1       1.243   4.173  -3.277  1.00  0.00    -0.550 OA
ATOM      8  O   UNL     1       1.049   2.331  -4.626  1.00  0.00    -0.550 OA
ENDBRANCH   5   6
ENDBRANCH   4   5
ENDBRANCH   3   4
ENDBRANCH   2   3
ENDBRANCH   1   2
BRANCH   1   9
ATOM      9  C   UNL     1       0.133   0.720   0.385  1.00  0.00     0.000 C 
BRANCH   9  10
ATOM     10  C   UNL     1       0.685  -0.017   1.614  1.00  0.00    -0.000 C 
BRANCH  10  11
ATOM     11  C   UNL     1       1.072  -1.461   1.260  1.00  0.00    -0.000 C 
BRANCH  11  12
ATOM     12  C   UNL     1       0.253  -2.024   0.089  1.00  0.00    -0.000 C 
BRANCH  12  13
ATOM     13  C   UNL     1       0.793  -3.371  -0.416  1.00  0.00    -0.003 C 
ATOM     14  C   UNL     1       1.096  -3.315  -1.912  1.00  0.00     0.004 C 
ENDBRANCH  12  13
ENDBRANCH  11  12
ENDBRANCH  10  11
ENDBRANCH   9  10
ENDBRANCH   1   9
TORSDOF 10
ENDMDL
MODEL 8
REMARK VINA RESULT:    -4.152      3.804      6.493
REMARK INTER + INTRA:          -7.105
REMARK INTER:                  -6.331
REMARK INTRA:                  -0.774
REMARK UNBOUND:                -0.527
REMARK SMILES CCCCCCCCCCCC(=O)[O-]
REMARK SMILES IDX 7 1 8 2 9 3 10 4 11 5 12 6 13 7 14 8 6 9 5 10 4 11 3 12 2 13
REMARK SMILES IDX 1 14
REMARK H PARENT
REMARK Flexibility Score: inf
ROOT
ATOM      1  C   UNL     1       3.990  -9.094  -3.645  1.00  0.00     0.000 C 
ENDROOT
BRANCH   1   2
ATOM      2  C   UNL     1       4.581  -8.360  -4.861  1.00  0.00     0.000 C 
BRANCH   2   3
ATOM      3  C   UNL     1       3.790  -8.616  -6.156  1.00  0.00     0.000 C 
BRANCH   3   4
ATOM      4  C   UNL     1       2.994  -7.405  -6.678  1.00  0.00     0.006 C 
BRANCH   4   5
ATOM      5  C   UNL     1       2.237  -6.664  -5.569  1.00  0.00     0.053 C 
BRANCH   5   6
ATOM      6  C   UNL     1       1.887  -5.278  -6.011  1.00  0.00     0.041 C 
ATOM      7  O   UNL     1       0.830  -5.067  -6.660  1.00  0.00    -0.550 OA
ATOM      8  O   UNL     1       2.706  -4.211  -5.662  1.00  0.00    -0.550 OA
ENDBRANCH   5   6
ENDBRANCH   4   5
ENDBRANCH   3   4
ENDBRANCH   2   3
ENDBRANCH   1   2
BRANCH   1   9
ATOM      9  C   UNL     1       2.759  -9.940  -4.007  1.00  0.00     0.000 C 
BRANCH   9  10
ATOM     10  C   UNL     1       1.593  -9.733  -3.030  1.00  0.00    -0.000 C 
BRANCH  10  11
ATOM     11  C   UNL     1       2.065  -9.020  -1.754  1.00  0.00    -0.000 C 
BRANCH  11  12
ATOM     12  C   UNL     1       0.929  -8.792  -0.746  1.00  0.00    -0.000 C 
BRANCH  12  13
ATOM     13  C   UNL     1      -0.019  -7.660  -1.170  1.00  0.00    -0.003 C 
ATOM     14  C   UNL     1      -1.459  -8.158  -1.269  1.00  0.00     0.004 C 
ENDBRANCH  12  13
ENDBRANCH  11  12
ENDBRANCH  10  11
ENDBRANCH   9  10
ENDBRANCH   1   9
TORSDOF 10
ENDMDL
