MODEL 1
REMARK VINA RESULT:    -3.323      0.000      0.000
REMARK INTER + INTRA:          -5.389
REMARK INTER:                  -4.488
REMARK INTRA:                  -0.901
REMARK UNBOUND:                -0.901
REMARK SMILES O=C[C@H](O)[C@@H](O)[C@@H](O)CO
REMARK SMILES IDX 7 1 9 2 10 3 5 5 3 6 2 7 1 8 4 9 6 11 8 13
REMARK H PARENT 10 4 4 10 6 12 8 14
REMARK Flexibility Score: inf
ROOT
ATOM      1  C   UNL     1      12.803  18.277  40.680  1.00  0.00     0.171 C 
ENDROOT
BRANCH   1   2
ATOM      2  C   UNL     1      12.214  16.889  40.982  1.00  0.00     0.190 C 
BRANCH   2   3
ATOM      3  O   UNL     1      12.335  16.043  39.872  1.00  0.00    -0.394 OA
ATOM      4  H   UNL     1      12.801  15.229  40.196  1.00  0.00     0.210 HD
ENDBRANCH   2   3
ENDBRANCH   1   2
BRANCH   1   5
ATOM      5  C   UNL     1      12.051  19.076  39.576  1.00  0.00     0.181 C 
BRANCH   5   6
ATOM      6  C   UNL     1      12.822  19.231  38.235  1.00  0.00     0.209 C 
BRANCH   6   7
ATOM      7  C   UNL     1      12.211  18.429  37.114  1.00  0.00     0.258 C 
ATOM      8  O   UNL     1      12.025  17.227  37.231  1.00  0.00    -0.300 OA
ENDBRANCH   6   7
BRANCH   6   9
ATOM      9  O   UNL     1      14.175  18.889  38.394  1.00  0.00    -0.383 OA
ATOM     10  H   UNL     1      14.683  19.407  37.715  1.00  0.00     0.211 HD
ENDBRANCH   6   9
ENDBRANCH   5   6
BRANCH   5  11
ATOM     11  O   UNL     1      10.773  18.529  39.366  1.00  0.00    -0.387 OA
ATOM     12  H   UNL     1      10.299  18.559  40.238  1.00  0.00     0.211 HD
ENDBRANCH   5  11
ENDBRANCH   1   5
BRANCH   1  13
ATOM     13  O   UNL     1      12.816  19.024  41.870  1.00  0.00    -0.388 OA
ATOM     14  H   UNL     1      11.872  19.234  42.093  1.00  0.00     0.211 HD
ENDBRANCH   1  13
TORSDOF 8
ENDMDL
MODEL 2
REMARK VINA RESULT:    -3.211      1.931      3.075
REMARK INTER + INTRA:          -5.239
REMARK INTER:                  -4.281
REMARK INTRA:                  -0.958
REMARK UNBOUND:                -0.901
REMARK SMILES O=C[C@H](O)[C@@H](O)[C@@H](O)CO
REMARK SMILES IDX 7 1 9 2 10 3 5 5 3 6 2 7 1 8 4 9 6 11 8 13
REMARK H PARENT 10 4 4 10 6 12 8 14
REMARK Flexibility Score: inf
ROOT
ATOM      1  C   UNL     1      11.868  18.720  39.068  1.00  0.00     0.171 C 
ENDROOT
BRANCH   1   2
ATOM      2  C   UNL     1      13.038  18.843  38.080  1.00  0.00     0.190 C 
BRANCH   2   3
ATOM      3  O   UNL     1      12.699  18.301  36.833  1.00  0.00    -0.394 OA
ATOM      4  H   UNL     1      13.316  17.537  36.689  1.00  0.00     0.210 HD
ENDBRANCH   2   3
ENDBRANCH   1   2
BRANCH   1   5
ATOM      5  C   UNL     1      11.369  17.266  39.307  1.00  0.00     0.181 C 
BRANCH   5   6
ATOM      6  C   UNL     1      10.127  16.849  38.469  1.00  0.00     0.209 C 
BRANCH   6   7
ATOM      7  C   UNL     1      10.385  15.642  37.603  1.00  0.00     0.258 C 
ATOM      8  O   UNL     1      11.254  15.660  36.745  1.00  0.00    -0.300 OA
ENDBRANCH   6   7
BRANCH   6   9
ATOM      9  O   UNL     1       9.673  17.921  37.684  1.00  0.00    -0.383 OA
ATOM     10  H   UNL     1       9.981  18.754  38.129  1.00  0.00     0.211 HD
ENDBRANCH   6   9
ENDBRANCH   5   6
BRANCH   5  11
ATOM     11  O   UNL     1      12.426  16.355  39.134  1.00  0.00    -0.387 OA
ATOM     12  H   UNL     1      12.181  15.772  38.368  1.00  0.00     0.211 HD
ENDBRANCH   5  11
ENDBRANCH   1   5
BRANCH   1  13
ATOM     13  O   UNL     1      12.258  19.288  40.293  1.00  0.00    -0.388 OA
ATOM     14  H   UNL     1      13.227  19.102  40.405  1.00  0.00     0.211 HD
ENDBRANCH   1  13
TORSDOF 8
ENDMDL
MODEL 3
REMARK VINA RESULT:    -3.178      1.766      2.633
REMARK INTER + INTRA:          -5.194
REMARK INTER:                  -4.365
REMARK INTRA:                  -0.829
REMARK UNBOUND:                -0.901
REMARK SMILES O=C[C@H](O)[C@@H](O)[C@@H](O)CO
REMARK SMILES IDX 7 1 9 2 10 3 5 5 3 6 2 7 1 8 4 9 6 11 8 13
REMARK H PARENT 10 4 4 10 6 12 8 14
REMARK Flexibility Score: inf
ROOT
ATOM      1  C   UNL     1      11.209  16.519  39.104  1.00  0.00     0.171 C 
ENDROOT
BRANCH   1   2
ATOM      2  C   UNL     1      10.962  15.667  37.849  1.00  0.00     0.190 C 
BRANCH   2   3
ATOM      3  O   UNL     1      11.916  15.945  36.861  1.00  0.00    -0.394 OA
ATOM      4  H   UNL     1      12.434  16.725  37.190  1.00  0.00     0.210 HD
ENDBRANCH   2   3
ENDBRANCH   1   2
BRANCH   1   5
ATOM      5  C   UNL     1      10.801  18.014  38.966  1.00  0.00     0.181 C 
BRANCH   5   6
ATOM      6  C   UNL     1      11.937  19.036  39.255  1.00  0.00     0.209 C 
BRANCH   6   7
ATOM      7  C   UNL     1      13.070  18.944  38.265  1.00  0.00     0.258 C 
ATOM      8  O   UNL     1      12.851  18.817  37.070  1.00  0.00    -0.300 OA
ENDBRANCH   6   7
BRANCH   6   9
ATOM      9  O   UNL     1      12.424  18.884  40.564  1.00  0.00    -0.383 OA
ATOM     10  H   UNL     1      11.741  19.275  41.171  1.00  0.00     0.211 HD
ENDBRANCH   6   9
ENDBRANCH   5   6
BRANCH   5  11
ATOM     11  O   UNL     1      10.220  18.245  37.707  1.00  0.00    -0.387 OA
ATOM     12  H   UNL     1       9.238  18.142  37.818  1.00  0.00     0.211 HD
ENDBRANCH   5  11
ENDBRANCH   1   5
BRANCH   1  13
ATOM     13  O   UNL     1      10.510  15.941  40.178  1.00  0.00    -0.388 OA
ATOM     14  H   UNL     1       9.743  15.443  39.792  1.00  0.00     0.211 HD
ENDBRANCH   1  13
TORSDOF 8
ENDMDL
MODEL 4
REMARK VINA RESULT:    -3.170      1.749      3.406
REMARK INTER + INTRA:          -5.183
REMARK INTER:                  -4.291
REMARK INTRA:                  -0.892
REMARK UNBOUND:                -0.901
REMARK SMILES O=C[C@H](O)[C@@H](O)[C@@H](O)CO
REMARK SMILES IDX 7 1 9 2 10 3 5 5 3 6 2 7 1 8 4 9 6 11 8 13
REMARK H PARENT 10 4 4 10 6 12 8 14
REMARK Flexibility Score: inf
ROOT
ATOM      1  C   UNL     1      12.517  18.214  37.472  1.00  0.00     0.171 C 
ENDROOT
BRANCH   1   2
ATOM      2  C   UNL     1      13.414  18.703  38.620  1.00  0.00     0.190 C 
BRANCH   2   3
ATOM      3  O   UNL     1      13.403  17.792  39.685  1.00  0.00    -0.394 OA
ATOM      4  H   UNL     1      13.127  16.921  39.299  1.00  0.00     0.210 HD
ENDBRANCH   2   3
ENDBRANCH   1   2
BRANCH   1   5
ATOM      5  C   UNL     1      11.011  18.076  37.836  1.00  0.00     0.181 C 
BRANCH   5   6
ATOM      6  C   UNL     1      10.453  16.625  37.795  1.00  0.00     0.209 C 
BRANCH   6   7
ATOM      7  C   UNL     1      10.292  16.022  39.167  1.00  0.00     0.258 C 
ATOM      8  O   UNL     1      11.239  15.949  39.936  1.00  0.00    -0.300 OA
ENDBRANCH   6   7
BRANCH   6   9
ATOM      9  O   UNL     1      11.264  15.801  36.996  1.00  0.00    -0.383 OA
ATOM     10  H   UNL     1      11.629  15.094  37.591  1.00  0.00     0.211 HD
ENDBRANCH   6   9
ENDBRANCH   5   6
BRANCH   5  11
ATOM     11  O   UNL     1      10.754  18.682  39.078  1.00  0.00    -0.387 OA
ATOM     12  H   UNL     1       9.782  18.884  39.106  1.00  0.00     0.211 HD
ENDBRANCH   5  11
ENDBRANCH   1   5
BRANCH   1  13
ATOM     13  O   UNL     1      12.657  19.100  36.390  1.00  0.00    -0.388 OA
ATOM     14  H   UNL     1      12.395  18.603  35.571  1.00  0.00     0.211 HD
ENDBRANCH   1  13
TORSDOF 8
ENDMDL
MODEL 5
REMARK VINA RESULT:    -3.150      1.365      2.342
REMARK INTER + INTRA:          -5.155
REMARK INTER:                  -4.491
REMARK INTRA:                  -0.664
REMARK UNBOUND:                -0.901
REMARK SMILES O=C[C@H](O)[C@@H](O)[C@@H](O)CO
REMARK SMILES IDX 7 1 9 2 10 3 5 5 3 6 2 7 1 8 4 9 6 11 8 13
REMARK H PARENT 10 4 4 10 6 12 8 14
REMARK Flexibility Score: inf
ROOT
ATOM      1  C   UNL     1      12.481  17.243  41.200  1.00  0.00     0.171 C 
ENDROOT
BRANCH   1   2
ATOM      2  C   UNL     1      12.590  18.004  42.531  1.00  0.00     0.190 C 
BRANCH   2   3
ATOM      3  O   UNL     1      13.339  19.177  42.376  1.00  0.00    -0.394 OA
ATOM      4  H   UNL     1      14.186  18.907  41.934  1.00  0.00     0.210 HD
ENDBRANCH   2   3
ENDBRANCH   1   2
BRANCH   1   5
ATOM      5  C   UNL     1      12.730  18.110  39.933  1.00  0.00     0.181 C 
BRANCH   5   6
ATOM      6  C   UNL     1      12.659  17.341  38.583  1.00  0.00     0.209 C 
BRANCH   6   7
ATOM      7  C   UNL     1      11.977  18.131  37.495  1.00  0.00     0.258 C 
ATOM      8  O   UNL     1      12.578  18.997  36.878  1.00  0.00    -0.300 OA
ENDBRANCH   6   7
BRANCH   6   9
ATOM      9  O   UNL     1      12.024  16.098  38.750  1.00  0.00    -0.383 OA
ATOM     10  H   UNL     1      12.258  15.777  39.660  1.00  0.00     0.211 HD
ENDBRANCH   6   9
ENDBRANCH   5   6
BRANCH   5  11
ATOM     11  O   UNL     1      11.869  19.221  39.928  1.00  0.00    -0.387 OA
ATOM     12  H   UNL     1      11.953  19.656  40.817  1.00  0.00     0.211 HD
ENDBRANCH   5  11
ENDBRANCH   1   5
BRANCH   1  13
ATOM     13  O   UNL     1      13.394  16.175  41.222  1.00  0.00    -0.388 OA
ATOM     14  H   UNL     1      13.673  16.011  40.283  1.00  0.00     0.211 HD
ENDBRANCH   1  13
TORSDOF 8
ENDMDL
MODEL 6
REMARK VINA RESULT:    -3.101      1.105      3.814
REMARK INTER + INTRA:          -5.089
REMARK INTER:                  -4.248
REMARK INTRA:                  -0.841
REMARK UNBOUND:                -0.901
REMARK SMILES O=C[C@H](O)[C@@H](O)[C@@H](O)CO
REMARK SMILES IDX 7 1 9 2 10 3 5 5 3 6 2 7 1 8 4 9 6 11 8 13
REMARK H PARENT 10 4 4 10 6 12 8 14
REMARK Flexibility Score: inf
ROOT
ATOM      1  C   UNL     1      12.238  17.270  37.884  1.00  0.00     0.171 C 
ENDROOT
BRANCH   1   2
ATOM      2  C   UNL     1      12.510  18.615  37.192  1.00  0.00     0.190 C 
BRANCH   2   3
ATOM      3  O   UNL     1      13.190  19.490  38.050  1.00  0.00    -0.394 OA
ATOM      4  H   UNL     1      13.849  18.936  38.543  1.00  0.00     0.210 HD
ENDBRANCH   2   3
ENDBRANCH   1   2
BRANCH   1   5
ATOM      5  C   UNL     1      11.108  17.306  38.953  1.00  0.00     0.181 C 
BRANCH   5   6
ATOM      6  C   UNL     1      11.519  16.796  40.363  1.00  0.00     0.209 C 
BRANCH   6   7
ATOM      7  C   UNL     1      12.635  17.605  40.974  1.00  0.00     0.258 C 
ATOM      8  O   UNL     1      12.613  18.826  40.946  1.00  0.00    -0.300 OA
ENDBRANCH   6   7
BRANCH   6   9
ATOM      9  O   UNL     1      11.872  15.438  40.320  1.00  0.00    -0.383 OA
ATOM     10  H   UNL     1      11.488  15.068  39.482  1.00  0.00     0.211 HD
ENDBRANCH   6   9
ENDBRANCH   5   6
BRANCH   5  11
ATOM     11  O   UNL     1      10.546  18.592  39.023  1.00  0.00    -0.387 OA
ATOM     12  H   UNL     1       9.596  18.509  38.742  1.00  0.00     0.211 HD
ENDBRANCH   5  11
ENDBRANCH   1   5
BRANCH   1  13
ATOM     13  O   UNL     1      11.920  16.319  36.900  1.00  0.00    -0.388 OA
ATOM     14  H   UNL     1      11.526  15.537  37.367  1.00  0.00     0.211 HD
ENDBRANCH   1  13
TORSDOF 8
ENDMDL
MODEL 7
REMARK VINA RESULT:    -3.098      1.488      2.495
REMARK INTER + INTRA:          -5.086
REMARK INTER:                  -4.601
REMARK INTRA:                  -0.485
REMARK UNBOUND:                -0.901
REMARK SMILES O=C[C@H](O)[C@@H](O)[C@@H](O)CO
REMARK SMILES IDX 7 1 9 2 10 3 5 5 3 6 2 7 1 8 4 9 6 11 8 13
REMARK H PARENT 10 4 4 10 6 12 8 14
REMARK Flexibility Score: inf
ROOT
ATOM      1  C   UNL     1      12.585  18.183  40.080  1.00  0.00     0.171 C 
ENDROOT
BRANCH   1   2
ATOM      2  C   UNL     1      12.567  18.131  41.616  1.00  0.00     0.190 C 
BRANCH   2   3
ATOM      3  O   UNL     1      13.313  19.185  42.160  1.00  0.00    -0.394 OA
ATOM      4  H   UNL     1      13.726  19.656  41.391  1.00  0.00     0.210 HD
ENDBRANCH   2   3
ENDBRANCH   1   2
BRANCH   1   5
ATOM      5  C   UNL     1      11.872  16.990  39.380  1.00  0.00     0.181 C 
BRANCH   5   6
ATOM      6  C   UNL     1      11.538  17.211  37.878  1.00  0.00     0.209 C 
BRANCH   6   7
ATOM      7  C   UNL     1      11.139  15.938  37.175  1.00  0.00     0.258 C 
ATOM      8  O   UNL     1      11.977  15.111  36.850  1.00  0.00    -0.300 OA
ENDBRANCH   6   7
BRANCH   6   9
ATOM      9  O   UNL     1      12.616  17.815  37.211  1.00  0.00    -0.383 OA
ATOM     10  H   UNL     1      12.977  17.140  36.577  1.00  0.00     0.211 HD
ENDBRANCH   6   9
ENDBRANCH   5   6
BRANCH   5  11
ATOM     11  O   UNL     1      12.608  15.807  39.567  1.00  0.00    -0.387 OA
ATOM     12  H   UNL     1      12.748  15.409  38.667  1.00  0.00     0.211 HD
ENDBRANCH   5  11
ENDBRANCH   1   5
BRANCH   1  13
ATOM     13  O   UNL     1      11.991  19.388  39.668  1.00  0.00    -0.388 OA
ATOM     14  H   UNL     1      12.711  19.950  39.278  1.00  0.00     0.211 HD
ENDBRANCH   1  13
TORSDOF 8
ENDMDL
MODEL 8
REMARK VINA RESULT:    -3.015      1.645      2.872
REMARK INTER + INTRA:          -4.974
REMARK INTER:                  -4.055
REMARK INTRA:                  -0.919
REMARK UNBOUND:                -0.901
REMARK SMILES O=C[C@H](O)[C@@H](O)[C@@H](O)CO
REMARK SMILES IDX 7 1 9 2 10 3 5 5 3 6 2 7 1 8 4 9 6 11 8 13
REMARK H PARENT 10 4 4 10 6 12 8 14
REMARK Flexibility Score: inf
ROOT
ATOM      1  C   UNL     1      10.924  16.274  39.198  1.00  0.00     0.171 C 
ENDROOT
BRANCH   1   2
ATOM      2  C   UNL     1      12.175  15.634  39.821  1.00  0.00     0.190 C 
BRANCH   2   3
ATOM      3  O   UNL     1      13.106  16.613  40.192  1.00  0.00    -0.394 OA
ATOM      4  H   UNL     1      13.971  16.336  39.794  1.00  0.00     0.210 HD
ENDBRANCH   2   3
ENDBRANCH   1   2
BRANCH   1   5
ATOM      5  C   UNL     1      11.169  16.994  37.841  1.00  0.00     0.181 C 
BRANCH   5   6
ATOM      6  C   UNL     1      11.468  18.516  37.948  1.00  0.00     0.209 C 
BRANCH   6   7
ATOM      7  C   UNL     1      12.847  18.876  37.456  1.00  0.00     0.258 C 
ATOM      8  O   UNL     1      13.831  18.690  38.155  1.00  0.00    -0.300 OA
ENDBRANCH   6   7
BRANCH   6   9
ATOM      9  O   UNL     1      11.290  18.969  39.265  1.00  0.00    -0.383 OA
ATOM     10  H   UNL     1      11.581  18.231  39.864  1.00  0.00     0.211 HD
ENDBRANCH   6   9
ENDBRANCH   5   6
BRANCH   5  11
ATOM     11  O   UNL     1      12.171  16.331  37.113  1.00  0.00    -0.387 OA
ATOM     12  H   UNL     1      12.947  16.950  37.059  1.00  0.00     0.211 HD
ENDBRANCH   5  11
ENDBRANCH   1   5
BRANCH   1  13
ATOM     13  O   UNL     1       9.950  15.275  39.028  1.00  0.00    -0.388 OA
ATOM     14  H   UNL     1       9.554  15.099  39.922  1.00  0.00     0.211 HD
ENDBRANCH   1  13
TORSDOF 8
ENDMDL
MODEL 9
REMARK VINA RESULT:    -3.001      1.645      3.584
REMARK INTER + INTRA:          -4.955
REMARK INTER:                  -4.448
REMARK INTRA:                  -0.507
REMARK UNBOUND:                -0.901
REMARK SMILES O=C[C@H](O)[C@@H](O)[C@@H](O)CO
REMARK SMILES IDX 7 1 9 2 10 3 5 5 3 6 2 7 1 8 4 9 6 11 8 13
REMARK H PARENT 10 4 4 10 6 12 8 14
REMARK Flexibility Score: inf
ROOT
ATOM      1  C   UNL     1      11.810  17.007  37.813  1.00  0.00     0.171 C 
ENDROOT
BRANCH   1   2
ATOM      2  C   UNL     1      11.859  15.622  37.147  1.00  0.00     0.190 C 
BRANCH   2   3
ATOM      3  O   UNL     1      10.616  15.290  36.592  1.00  0.00    -0.394 OA
ATOM      4  H   UNL     1      10.298  14.492  37.088  1.00  0.00     0.210 HD
ENDBRANCH   2   3
ENDBRANCH   1   2
BRANCH   1   5
ATOM      5  C   UNL     1      12.301  17.036  39.289  1.00  0.00     0.181 C 
BRANCH   5   6
ATOM      6  C   UNL     1      12.679  18.444  39.829  1.00  0.00     0.209 C 
BRANCH   6   7
ATOM      7  C   UNL     1      12.840  18.470  41.328  1.00  0.00     0.258 C 
ATOM      8  O   UNL     1      13.421  17.569  41.913  1.00  0.00    -0.300 OA
ENDBRANCH   6   7
BRANCH   6   9
ATOM      9  O   UNL     1      11.735  19.403  39.427  1.00  0.00    -0.383 OA
ATOM     10  H   UNL     1      10.844  18.966  39.472  1.00  0.00     0.211 HD
ENDBRANCH   6   9
ENDBRANCH   5   6
BRANCH   5  11
ATOM     11  O   UNL     1      11.363  16.407  40.126  1.00  0.00    -0.387 OA
ATOM     12  H   UNL     1      11.827  15.641  40.556  1.00  0.00     0.211 HD
ENDBRANCH   5  11
ENDBRANCH   1   5
BRANCH   1  13
ATOM     13  O   UNL     1      12.580  17.897  37.046  1.00  0.00    -0.388 OA
ATOM     14  H   UNL     1      11.989  18.252  36.331  1.00  0.00     0.211 HD
ENDBRANCH   1  13
TORSDOF 8
ENDMDL
