MODEL 1
REMARK VINA RESULT:    -4.143      0.000      0.000
REMARK INTER + INTRA:          -9.257
REMARK INTER:                  -7.292
REMARK INTRA:                  -1.966
REMARK UNBOUND:                -1.966
REMARK SMILES CCCCCCCCCCCCCCC(=O)[O-]
REMARK SMILES IDX 9 1 10 2 11 3 12 4 13 5 14 6 15 7 16 8 17 9 8 10 7 11 6 12
REMARK SMILES IDX 5 13 4 14 3 15 2 16 1 17
REMARK H PARENT
REMARK Flexibility Score: inf
ROOT
ATOM      1  C   UNL     1     -20.688 118.054  -2.713  1.00  0.00     0.000 C 
ENDROOT
BRANCH   1   2
ATOM      2  C   UNL     1     -19.957 119.010  -1.752  1.00  0.00     0.000 C 
BRANCH   2   3
ATOM      3  C   UNL     1     -20.221 120.492  -2.069  1.00  0.00     0.000 C 
BRANCH   3   4
ATOM      4  C   UNL     1     -20.996 121.215  -0.953  1.00  0.00     0.000 C 
BRANCH   4   5
ATOM      5  C   UNL     1     -22.525 121.009  -0.973  1.00  0.00     0.006 C 
BRANCH   5   6
ATOM      6  C   UNL     1     -23.122 120.789  -2.373  1.00  0.00     0.053 C 
BRANCH   6   7
ATOM      7  C   UNL     1     -24.522 121.313  -2.474  1.00  0.00     0.041 C 
ATOM      8  O   UNL     1     -24.958 121.745  -3.573  1.00  0.00    -0.550 OA
ATOM      9  O   UNL     1     -25.333 121.354  -1.346  1.00  0.00    -0.550 OA
ENDBRANCH   6   7
ENDBRANCH   5   6
ENDBRANCH   4   5
ENDBRANCH   3   4
ENDBRANCH   2   3
ENDBRANCH   1   2
BRANCH   1  10
ATOM     10  C   UNL     1     -20.124 116.619  -2.773  1.00  0.00     0.000 C 
BRANCH  10  11
ATOM     11  C   UNL     1     -19.208 116.220  -1.602  1.00  0.00    -0.000 C 
BRANCH  11  12
ATOM     12  C   UNL     1     -19.914 115.323  -0.571  1.00  0.00    -0.000 C 
BRANCH  12  13
ATOM     13  C   UNL     1     -21.344 114.940  -0.992  1.00  0.00    -0.000 C 
BRANCH  13  14
ATOM     14  C   UNL     1     -22.461 115.423  -0.043  1.00  0.00    -0.000 C 
BRANCH  14  15
ATOM     15  C   UNL     1     -23.134 116.747  -0.447  1.00  0.00    -0.000 C 
BRANCH  15  16
ATOM     16  C   UNL     1     -23.169 117.770   0.698  1.00  0.00    -0.003 C 
ATOM     17  C   UNL     1     -21.780 117.975   1.295  1.00  0.00     0.004 C 
ENDBRANCH  15  16
ENDBRANCH  14  15
ENDBRANCH  13  14
ENDBRANCH  12  13
ENDBRANCH  11  12
ENDBRANCH  10  11
ENDBRANCH   1  10
TORSDOF 13
ENDMDL
MODEL 2
REMARK VINA RESULT:    -4.061      3.323      5.062
REMARK INTER + INTRA:          -9.114
REMARK INTER:                  -6.974
REMARK INTRA:                  -2.139
REMARK UNBOUND:                -1.966
REMARK SMILES CCCCCCCCCCCCCCC(=O)[O-]
REMARK SMILES IDX 9 1 10 2 11 3 12 4 13 5 14 6 15 7 16 8 17 9 8 10 7 11 6 12
REMARK SMILES IDX 5 13 4 14 3 15 2 16 1 17
REMARK H PARENT
REMARK Flexibility Score: inf
ROOT
ATOM      1  C   UNL     1     -20.691 121.175  -0.902  1.00  0.00     0.000 C 
ENDROOT
BRANCH   1   2
ATOM      2  C   UNL     1     -20.060 120.635  -2.200  1.00  0.00     0.000 C 
BRANCH   2   3
ATOM      3  C   UNL     1     -21.097 120.032  -3.162  1.00  0.00     0.000 C 
BRANCH   3   4
ATOM      4  C   UNL     1     -21.053 118.494  -3.203  1.00  0.00     0.000 C 
BRANCH   4   5
ATOM      5  C   UNL     1     -20.035 117.839  -2.246  1.00  0.00     0.006 C 
BRANCH   5   6
ATOM      6  C   UNL     1     -19.455 116.505  -2.746  1.00  0.00     0.053 C 
BRANCH   6   7
ATOM      7  C   UNL     1     -18.549 115.875  -1.734  1.00  0.00     0.041 C 
ATOM      8  O   UNL     1     -17.301 115.889  -1.905  1.00  0.00    -0.550 OA
ATOM      9  O   UNL     1     -19.084 115.241  -0.618  1.00  0.00    -0.550 OA
ENDBRANCH   6   7
ENDBRANCH   5   6
ENDBRANCH   4   5
ENDBRANCH   3   4
ENDBRANCH   2   3
ENDBRANCH   1   2
BRANCH   1  10
ATOM     10  C   UNL     1     -22.213 120.962  -0.769  1.00  0.00     0.000 C 
BRANCH  10  11
ATOM     11  C   UNL     1     -22.639 119.669  -0.050  1.00  0.00    -0.000 C 
BRANCH  11  12
ATOM     12  C   UNL     1     -21.536 119.102   0.860  1.00  0.00    -0.000 C 
BRANCH  12  13
ATOM     13  C   UNL     1     -21.760 117.622   1.219  1.00  0.00    -0.000 C 
BRANCH  13  14
ATOM     14  C   UNL     1     -22.926 116.934   0.479  1.00  0.00    -0.000 C 
BRANCH  14  15
ATOM     15  C   UNL     1     -22.551 115.648  -0.277  1.00  0.00    -0.000 C 
BRANCH  15  16
ATOM     16  C   UNL     1     -23.006 115.664  -1.743  1.00  0.00    -0.003 C 
ATOM     17  C   UNL     1     -24.083 116.721  -1.972  1.00  0.00     0.004 C 
ENDBRANCH  15  16
ENDBRANCH  14  15
ENDBRANCH  13  14
ENDBRANCH  12  13
ENDBRANCH  11  12
ENDBRANCH  10  11
ENDBRANCH   1  10
TORSDOF 13
ENDMDL
MODEL 3
REMARK VINA RESULT:    -3.936      3.838      6.717
REMARK INTER + INTRA:          -8.894
REMARK INTER:                  -7.006
REMARK INTRA:                  -1.888
REMARK UNBOUND:                -1.966
REMARK SMILES CCCCCCCCCCCCCCC(=O)[O-]
REMARK SMILES IDX 9 1 10 2 11 3 12 4 13 5 14 6 15 7 16 8 17 9 8 10 7 11 6 12
REMARK SMILES IDX 5 13 4 14 3 15 2 16 1 17
REMARK H PARENT
REMARK Flexibility Score: inf
ROOT
ATOM      1  C   UNL     1     -22.432 116.890   0.313  1.00  0.00     0.000 C 
ENDROOT
BRANCH   1   2
ATOM      2  C   UNL     1     -23.138 116.073  -0.786  1.00  0.00     0.000 C 
BRANCH   2   3
ATOM      3  C   UNL     1     -22.175 115.161  -1.564  1.00  0.00     0.000 C 
BRANCH   3   4
ATOM      4  C   UNL     1     -20.999 114.661  -0.705  1.00  0.00     0.000 C 
BRANCH   4   5
ATOM      5  C   UNL     1     -19.619 114.691  -1.396  1.00  0.00     0.006 C 
BRANCH   5   6
ATOM      6  C   UNL     1     -18.427 114.457  -0.454  1.00  0.00     0.053 C 
BRANCH   6   7
ATOM      7  C   UNL     1     -17.164 115.060  -0.988  1.00  0.00     0.041 C 
ATOM      8  O   UNL     1     -17.186 116.194  -1.535  1.00  0.00    -0.550 OA
ATOM      9  O   UNL     1     -15.969 114.354  -0.912  1.00  0.00    -0.550 OA
ENDBRANCH   6   7
ENDBRANCH   5   6
ENDBRANCH   4   5
ENDBRANCH   3   4
ENDBRANCH   2   3
ENDBRANCH   1   2
BRANCH   1  10
ATOM     10  C   UNL     1     -23.100 118.234   0.669  1.00  0.00     0.000 C 
BRANCH  10  11
ATOM     11  C   UNL     1     -23.884 118.906  -0.473  1.00  0.00    -0.000 C 
BRANCH  11  12
ATOM     12  C   UNL     1     -23.452 120.362  -0.716  1.00  0.00    -0.000 C 
BRANCH  12  13
ATOM     13  C   UNL     1     -21.994 120.631  -0.303  1.00  0.00    -0.000 C 
BRANCH  13  14
ATOM     14  C   UNL     1     -21.005 120.830  -1.470  1.00  0.00    -0.000 C 
BRANCH  14  15
ATOM     15  C   UNL     1     -19.743 119.951  -1.413  1.00  0.00    -0.000 C 
BRANCH  15  16
ATOM     16  C   UNL     1     -20.024 118.480  -1.752  1.00  0.00    -0.003 C 
ATOM     17  C   UNL     1     -20.951 118.363  -2.959  1.00  0.00     0.004 C 
ENDBRANCH  15  16
ENDBRANCH  14  15
ENDBRANCH  13  14
ENDBRANCH  12  13
ENDBRANCH  11  12
ENDBRANCH  10  11
ENDBRANCH   1  10
TORSDOF 13
ENDMDL
MODEL 4
REMARK VINA RESULT:    -3.926      3.516      5.580
REMARK INTER + INTRA:          -8.876
REMARK INTER:                  -6.471
REMARK INTRA:                  -2.406
REMARK UNBOUND:                -1.966
REMARK SMILES CCCCCCCCCCCCCCC(=O)[O-]
REMARK SMILES IDX 9 1 10 2 11 3 12 4 13 5 14 6 15 7 16 8 17 9 8 10 7 11 6 12
REMARK SMILES IDX 5 13 4 14 3 15 2 16 1 17
REMARK H PARENT
REMARK Flexibility Score: inf
ROOT
ATOM      1  C   UNL     1     -19.799 119.627  -1.371  1.00  0.00     0.000 C 
ENDROOT
BRANCH   1   2
ATOM      2  C   UNL     1     -19.876 118.132  -1.733  1.00  0.00     0.000 C 
BRANCH   2   3
ATOM      3  C   UNL     1     -20.715 117.866  -2.995  1.00  0.00     0.000 C 
BRANCH   3   4
ATOM      4  C   UNL     1     -21.205 116.410  -3.092  1.00  0.00     0.000 C 
BRANCH   4   5
ATOM      5  C   UNL     1     -20.601 115.441  -2.055  1.00  0.00     0.006 C 
BRANCH   5   6
ATOM      6  C   UNL     1     -19.722 114.330  -2.653  1.00  0.00     0.053 C 
BRANCH   6   7
ATOM      7  C   UNL     1     -18.554 114.887  -3.409  1.00  0.00     0.041 C 
ATOM      8  O   UNL     1     -18.434 114.665  -4.643  1.00  0.00    -0.550 OA
ATOM      9  O   UNL     1     -17.580 115.621  -2.743  1.00  0.00    -0.550 OA
ENDBRANCH   6   7
ENDBRANCH   5   6
ENDBRANCH   4   5
ENDBRANCH   3   4
ENDBRANCH   2   3
ENDBRANCH   1   2
BRANCH   1  10
ATOM     10  C   UNL     1     -20.909 120.512  -1.976  1.00  0.00     0.000 C 
BRANCH  10  11
ATOM     11  C   UNL     1     -21.729 121.330  -0.961  1.00  0.00    -0.000 C 
BRANCH  11  12
ATOM     12  C   UNL     1     -23.070 120.666  -0.604  1.00  0.00    -0.000 C 
BRANCH  12  13
ATOM     13  C   UNL     1     -23.600 119.752  -1.723  1.00  0.00    -0.000 C 
BRANCH  13  14
ATOM     14  C   UNL     1     -23.935 118.309  -1.291  1.00  0.00    -0.000 C 
BRANCH  14  15
ATOM     15  C   UNL     1     -23.827 118.038   0.220  1.00  0.00    -0.000 C 
BRANCH  15  16
ATOM     16  C   UNL     1     -22.605 117.184   0.587  1.00  0.00    -0.003 C 
ATOM     17  C   UNL     1     -21.714 117.905   1.594  1.00  0.00     0.004 C 
ENDBRANCH  15  16
ENDBRANCH  14  15
ENDBRANCH  13  14
ENDBRANCH  12  13
ENDBRANCH  11  12
ENDBRANCH  10  11
ENDBRANCH   1  10
TORSDOF 13
ENDMDL
MODEL 5
REMARK VINA RESULT:    -3.919      3.629      5.922
REMARK INTER + INTRA:          -8.863
REMARK INTER:                  -6.746
REMARK INTRA:                  -2.117
REMARK UNBOUND:                -1.966
REMARK SMILES CCCCCCCCCCCCCCC(=O)[O-]
REMARK SMILES IDX 9 1 10 2 11 3 12 4 13 5 14 6 15 7 16 8 17 9 8 10 7 11 6 12
REMARK SMILES IDX 5 13 4 14 3 15 2 16 1 17
REMARK H PARENT
REMARK Flexibility Score: inf
ROOT
ATOM      1  C   UNL     1     -22.455 115.776   0.192  1.00  0.00     0.000 C 
ENDROOT
BRANCH   1   2
ATOM      2  C   UNL     1     -21.690 114.848  -0.771  1.00  0.00     0.000 C 
BRANCH   2   3
ATOM      3  C   UNL     1     -21.934 115.191  -2.250  1.00  0.00     0.000 C 
BRANCH   3   4
ATOM      4  C   UNL     1     -20.638 115.208  -3.082  1.00  0.00     0.000 C 
BRANCH   4   5
ATOM      5  C   UNL     1     -19.888 116.556  -3.104  1.00  0.00     0.006 C 
BRANCH   5   6
ATOM      6  C   UNL     1     -19.041 116.837  -1.852  1.00  0.00     0.053 C 
BRANCH   6   7
ATOM      7  C   UNL     1     -17.994 115.788  -1.636  1.00  0.00     0.041 C 
ATOM      8  O   UNL     1     -17.049 115.659  -2.457  1.00  0.00    -0.550 OA
ATOM      9  O   UNL     1     -18.082 114.930  -0.546  1.00  0.00    -0.550 OA
ENDBRANCH   6   7
ENDBRANCH   5   6
ENDBRANCH   4   5
ENDBRANCH   3   4
ENDBRANCH   2   3
ENDBRANCH   1   2
BRANCH   1  10
ATOM     10  C   UNL     1     -21.651 116.980   0.727  1.00  0.00     0.000 C 
BRANCH  10  11
ATOM     11  C   UNL     1     -22.258 118.363   0.429  1.00  0.00    -0.000 C 
BRANCH  11  12
ATOM     12  C   UNL     1     -23.714 118.283  -0.060  1.00  0.00    -0.000 C 
BRANCH  12  13
ATOM     13  C   UNL     1     -23.889 118.794  -1.502  1.00  0.00    -0.000 C 
BRANCH  13  14
ATOM     14  C   UNL     1     -22.613 118.768  -2.369  1.00  0.00    -0.000 C 
BRANCH  14  15
ATOM     15  C   UNL     1     -22.065 120.151  -2.764  1.00  0.00    -0.000 C 
BRANCH  15  16
ATOM     16  C   UNL     1     -20.550 120.276  -2.547  1.00  0.00    -0.003 C 
ATOM     17  C   UNL     1     -20.240 120.901  -1.190  1.00  0.00     0.004 C 
ENDBRANCH  15  16
ENDBRANCH  14  15
ENDBRANCH  13  14
ENDBRANCH  12  13
ENDBRANCH  11  12
ENDBRANCH  10  11
ENDBRANCH   1  10
TORSDOF 13
ENDMDL
MODEL 6
REMARK VINA RESULT:    -3.916      3.602      6.198
REMARK INTER + INTRA:          -8.858
REMARK INTER:                  -6.947
REMARK INTRA:                  -1.911
REMARK UNBOUND:                -1.966
REMARK SMILES CCCCCCCCCCCCCCC(=O)[O-]
REMARK SMILES IDX 9 1 10 2 11 3 12 4 13 5 14 6 15 7 16 8 17 9 8 10 7 11 6 12
REMARK SMILES IDX 5 13 4 14 3 15 2 16 1 17
REMARK H PARENT
REMARK Flexibility Score: inf
ROOT
ATOM      1  C   UNL     1     -21.752 117.144  -2.949  1.00  0.00     0.000 C 
ENDROOT
BRANCH   1   2
ATOM      2  C   UNL     1     -22.391 116.885  -1.572  1.00  0.00     0.000 C 
BRANCH   2   3
ATOM      3  C   UNL     1     -22.252 115.424  -1.114  1.00  0.00     0.000 C 
BRANCH   3   4
ATOM      4  C   UNL     1     -20.862 115.108  -0.531  1.00  0.00     0.000 C 
BRANCH   4   5
ATOM      5  C   UNL     1     -19.987 114.168  -1.386  1.00  0.00     0.006 C 
BRANCH   5   6
ATOM      6  C   UNL     1     -18.883 114.876  -2.188  1.00  0.00     0.053 C 
BRANCH   6   7
ATOM      7  C   UNL     1     -17.715 115.247  -1.327  1.00  0.00     0.041 C 
ATOM      8  O   UNL     1     -17.186 114.389  -0.573  1.00  0.00    -0.550 OA
ATOM      9  O   UNL     1     -17.232 116.550  -1.333  1.00  0.00    -0.550 OA
ENDBRANCH   6   7
ENDBRANCH   5   6
ENDBRANCH   4   5
ENDBRANCH   3   4
ENDBRANCH   2   3
ENDBRANCH   1   2
BRANCH   1  10
ATOM     10  C   UNL     1     -20.644 118.217  -2.972  1.00  0.00     0.000 C 
BRANCH  10  11
ATOM     11  C   UNL     1     -20.139 118.675  -1.591  1.00  0.00    -0.000 C 
BRANCH  11  12
ATOM     12  C   UNL     1     -19.704 120.150  -1.574  1.00  0.00    -0.000 C 
BRANCH  12  13
ATOM     13  C   UNL     1     -20.842 121.103  -1.164  1.00  0.00    -0.000 C 
BRANCH  13  14
ATOM     14  C   UNL     1     -21.990 120.453  -0.365  1.00  0.00    -0.000 C 
BRANCH  14  15
ATOM     15  C   UNL     1     -23.400 120.698  -0.932  1.00  0.00    -0.000 C 
BRANCH  15  16
ATOM     16  C   UNL     1     -23.489 120.438  -2.443  1.00  0.00    -0.003 C 
ATOM     17  C   UNL     1     -24.489 121.382  -3.104  1.00  0.00     0.004 C 
ENDBRANCH  15  16
ENDBRANCH  14  15
ENDBRANCH  13  14
ENDBRANCH  12  13
ENDBRANCH  11  12
ENDBRANCH  10  11
ENDBRANCH   1  10
TORSDOF 13
ENDMDL
MODEL 7
REMARK VINA RESULT:    -3.907      1.158      2.405
REMARK INTER + INTRA:          -8.842
REMARK INTER:                  -6.828
REMARK INTRA:                  -2.014
REMARK UNBOUND:                -1.966
REMARK SMILES CCCCCCCCCCCCCCC(=O)[O-]
REMARK SMILES IDX 9 1 10 2 11 3 12 4 13 5 14 6 15 7 16 8 17 9 8 10 7 11 6 12
REMARK SMILES IDX 5 13 4 14 3 15 2 16 1 17
REMARK H PARENT
REMARK Flexibility Score: inf
ROOT
ATOM      1  C   UNL     1     -20.077 118.565  -1.420  1.00  0.00     0.000 C 
ENDROOT
BRANCH   1   2
ATOM      2  C   UNL     1     -19.671 120.041  -1.587  1.00  0.00     0.000 C 
BRANCH   2   3
ATOM      3  C   UNL     1     -20.814 121.016  -1.253  1.00  0.00     0.000 C 
BRANCH   3   4
ATOM      4  C   UNL     1     -21.847 120.417  -0.281  1.00  0.00     0.000 C 
BRANCH   4   5
ATOM      5  C   UNL     1     -23.323 120.627  -0.678  1.00  0.00     0.006 C 
BRANCH   5   6
ATOM      6  C   UNL     1     -23.541 121.016  -2.149  1.00  0.00     0.053 C 
BRANCH   6   7
ATOM      7  C   UNL     1     -24.968 121.376  -2.428  1.00  0.00     0.041 C 
ATOM      8  O   UNL     1     -25.860 121.138  -1.572  1.00  0.00    -0.550 OA
ATOM      9  O   UNL     1     -25.318 121.945  -3.647  1.00  0.00    -0.550 OA
ENDBRANCH   6   7
ENDBRANCH   5   6
ENDBRANCH   4   5
ENDBRANCH   3   4
ENDBRANCH   2   3
ENDBRANCH   1   2
BRANCH   1  10
ATOM     10  C   UNL     1     -20.421 117.822  -2.729  1.00  0.00     0.000 C 
BRANCH  10  11
ATOM     11  C   UNL     1     -21.827 118.096  -3.293  1.00  0.00    -0.000 C 
BRANCH  11  12
ATOM     12  C   UNL     1     -22.820 116.960  -2.995  1.00  0.00    -0.000 C 
BRANCH  12  13
ATOM     13  C   UNL     1     -23.409 117.038  -1.575  1.00  0.00    -0.000 C 
BRANCH  13  14
ATOM     14  C   UNL     1     -23.214 115.774  -0.711  1.00  0.00    -0.000 C 
BRANCH  14  15
ATOM     15  C   UNL     1     -21.826 115.638  -0.058  1.00  0.00    -0.000 C 
BRANCH  15  16
ATOM     16  C   UNL     1     -20.885 114.715  -0.844  1.00  0.00    -0.003 C 
ATOM     17  C   UNL     1     -19.427 114.981  -0.483  1.00  0.00     0.004 C 
ENDBRANCH  15  16
ENDBRANCH  14  15
ENDBRANCH  13  14
ENDBRANCH  12  13
ENDBRANCH  11  12
ENDBRANCH  10  11
ENDBRANCH   1  10
TORSDOF 13
ENDMDL
MODEL 8
REMARK VINA RESULT:    -3.888      1.238      3.003
REMARK INTER + INTRA:          -8.809
REMARK INTER:                  -6.856
REMARK INTRA:                  -1.953
REMARK UNBOUND:                -1.966
REMARK SMILES CCCCCCCCCCCCCCC(=O)[O-]
REMARK SMILES IDX 9 1 10 2 11 3 12 4 13 5 14 6 15 7 16 8 17 9 8 10 7 11 6 12
REMARK SMILES IDX 5 13 4 14 3 15 2 16 1 17
REMARK H PARENT
REMARK Flexibility Score: inf
ROOT
ATOM      1  C   UNL     1     -20.687 118.068  -2.790  1.00  0.00     0.000 C 
ENDROOT
BRANCH   1   2
ATOM      2  C   UNL     1     -19.857 118.853  -1.756  1.00  0.00     0.000 C 
BRANCH   2   3
ATOM      3  C   UNL     1     -20.034 120.376  -1.881  1.00  0.00     0.000 C 
BRANCH   3   4
ATOM      4  C   UNL     1     -20.616 121.017  -0.608  1.00  0.00     0.000 C 
BRANCH   4   5
ATOM      5  C   UNL     1     -22.124 120.778  -0.381  1.00  0.00     0.006 C 
BRANCH   5   6
ATOM      6  C   UNL     1     -22.987 120.889  -1.648  1.00  0.00     0.053 C 
BRANCH   6   7
ATOM      7  C   UNL     1     -24.403 120.472  -1.399  1.00  0.00     0.041 C 
ATOM      8  O   UNL     1     -25.317 121.336  -1.343  1.00  0.00    -0.550 OA
ATOM      9  O   UNL     1     -24.709 119.132  -1.195  1.00  0.00    -0.550 OA
ENDBRANCH   6   7
ENDBRANCH   5   6
ENDBRANCH   4   5
ENDBRANCH   3   4
ENDBRANCH   2   3
ENDBRANCH   1   2
BRANCH   1  10
ATOM     10  C   UNL     1     -21.827 117.207  -2.205  1.00  0.00     0.000 C 
BRANCH  10  11
ATOM     11  C   UNL     1     -21.808 117.038  -0.675  1.00  0.00    -0.000 C 
BRANCH  11  12
ATOM     12  C   UNL     1     -21.884 115.566  -0.237  1.00  0.00    -0.000 C 
BRANCH  12  13
ATOM     13  C   UNL     1     -20.780 114.697  -0.865  1.00  0.00    -0.000 C 
BRANCH  13  14
ATOM     14  C   UNL     1     -19.370 114.893  -0.270  1.00  0.00    -0.000 C 
BRANCH  14  15
ATOM     15  C   UNL     1     -18.207 114.565  -1.224  1.00  0.00    -0.000 C 
BRANCH  15  16
ATOM     16  C   UNL     1     -17.917 115.697  -2.220  1.00  0.00    -0.003 C 
ATOM     17  C   UNL     1     -18.357 115.313  -3.630  1.00  0.00     0.004 C 
ENDBRANCH  15  16
ENDBRANCH  14  15
ENDBRANCH  13  14
ENDBRANCH  12  13
ENDBRANCH  11  12
ENDBRANCH  10  11
ENDBRANCH   1  10
TORSDOF 13
ENDMDL
MODEL 9
REMARK VINA RESULT:    -3.863      1.811      3.839
REMARK INTER + INTRA:          -8.765
REMARK INTER:                  -6.769
REMARK INTRA:                  -1.996
REMARK UNBOUND:                -1.966
REMARK SMILES CCCCCCCCCCCCCCC(=O)[O-]
REMARK SMILES IDX 9 1 10 2 11 3 12 4 13 5 14 6 15 7 16 8 17 9 8 10 7 11 6 12
REMARK SMILES IDX 5 13 4 14 3 15 2 16 1 17
REMARK H PARENT
REMARK Flexibility Score: inf
ROOT
ATOM      1  C   UNL     1     -21.641 116.369  -1.857  1.00  0.00     0.000 C 
ENDROOT
BRANCH   1   2
ATOM      2  C   UNL     1     -21.004 117.663  -2.398  1.00  0.00     0.000 C 
BRANCH   2   3
ATOM      3  C   UNL     1     -19.962 118.262  -1.439  1.00  0.00     0.000 C 
BRANCH   3   4
ATOM      4  C   UNL     1     -19.727 119.766  -1.672  1.00  0.00     0.000 C 
BRANCH   4   5
ATOM      5  C   UNL     1     -20.986 120.580  -2.037  1.00  0.00     0.006 C 
BRANCH   5   6
ATOM      6  C   UNL     1     -21.737 121.171  -0.832  1.00  0.00     0.053 C 
BRANCH   6   7
ATOM      7  C   UNL     1     -23.036 120.468  -0.583  1.00  0.00     0.041 C 
ATOM      8  O   UNL     1     -23.050 119.343  -0.019  1.00  0.00    -0.550 OA
ATOM      9  O   UNL     1     -24.230 121.042  -1.005  1.00  0.00    -0.550 OA
ENDBRANCH   6   7
ENDBRANCH   5   6
ENDBRANCH   4   5
ENDBRANCH   3   4
ENDBRANCH   2   3
ENDBRANCH   1   2
BRANCH   1  10
ATOM     10  C   UNL     1     -21.015 115.817  -0.560  1.00  0.00     0.000 C 
BRANCH  10  11
ATOM     11  C   UNL     1     -20.193 114.525  -0.722  1.00  0.00    -0.000 C 
BRANCH  11  12
ATOM     12  C   UNL     1     -18.735 114.683  -0.258  1.00  0.00    -0.000 C 
BRANCH  12  13
ATOM     13  C   UNL     1     -17.720 114.492  -1.399  1.00  0.00    -0.000 C 
BRANCH  13  14
ATOM     14  C   UNL     1     -17.910 115.426  -2.612  1.00  0.00    -0.000 C 
BRANCH  14  15
ATOM     15  C   UNL     1     -18.123 114.713  -3.959  1.00  0.00    -0.000 C 
BRANCH  15  16
ATOM     16  C   UNL     1     -19.415 115.148  -4.666  1.00  0.00    -0.003 C 
ATOM     17  C   UNL     1     -20.515 114.106  -4.488  1.00  0.00     0.004 C 
ENDBRANCH  15  16
ENDBRANCH  14  15
ENDBRANCH  13  14
ENDBRANCH  12  13
ENDBRANCH  11  12
ENDBRANCH  10  11
ENDBRANCH   1  10
TORSDOF 13
ENDMDL
