MODEL 1
REMARK VINA RESULT:    -5.767      0.000      0.000
REMARK INTER + INTRA:          -7.134
REMARK INTER:                  -6.778
REMARK INTRA:                  -0.356
REMARK UNBOUND:                -0.356
REMARK SMILES CCCC[C@H]1OC(=O)C2=C1CCC=C2
REMARK SMILES IDX 3 1 2 2 1 3 4 4 5 5 10 6 6 7 9 8 11 9 7 10 14 11 12 12 8 13
REMARK SMILES IDX 13 14
REMARK H PARENT
REMARK Flexibility Score: inf
ROOT
ATOM      1  C   UNL     1      69.840   2.025  -2.918  1.00  0.00     0.004 C 
ENDROOT
BRANCH   1   2
ATOM      2  C   UNL     1      70.169   0.763  -3.731  1.00  0.00    -0.003 C 
ATOM      3  C   UNL     1      69.180   0.522  -4.873  1.00  0.00     0.004 C 
ENDBRANCH   1   2
BRANCH   1   4
ATOM      4  C   UNL     1      70.967   2.412  -1.950  1.00  0.00     0.050 C 
BRANCH   4   5
ATOM      5  C   UNL     1      71.811   1.189  -1.562  1.00  0.00     0.204 C 
ATOM      6  C   UNL     1      71.572   0.781  -0.128  1.00  0.00    -0.015 C 
ATOM      7  O   UNL     1      73.204   1.518  -1.573  1.00  0.00    -0.454 OA
ATOM      8  C   UNL     1      72.680   0.898   0.585  1.00  0.00     0.062 C 
ATOM      9  C   UNL     1      70.254   0.448   0.518  1.00  0.00     0.040 C 
ATOM     10  C   UNL     1      73.720   1.355  -0.299  1.00  0.00     0.338 C 
ATOM     11  C   UNL     1      72.729   0.632   2.028  1.00  0.00     0.011 C 
ATOM     12  C   UNL     1      70.464  -0.374   1.811  1.00  0.00     0.032 C 
ATOM     13  O   UNL     1      74.917   1.580   0.019  1.00  0.00    -0.246 OA
ATOM     14  C   UNL     1      71.653   0.100   2.624  1.00  0.00    -0.026 C 
ENDBRANCH   4   5
ENDBRANCH   1   4
TORSDOF 3
ENDMDL
MODEL 2
REMARK VINA RESULT:    -5.512      1.715      5.173
REMARK INTER + INTRA:          -6.835
REMARK INTER:                  -6.608
REMARK INTRA:                  -0.226
REMARK UNBOUND:                -0.356
REMARK SMILES CCCC[C@H]1OC(=O)C2=C1CCC=C2
REMARK SMILES IDX 3 1 2 2 1 3 4 4 5 5 10 6 6 7 9 8 11 9 7 10 14 11 12 12 8 13
REMARK SMILES IDX 13 14
REMARK H PARENT
REMARK Flexibility Score: inf
ROOT
ATOM      1  C   UNL     1      73.018   0.921   1.005  1.00  0.00     0.004 C 
ENDROOT
BRANCH   1   2
ATOM      2  C   UNL     1      72.105   0.282   2.062  1.00  0.00    -0.003 C 
ATOM      3  C   UNL     1      71.397   1.318   2.937  1.00  0.00     0.004 C 
ENDBRANCH   1   2
BRANCH   1   4
ATOM      4  C   UNL     1      72.618   0.539  -0.428  1.00  0.00     0.050 C 
BRANCH   4   5
ATOM      5  C   UNL     1      71.101   0.650  -0.630  1.00  0.00     0.204 C 
ATOM      6  C   UNL     1      70.709   0.367  -2.061  1.00  0.00    -0.015 C 
ATOM      7  O   UNL     1      70.667   2.001  -0.441  1.00  0.00    -0.454 OA
ATOM      8  C   UNL     1      70.157   1.432  -2.616  1.00  0.00     0.062 C 
ATOM      9  C   UNL     1      71.026  -0.864  -2.867  1.00  0.00     0.040 C 
ATOM     10  C   UNL     1      70.115   2.470  -1.620  1.00  0.00     0.338 C 
ATOM     11  C   UNL     1      69.737   1.468  -4.023  1.00  0.00     0.011 C 
ATOM     12  C   UNL     1      70.067  -0.997  -4.074  1.00  0.00     0.032 C 
ATOM     13  O   UNL     1      69.656   3.632  -1.778  1.00  0.00    -0.246 OA
ATOM     14  C   UNL     1      69.766   0.334  -4.735  1.00  0.00    -0.026 C 
ENDBRANCH   4   5
ENDBRANCH   1   4
TORSDOF 3
ENDMDL
MODEL 3
REMARK VINA RESULT:    -5.286     13.959     15.463
REMARK INTER + INTRA:          -6.569
REMARK INTER:                  -6.194
REMARK INTRA:                  -0.375
REMARK UNBOUND:                -0.356
REMARK SMILES CCCC[C@H]1OC(=O)C2=C1CCC=C2
REMARK SMILES IDX 3 1 2 2 1 3 4 4 5 5 10 6 6 7 9 8 11 9 7 10 14 11 12 12 8 13
REMARK SMILES IDX 13 14
REMARK H PARENT
REMARK Flexibility Score: inf
ROOT
ATOM      1  C   UNL     1      86.547   2.064   7.059  1.00  0.00     0.004 C 
ENDROOT
BRANCH   1   2
ATOM      2  C   UNL     1      86.511   0.531   7.143  1.00  0.00    -0.003 C 
ATOM      3  C   UNL     1      85.294   0.009   7.908  1.00  0.00     0.004 C 
ENDBRANCH   1   2
BRANCH   1   4
ATOM      4  C   UNL     1      85.167   2.671   6.766  1.00  0.00     0.050 C 
BRANCH   4   5
ATOM      5  C   UNL     1      84.845   3.815   7.737  1.00  0.00     0.204 C 
ATOM      6  C   UNL     1      83.426   3.729   8.245  1.00  0.00    -0.015 C 
ATOM      7  O   UNL     1      84.865   5.073   7.054  1.00  0.00    -0.454 OA
ATOM      8  C   UNL     1      82.727   4.787   7.868  1.00  0.00     0.062 C 
ATOM      9  C   UNL     1      82.773   2.562   8.936  1.00  0.00     0.040 C 
ATOM     10  C   UNL     1      83.608   5.648   7.122  1.00  0.00     0.338 C 
ATOM     11  C   UNL     1      81.297   4.942   8.163  1.00  0.00     0.011 C 
ATOM     12  C   UNL     1      81.519   3.015   9.721  1.00  0.00     0.032 C 
ATOM     13  O   UNL     1      83.300   6.751   6.602  1.00  0.00    -0.246 OA
ATOM     14  C   UNL     1      80.707   4.060   8.981  1.00  0.00    -0.026 C 
ENDBRANCH   4   5
ENDBRANCH   1   4
TORSDOF 3
ENDMDL
MODEL 4
REMARK VINA RESULT:    -5.179      8.135     10.876
REMARK INTER + INTRA:          -6.443
REMARK INTER:                  -6.085
REMARK INTRA:                  -0.358
REMARK UNBOUND:                -0.356
REMARK SMILES CCCC[C@H]1OC(=O)C2=C1CCC=C2
REMARK SMILES IDX 3 1 2 2 1 3 4 4 5 5 10 6 6 7 9 8 11 9 7 10 14 11 12 12 8 13
REMARK SMILES IDX 13 14
REMARK H PARENT
REMARK Flexibility Score: inf
ROOT
ATOM      1  C   UNL     1      84.644   1.852  -0.322  1.00  0.00     0.004 C 
ENDROOT
BRANCH   1   2
ATOM      2  C   UNL     1      84.598   1.176   1.056  1.00  0.00    -0.003 C 
ATOM      3  C   UNL     1      85.808   1.523   1.926  1.00  0.00     0.004 C 
ENDBRANCH   1   2
BRANCH   1   4
ATOM      4  C   UNL     1      83.247   2.200  -0.855  1.00  0.00     0.050 C 
BRANCH   4   5
ATOM      5  C   UNL     1      82.209   2.217   0.277  1.00  0.00     0.204 C 
ATOM      6  C   UNL     1      81.139   1.173   0.065  1.00  0.00    -0.015 C 
ATOM      7  O   UNL     1      81.469   3.442   0.260  1.00  0.00    -0.454 OA
ATOM      8  C   UNL     1      79.954   1.739  -0.086  1.00  0.00     0.062 C 
ATOM      9  C   UNL     1      81.335  -0.306  -0.134  1.00  0.00     0.040 C 
ATOM     10  C   UNL     1      80.132   3.162   0.036  1.00  0.00     0.338 C 
ATOM     11  C   UNL     1      78.736   0.970  -0.372  1.00  0.00     0.011 C 
ATOM     12  C   UNL     1      80.033  -1.083   0.172  1.00  0.00     0.032 C 
ATOM     13  O   UNL     1      79.227   4.032  -0.050  1.00  0.00    -0.246 OA
ATOM     14  C   UNL     1      78.791  -0.368  -0.325  1.00  0.00    -0.026 C 
ENDBRANCH   4   5
ENDBRANCH   1   4
TORSDOF 3
ENDMDL
MODEL 5
REMARK VINA RESULT:    -5.119      1.527      4.647
REMARK INTER + INTRA:          -6.373
REMARK INTER:                  -6.263
REMARK INTRA:                  -0.110
REMARK UNBOUND:                -0.356
REMARK SMILES CCCC[C@H]1OC(=O)C2=C1CCC=C2
REMARK SMILES IDX 3 1 2 2 1 3 4 4 5 5 10 6 6 7 9 8 11 9 7 10 14 11 12 12 8 13
REMARK SMILES IDX 13 14
REMARK H PARENT
REMARK Flexibility Score: inf
ROOT
ATOM      1  C   UNL     1      70.698  -0.297   2.985  1.00  0.00     0.004 C 
ENDROOT
BRANCH   1   2
ATOM      2  C   UNL     1      69.800   0.867   3.432  1.00  0.00    -0.003 C 
ATOM      3  C   UNL     1      70.575   1.963   4.166  1.00  0.00     0.004 C 
ENDBRANCH   1   2
BRANCH   1   4
ATOM      4  C   UNL     1      71.096  -0.198   1.505  1.00  0.00     0.050 C 
BRANCH   4   5
ATOM      5  C   UNL     1      71.715   1.170   1.185  1.00  0.00     0.204 C 
ATOM      6  C   UNL     1      71.443   1.583  -0.241  1.00  0.00    -0.015 C 
ATOM      7  O   UNL     1      73.143   1.097   1.231  1.00  0.00    -0.454 OA
ATOM      8  C   UNL     1      72.572   1.695  -0.921  1.00  0.00     0.062 C 
ATOM      9  C   UNL     1      70.104   1.698  -0.919  1.00  0.00     0.040 C 
ATOM     10  C   UNL     1      73.654   1.399  -0.019  1.00  0.00     0.338 C 
ATOM     11  C   UNL     1      72.610   2.020  -2.352  1.00  0.00     0.011 C 
ATOM     12  C   UNL     1      70.196   2.594  -2.176  1.00  0.00     0.032 C 
ATOM     13  O   UNL     1      74.880   1.405  -0.305  1.00  0.00    -0.246 OA
ATOM     14  C   UNL     1      71.472   2.373  -2.965  1.00  0.00    -0.026 C 
ENDBRANCH   4   5
ENDBRANCH   1   4
TORSDOF 3
ENDMDL
MODEL 6
REMARK VINA RESULT:    -4.984     13.904     15.878
REMARK INTER + INTRA:          -6.213
REMARK INTER:                  -5.972
REMARK INTRA:                  -0.242
REMARK UNBOUND:                -0.356
REMARK SMILES CCCC[C@H]1OC(=O)C2=C1CCC=C2
REMARK SMILES IDX 3 1 2 2 1 3 4 4 5 5 10 6 6 7 9 8 11 9 7 10 14 11 12 12 8 13
REMARK SMILES IDX 13 14
REMARK H PARENT
REMARK Flexibility Score: inf
ROOT
ATOM      1  C   UNL     1      86.716   5.953   7.118  1.00  0.00     0.004 C 
ENDROOT
BRANCH   1   2
ATOM      2  C   UNL     1      87.116   7.251   6.400  1.00  0.00    -0.003 C 
ATOM      3  C   UNL     1      85.911   8.025   5.864  1.00  0.00     0.004 C 
ENDBRANCH   1   2
BRANCH   1   4
ATOM      4  C   UNL     1      85.242   5.948   7.549  1.00  0.00     0.050 C 
BRANCH   4   5
ATOM      5  C   UNL     1      84.541   4.651   7.120  1.00  0.00     0.204 C 
ATOM      6  C   UNL     1      83.224   4.468   7.836  1.00  0.00    -0.015 C 
ATOM      7  O   UNL     1      85.296   3.510   7.542  1.00  0.00    -0.454 OA
ATOM      8  C   UNL     1      83.247   3.383   8.590  1.00  0.00     0.062 C 
ATOM      9  C   UNL     1      82.067   5.430   7.877  1.00  0.00     0.040 C 
ATOM     10  C   UNL     1      84.534   2.761   8.422  1.00  0.00     0.338 C 
ATOM     11  C   UNL     1      82.125   2.990   9.453  1.00  0.00     0.011 C 
ATOM     12  C   UNL     1      80.760   4.706   8.276  1.00  0.00     0.032 C 
ATOM     13  O   UNL     1      84.926   1.704   8.981  1.00  0.00    -0.246 OA
ATOM     14  C   UNL     1      80.971   3.664   9.358  1.00  0.00    -0.026 C 
ENDBRANCH   4   5
ENDBRANCH   1   4
TORSDOF 3
ENDMDL
MODEL 7
REMARK VINA RESULT:    -4.973      8.475     11.396
REMARK INTER + INTRA:          -6.201
REMARK INTER:                  -5.988
REMARK INTRA:                  -0.213
REMARK UNBOUND:                -0.356
REMARK SMILES CCCC[C@H]1OC(=O)C2=C1CCC=C2
REMARK SMILES IDX 3 1 2 2 1 3 4 4 5 5 10 6 6 7 9 8 11 9 7 10 14 11 12 12 8 13
REMARK SMILES IDX 13 14
REMARK H PARENT
REMARK Flexibility Score: inf
ROOT
ATOM      1  C   UNL     1      84.738   1.284   0.721  1.00  0.00     0.004 C 
ENDROOT
BRANCH   1   2
ATOM      2  C   UNL     1      85.813   0.768   1.690  1.00  0.00    -0.003 C 
ATOM      3  C   UNL     1      85.960   1.649   2.932  1.00  0.00     0.004 C 
ENDBRANCH   1   2
BRANCH   1   4
ATOM      4  C   UNL     1      83.321   0.858   1.132  1.00  0.00     0.050 C 
BRANCH   4   5
ATOM      5  C   UNL     1      82.377   0.826  -0.078  1.00  0.00     0.204 C 
ATOM      6  C   UNL     1      81.387   1.965  -0.041  1.00  0.00    -0.015 C 
ATOM      7  O   UNL     1      81.536  -0.331  -0.027  1.00  0.00    -0.454 OA
ATOM      8  C   UNL     1      80.149   1.509   0.053  1.00  0.00     0.062 C 
ATOM      9  C   UNL     1      81.691   3.436   0.057  1.00  0.00     0.040 C 
ATOM     10  C   UNL     1      80.214   0.071   0.060  1.00  0.00     0.338 C 
ATOM     11  C   UNL     1      78.983   2.393   0.174  1.00  0.00     0.011 C 
ATOM     12  C   UNL     1      80.488   4.283  -0.419  1.00  0.00     0.032 C 
ATOM     13  O   UNL     1      79.234  -0.715   0.137  1.00  0.00    -0.246 OA
ATOM     14  C   UNL     1      79.154   3.713   0.025  1.00  0.00    -0.026 C 
ENDBRANCH   4   5
ENDBRANCH   1   4
TORSDOF 3
ENDMDL
MODEL 8
REMARK VINA RESULT:    -4.903     12.978     14.882
REMARK INTER + INTRA:          -6.118
REMARK INTER:                  -5.677
REMARK INTRA:                  -0.441
REMARK UNBOUND:                -0.356
REMARK SMILES CCCC[C@H]1OC(=O)C2=C1CCC=C2
REMARK SMILES IDX 3 1 2 2 1 3 4 4 5 5 10 6 6 7 9 8 11 9 7 10 14 11 12 12 8 13
REMARK SMILES IDX 13 14
REMARK H PARENT
REMARK Flexibility Score: inf
ROOT
ATOM      1  C   UNL     1      85.677  -3.963  -6.376  1.00  0.00     0.004 C 
ENDROOT
BRANCH   1   2
ATOM      2  C   UNL     1      84.433  -4.857  -6.247  1.00  0.00    -0.003 C 
ATOM      3  C   UNL     1      83.766  -4.746  -4.876  1.00  0.00     0.004 C 
ENDBRANCH   1   2
BRANCH   1   4
ATOM      4  C   UNL     1      85.521  -2.890  -7.462  1.00  0.00     0.050 C 
BRANCH   4   5
ATOM      5  C   UNL     1      84.883  -1.613  -6.896  1.00  0.00     0.204 C 
ATOM      6  C   UNL     1      83.575  -1.296  -7.580  1.00  0.00    -0.015 C 
ATOM      7  O   UNL     1      85.690  -0.471  -7.202  1.00  0.00    -0.454 OA
ATOM      8  C   UNL     1      83.647  -0.139  -8.217  1.00  0.00     0.062 C 
ATOM      9  C   UNL     1      82.374  -2.193  -7.714  1.00  0.00     0.040 C 
ATOM     10  C   UNL     1      84.962   0.401  -7.993  1.00  0.00     0.338 C 
ATOM     11  C   UNL     1      82.543   0.393  -9.026  1.00  0.00     0.011 C 
ATOM     12  C   UNL     1      81.101  -1.370  -8.026  1.00  0.00     0.032 C 
ATOM     13  O   UNL     1      85.402   1.491  -8.442  1.00  0.00    -0.246 OA
ATOM     14  C   UNL     1      81.359  -0.233  -8.995  1.00  0.00    -0.026 C 
ENDBRANCH   4   5
ENDBRANCH   1   4
TORSDOF 3
ENDMDL
MODEL 9
REMARK VINA RESULT:    -4.861     13.667     15.367
REMARK INTER + INTRA:          -6.069
REMARK INTER:                  -5.894
REMARK INTRA:                  -0.175
REMARK UNBOUND:                -0.356
REMARK SMILES CCCC[C@H]1OC(=O)C2=C1CCC=C2
REMARK SMILES IDX 3 1 2 2 1 3 4 4 5 5 10 6 6 7 9 8 11 9 7 10 14 11 12 12 8 13
REMARK SMILES IDX 13 14
REMARK H PARENT
REMARK Flexibility Score: inf
ROOT
ATOM      1  C   UNL     1      85.726   3.130  -6.594  1.00  0.00     0.004 C 
ENDROOT
BRANCH   1   2
ATOM      2  C   UNL     1      86.947   4.049  -6.753  1.00  0.00    -0.003 C 
ATOM      3  C   UNL     1      86.564   5.482  -7.125  1.00  0.00     0.004 C 
ENDBRANCH   1   2
BRANCH   1   4
ATOM      4  C   UNL     1      84.922   2.989  -7.895  1.00  0.00     0.050 C 
BRANCH   4   5
ATOM      5  C   UNL     1      85.204   1.645  -8.580  1.00  0.00     0.204 C 
ATOM      6  C   UNL     1      83.995   0.741  -8.549  1.00  0.00    -0.015 C 
ATOM      7  O   UNL     1      86.179   0.901  -7.843  1.00  0.00    -0.454 OA
ATOM      8  C   UNL     1      84.247  -0.356  -7.855  1.00  0.00     0.062 C 
ATOM      9  C   UNL     1      82.612   1.048  -9.058  1.00  0.00     0.040 C 
ATOM     10  C   UNL     1      85.611  -0.282  -7.404  1.00  0.00     0.338 C 
ATOM     11  C   UNL     1      83.232  -1.387  -7.601  1.00  0.00     0.011 C 
ATOM     12  C   UNL     1      81.809  -0.252  -9.296  1.00  0.00     0.032 C 
ATOM     13  O   UNL     1      86.211  -1.147  -6.713  1.00  0.00    -0.246 OA
ATOM     14  C   UNL     1      82.050  -1.298  -8.225  1.00  0.00    -0.026 C 
ENDBRANCH   4   5
ENDBRANCH   1   4
TORSDOF 3
ENDMDL
