MODEL 1
REMARK VINA RESULT:    -3.194      0.000      0.000
REMARK INTER + INTRA:          -9.296
REMARK INTER:                  -6.928
REMARK INTRA:                  -2.368
REMARK UNBOUND:                -2.368
REMARK SMILES CCCCCCCCCCCCCCCCCCCCCC(=O)[O-]
REMARK SMILES IDX 12 1 11 2 10 3 9 4 8 5 7 6 6 7 5 8 4 9 3 10 2 11 1 12 13 13
REMARK SMILES IDX 14 14 15 15 16 16 17 17 18 18 19 19 20 20 21 21 22 22 23 23
REMARK SMILES IDX 24 24
REMARK H PARENT
REMARK Flexibility Score: inf
ROOT
ATOM      1  C   UNL     1     -18.187  14.602  -0.119  1.00  0.00     0.000 C 
ENDROOT
BRANCH   1   2
ATOM      2  C   UNL     1     -18.712  14.360   1.307  1.00  0.00     0.000 C 
BRANCH   2   3
ATOM      3  C   UNL     1     -18.922  12.870   1.622  1.00  0.00     0.000 C 
BRANCH   3   4
ATOM      4  C   UNL     1     -18.390  11.943   0.516  1.00  0.00    -0.000 C 
BRANCH   4   5
ATOM      5  C   UNL     1     -18.220  10.490   0.992  1.00  0.00    -0.000 C 
BRANCH   5   6
ATOM      6  C   UNL     1     -16.831   9.920   0.657  1.00  0.00    -0.000 C 
BRANCH   6   7
ATOM      7  C   UNL     1     -16.153   9.264   1.875  1.00  0.00    -0.000 C 
BRANCH   7   8
ATOM      8  C   UNL     1     -16.782   9.711   3.215  1.00  0.00    -0.000 C 
BRANCH   8   9
ATOM      9  C   UNL     1     -15.901  10.689   4.014  1.00  0.00    -0.000 C 
BRANCH   9  10
ATOM     10  C   UNL     1     -14.709  10.035   4.737  1.00  0.00    -0.000 C 
BRANCH  10  11
ATOM     11  C   UNL     1     -13.337  10.391   4.121  1.00  0.00    -0.003 C 
ATOM     12  C   UNL     1     -12.786   9.291   3.212  1.00  0.00     0.004 C 
ENDBRANCH  10  11
ENDBRANCH   9  10
ENDBRANCH   8   9
ENDBRANCH   7   8
ENDBRANCH   6   7
ENDBRANCH   5   6
ENDBRANCH   4   5
ENDBRANCH   3   4
ENDBRANCH   2   3
ENDBRANCH   1   2
BRANCH   1  13
ATOM     13  C   UNL     1     -18.758  15.871  -0.787  1.00  0.00     0.000 C 
BRANCH  13  14
ATOM     14  C   UNL     1     -19.115  15.644  -2.264  1.00  0.00     0.000 C 
BRANCH  14  15
ATOM     15  C   UNL     1     -18.828  14.196  -2.689  1.00  0.00     0.000 C 
BRANCH  15  16
ATOM     16  C   UNL     1     -18.030  14.103  -4.001  1.00  0.00     0.000 C 
BRANCH  16  17
ATOM     17  C   UNL     1     -16.898  13.060  -4.002  1.00  0.00     0.000 C 
BRANCH  17  18
ATOM     18  C   UNL     1     -17.345  11.692  -3.461  1.00  0.00     0.000 C 
BRANCH  18  19
ATOM     19  C   UNL     1     -16.240  10.989  -2.654  1.00  0.00     0.000 C 
BRANCH  19  20
ATOM     20  C   UNL     1     -14.937  11.806  -2.601  1.00  0.00     0.006 C 
BRANCH  20  21
ATOM     21  C   UNL     1     -13.698  10.945  -2.887  1.00  0.00     0.053 C 
BRANCH  21  22
ATOM     22  C   UNL     1     -13.511  10.707  -4.355  1.00  0.00     0.041 C 
ATOM     23  O   UNL     1     -13.394   9.534  -4.800  1.00  0.00    -0.550 OA
ATOM     24  O   UNL     1     -13.470  11.784  -5.233  1.00  0.00    -0.550 OA
ENDBRANCH  21  22
ENDBRANCH  20  21
ENDBRANCH  19  20
ENDBRANCH  18  19
ENDBRANCH  17  18
ENDBRANCH  16  17
ENDBRANCH  15  16
ENDBRANCH  14  15
ENDBRANCH  13  14
ENDBRANCH   1  13
TORSDOF 20
ENDMDL
MODEL 2
REMARK VINA RESULT:    -3.134      3.492      7.061
REMARK INTER + INTRA:          -9.166
REMARK INTER:                  -7.027
REMARK INTRA:                  -2.139
REMARK UNBOUND:                -2.368
REMARK SMILES CCCCCCCCCCCCCCCCCCCCCC(=O)[O-]
REMARK SMILES IDX 12 1 11 2 10 3 9 4 8 5 7 6 6 7 5 8 4 9 3 10 2 11 1 12 13 13
REMARK SMILES IDX 14 14 15 15 16 16 17 17 18 18 19 19 20 20 21 21 22 22 23 23
REMARK SMILES IDX 24 24
REMARK H PARENT
REMARK Flexibility Score: inf
ROOT
ATOM      1  C   UNL     1     -12.595  10.742   4.380  1.00  0.00     0.000 C 
ENDROOT
BRANCH   1   2
ATOM      2  C   UNL     1     -12.079  10.686   5.829  1.00  0.00     0.000 C 
BRANCH   2   3
ATOM      3  C   UNL     1     -12.469   9.386   6.552  1.00  0.00     0.000 C 
BRANCH   3   4
ATOM      4  C   UNL     1     -13.508   9.608   7.665  1.00  0.00    -0.000 C 
BRANCH   4   5
ATOM      5  C   UNL     1     -14.950   9.366   7.185  1.00  0.00    -0.000 C 
BRANCH   5   6
ATOM      6  C   UNL     1     -15.804  10.645   7.224  1.00  0.00    -0.000 C 
BRANCH   6   7
ATOM      7  C   UNL     1     -17.102  10.461   8.033  1.00  0.00    -0.000 C 
BRANCH   7   8
ATOM      8  C   UNL     1     -17.131   9.127   8.814  1.00  0.00    -0.000 C 
BRANCH   8   9
ATOM      9  C   UNL     1     -17.000   9.302  10.339  1.00  0.00    -0.000 C 
BRANCH   9  10
ATOM     10  C   UNL     1     -16.173  10.526  10.775  1.00  0.00    -0.000 C 
BRANCH  10  11
ATOM     11  C   UNL     1     -16.931  11.483  11.722  1.00  0.00    -0.003 C 
ATOM     12  C   UNL     1     -18.425  11.576  11.408  1.00  0.00     0.004 C 
ENDBRANCH  10  11
ENDBRANCH   9  10
ENDBRANCH   8   9
ENDBRANCH   7   8
ENDBRANCH   6   7
ENDBRANCH   5   6
ENDBRANCH   4   5
ENDBRANCH   3   4
ENDBRANCH   2   3
ENDBRANCH   1   2
BRANCH   1  13
ATOM     13  C   UNL     1     -12.690   9.361   3.698  1.00  0.00     0.000 C 
BRANCH  13  14
ATOM     14  C   UNL     1     -14.132   9.004   3.301  1.00  0.00     0.000 C 
BRANCH  14  15
ATOM     15  C   UNL     1     -15.112  10.111   3.715  1.00  0.00     0.000 C 
BRANCH  15  16
ATOM     16  C   UNL     1     -16.586   9.709   3.527  1.00  0.00     0.000 C 
BRANCH  16  17
ATOM     17  C   UNL     1     -17.311  10.413   2.367  1.00  0.00     0.000 C 
BRANCH  17  18
ATOM     18  C   UNL     1     -17.023   9.765   1.002  1.00  0.00     0.000 C 
BRANCH  18  19
ATOM     19  C   UNL     1     -17.483  10.643  -0.174  1.00  0.00     0.000 C 
BRANCH  19  20
ATOM     20  C   UNL     1     -16.497  10.612  -1.355  1.00  0.00     0.006 C 
BRANCH  20  21
ATOM     21  C   UNL     1     -16.162  12.020  -1.870  1.00  0.00     0.053 C 
BRANCH  21  22
ATOM     22  C   UNL     1     -15.096  11.990  -2.923  1.00  0.00     0.041 C 
ATOM     23  O   UNL     1     -15.241  12.639  -3.994  1.00  0.00    -0.550 OA
ATOM     24  O   UNL     1     -13.939  11.247  -2.719  1.00  0.00    -0.550 OA
ENDBRANCH  21  22
ENDBRANCH  20  21
ENDBRANCH  19  20
ENDBRANCH  18  19
ENDBRANCH  17  18
ENDBRANCH  16  17
ENDBRANCH  15  16
ENDBRANCH  14  15
ENDBRANCH  13  14
ENDBRANCH   1  13
TORSDOF 20
ENDMDL
MODEL 3
REMARK VINA RESULT:    -3.089      6.301     10.940
REMARK INTER + INTRA:          -9.069
REMARK INTER:                  -7.188
REMARK INTRA:                  -1.881
REMARK UNBOUND:                -2.368
REMARK SMILES CCCCCCCCCCCCCCCCCCCCCC(=O)[O-]
REMARK SMILES IDX 12 1 11 2 10 3 9 4 8 5 7 6 6 7 5 8 4 9 3 10 2 11 1 12 13 13
REMARK SMILES IDX 14 14 15 15 16 16 17 17 18 18 19 19 20 20 21 21 22 22 23 23
REMARK SMILES IDX 24 24
REMARK H PARENT
REMARK Flexibility Score: inf
ROOT
ATOM      1  C   UNL     1     -12.788  10.735   4.299  1.00  0.00     0.000 C 
ENDROOT
BRANCH   1   2
ATOM      2  C   UNL     1     -13.102   9.373   3.655  1.00  0.00     0.000 C 
BRANCH   2   3
ATOM      3  C   UNL     1     -14.611   9.125   3.487  1.00  0.00     0.000 C 
BRANCH   3   4
ATOM      4  C   UNL     1     -15.464  10.348   3.863  1.00  0.00    -0.000 C 
BRANCH   4   5
ATOM      5  C   UNL     1     -16.857  10.322   3.208  1.00  0.00    -0.000 C 
BRANCH   5   6
ATOM      6  C   UNL     1     -16.917   9.380   1.993  1.00  0.00    -0.000 C 
BRANCH   6   7
ATOM      7  C   UNL     1     -17.787   9.944   0.854  1.00  0.00    -0.000 C 
BRANCH   7   8
ATOM      8  C   UNL     1     -16.946  10.438  -0.347  1.00  0.00    -0.000 C 
BRANCH   8   9
ATOM      9  C   UNL     1     -17.622  11.563  -1.152  1.00  0.00    -0.000 C 
BRANCH   9  10
ATOM     10  C   UNL     1     -18.513  12.503  -0.318  1.00  0.00    -0.000 C 
BRANCH  10  11
ATOM     11  C   UNL     1     -18.140  13.996  -0.455  1.00  0.00    -0.003 C 
ATOM     12  C   UNL     1     -18.830  14.883   0.582  1.00  0.00     0.004 C 
ENDBRANCH  10  11
ENDBRANCH   9  10
ENDBRANCH   8   9
ENDBRANCH   7   8
ENDBRANCH   6   7
ENDBRANCH   5   6
ENDBRANCH   4   5
ENDBRANCH   3   4
ENDBRANCH   2   3
ENDBRANCH   1   2
BRANCH   1  13
ATOM     13  C   UNL     1     -12.286  10.634   5.755  1.00  0.00     0.000 C 
BRANCH  13  14
ATOM     14  C   UNL     1     -12.161   9.178   6.231  1.00  0.00     0.000 C 
BRANCH  14  15
ATOM     15  C   UNL     1     -13.122   8.889   7.394  1.00  0.00     0.000 C 
BRANCH  15  16
ATOM     16  C   UNL     1     -14.181   9.988   7.584  1.00  0.00     0.000 C 
BRANCH  16  17
ATOM     17  C   UNL     1     -15.636   9.534   7.375  1.00  0.00     0.000 C 
BRANCH  17  18
ATOM     18  C   UNL     1     -16.635  10.298   8.262  1.00  0.00     0.000 C 
BRANCH  18  19
ATOM     19  C   UNL     1     -16.738   9.704   9.677  1.00  0.00     0.000 C 
BRANCH  19  20
ATOM     20  C   UNL     1     -16.766  10.785  10.771  1.00  0.00     0.006 C 
BRANCH  20  21
ATOM     21  C   UNL     1     -15.506  10.758  11.648  1.00  0.00     0.053 C 
BRANCH  21  22
ATOM     22  C   UNL     1     -15.709  11.488  12.941  1.00  0.00     0.041 C 
ATOM     23  O   UNL     1     -16.400  12.542  12.974  1.00  0.00    -0.550 OA
ATOM     24  O   UNL     1     -15.139  11.001  14.111  1.00  0.00    -0.550 OA
ENDBRANCH  21  22
ENDBRANCH  20  21
ENDBRANCH  19  20
ENDBRANCH  18  19
ENDBRANCH  17  18
ENDBRANCH  16  17
ENDBRANCH  15  16
ENDBRANCH  14  15
ENDBRANCH  13  14
ENDBRANCH   1  13
TORSDOF 20
ENDMDL
MODEL 4
REMARK VINA RESULT:    -3.062      6.557     11.283
REMARK INTER + INTRA:          -9.009
REMARK INTER:                  -7.529
REMARK INTRA:                  -1.480
REMARK UNBOUND:                -2.368
REMARK SMILES CCCCCCCCCCCCCCCCCCCCCC(=O)[O-]
REMARK SMILES IDX 12 1 11 2 10 3 9 4 8 5 7 6 6 7 5 8 4 9 3 10 2 11 1 12 13 13
REMARK SMILES IDX 14 14 15 15 16 16 17 17 18 18 19 19 20 20 21 21 22 22 23 23
REMARK SMILES IDX 24 24
REMARK H PARENT
REMARK Flexibility Score: inf
ROOT
ATOM      1  C   UNL     1     -12.753  10.743   4.982  1.00  0.00     0.000 C 
ENDROOT
BRANCH   1   2
ATOM      2  C   UNL     1     -12.774   9.783   3.780  1.00  0.00     0.000 C 
BRANCH   2   3
ATOM      3  C   UNL     1     -14.198   9.377   3.364  1.00  0.00     0.000 C 
BRANCH   3   4
ATOM      4  C   UNL     1     -15.285  10.240   4.028  1.00  0.00    -0.000 C 
BRANCH   4   5
ATOM      5  C   UNL     1     -16.699   9.902   3.523  1.00  0.00    -0.000 C 
BRANCH   5   6
ATOM      6  C   UNL     1     -16.699   9.396   2.070  1.00  0.00    -0.000 C 
BRANCH   6   7
ATOM      7  C   UNL     1     -17.511  10.307   1.129  1.00  0.00    -0.000 C 
BRANCH   7   8
ATOM      8  C   UNL     1     -16.903  10.387  -0.291  1.00  0.00    -0.000 C 
BRANCH   8   9
ATOM      9  C   UNL     1     -15.890   9.268  -0.592  1.00  0.00    -0.000 C 
BRANCH   9  10
ATOM     10  C   UNL     1     -15.173   9.400  -1.950  1.00  0.00    -0.000 C 
BRANCH  10  11
ATOM     11  C   UNL     1     -13.646   9.597  -1.830  1.00  0.00    -0.003 C 
ATOM     12  C   UNL     1     -13.110  10.697  -2.746  1.00  0.00     0.004 C 
ENDBRANCH  10  11
ENDBRANCH   9  10
ENDBRANCH   8   9
ENDBRANCH   7   8
ENDBRANCH   6   7
ENDBRANCH   5   6
ENDBRANCH   4   5
ENDBRANCH   3   4
ENDBRANCH   2   3
ENDBRANCH   1   2
BRANCH   1  13
ATOM     13  C   UNL     1     -12.137  10.131   6.258  1.00  0.00     0.000 C 
BRANCH  13  14
ATOM     14  C   UNL     1     -12.939   8.926   6.774  1.00  0.00     0.000 C 
BRANCH  14  15
ATOM     15  C   UNL     1     -13.958   9.352   7.841  1.00  0.00     0.000 C 
BRANCH  15  16
ATOM     16  C   UNL     1     -13.443   9.151   9.277  1.00  0.00     0.000 C 
BRANCH  16  17
ATOM     17  C   UNL     1     -14.390   9.644  10.385  1.00  0.00     0.000 C 
BRANCH  17  18
ATOM     18  C   UNL     1     -15.766  10.073   9.847  1.00  0.00     0.000 C 
BRANCH  18  19
ATOM     19  C   UNL     1     -16.912   9.710  10.808  1.00  0.00     0.000 C 
BRANCH  19  20
ATOM     20  C   UNL     1     -17.861  10.892  11.069  1.00  0.00     0.006 C 
BRANCH  20  21
ATOM     21  C   UNL     1     -17.839  11.342  12.537  1.00  0.00     0.053 C 
BRANCH  21  22
ATOM     22  C   UNL     1     -16.716  12.296  12.812  1.00  0.00     0.041 C 
ATOM     23  O   UNL     1     -15.567  11.861  13.091  1.00  0.00    -0.550 OA
ATOM     24  O   UNL     1     -16.940  13.667  12.756  1.00  0.00    -0.550 OA
ENDBRANCH  21  22
ENDBRANCH  20  21
ENDBRANCH  19  20
ENDBRANCH  18  19
ENDBRANCH  17  18
ENDBRANCH  16  17
ENDBRANCH  15  16
ENDBRANCH  14  15
ENDBRANCH  13  14
ENDBRANCH   1  13
TORSDOF 20
ENDMDL
MODEL 5
REMARK VINA RESULT:    -3.017      5.243      8.470
REMARK INTER + INTRA:          -8.912
REMARK INTER:                  -7.725
REMARK INTRA:                  -1.187
REMARK UNBOUND:                -2.368
REMARK SMILES CCCCCCCCCCCCCCCCCCCCCC(=O)[O-]
REMARK SMILES IDX 12 1 11 2 10 3 9 4 8 5 7 6 6 7 5 8 4 9 3 10 2 11 1 12 13 13
REMARK SMILES IDX 14 14 15 15 16 16 17 17 18 18 19 19 20 20 21 21 22 22 23 23
REMARK SMILES IDX 24 24
REMARK H PARENT
REMARK Flexibility Score: inf
ROOT
ATOM      1  C   UNL     1     -12.734  10.148   4.572  1.00  0.00     0.000 C 
ENDROOT
BRANCH   1   2
ATOM      2  C   UNL     1     -12.282  10.014   6.037  1.00  0.00     0.000 C 
BRANCH   2   3
ATOM      3  C   UNL     1     -13.075   8.950   6.813  1.00  0.00     0.000 C 
BRANCH   3   4
ATOM      4  C   UNL     1     -13.843   9.532   8.012  1.00  0.00    -0.000 C 
BRANCH   4   5
ATOM      5  C   UNL     1     -13.324   9.003   9.360  1.00  0.00    -0.000 C 
BRANCH   5   6
ATOM      6  C   UNL     1     -14.145   9.526  10.552  1.00  0.00    -0.000 C 
BRANCH   6   7
ATOM      7  C   UNL     1     -13.303   9.656  11.835  1.00  0.00    -0.000 C 
BRANCH   7   8
ATOM      8  C   UNL     1     -13.659  10.919  12.653  1.00  0.00    -0.000 C 
BRANCH   8   9
ATOM      9  C   UNL     1     -14.559  10.635  13.869  1.00  0.00    -0.000 C 
BRANCH   9  10
ATOM     10  C   UNL     1     -16.065  10.837  13.613  1.00  0.00    -0.000 C 
BRANCH  10  11
ATOM     11  C   UNL     1     -16.373  11.749  12.404  1.00  0.00    -0.003 C 
ATOM     12  C   UNL     1     -17.244  12.951  12.769  1.00  0.00     0.004 C 
ENDBRANCH  10  11
ENDBRANCH   9  10
ENDBRANCH   8   9
ENDBRANCH   7   8
ENDBRANCH   6   7
ENDBRANCH   5   6
ENDBRANCH   4   5
ENDBRANCH   3   4
ENDBRANCH   2   3
ENDBRANCH   1   2
BRANCH   1  13
ATOM     13  C   UNL     1     -14.138  10.768   4.408  1.00  0.00     0.000 C 
BRANCH  13  14
ATOM     14  C   UNL     1     -15.158   9.765   3.845  1.00  0.00     0.000 C 
BRANCH  14  15
ATOM     15  C   UNL     1     -16.573  10.361   3.828  1.00  0.00     0.000 C 
BRANCH  15  16
ATOM     16  C   UNL     1     -17.336  10.059   2.527  1.00  0.00     0.000 C 
BRANCH  16  17
ATOM     17  C   UNL     1     -16.463   9.574   1.357  1.00  0.00     0.000 C 
BRANCH  17  18
ATOM     18  C   UNL     1     -17.094   9.856  -0.017  1.00  0.00     0.000 C 
BRANCH  18  19
ATOM     19  C   UNL     1     -18.131  10.991   0.034  1.00  0.00     0.000 C 
BRANCH  19  20
ATOM     20  C   UNL     1     -17.683  12.237  -0.749  1.00  0.00     0.006 C 
BRANCH  20  21
ATOM     21  C   UNL     1     -18.780  13.309  -0.813  1.00  0.00     0.053 C 
BRANCH  21  22
ATOM     22  C   UNL     1     -18.518  14.433   0.145  1.00  0.00     0.041 C 
ATOM     23  O   UNL     1     -18.426  15.617  -0.275  1.00  0.00    -0.550 OA
ATOM     24  O   UNL     1     -18.381  14.170   1.503  1.00  0.00    -0.550 OA
ENDBRANCH  21  22
ENDBRANCH  20  21
ENDBRANCH  19  20
ENDBRANCH  18  19
ENDBRANCH  17  18
ENDBRANCH  16  17
ENDBRANCH  15  16
ENDBRANCH  14  15
ENDBRANCH  13  14
ENDBRANCH   1  13
TORSDOF 20
ENDMDL
MODEL 6
REMARK VINA RESULT:    -3.004      1.163      2.632
REMARK INTER + INTRA:          -8.884
REMARK INTER:                  -6.758
REMARK INTRA:                  -2.125
REMARK UNBOUND:                -2.368
REMARK SMILES CCCCCCCCCCCCCCCCCCCCCC(=O)[O-]
REMARK SMILES IDX 12 1 11 2 10 3 9 4 8 5 7 6 6 7 5 8 4 9 3 10 2 11 1 12 13 13
REMARK SMILES IDX 14 14 15 15 16 16 17 17 18 18 19 19 20 20 21 21 22 22 23 23
REMARK SMILES IDX 24 24
REMARK H PARENT
REMARK Flexibility Score: inf
ROOT
ATOM      1  C   UNL     1     -18.417  11.902   1.664  1.00  0.00     0.000 C 
ENDROOT
BRANCH   1   2
ATOM      2  C   UNL     1     -18.640  10.533   0.997  1.00  0.00     0.000 C 
BRANCH   2   3
ATOM      3  C   UNL     1     -17.962   9.381   1.756  1.00  0.00     0.000 C 
BRANCH   3   4
ATOM      4  C   UNL     1     -16.432   9.375   1.594  1.00  0.00    -0.000 C 
BRANCH   4   5
ATOM      5  C   UNL     1     -15.696   9.197   2.934  1.00  0.00    -0.000 C 
BRANCH   5   6
ATOM      6  C   UNL     1     -16.304  10.056   4.057  1.00  0.00    -0.000 C 
BRANCH   6   7
ATOM      7  C   UNL     1     -15.423  11.267   4.415  1.00  0.00    -0.000 C 
BRANCH   7   8
ATOM      8  C   UNL     1     -15.065  11.317   5.919  1.00  0.00    -0.000 C 
BRANCH   8   9
ATOM      9  C   UNL     1     -13.656  10.784   6.236  1.00  0.00    -0.000 C 
BRANCH   9  10
ATOM     10  C   UNL     1     -12.600  11.079   5.153  1.00  0.00    -0.000 C 
BRANCH  10  11
ATOM     11  C   UNL     1     -11.881   9.817   4.627  1.00  0.00    -0.003 C 
ATOM     12  C   UNL     1     -12.324   9.419   3.219  1.00  0.00     0.004 C 
ENDBRANCH  10  11
ENDBRANCH   9  10
ENDBRANCH   8   9
ENDBRANCH   7   8
ENDBRANCH   6   7
ENDBRANCH   5   6
ENDBRANCH   4   5
ENDBRANCH   3   4
ENDBRANCH   2   3
ENDBRANCH   1   2
BRANCH   1  13
ATOM     13  C   UNL     1     -19.078  13.077   0.912  1.00  0.00     0.000 C 
BRANCH  13  14
ATOM     14  C   UNL     1     -18.078  13.843   0.031  1.00  0.00     0.000 C 
BRANCH  14  15
ATOM     15  C   UNL     1     -18.574  13.937  -1.419  1.00  0.00     0.000 C 
BRANCH  15  16
ATOM     16  C   UNL     1     -19.002  12.577  -1.997  1.00  0.00     0.000 C 
BRANCH  16  17
ATOM     17  C   UNL     1     -17.847  11.681  -2.479  1.00  0.00     0.000 C 
BRANCH  17  18
ATOM     18  C   UNL     1     -16.704  12.478  -3.130  1.00  0.00     0.000 C 
BRANCH  18  19
ATOM     19  C   UNL     1     -15.354  12.251  -2.428  1.00  0.00     0.000 C 
BRANCH  19  20
ATOM     20  C   UNL     1     -14.937  10.770  -2.416  1.00  0.00     0.006 C 
BRANCH  20  21
ATOM     21  C   UNL     1     -13.458  10.579  -2.780  1.00  0.00     0.053 C 
BRANCH  21  22
ATOM     22  C   UNL     1     -13.251  10.523  -4.263  1.00  0.00     0.041 C 
ATOM     23  O   UNL     1     -13.433  11.549  -4.971  1.00  0.00    -0.550 OA
ATOM     24  O   UNL     1     -12.851   9.334  -4.864  1.00  0.00    -0.550 OA
ENDBRANCH  21  22
ENDBRANCH  20  21
ENDBRANCH  19  20
ENDBRANCH  18  19
ENDBRANCH  17  18
ENDBRANCH  16  17
ENDBRANCH  15  16
ENDBRANCH  14  15
ENDBRANCH  13  14
ENDBRANCH   1  13
TORSDOF 20
ENDMDL
MODEL 7
REMARK VINA RESULT:    -2.947      4.661      8.072
REMARK INTER + INTRA:          -8.760
REMARK INTER:                  -7.479
REMARK INTRA:                  -1.281
REMARK UNBOUND:                -2.368
REMARK SMILES CCCCCCCCCCCCCCCCCCCCCC(=O)[O-]
REMARK SMILES IDX 12 1 11 2 10 3 9 4 8 5 7 6 6 7 5 8 4 9 3 10 2 11 1 12 13 13
REMARK SMILES IDX 14 14 15 15 16 16 17 17 18 18 19 19 20 20 21 21 22 22 23 23
REMARK SMILES IDX 24 24
REMARK H PARENT
REMARK Flexibility Score: inf
ROOT
ATOM      1  C   UNL     1     -12.859  10.743   4.551  1.00  0.00     0.000 C 
ENDROOT
BRANCH   1   2
ATOM      2  C   UNL     1     -12.236  10.602   5.951  1.00  0.00     0.000 C 
BRANCH   2   3
ATOM      3  C   UNL     1     -12.687   9.325   6.680  1.00  0.00     0.000 C 
BRANCH   3   4
ATOM      4  C   UNL     1     -13.749   9.595   7.760  1.00  0.00    -0.000 C 
BRANCH   4   5
ATOM      5  C   UNL     1     -13.423   8.902   9.095  1.00  0.00    -0.000 C 
BRANCH   5   6
ATOM      6  C   UNL     1     -14.015   9.648  10.304  1.00  0.00    -0.000 C 
BRANCH   6   7
ATOM      7  C   UNL     1     -13.207   9.414  11.594  1.00  0.00    -0.000 C 
BRANCH   7   8
ATOM      8  C   UNL     1     -13.379  10.559  12.619  1.00  0.00    -0.000 C 
BRANCH   8   9
ATOM      9  C   UNL     1     -14.772  10.596  13.274  1.00  0.00    -0.000 C 
BRANCH   9  10
ATOM     10  C   UNL     1     -15.535  11.920  13.083  1.00  0.00    -0.000 C 
BRANCH  10  11
ATOM     11  C   UNL     1     -16.877  11.761  12.332  1.00  0.00    -0.003 C 
ATOM     12  C   UNL     1     -17.937  12.767  12.781  1.00  0.00     0.004 C 
ENDBRANCH  10  11
ENDBRANCH   9  10
ENDBRANCH   8   9
ENDBRANCH   7   8
ENDBRANCH   6   7
ENDBRANCH   5   6
ENDBRANCH   4   5
ENDBRANCH   3   4
ENDBRANCH   2   3
ENDBRANCH   1   2
BRANCH   1  13
ATOM     13  C   UNL     1     -12.682   9.494   3.661  1.00  0.00     0.000 C 
BRANCH  13  14
ATOM     14  C   UNL     1     -14.021   8.968   3.120  1.00  0.00     0.000 C 
BRANCH  14  15
ATOM     15  C   UNL     1     -15.203   9.524   3.927  1.00  0.00     0.000 C 
BRANCH  15  16
ATOM     16  C   UNL     1     -16.378   9.973   3.040  1.00  0.00     0.000 C 
BRANCH  16  17
ATOM     17  C   UNL     1     -16.945   8.886   2.111  1.00  0.00     0.000 C 
BRANCH  17  18
ATOM     18  C   UNL     1     -17.089   9.360   0.655  1.00  0.00     0.000 C 
BRANCH  18  19
ATOM     19  C   UNL     1     -17.593  10.810   0.557  1.00  0.00     0.000 C 
BRANCH  19  20
ATOM     20  C   UNL     1     -17.623  11.329  -0.892  1.00  0.00     0.006 C 
BRANCH  20  21
ATOM     21  C   UNL     1     -16.255  11.212  -1.580  1.00  0.00     0.053 C 
BRANCH  21  22
ATOM     22  C   UNL     1     -16.211  11.975  -2.869  1.00  0.00     0.041 C 
ATOM     23  O   UNL     1     -15.106  12.310  -3.373  1.00  0.00    -0.550 OA
ATOM     24  O   UNL     1     -17.394  12.314  -3.515  1.00  0.00    -0.550 OA
ENDBRANCH  21  22
ENDBRANCH  20  21
ENDBRANCH  19  20
ENDBRANCH  18  19
ENDBRANCH  17  18
ENDBRANCH  16  17
ENDBRANCH  15  16
ENDBRANCH  14  15
ENDBRANCH  13  14
ENDBRANCH   1  13
TORSDOF 20
ENDMDL
MODEL 8
REMARK VINA RESULT:    -2.889      4.268      7.885
REMARK INTER + INTRA:          -8.634
REMARK INTER:                  -6.825
REMARK INTRA:                  -1.809
REMARK UNBOUND:                -2.368
REMARK SMILES CCCCCCCCCCCCCCCCCCCCCC(=O)[O-]
REMARK SMILES IDX 12 1 11 2 10 3 9 4 8 5 7 6 6 7 5 8 4 9 3 10 2 11 1 12 13 13
REMARK SMILES IDX 14 14 15 15 16 16 17 17 18 18 19 19 20 20 21 21 22 22 23 23
REMARK SMILES IDX 24 24
REMARK H PARENT
REMARK Flexibility Score: inf
ROOT
ATOM      1  C   UNL     1     -12.585  10.608   4.875  1.00  0.00     0.000 C 
ENDROOT
BRANCH   1   2
ATOM      2  C   UNL     1     -12.031   9.900   6.124  1.00  0.00     0.000 C 
BRANCH   2   3
ATOM      3  C   UNL     1     -13.047   8.942   6.767  1.00  0.00     0.000 C 
BRANCH   3   4
ATOM      4  C   UNL     1     -13.345   9.285   8.237  1.00  0.00    -0.000 C 
BRANCH   4   5
ATOM      5  C   UNL     1     -14.847   9.218   8.566  1.00  0.00    -0.000 C 
BRANCH   5   6
ATOM      6  C   UNL     1     -15.679  10.198   7.721  1.00  0.00    -0.000 C 
BRANCH   6   7
ATOM      7  C   UNL     1     -17.169  10.192   8.108  1.00  0.00    -0.000 C 
BRANCH   7   8
ATOM      8  C   UNL     1     -17.404   9.704   9.557  1.00  0.00    -0.000 C 
BRANCH   8   9
ATOM      9  C   UNL     1     -18.138  10.729  10.442  1.00  0.00    -0.000 C 
BRANCH   9  10
ATOM     10  C   UNL     1     -17.231  11.488  11.429  1.00  0.00    -0.000 C 
BRANCH  10  11
ATOM     11  C   UNL     1     -15.911  10.754  11.752  1.00  0.00    -0.003 C 
ATOM     12  C   UNL     1     -15.207  11.305  12.992  1.00  0.00     0.004 C 
ENDBRANCH  10  11
ENDBRANCH   9  10
ENDBRANCH   8   9
ENDBRANCH   7   8
ENDBRANCH   6   7
ENDBRANCH   5   6
ENDBRANCH   4   5
ENDBRANCH   3   4
ENDBRANCH   2   3
ENDBRANCH   1   2
BRANCH   1  13
ATOM     13  C   UNL     1     -12.665   9.702   3.628  1.00  0.00     0.000 C 
BRANCH  13  14
ATOM     14  C   UNL     1     -14.095   9.206   3.358  1.00  0.00     0.000 C 
BRANCH  14  15
ATOM     15  C   UNL     1     -15.136  10.144   3.986  1.00  0.00     0.000 C 
BRANCH  15  16
ATOM     16  C   UNL     1     -16.578   9.631   3.831  1.00  0.00     0.000 C 
BRANCH  16  17
ATOM     17  C   UNL     1     -17.464  10.455   2.880  1.00  0.00     0.000 C 
BRANCH  17  18
ATOM     18  C   UNL     1     -17.571   9.836   1.476  1.00  0.00     0.000 C 
BRANCH  18  19
ATOM     19  C   UNL     1     -17.597  10.901   0.365  1.00  0.00     0.000 C 
BRANCH  19  20
ATOM     20  C   UNL     1     -18.870  11.763   0.404  1.00  0.00     0.006 C 
BRANCH  20  21
ATOM     21  C   UNL     1     -18.587  13.197   0.877  1.00  0.00     0.053 C 
BRANCH  21  22
ATOM     22  C   UNL     1     -18.518  14.160  -0.269  1.00  0.00     0.041 C 
ATOM     23  O   UNL     1     -18.673  15.394  -0.073  1.00  0.00    -0.550 OA
ATOM     24  O   UNL     1     -18.276  13.691  -1.556  1.00  0.00    -0.550 OA
ENDBRANCH  21  22
ENDBRANCH  20  21
ENDBRANCH  19  20
ENDBRANCH  18  19
ENDBRANCH  17  18
ENDBRANCH  16  17
ENDBRANCH  15  16
ENDBRANCH  14  15
ENDBRANCH  13  14
ENDBRANCH   1  13
TORSDOF 20
ENDMDL
MODEL 9
REMARK VINA RESULT:    -2.885      4.168      7.255
REMARK INTER + INTRA:          -8.625
REMARK INTER:                  -6.945
REMARK INTRA:                  -1.680
REMARK UNBOUND:                -2.368
REMARK SMILES CCCCCCCCCCCCCCCCCCCCCC(=O)[O-]
REMARK SMILES IDX 12 1 11 2 10 3 9 4 8 5 7 6 6 7 5 8 4 9 3 10 2 11 1 12 13 13
REMARK SMILES IDX 14 14 15 15 16 16 17 17 18 18 19 19 20 20 21 21 22 22 23 23
REMARK SMILES IDX 24 24
REMARK H PARENT
REMARK Flexibility Score: inf
ROOT
ATOM      1  C   UNL     1     -12.989  10.677   4.761  1.00  0.00     0.000 C 
ENDROOT
BRANCH   1   2
ATOM      2  C   UNL     1     -12.443  10.479   6.186  1.00  0.00     0.000 C 
BRANCH   2   3
ATOM      3  C   UNL     1     -12.819   9.114   6.786  1.00  0.00     0.000 C 
BRANCH   3   4
ATOM      4  C   UNL     1     -13.402   9.223   8.205  1.00  0.00    -0.000 C 
BRANCH   4   5
ATOM      5  C   UNL     1     -14.862   9.708   8.209  1.00  0.00    -0.000 C 
BRANCH   5   6
ATOM      6  C   UNL     1     -15.579   9.402   9.536  1.00  0.00    -0.000 C 
BRANCH   6   7
ATOM      7  C   UNL     1     -16.425  10.588  10.035  1.00  0.00    -0.000 C 
BRANCH   7   8
ATOM      8  C   UNL     1     -16.850  10.433  11.514  1.00  0.00    -0.000 C 
BRANCH   8   9
ATOM      9  C   UNL     1     -15.733   9.891  12.424  1.00  0.00    -0.000 C 
BRANCH   9  10
ATOM     10  C   UNL     1     -14.816  10.972  13.026  1.00  0.00    -0.000 C 
BRANCH  10  11
ATOM     11  C   UNL     1     -13.332  10.825  12.621  1.00  0.00    -0.003 C 
ATOM     12  C   UNL     1     -12.984   9.421  12.124  1.00  0.00     0.004 C 
ENDBRANCH  10  11
ENDBRANCH   9  10
ENDBRANCH   8   9
ENDBRANCH   7   8
ENDBRANCH   6   7
ENDBRANCH   5   6
ENDBRANCH   4   5
ENDBRANCH   3   4
ENDBRANCH   2   3
ENDBRANCH   1   2
BRANCH   1  13
ATOM     13  C   UNL     1     -14.513  10.920   4.706  1.00  0.00     0.000 C 
BRANCH  13  14
ATOM     14  C   UNL     1     -15.271   9.733   4.089  1.00  0.00     0.000 C 
BRANCH  14  15
ATOM     15  C   UNL     1     -16.735  10.098   3.803  1.00  0.00     0.000 C 
BRANCH  15  16
ATOM     16  C   UNL     1     -17.172   9.750   2.369  1.00  0.00     0.000 C 
BRANCH  16  17
ATOM     17  C   UNL     1     -16.057   9.197   1.465  1.00  0.00     0.000 C 
BRANCH  17  18
ATOM     18  C   UNL     1     -16.485   9.079  -0.008  1.00  0.00     0.000 C 
BRANCH  18  19
ATOM     19  C   UNL     1     -16.731  10.451  -0.659  1.00  0.00     0.000 C 
BRANCH  19  20
ATOM     20  C   UNL     1     -15.895  10.657  -1.934  1.00  0.00     0.006 C 
BRANCH  20  21
ATOM     21  C   UNL     1     -14.529   9.961  -1.853  1.00  0.00     0.053 C 
BRANCH  21  22
ATOM     22  C   UNL     1     -13.663  10.291  -3.031  1.00  0.00     0.041 C 
ATOM     23  O   UNL     1     -12.545  10.848  -2.863  1.00  0.00    -0.550 OA
ATOM     24  O   UNL     1     -14.091   9.979  -4.317  1.00  0.00    -0.550 OA
ENDBRANCH  21  22
ENDBRANCH  20  21
ENDBRANCH  19  20
ENDBRANCH  18  19
ENDBRANCH  17  18
ENDBRANCH  16  17
ENDBRANCH  15  16
ENDBRANCH  14  15
ENDBRANCH  13  14
ENDBRANCH   1  13
TORSDOF 20
ENDMDL
