MODEL 1
REMARK VINA RESULT:    -4.414      0.000      0.000
REMARK INTER + INTRA:          -4.543
REMARK INTER:                  -4.543
REMARK INTRA:                   0.000
REMARK UNBOUND:                 0.000
REMARK SMILES Oc1ccc2[nH]ccc2c1
REMARK SMILES IDX 3 1 4 2 5 3 9 4 8 5 7 6 6 7 10 8 2 9 1 11
REMARK H PARENT 6 10 1 12
REMARK Flexibility Score: inf
ROOT
ATOM      1  C   UNL     1      22.631  38.370  12.374  1.00  0.00     0.048 A 
ATOM      2  C   UNL     1      22.860  37.567  13.508  1.00  0.00     0.030 A 
ATOM      3  C   UNL     1      24.046  37.762  14.214  1.00  0.00     0.046 A 
ATOM      4  C   UNL     1      24.967  38.699  13.830  1.00  0.00     0.003 A 
ATOM      5  C   UNL     1      26.012  38.642  14.726  1.00  0.00     0.028 A 
ATOM      6  C   UNL     1      25.660  37.644  15.631  1.00  0.00     0.083 A 
ATOM      7  N   UNL     1      24.458  37.110  15.313  1.00  0.00    -0.361 N 
ATOM      8  C   UNL     1      24.771  39.510  12.714  1.00  0.00     0.056 A 
ATOM      9  C   UNL     1      23.581  39.339  11.976  1.00  0.00     0.116 A 
ATOM     10  H   UNL     1      23.958  36.348  15.822  1.00  0.00     0.166 HD
ENDROOT
BRANCH   9  11
ATOM     11  O   UNL     1      23.330  40.120  10.850  1.00  0.00    -0.508 OA
ATOM     12  H   UNL     1      23.925  40.075  10.031  1.00  0.00     0.293 HD
ENDBRANCH   9  11
TORSDOF 1
ENDMDL
MODEL 2
REMARK VINA RESULT:    -4.181      1.077      2.508
REMARK INTER + INTRA:          -4.303
REMARK INTER:                  -4.303
REMARK INTRA:                   0.000
REMARK UNBOUND:                 0.000
REMARK SMILES Oc1ccc2[nH]ccc2c1
REMARK SMILES IDX 3 1 4 2 5 3 9 4 8 5 7 6 6 7 10 8 2 9 1 11
REMARK H PARENT 6 10 1 12
REMARK Flexibility Score: inf
ROOT
ATOM      1  C   UNL     1      24.505  39.493  12.849  1.00  0.00     0.048 A 
ATOM      2  C   UNL     1      24.546  38.914  14.132  1.00  0.00     0.030 A 
ATOM      3  C   UNL     1      23.462  38.133  14.528  1.00  0.00     0.046 A 
ATOM      4  C   UNL     1      22.384  37.928  13.709  1.00  0.00     0.003 A 
ATOM      5  C   UNL     1      21.497  37.122  14.388  1.00  0.00     0.028 A 
ATOM      6  C   UNL     1      22.099  36.875  15.618  1.00  0.00     0.083 A 
ATOM      7  N   UNL     1      23.299  37.495  15.698  1.00  0.00    -0.361 N 
ATOM      8  C   UNL     1      22.312  38.487  12.434  1.00  0.00     0.056 A 
ATOM      9  C   UNL     1      23.393  39.283  12.001  1.00  0.00     0.116 A 
ATOM     10  H   UNL     1      23.961  37.477  16.506  1.00  0.00     0.166 HD
ENDROOT
BRANCH   9  11
ATOM     11  O   UNL     1      23.377  39.868  10.737  1.00  0.00    -0.508 OA
ATOM     12  H   UNL     1      23.278  40.869  10.619  1.00  0.00     0.293 HD
ENDBRANCH   9  11
TORSDOF 1
ENDMDL
MODEL 3
REMARK VINA RESULT:    -3.940      1.366      2.950
REMARK INTER + INTRA:          -4.055
REMARK INTER:                  -4.055
REMARK INTRA:                   0.000
REMARK UNBOUND:                 0.000
REMARK SMILES Oc1ccc2[nH]ccc2c1
REMARK SMILES IDX 3 1 4 2 5 3 9 4 8 5 7 6 6 7 10 8 2 9 1 11
REMARK H PARENT 6 10 1 12
REMARK Flexibility Score: inf
ROOT
ATOM      1  C   UNL     1      24.875  39.125  13.303  1.00  0.00     0.048 A 
ATOM      2  C   UNL     1      24.233  38.256  14.206  1.00  0.00     0.030 A 
ATOM      3  C   UNL     1      22.940  37.837  13.898  1.00  0.00     0.046 A 
ATOM      4  C   UNL     1      22.302  38.250  12.759  1.00  0.00     0.003 A 
ATOM      5  C   UNL     1      21.054  37.665  12.750  1.00  0.00     0.028 A 
ATOM      6  C   UNL     1      21.000  36.908  13.917  1.00  0.00     0.083 A 
ATOM      7  N   UNL     1      22.155  37.017  14.614  1.00  0.00    -0.361 N 
ATOM      8  C   UNL     1      22.908  39.109  11.845  1.00  0.00     0.056 A 
ATOM      9  C   UNL     1      24.218  39.553  12.127  1.00  0.00     0.116 A 
ATOM     10  H   UNL     1      22.384  36.555  15.522  1.00  0.00     0.166 HD
ENDROOT
BRANCH   9  11
ATOM     11  O   UNL     1      24.875  40.413  11.250  1.00  0.00    -0.508 OA
ATOM     12  H   UNL     1      24.472  41.302  10.980  1.00  0.00     0.293 HD
ENDBRANCH   9  11
TORSDOF 1
ENDMDL
MODEL 4
REMARK VINA RESULT:    -3.828      1.803      2.520
REMARK INTER + INTRA:          -3.940
REMARK INTER:                  -3.940
REMARK INTRA:                   0.000
REMARK UNBOUND:                 0.000
REMARK SMILES Oc1ccc2[nH]ccc2c1
REMARK SMILES IDX 3 1 4 2 5 3 9 4 8 5 7 6 6 7 10 8 2 9 1 11
REMARK H PARENT 6 10 1 12
REMARK Flexibility Score: inf
ROOT
ATOM      1  C   UNL     1      21.367  37.074  14.123  1.00  0.00     0.048 A 
ATOM      2  C   UNL     1      22.636  37.124  14.732  1.00  0.00     0.030 A 
ATOM      3  C   UNL     1      23.629  37.875  14.106  1.00  0.00     0.046 A 
ATOM      4  C   UNL     1      23.393  38.547  12.936  1.00  0.00     0.003 A 
ATOM      5  C   UNL     1      24.563  39.184  12.583  1.00  0.00     0.028 A 
ATOM      6  C   UNL     1      25.471  38.855  13.585  1.00  0.00     0.083 A 
ATOM      7  N   UNL     1      24.895  38.056  14.513  1.00  0.00    -0.361 N 
ATOM      8  C   UNL     1      22.150  38.517  12.307  1.00  0.00     0.056 A 
ATOM      9  C   UNL     1      21.122  37.766  12.915  1.00  0.00     0.116 A 
ATOM     10  H   UNL     1      25.347  37.663  15.368  1.00  0.00     0.166 HD
ENDROOT
BRANCH   9  11
ATOM     11  O   UNL     1      19.858  37.699  12.332  1.00  0.00    -0.508 OA
ATOM     12  H   UNL     1      19.181  38.443  12.452  1.00  0.00     0.293 HD
ENDBRANCH   9  11
TORSDOF 1
ENDMDL
MODEL 5
REMARK VINA RESULT:    -3.767      2.264      3.643
REMARK INTER + INTRA:          -3.878
REMARK INTER:                  -3.878
REMARK INTRA:                   0.000
REMARK UNBOUND:                 0.000
REMARK SMILES Oc1ccc2[nH]ccc2c1
REMARK SMILES IDX 3 1 4 2 5 3 9 4 8 5 7 6 6 7 10 8 2 9 1 11
REMARK H PARENT 6 10 1 12
REMARK Flexibility Score: inf
ROOT
ATOM      1  C   UNL     1      24.868  39.460  12.681  1.00  0.00     0.048 A 
ATOM      2  C   UNL     1      23.649  39.356  11.985  1.00  0.00     0.030 A 
ATOM      3  C   UNL     1      22.708  38.441  12.455  1.00  0.00     0.046 A 
ATOM      4  C   UNL     1      22.949  37.662  13.555  1.00  0.00     0.003 A 
ATOM      5  C   UNL     1      21.835  36.875  13.754  1.00  0.00     0.028 A 
ATOM      6  C   UNL     1      20.954  37.229  12.736  1.00  0.00     0.083 A 
ATOM      7  N   UNL     1      21.493  38.186  11.946  1.00  0.00    -0.361 N 
ATOM      8  C   UNL     1      24.144  37.740  14.266  1.00  0.00     0.056 A 
ATOM      9  C   UNL     1      25.119  38.656  13.817  1.00  0.00     0.116 A 
ATOM     10  H   UNL     1      21.050  38.631  11.112  1.00  0.00     0.166 HD
ENDROOT
BRANCH   9  11
ATOM     11  O   UNL     1      26.335  38.778  14.487  1.00  0.00    -0.508 OA
ATOM     12  H   UNL     1      26.433  38.507  15.458  1.00  0.00     0.293 HD
ENDBRANCH   9  11
TORSDOF 1
ENDMDL
MODEL 6
REMARK VINA RESULT:    -3.671      1.484      2.179
REMARK INTER + INTRA:          -3.778
REMARK INTER:                  -3.778
REMARK INTRA:                   0.000
REMARK UNBOUND:                 0.000
REMARK SMILES Oc1ccc2[nH]ccc2c1
REMARK SMILES IDX 3 1 4 2 5 3 9 4 8 5 7 6 6 7 10 8 2 9 1 11
REMARK H PARENT 6 10 1 12
REMARK Flexibility Score: inf
ROOT
ATOM      1  C   UNL     1      23.132  39.267  11.977  1.00  0.00     0.048 A 
ATOM      2  C   UNL     1      24.482  39.474  12.321  1.00  0.00     0.030 A 
ATOM      3  C   UNL     1      25.003  38.737  13.382  1.00  0.00     0.046 A 
ATOM      4  C   UNL     1      24.239  37.839  14.079  1.00  0.00     0.003 A 
ATOM      5  C   UNL     1      25.041  37.284  15.053  1.00  0.00     0.028 A 
ATOM      6  C   UNL     1      26.282  37.893  14.892  1.00  0.00     0.083 A 
ATOM      7  N   UNL     1      26.253  38.779  13.870  1.00  0.00    -0.361 N 
ATOM      8  C   UNL     1      22.901  37.610  13.765  1.00  0.00     0.056 A 
ATOM      9  C   UNL     1      22.342  38.340  12.695  1.00  0.00     0.116 A 
ATOM     10  H   UNL     1      27.044  39.372  13.533  1.00  0.00     0.166 HD
ENDROOT
BRANCH   9  11
ATOM     11  O   UNL     1      21.009  38.155  12.335  1.00  0.00    -0.508 OA
ATOM     12  H   UNL     1      20.663  38.434  11.425  1.00  0.00     0.293 HD
ENDBRANCH   9  11
TORSDOF 1
ENDMDL
MODEL 7
REMARK VINA RESULT:    -3.626      8.484      9.744
REMARK INTER + INTRA:          -3.732
REMARK INTER:                  -3.732
REMARK INTRA:                   0.000
REMARK UNBOUND:                 0.000
REMARK SMILES Oc1ccc2[nH]ccc2c1
REMARK SMILES IDX 3 1 4 2 5 3 9 4 8 5 7 6 6 7 10 8 2 9 1 11
REMARK H PARENT 6 10 1 12
REMARK Flexibility Score: inf
ROOT
ATOM      1  C   UNL     1      32.523  37.339  14.309  1.00  0.00     0.048 A 
ATOM      2  C   UNL     1      33.741  37.897  13.875  1.00  0.00     0.030 A 
ATOM      3  C   UNL     1      34.243  38.990  14.578  1.00  0.00     0.046 A 
ATOM      4  C   UNL     1      33.583  39.517  15.657  1.00  0.00     0.003 A 
ATOM      5  C   UNL     1      34.333  40.575  16.122  1.00  0.00     0.028 A 
ATOM      6  C   UNL     1      35.436  40.638  15.277  1.00  0.00     0.083 A 
ATOM      7  N   UNL     1      35.376  39.667  14.336  1.00  0.00    -0.361 N 
ATOM      8  C   UNL     1      32.377  38.989  16.112  1.00  0.00     0.056 A 
ATOM      9  C   UNL     1      31.841  37.881  15.422  1.00  0.00     0.116 A 
ATOM     10  H   UNL     1      36.072  39.485  13.579  1.00  0.00     0.166 HD
ENDROOT
BRANCH   9  11
ATOM     11  O   UNL     1      30.637  37.310  15.831  1.00  0.00    -0.508 OA
ATOM     12  H   UNL     1      30.058  36.782  15.189  1.00  0.00     0.293 HD
ENDBRANCH   9  11
TORSDOF 1
ENDMDL
MODEL 8
REMARK VINA RESULT:    -3.620      2.127      2.746
REMARK INTER + INTRA:          -3.725
REMARK INTER:                  -3.725
REMARK INTRA:                   0.000
REMARK UNBOUND:                 0.000
REMARK SMILES Oc1ccc2[nH]ccc2c1
REMARK SMILES IDX 3 1 4 2 5 3 9 4 8 5 7 6 6 7 10 8 2 9 1 11
REMARK H PARENT 6 10 1 12
REMARK Flexibility Score: inf
ROOT
ATOM      1  C   UNL     1      23.957  38.680  14.867  1.00  0.00     0.048 A 
ATOM      2  C   UNL     1      25.301  38.773  15.276  1.00  0.00     0.030 A 
ATOM      3  C   UNL     1      26.277  38.264  14.421  1.00  0.00     0.046 A 
ATOM      4  C   UNL     1      25.955  37.688  13.221  1.00  0.00     0.003 A 
ATOM      5  C   UNL     1      27.131  37.292  12.624  1.00  0.00     0.028 A 
ATOM      6  C   UNL     1      28.133  37.657  13.518  1.00  0.00     0.083 A 
ATOM      7  N   UNL     1      27.606  38.250  14.614  1.00  0.00    -0.361 N 
ATOM      8  C   UNL     1      24.635  37.580  12.787  1.00  0.00     0.056 A 
ATOM      9  C   UNL     1      23.622  38.086  13.629  1.00  0.00     0.116 A 
ATOM     10  H   UNL     1      28.129  38.621  15.438  1.00  0.00     0.166 HD
ENDROOT
BRANCH   9  11
ATOM     11  O   UNL     1      22.284  38.006  13.249  1.00  0.00    -0.508 OA
ATOM     12  H   UNL     1      21.891  38.636  12.559  1.00  0.00     0.293 HD
ENDBRANCH   9  11
TORSDOF 1
ENDMDL
MODEL 9
REMARK VINA RESULT:    -2.671      2.524      3.601
REMARK INTER + INTRA:          -2.749
REMARK INTER:                  -2.749
REMARK INTRA:                   0.000
REMARK UNBOUND:                 0.000
REMARK SMILES Oc1ccc2[nH]ccc2c1
REMARK SMILES IDX 3 1 4 2 5 3 9 4 8 5 7 6 6 7 10 8 2 9 1 11
REMARK H PARENT 6 10 1 12
REMARK Flexibility Score: inf
ROOT
ATOM      1  C   UNL     1      24.887  36.875  14.857  1.00  0.00     0.048 A 
ATOM      2  C   UNL     1      23.795  36.984  13.976  1.00  0.00     0.030 A 
ATOM      3  C   UNL     1      23.780  38.058  13.088  1.00  0.00     0.046 A 
ATOM      4  C   UNL     1      24.787  38.985  13.063  1.00  0.00     0.003 A 
ATOM      5  C   UNL     1      24.476  39.905  12.085  1.00  0.00     0.028 A 
ATOM      6  C   UNL     1      23.263  39.476  11.555  1.00  0.00     0.083 A 
ATOM      7  N   UNL     1      22.843  38.347  12.171  1.00  0.00    -0.361 N 
ATOM      8  C   UNL     1      25.882  38.907  13.921  1.00  0.00     0.056 A 
ATOM      9  C   UNL     1      25.928  37.831  14.833  1.00  0.00     0.116 A 
ATOM     10  H   UNL     1      21.968  37.813  11.971  1.00  0.00     0.166 HD
ENDROOT
BRANCH   9  11
ATOM     11  O   UNL     1      26.998  37.701  15.717  1.00  0.00    -0.508 OA
ATOM     12  H   UNL     1      27.401  36.796  15.929  1.00  0.00     0.293 HD
ENDBRANCH   9  11
TORSDOF 1
ENDMDL
