MODEL 1
REMARK VINA RESULT:    -5.286      0.000      0.000
REMARK INTER + INTRA:          -6.237
REMARK INTER:                  -6.212
REMARK INTRA:                  -0.025
REMARK UNBOUND:                -0.025
REMARK SMILES O=c1c(O)c(-c2ccc(O)c(O)c2)oc2cc(O)ccc12
REMARK SMILES IDX 5 1 3 2 2 3 1 4 21 5 15 6 14 7 16 8 17 9 19 10 20 11 6 12
REMARK SMILES IDX 7 13 8 14 9 15 13 16 11 17 10 18 12 20 4 22 18 24
REMARK H PARENT 10 19 12 21 4 23 18 25
REMARK Flexibility Score: inf
ROOT
ATOM      1  C   UNL     1     -11.700 -16.439  31.565  1.00  0.00     0.180 A 
ATOM      2  C   UNL     1     -11.399 -17.804  31.374  1.00  0.00     0.208 A 
ATOM      3  C   UNL     1     -11.724 -18.403  30.147  1.00  0.00     0.235 A 
ATOM      4  O   UNL     1     -11.473 -19.625  29.954  1.00  0.00    -0.285 OA
ATOM      5  C   UNL     1     -12.320 -17.631  29.137  1.00  0.00     0.069 A 
ATOM      6  C   UNL     1     -12.568 -16.266  29.399  1.00  0.00     0.142 A 
ATOM      7  O   UNL     1     -12.253 -15.739  30.577  1.00  0.00    -0.452 OA
ATOM      8  C   UNL     1     -13.151 -15.460  28.415  1.00  0.00     0.094 A 
ATOM      9  C   UNL     1     -13.492 -16.000  27.171  1.00  0.00     0.119 A 
ATOM     10  C   UNL     1     -13.248 -17.355  26.909  1.00  0.00     0.047 A 
ATOM     11  C   UNL     1     -12.665 -18.169  27.885  1.00  0.00     0.020 A 
ENDROOT
BRANCH   1  12
ATOM     12  C   UNL     1     -11.406 -15.741  32.837  1.00  0.00     0.025 A 
ATOM     13  C   UNL     1     -10.123 -15.769  33.409  1.00  0.00     0.016 A 
ATOM     14  C   UNL     1      -9.876 -15.122  34.623  1.00  0.00     0.051 A 
ATOM     15  C   UNL     1     -10.909 -14.449  35.289  1.00  0.00     0.157 A 
ATOM     16  C   UNL     1     -12.443 -15.083  33.519  1.00  0.00     0.062 A 
ATOM     17  C   UNL     1     -12.200 -14.433  34.734  1.00  0.00     0.158 A 
BRANCH  15  18
ATOM     18  O   UNL     1     -10.659 -13.803  36.498  1.00  0.00    -0.504 OA
ATOM     19  H   UNL     1      -9.781 -13.327  36.674  1.00  0.00     0.293 HD
ENDBRANCH  15  18
BRANCH  17  20
ATOM     20  O   UNL     1     -13.251 -13.778  35.374  1.00  0.00    -0.504 OA
ATOM     21  H   UNL     1     -13.638 -14.110  36.251  1.00  0.00     0.293 HD
ENDBRANCH  17  20
ENDBRANCH   1  12
BRANCH   2  22
ATOM     22  O   UNL     1     -10.760 -18.536  32.378  1.00  0.00    -0.502 OA
ATOM     23  H   UNL     1     -10.349 -19.445  32.208  1.00  0.00     0.293 HD
ENDBRANCH   2  22
BRANCH   9  24
ATOM     24  O   UNL     1     -14.073 -15.183  26.203  1.00  0.00    -0.508 OA
ATOM     25  H   UNL     1     -13.607 -14.349  25.866  1.00  0.00     0.293 HD
ENDBRANCH   9  24
TORSDOF 5
ENDMDL
MODEL 2
REMARK VINA RESULT:    -4.490      1.490      1.508
REMARK INTER + INTRA:          -5.302
REMARK INTER:                  -5.158
REMARK INTRA:                  -0.144
REMARK UNBOUND:                -0.025
REMARK SMILES O=c1c(O)c(-c2ccc(O)c(O)c2)oc2cc(O)ccc12
REMARK SMILES IDX 5 1 3 2 2 3 1 4 21 5 15 6 14 7 16 8 17 9 19 10 20 11 6 12
REMARK SMILES IDX 7 13 8 14 9 15 13 16 11 17 10 18 12 20 4 22 18 24
REMARK H PARENT 10 19 12 21 4 23 18 25
REMARK Flexibility Score: inf
ROOT
ATOM      1  C   UNL     1     -11.807 -16.599  31.509  1.00  0.00     0.180 A 
ATOM      2  C   UNL     1     -12.675 -17.710  31.515  1.00  0.00     0.208 A 
ATOM      3  C   UNL     1     -12.958 -18.355  30.301  1.00  0.00     0.235 A 
ATOM      4  O   UNL     1     -13.739 -19.345  30.279  1.00  0.00    -0.285 OA
ATOM      5  C   UNL     1     -12.359 -17.894  29.119  1.00  0.00     0.069 A 
ATOM      6  C   UNL     1     -11.483 -16.790  29.200  1.00  0.00     0.142 A 
ATOM      7  O   UNL     1     -11.248 -16.202  30.367  1.00  0.00    -0.452 OA
ATOM      8  C   UNL     1     -10.857 -16.307  28.045  1.00  0.00     0.094 A 
ATOM      9  C   UNL     1     -11.097 -16.912  26.807  1.00  0.00     0.119 A 
ATOM     10  C   UNL     1     -11.967 -18.007  26.723  1.00  0.00     0.047 A 
ATOM     11  C   UNL     1     -12.596 -18.498  27.871  1.00  0.00     0.020 A 
ENDROOT
BRANCH   1  12
ATOM     12  C   UNL     1     -11.474 -15.854  32.745  1.00  0.00     0.025 A 
ATOM     13  C   UNL     1     -10.171 -15.851  33.271  1.00  0.00     0.016 A 
ATOM     14  C   UNL     1      -9.887 -15.161  34.452  1.00  0.00     0.051 A 
ATOM     15  C   UNL     1     -10.902 -14.474  35.132  1.00  0.00     0.157 A 
ATOM     16  C   UNL     1     -12.493 -15.182  33.441  1.00  0.00     0.062 A 
ATOM     17  C   UNL     1     -12.213 -14.489  34.623  1.00  0.00     0.158 A 
BRANCH  15  18
ATOM     18  O   UNL     1     -10.616 -13.785  36.308  1.00  0.00    -0.504 OA
ATOM     19  H   UNL     1     -10.902 -12.821  36.442  1.00  0.00     0.293 HD
ENDBRANCH  15  18
BRANCH  17  20
ATOM     20  O   UNL     1     -13.247 -13.822  35.279  1.00  0.00    -0.504 OA
ATOM     21  H   UNL     1     -14.219 -13.954  35.025  1.00  0.00     0.293 HD
ENDBRANCH  17  20
ENDBRANCH   1  12
BRANCH   2  22
ATOM     22  O   UNL     1     -13.219 -18.177  32.715  1.00  0.00    -0.502 OA
ATOM     23  H   UNL     1     -14.198 -18.416  32.810  1.00  0.00     0.293 HD
ENDBRANCH   2  22
BRANCH   9  24
ATOM     24  O   UNL     1     -10.466 -16.418  25.667  1.00  0.00    -0.508 OA
ATOM     25  H   UNL     1     -10.602 -15.462  25.359  1.00  0.00     0.293 HD
ENDBRANCH   9  24
TORSDOF 5
ENDMDL
MODEL 3
REMARK VINA RESULT:    -4.246      1.719      2.580
REMARK INTER + INTRA:          -5.015
REMARK INTER:                  -4.788
REMARK INTRA:                  -0.227
REMARK UNBOUND:                -0.025
REMARK SMILES O=c1c(O)c(-c2ccc(O)c(O)c2)oc2cc(O)ccc12
REMARK SMILES IDX 5 1 3 2 2 3 1 4 21 5 15 6 14 7 16 8 17 9 19 10 20 11 6 12
REMARK SMILES IDX 7 13 8 14 9 15 13 16 11 17 10 18 12 20 4 22 18 24
REMARK H PARENT 10 19 12 21 4 23 18 25
REMARK Flexibility Score: inf
ROOT
ATOM      1  C   UNL     1     -11.368 -16.360  31.608  1.00  0.00     0.180 A 
ATOM      2  C   UNL     1     -10.693 -15.912  30.454  1.00  0.00     0.208 A 
ATOM      3  C   UNL     1     -10.882 -16.604  29.248  1.00  0.00     0.235 A 
ATOM      4  O   UNL     1     -10.282 -16.228  28.203  1.00  0.00    -0.285 OA
ATOM      5  C   UNL     1     -11.748 -17.707  29.213  1.00  0.00     0.069 A 
ATOM      6  C   UNL     1     -12.405 -18.079  30.406  1.00  0.00     0.142 A 
ATOM      7  O   UNL     1     -12.192 -17.403  31.529  1.00  0.00    -0.452 OA
ATOM      8  C   UNL     1     -13.285 -19.167  30.411  1.00  0.00     0.094 A 
ATOM      9  C   UNL     1     -13.516 -19.893  29.237  1.00  0.00     0.119 A 
ATOM     10  C   UNL     1     -12.865 -19.527  28.052  1.00  0.00     0.047 A 
ATOM     11  C   UNL     1     -11.985 -18.440  28.036  1.00  0.00     0.020 A 
ENDROOT
BRANCH   1  12
ATOM     12  C   UNL     1     -11.206 -15.695  32.921  1.00  0.00     0.025 A 
ATOM     13  C   UNL     1      -9.997 -15.764  33.633  1.00  0.00     0.016 A 
ATOM     14  C   UNL     1      -9.875 -15.148  34.882  1.00  0.00     0.051 A 
ATOM     15  C   UNL     1     -10.964 -14.468  35.443  1.00  0.00     0.157 A 
ATOM     16  C   UNL     1     -12.301 -15.030  33.498  1.00  0.00     0.062 A 
ATOM     17  C   UNL     1     -12.184 -14.412  34.747  1.00  0.00     0.158 A 
BRANCH  15  18
ATOM     18  O   UNL     1     -10.839 -13.853  36.688  1.00  0.00    -0.504 OA
ATOM     19  H   UNL     1     -11.206 -14.281  37.531  1.00  0.00     0.293 HD
ENDBRANCH  15  18
BRANCH  17  20
ATOM     20  O   UNL     1     -13.288 -13.748  35.281  1.00  0.00    -0.504 OA
ATOM     21  H   UNL     1     -14.158 -13.653  34.770  1.00  0.00     0.293 HD
ENDBRANCH  17  20
ENDBRANCH   1  12
BRANCH   2  22
ATOM     22  O   UNL     1      -9.875 -14.780  30.506  1.00  0.00    -0.502 OA
ATOM     23  H   UNL     1      -8.973 -14.784  30.966  1.00  0.00     0.293 HD
ENDBRANCH   2  22
BRANCH   9  24
ATOM     24  O   UNL     1     -14.395 -20.974  29.260  1.00  0.00    -0.508 OA
ATOM     25  H   UNL     1     -15.201 -20.988  29.873  1.00  0.00     0.293 HD
ENDBRANCH   9  24
TORSDOF 5
ENDMDL
MODEL 4
REMARK VINA RESULT:    -3.968      1.866      6.934
REMARK INTER + INTRA:          -4.689
REMARK INTER:                  -4.447
REMARK INTRA:                  -0.242
REMARK UNBOUND:                -0.025
REMARK SMILES O=c1c(O)c(-c2ccc(O)c(O)c2)oc2cc(O)ccc12
REMARK SMILES IDX 5 1 3 2 2 3 1 4 21 5 15 6 14 7 16 8 17 9 19 10 20 11 6 12
REMARK SMILES IDX 7 13 8 14 9 15 13 16 11 17 10 18 12 20 4 22 18 24
REMARK H PARENT 10 19 12 21 4 23 18 25
REMARK Flexibility Score: inf
ROOT
ATOM      1  C   UNL     1     -12.407 -15.805  31.017  1.00  0.00     0.180 A 
ATOM      2  C   UNL     1     -13.717 -15.344  31.264  1.00  0.00     0.208 A 
ATOM      3  C   UNL     1     -14.016 -14.798  32.521  1.00  0.00     0.235 A 
ATOM      4  O   UNL     1     -15.184 -14.388  32.770  1.00  0.00    -0.285 OA
ATOM      5  C   UNL     1     -13.008 -14.707  33.493  1.00  0.00     0.069 A 
ATOM      6  C   UNL     1     -11.716 -15.169  33.160  1.00  0.00     0.142 A 
ATOM      7  O   UNL     1     -11.475 -15.687  31.961  1.00  0.00    -0.452 OA
ATOM      8  C   UNL     1     -10.680 -15.085  34.097  1.00  0.00     0.094 A 
ATOM      9  C   UNL     1     -10.918 -14.547  35.366  1.00  0.00     0.119 A 
ATOM     10  C   UNL     1     -12.200 -14.088  35.700  1.00  0.00     0.047 A 
ATOM     11  C   UNL     1     -13.241 -14.166  34.770  1.00  0.00     0.020 A 
ENDROOT
BRANCH   1  12
ATOM     12  C   UNL     1     -12.017 -16.410  29.723  1.00  0.00     0.025 A 
ATOM     13  C   UNL     1     -11.248 -15.701  28.785  1.00  0.00     0.016 A 
ATOM     14  C   UNL     1     -10.913 -16.285  27.560  1.00  0.00     0.051 A 
ATOM     15  C   UNL     1     -11.352 -17.579  27.250  1.00  0.00     0.157 A 
ATOM     16  C   UNL     1     -12.472 -17.699  29.399  1.00  0.00     0.062 A 
ATOM     17  C   UNL     1     -12.138 -18.288  28.175  1.00  0.00     0.158 A 
BRANCH  15  18
ATOM     18  O   UNL     1     -11.014 -18.159  26.028  1.00  0.00    -0.504 OA
ATOM     19  H   UNL     1     -11.430 -19.032  25.722  1.00  0.00     0.293 HD
ENDBRANCH  15  18
BRANCH  17  20
ATOM     20  O   UNL     1     -12.596 -19.574  27.894  1.00  0.00    -0.504 OA
ATOM     21  H   UNL     1     -11.997 -20.388  27.973  1.00  0.00     0.293 HD
ENDBRANCH  17  20
ENDBRANCH   1  12
BRANCH   2  22
ATOM     22  O   UNL     1     -14.689 -15.403  30.261  1.00  0.00    -0.502 OA
ATOM     23  H   UNL     1     -14.711 -16.143  29.571  1.00  0.00     0.293 HD
ENDBRANCH   2  22
BRANCH   9  24
ATOM     24  O   UNL     1      -9.875 -14.471  36.288  1.00  0.00    -0.508 OA
ATOM     25  H   UNL     1      -9.489 -15.303  36.718  1.00  0.00     0.293 HD
ENDBRANCH   9  24
TORSDOF 5
ENDMDL
MODEL 5
REMARK VINA RESULT:    -3.887      1.743      3.657
REMARK INTER + INTRA:          -4.593
REMARK INTER:                  -4.526
REMARK INTRA:                  -0.068
REMARK UNBOUND:                -0.025
REMARK SMILES O=c1c(O)c(-c2ccc(O)c(O)c2)oc2cc(O)ccc12
REMARK SMILES IDX 5 1 3 2 2 3 1 4 21 5 15 6 14 7 16 8 17 9 19 10 20 11 6 12
REMARK SMILES IDX 7 13 8 14 9 15 13 16 11 17 10 18 12 20 4 22 18 24
REMARK H PARENT 10 19 12 21 4 23 18 25
REMARK Flexibility Score: inf
ROOT
ATOM      1  C   UNL     1     -12.729 -16.083  32.225  1.00  0.00     0.180 A 
ATOM      2  C   UNL     1     -13.139 -15.607  30.963  1.00  0.00     0.208 A 
ATOM      3  C   UNL     1     -13.252 -16.517  29.901  1.00  0.00     0.235 A 
ATOM      4  O   UNL     1     -13.608 -16.113  28.759  1.00  0.00    -0.285 OA
ATOM      5  C   UNL     1     -12.973 -17.874  30.121  1.00  0.00     0.069 A 
ATOM      6  C   UNL     1     -12.590 -18.275  31.420  1.00  0.00     0.142 A 
ATOM      7  O   UNL     1     -12.488 -17.381  32.396  1.00  0.00    -0.452 OA
ATOM      8  C   UNL     1     -12.314 -19.621  31.683  1.00  0.00     0.094 A 
ATOM      9  C   UNL     1     -12.413 -20.575  30.664  1.00  0.00     0.119 A 
ATOM     10  C   UNL     1     -12.791 -20.179  29.374  1.00  0.00     0.047 A 
ATOM     11  C   UNL     1     -13.070 -18.837  29.101  1.00  0.00     0.020 A 
ENDROOT
BRANCH   1  12
ATOM     12  C   UNL     1     -12.569 -15.184  33.391  1.00  0.00     0.025 A 
ATOM     13  C   UNL     1     -13.627 -14.379  33.846  1.00  0.00     0.016 A 
ATOM     14  C   UNL     1     -13.445 -13.520  34.933  1.00  0.00     0.051 A 
ATOM     15  C   UNL     1     -12.200 -13.442  35.573  1.00  0.00     0.157 A 
ATOM     16  C   UNL     1     -11.318 -15.087  34.022  1.00  0.00     0.062 A 
ATOM     17  C   UNL     1     -11.131 -14.230  35.111  1.00  0.00     0.158 A 
BRANCH  15  18
ATOM     18  O   UNL     1     -12.022 -12.587  36.658  1.00  0.00    -0.504 OA
ATOM     19  H   UNL     1     -11.709 -11.630  36.534  1.00  0.00     0.293 HD
ENDBRANCH  15  18
BRANCH  17  20
ATOM     20  O   UNL     1      -9.878 -14.171  35.721  1.00  0.00    -0.504 OA
ATOM     21  H   UNL     1      -9.081 -13.735  35.273  1.00  0.00     0.293 HD
ENDBRANCH  17  20
ENDBRANCH   1  12
BRANCH   2  22
ATOM     22  O   UNL     1     -13.458 -14.258  30.784  1.00  0.00    -0.502 OA
ATOM     23  H   UNL     1     -14.377 -13.953  30.486  1.00  0.00     0.293 HD
ENDBRANCH   2  22
BRANCH   9  24
ATOM     24  O   UNL     1     -12.133 -21.911  30.944  1.00  0.00    -0.508 OA
ATOM     25  H   UNL     1     -11.509 -22.175  31.697  1.00  0.00     0.293 HD
ENDBRANCH   9  24
TORSDOF 5
ENDMDL
MODEL 6
REMARK VINA RESULT:    -2.911      1.686      2.740
REMARK INTER + INTRA:          -3.447
REMARK INTER:                  -3.979
REMARK INTRA:                   0.532
REMARK UNBOUND:                -0.025
REMARK SMILES O=c1c(O)c(-c2ccc(O)c(O)c2)oc2cc(O)ccc12
REMARK SMILES IDX 5 1 3 2 2 3 1 4 21 5 15 6 14 7 16 8 17 9 19 10 20 11 6 12
REMARK SMILES IDX 7 13 8 14 9 15 13 16 11 17 10 18 12 20 4 22 18 24
REMARK H PARENT 10 19 12 21 4 23 18 25
REMARK Flexibility Score: inf
ROOT
ATOM      1  C   UNL     1     -12.077 -15.586  30.723  1.00  0.00     0.180 A 
ATOM      2  C   UNL     1     -13.309 -15.048  30.298  1.00  0.00     0.208 A 
ATOM      3  C   UNL     1     -13.699 -15.224  28.961  1.00  0.00     0.235 A 
ATOM      4  O   UNL     1     -14.793 -14.744  28.554  1.00  0.00    -0.285 OA
ATOM      5  C   UNL     1     -12.867 -15.942  28.088  1.00  0.00     0.069 A 
ATOM      6  C   UNL     1     -11.660 -16.468  28.597  1.00  0.00     0.142 A 
ATOM      7  O   UNL     1     -11.324 -16.272  29.866  1.00  0.00    -0.452 OA
ATOM      8  C   UNL     1     -10.809 -17.199  27.761  1.00  0.00     0.094 A 
ATOM      9  C   UNL     1     -11.146 -17.410  26.420  1.00  0.00     0.119 A 
ATOM     10  C   UNL     1     -12.343 -16.888  25.912  1.00  0.00     0.047 A 
ATOM     11  C   UNL     1     -13.201 -16.157  26.739  1.00  0.00     0.020 A 
ENDROOT
BRANCH   1  12
ATOM     12  C   UNL     1     -11.587 -15.427  32.112  1.00  0.00     0.025 A 
ATOM     13  C   UNL     1     -10.306 -15.861  32.491  1.00  0.00     0.016 A 
ATOM     14  C   UNL     1      -9.875 -15.723  33.813  1.00  0.00     0.051 A 
ATOM     15  C   UNL     1     -10.722 -15.161  34.778  1.00  0.00     0.157 A 
ATOM     16  C   UNL     1     -12.440 -14.884  33.087  1.00  0.00     0.062 A 
ATOM     17  C   UNL     1     -12.013 -14.742  34.411  1.00  0.00     0.158 A 
BRANCH  15  18
ATOM     18  O   UNL     1     -10.289 -15.021  36.095  1.00  0.00    -0.504 OA
ATOM     19  H   UNL     1     -10.119 -15.828  36.686  1.00  0.00     0.293 HD
ENDBRANCH  15  18
BRANCH  17  20
ATOM     20  O   UNL     1     -12.883 -14.185  35.348  1.00  0.00    -0.504 OA
ATOM     21  H   UNL     1     -13.647 -14.713  35.754  1.00  0.00     0.293 HD
ENDBRANCH  17  20
ENDBRANCH   1  12
BRANCH   2  22
ATOM     22  O   UNL     1     -14.140 -14.380  31.202  1.00  0.00    -0.502 OA
ATOM     23  H   UNL     1     -13.931 -13.451  31.546  1.00  0.00     0.293 HD
ENDBRANCH   2  22
BRANCH   9  24
ATOM     24  O   UNL     1     -10.286 -18.140  25.602  1.00  0.00    -0.508 OA
ATOM     25  H   UNL     1     -10.508 -18.323  24.630  1.00  0.00     0.293 HD
ENDBRANCH   9  24
TORSDOF 5
ENDMDL
