MODEL 1
REMARK VINA RESULT:     1.127      0.000      0.000
REMARK INTER + INTRA:           3.653
REMARK INTER:                   2.839
REMARK INTRA:                   0.814
REMARK UNBOUND:                 0.814
REMARK SMILES CCCCCCCCCCCCCCCCCCCCCCCCCCCC(=O)[O-]
REMARK SMILES IDX 15 1 16 2 17 3 18 4 19 5 20 6 21 7 22 8 23 9 24 10 25 11
REMARK SMILES IDX 26 12 27 13 28 14 29 15 30 16 14 17 13 18 12 19 11 20 10 21
REMARK SMILES IDX 9 22 8 23 7 24 6 25 5 26 4 27 3 28 2 29 1 30
REMARK H PARENT
REMARK Flexibility Score: inf
ROOT
ATOM      1  C   UNL     1      29.713  -9.307 -15.563  1.00  0.00     0.000 C 
ENDROOT
BRANCH   1   2
ATOM      2  C   UNL     1      29.643  -8.044 -16.449  1.00  0.00     0.000 C 
BRANCH   2   3
ATOM      3  C   UNL     1      30.911  -7.171 -16.457  1.00  0.00     0.000 C 
BRANCH   3   4
ATOM      4  C   UNL     1      30.774  -5.816 -15.739  1.00  0.00     0.000 C 
BRANCH   4   5
ATOM      5  C   UNL     1      31.934  -4.839 -16.023  1.00  0.00     0.000 C 
BRANCH   5   6
ATOM      6  C   UNL     1      33.165  -5.544 -16.618  1.00  0.00     0.000 C 
BRANCH   6   7
ATOM      7  C   UNL     1      33.669  -4.874 -17.906  1.00  0.00     0.000 C 
BRANCH   7   8
ATOM      8  C   UNL     1      34.414  -5.856 -18.830  1.00  0.00     0.000 C 
BRANCH   8   9
ATOM      9  C   UNL     1      35.940  -5.771 -18.672  1.00  0.00     0.000 C 
BRANCH   9  10
ATOM     10  C   UNL     1      36.461  -4.325 -18.707  1.00  0.00     0.000 C 
BRANCH  10  11
ATOM     11  C   UNL     1      36.477  -3.683 -17.302  1.00  0.00     0.000 C 
BRANCH  11  12
ATOM     12  C   UNL     1      36.567  -4.706 -16.156  1.00  0.00     0.006 C 
BRANCH  12  13
ATOM     13  C   UNL     1      37.960  -5.331 -16.016  1.00  0.00     0.053 C 
BRANCH  13  14
ATOM     14  C   UNL     1      37.924  -6.781 -16.387  1.00  0.00     0.041 C 
ATOM     15  O   UNL     1      36.822  -7.349 -16.612  1.00  0.00    -0.550 OA
ATOM     16  O   UNL     1      39.111  -7.489 -16.539  1.00  0.00    -0.550 OA
ENDBRANCH  13  14
ENDBRANCH  12  13
ENDBRANCH  11  12
ENDBRANCH  10  11
ENDBRANCH   9  10
ENDBRANCH   8   9
ENDBRANCH   7   8
ENDBRANCH   6   7
ENDBRANCH   5   6
ENDBRANCH   4   5
ENDBRANCH   3   4
ENDBRANCH   2   3
ENDBRANCH   1   2
BRANCH   1  17
ATOM     17  C   UNL     1      29.414  -9.081 -14.070  1.00  0.00     0.000 C 
BRANCH  17  18
ATOM     18  C   UNL     1      29.923  -7.729 -13.549  1.00  0.00     0.000 C 
BRANCH  18  19
ATOM     19  C   UNL     1      28.967  -7.169 -12.484  1.00  0.00     0.000 C 
BRANCH  19  20
ATOM     20  C   UNL     1      28.558  -5.715 -12.762  1.00  0.00     0.000 C 
BRANCH  20  21
ATOM     21  C   UNL     1      29.772  -4.780 -12.897  1.00  0.00     0.000 C 
BRANCH  21  22
ATOM     22  C   UNL     1      30.870  -5.075 -11.859  1.00  0.00    -0.000 C 
BRANCH  22  23
ATOM     23  C   UNL     1      32.230  -5.494 -12.449  1.00  0.00    -0.000 C 
BRANCH  23  24
ATOM     24  C   UNL     1      32.788  -6.810 -11.864  1.00  0.00    -0.000 C 
BRANCH  24  25
ATOM     25  C   UNL     1      32.973  -6.738 -10.337  1.00  0.00    -0.000 C 
BRANCH  25  26
ATOM     26  C   UNL     1      32.588  -5.367  -9.759  1.00  0.00    -0.000 C 
BRANCH  26  27
ATOM     27  C   UNL     1      31.883  -5.474  -8.399  1.00  0.00    -0.000 C 
BRANCH  27  28
ATOM     28  C   UNL     1      30.818  -4.377  -8.244  1.00  0.00    -0.000 C 
BRANCH  28  29
ATOM     29  C   UNL     1      30.307  -4.252  -6.799  1.00  0.00    -0.003 C 
ATOM     30  C   UNL     1      31.014  -3.146  -6.015  1.00  0.00     0.004 C 
ENDBRANCH  28  29
ENDBRANCH  27  28
ENDBRANCH  26  27
ENDBRANCH  25  26
ENDBRANCH  24  25
ENDBRANCH  23  24
ENDBRANCH  22  23
ENDBRANCH  21  22
ENDBRANCH  20  21
ENDBRANCH  19  20
ENDBRANCH  18  19
ENDBRANCH  17  18
ENDBRANCH   1  17
TORSDOF 26
ENDMDL
MODEL 2
REMARK VINA RESULT:     1.381      3.389      8.072
REMARK INTER + INTRA:           4.294
REMARK INTER:                   5.881
REMARK INTRA:                  -1.587
REMARK UNBOUND:                 0.814
REMARK SMILES CCCCCCCCCCCCCCCCCCCCCCCCCCCC(=O)[O-]
REMARK SMILES IDX 15 1 16 2 17 3 18 4 19 5 20 6 21 7 22 8 23 9 24 10 25 11
REMARK SMILES IDX 26 12 27 13 28 14 29 15 30 16 14 17 13 18 12 19 11 20 10 21
REMARK SMILES IDX 9 22 8 23 7 24 6 25 5 26 4 27 3 28 2 29 1 30
REMARK H PARENT
REMARK Flexibility Score: inf
ROOT
ATOM      1  C   UNL     1      29.570  -9.438 -14.688  1.00  0.00     0.000 C 
ENDROOT
BRANCH   1   2
ATOM      2  C   UNL     1      30.160  -8.409 -13.698  1.00  0.00     0.000 C 
BRANCH   2   3
ATOM      3  C   UNL     1      29.148  -7.769 -12.730  1.00  0.00     0.000 C 
BRANCH   3   4
ATOM      4  C   UNL     1      28.512  -6.457 -13.225  1.00  0.00     0.000 C 
BRANCH   4   5
ATOM      5  C   UNL     1      28.716  -5.264 -12.268  1.00  0.00     0.000 C 
BRANCH   5   6
ATOM      6  C   UNL     1      29.901  -4.374 -12.681  1.00  0.00     0.000 C 
BRANCH   6   7
ATOM      7  C   UNL     1      31.213  -4.772 -11.985  1.00  0.00     0.000 C 
BRANCH   7   8
ATOM      8  C   UNL     1      32.003  -5.831 -12.776  1.00  0.00     0.000 C 
BRANCH   8   9
ATOM      9  C   UNL     1      32.884  -6.706 -11.871  1.00  0.00     0.000 C 
BRANCH   9  10
ATOM     10  C   UNL     1      32.257  -6.949 -10.487  1.00  0.00     0.000 C 
BRANCH  10  11
ATOM     11  C   UNL     1      33.083  -6.295  -9.358  1.00  0.00     0.000 C 
BRANCH  11  12
ATOM     12  C   UNL     1      32.224  -5.696  -8.231  1.00  0.00     0.006 C 
BRANCH  12  13
ATOM     13  C   UNL     1      31.384  -4.497  -8.686  1.00  0.00     0.053 C 
BRANCH  13  14
ATOM     14  C   UNL     1      30.451  -4.066  -7.599  1.00  0.00     0.041 C 
ATOM     15  O   UNL     1      30.907  -3.708  -6.479  1.00  0.00    -0.550 OA
ATOM     16  O   UNL     1      29.083  -4.006  -7.839  1.00  0.00    -0.550 OA
ENDBRANCH  13  14
ENDBRANCH  12  13
ENDBRANCH  11  12
ENDBRANCH  10  11
ENDBRANCH   9  10
ENDBRANCH   8   9
ENDBRANCH   7   8
ENDBRANCH   6   7
ENDBRANCH   5   6
ENDBRANCH   4   5
ENDBRANCH   3   4
ENDBRANCH   2   3
ENDBRANCH   1   2
BRANCH   1  17
ATOM     17  C   UNL     1      29.408  -8.940 -16.135  1.00  0.00     0.000 C 
BRANCH  17  18
ATOM     18  C   UNL     1      29.500  -7.412 -16.263  1.00  0.00     0.000 C 
BRANCH  18  19
ATOM     19  C   UNL     1      30.958  -6.947 -16.131  1.00  0.00     0.000 C 
BRANCH  19  20
ATOM     20  C   UNL     1      31.075  -5.458 -15.772  1.00  0.00     0.000 C 
BRANCH  20  21
ATOM     21  C   UNL     1      32.372  -4.827 -16.306  1.00  0.00     0.000 C 
BRANCH  21  22
ATOM     22  C   UNL     1      33.175  -5.785 -17.205  1.00  0.00    -0.000 C 
BRANCH  22  23
ATOM     23  C   UNL     1      33.955  -5.108 -18.349  1.00  0.00    -0.000 C 
BRANCH  23  24
ATOM     24  C   UNL     1      35.295  -5.797 -18.686  1.00  0.00    -0.000 C 
BRANCH  24  25
ATOM     25  C   UNL     1      36.481  -4.816 -18.655  1.00  0.00    -0.000 C 
BRANCH  25  26
ATOM     26  C   UNL     1      36.453  -3.895 -17.425  1.00  0.00    -0.000 C 
BRANCH  26  27
ATOM     27  C   UNL     1      36.514  -4.673 -16.102  1.00  0.00    -0.000 C 
BRANCH  27  28
ATOM     28  C   UNL     1      37.877  -5.361 -15.931  1.00  0.00    -0.000 C 
BRANCH  28  29
ATOM     29  C   UNL     1      37.915  -6.761 -16.568  1.00  0.00    -0.003 C 
ATOM     30  C   UNL     1      39.178  -7.541 -16.204  1.00  0.00     0.004 C 
ENDBRANCH  28  29
ENDBRANCH  27  28
ENDBRANCH  26  27
ENDBRANCH  25  26
ENDBRANCH  24  25
ENDBRANCH  23  24
ENDBRANCH  22  23
ENDBRANCH  21  22
ENDBRANCH  20  21
ENDBRANCH  19  20
ENDBRANCH  18  19
ENDBRANCH  17  18
ENDBRANCH   1  17
TORSDOF 26
ENDMDL
MODEL 3
REMARK VINA RESULT:     1.408      1.236      2.264
REMARK INTER + INTRA:           4.362
REMARK INTER:                   5.597
REMARK INTRA:                  -1.235
REMARK UNBOUND:                 0.814
REMARK SMILES CCCCCCCCCCCCCCCCCCCCCCCCCCCC(=O)[O-]
REMARK SMILES IDX 15 1 16 2 17 3 18 4 19 5 20 6 21 7 22 8 23 9 24 10 25 11
REMARK SMILES IDX 26 12 27 13 28 14 29 15 30 16 14 17 13 18 12 19 11 20 10 21
REMARK SMILES IDX 9 22 8 23 7 24 6 25 5 26 4 27 3 28 2 29 1 30
REMARK H PARENT
REMARK Flexibility Score: inf
ROOT
ATOM      1  C   UNL     1      29.619  -7.995 -13.351  1.00  0.00     0.000 C 
ENDROOT
BRANCH   1   2
ATOM      2  C   UNL     1      29.783  -8.635 -14.748  1.00  0.00     0.000 C 
BRANCH   2   3
ATOM      3  C   UNL     1      30.382  -7.716 -15.829  1.00  0.00     0.000 C 
BRANCH   3   4
ATOM      4  C   UNL     1      29.962  -6.238 -15.734  1.00  0.00     0.000 C 
BRANCH   4   5
ATOM      5  C   UNL     1      31.147  -5.249 -15.763  1.00  0.00     0.000 C 
BRANCH   5   6
ATOM      6  C   UNL     1      32.470  -5.929 -16.157  1.00  0.00     0.000 C 
BRANCH   6   7
ATOM      7  C   UNL     1      33.277  -5.109 -17.177  1.00  0.00     0.000 C 
BRANCH   7   8
ATOM      8  C   UNL     1      33.833  -5.976 -18.323  1.00  0.00     0.000 C 
BRANCH   8   9
ATOM      9  C   UNL     1      35.272  -5.596 -18.705  1.00  0.00     0.000 C 
BRANCH   9  10
ATOM     10  C   UNL     1      35.568  -4.102 -18.487  1.00  0.00     0.000 C 
BRANCH  10  11
ATOM     11  C   UNL     1      36.758  -3.885 -17.526  1.00  0.00     0.000 C 
BRANCH  11  12
ATOM     12  C   UNL     1      36.608  -4.618 -16.181  1.00  0.00     0.006 C 
BRANCH  12  13
ATOM     13  C   UNL     1      37.865  -5.397 -15.778  1.00  0.00     0.053 C 
BRANCH  13  14
ATOM     14  C   UNL     1      37.882  -6.742 -16.435  1.00  0.00     0.041 C 
ATOM     15  O   UNL     1      38.970  -7.361 -16.583  1.00  0.00    -0.550 OA
ATOM     16  O   UNL     1      36.688  -7.337 -16.831  1.00  0.00    -0.550 OA
ENDBRANCH  13  14
ENDBRANCH  12  13
ENDBRANCH  11  12
ENDBRANCH  10  11
ENDBRANCH   9  10
ENDBRANCH   8   9
ENDBRANCH   7   8
ENDBRANCH   6   7
ENDBRANCH   5   6
ENDBRANCH   4   5
ENDBRANCH   3   4
ENDBRANCH   2   3
ENDBRANCH   1   2
BRANCH   1  17
ATOM     17  C   UNL     1      28.679  -6.779 -13.291  1.00  0.00     0.000 C 
BRANCH  17  18
ATOM     18  C   UNL     1      28.970  -5.846 -12.106  1.00  0.00     0.000 C 
BRANCH  18  19
ATOM     19  C   UNL     1      29.823  -4.651 -12.558  1.00  0.00     0.000 C 
BRANCH  19  20
ATOM     20  C   UNL     1      31.296  -4.783 -12.141  1.00  0.00     0.000 C 
BRANCH  20  21
ATOM     21  C   UNL     1      31.907  -6.128 -12.570  1.00  0.00     0.000 C 
BRANCH  21  22
ATOM     22  C   UNL     1      33.035  -6.596 -11.633  1.00  0.00    -0.000 C 
BRANCH  22  23
ATOM     23  C   UNL     1      32.603  -6.877 -10.181  1.00  0.00    -0.000 C 
BRANCH  23  24
ATOM     24  C   UNL     1      32.678  -5.644  -9.254  1.00  0.00    -0.000 C 
BRANCH  24  25
ATOM     25  C   UNL     1      31.295  -5.019  -9.001  1.00  0.00    -0.000 C 
BRANCH  25  26
ATOM     26  C   UNL     1      31.181  -4.382  -7.606  1.00  0.00    -0.000 C 
BRANCH  26  27
ATOM     27  C   UNL     1      29.793  -3.781  -7.342  1.00  0.00    -0.000 C 
BRANCH  27  28
ATOM     28  C   UNL     1      28.880  -3.945  -8.566  1.00  0.00    -0.000 C 
BRANCH  28  29
ATOM     29  C   UNL     1      27.852  -2.809  -8.694  1.00  0.00    -0.003 C 
ATOM     30  C   UNL     1      27.510  -2.481 -10.147  1.00  0.00     0.004 C 
ENDBRANCH  28  29
ENDBRANCH  27  28
ENDBRANCH  26  27
ENDBRANCH  25  26
ENDBRANCH  24  25
ENDBRANCH  23  24
ENDBRANCH  22  23
ENDBRANCH  21  22
ENDBRANCH  20  21
ENDBRANCH  19  20
ENDBRANCH  18  19
ENDBRANCH  17  18
ENDBRANCH   1  17
TORSDOF 26
ENDMDL
MODEL 4
REMARK VINA RESULT:     1.411      1.345      3.376
REMARK INTER + INTRA:           4.370
REMARK INTER:                   7.052
REMARK INTRA:                  -2.682
REMARK UNBOUND:                 0.814
REMARK SMILES CCCCCCCCCCCCCCCCCCCCCCCCCCCC(=O)[O-]
REMARK SMILES IDX 15 1 16 2 17 3 18 4 19 5 20 6 21 7 22 8 23 9 24 10 25 11
REMARK SMILES IDX 26 12 27 13 28 14 29 15 30 16 14 17 13 18 12 19 11 20 10 21
REMARK SMILES IDX 9 22 8 23 7 24 6 25 5 26 4 27 3 28 2 29 1 30
REMARK H PARENT
REMARK Flexibility Score: inf
ROOT
ATOM      1  C   UNL     1      28.529  -6.463 -13.262  1.00  0.00     0.000 C 
ENDROOT
BRANCH   1   2
ATOM      2  C   UNL     1      29.186  -7.746 -12.706  1.00  0.00     0.000 C 
BRANCH   2   3
ATOM      3  C   UNL     1      30.135  -8.475 -13.675  1.00  0.00     0.000 C 
BRANCH   3   4
ATOM      4  C   UNL     1      29.448  -9.149 -14.878  1.00  0.00     0.000 C 
BRANCH   4   5
ATOM      5  C   UNL     1      29.607  -8.374 -16.202  1.00  0.00     0.000 C 
BRANCH   5   6
ATOM      6  C   UNL     1      30.800  -7.402 -16.175  1.00  0.00     0.000 C 
BRANCH   6   7
ATOM      7  C   UNL     1      30.392  -5.973 -15.783  1.00  0.00     0.000 C 
BRANCH   7   8
ATOM      8  C   UNL     1      31.492  -4.940 -16.091  1.00  0.00     0.000 C 
BRANCH   8   9
ATOM      9  C   UNL     1      32.826  -5.597 -16.476  1.00  0.00     0.000 C 
BRANCH   9  10
ATOM     10  C   UNL     1      33.563  -4.836 -17.592  1.00  0.00     0.000 C 
BRANCH  10  11
ATOM     11  C   UNL     1      34.320  -5.792 -18.539  1.00  0.00     0.000 C 
BRANCH  11  12
ATOM     12  C   UNL     1      35.795  -6.003 -18.156  1.00  0.00     0.006 C 
BRANCH  12  13
ATOM     13  C   UNL     1      36.288  -5.014 -17.094  1.00  0.00     0.053 C 
BRANCH  13  14
ATOM     14  C   UNL     1      37.457  -5.581 -16.351  1.00  0.00     0.041 C 
ATOM     15  O   UNL     1      37.749  -5.148 -15.204  1.00  0.00    -0.550 OA
ATOM     16  O   UNL     1      38.190  -6.626 -16.903  1.00  0.00    -0.550 OA
ENDBRANCH  13  14
ENDBRANCH  12  13
ENDBRANCH  11  12
ENDBRANCH  10  11
ENDBRANCH   9  10
ENDBRANCH   8   9
ENDBRANCH   7   8
ENDBRANCH   6   7
ENDBRANCH   5   6
ENDBRANCH   4   5
ENDBRANCH   3   4
ENDBRANCH   2   3
ENDBRANCH   1   2
BRANCH   1  17
ATOM     17  C   UNL     1      28.741  -5.196 -12.416  1.00  0.00     0.000 C 
BRANCH  17  18
ATOM     18  C   UNL     1      30.003  -4.412 -12.804  1.00  0.00     0.000 C 
BRANCH  18  19
ATOM     19  C   UNL     1      31.209  -4.891 -11.980  1.00  0.00     0.000 C 
BRANCH  19  20
ATOM     20  C   UNL     1      32.239  -5.654 -12.828  1.00  0.00     0.000 C 
BRANCH  20  21
ATOM     21  C   UNL     1      32.804  -6.882 -12.095  1.00  0.00     0.000 C 
BRANCH  21  22
ATOM     22  C   UNL     1      32.216  -7.059 -10.684  1.00  0.00    -0.000 C 
BRANCH  22  23
ATOM     23  C   UNL     1      33.134  -6.609  -9.531  1.00  0.00    -0.000 C 
BRANCH  23  24
ATOM     24  C   UNL     1      32.799  -5.209  -8.973  1.00  0.00    -0.000 C 
BRANCH  24  25
ATOM     25  C   UNL     1      31.285  -4.996  -8.798  1.00  0.00    -0.000 C 
BRANCH  25  26
ATOM     26  C   UNL     1      30.947  -4.133  -7.571  1.00  0.00    -0.000 C 
BRANCH  26  27
ATOM     27  C   UNL     1      29.435  -4.020  -7.325  1.00  0.00    -0.000 C 
BRANCH  27  28
ATOM     28  C   UNL     1      28.665  -3.971  -8.654  1.00  0.00    -0.000 C 
BRANCH  28  29
ATOM     29  C   UNL     1      27.953  -2.626  -8.874  1.00  0.00    -0.003 C 
ATOM     30  C   UNL     1      27.485  -2.435 -10.317  1.00  0.00     0.004 C 
ENDBRANCH  28  29
ENDBRANCH  27  28
ENDBRANCH  26  27
ENDBRANCH  25  26
ENDBRANCH  24  25
ENDBRANCH  23  24
ENDBRANCH  22  23
ENDBRANCH  21  22
ENDBRANCH  20  21
ENDBRANCH  19  20
ENDBRANCH  18  19
ENDBRANCH  17  18
ENDBRANCH   1  17
TORSDOF 26
ENDMDL
MODEL 5
REMARK VINA RESULT:     1.742      2.286      8.389
REMARK INTER + INTRA:           5.203
REMARK INTER:                   7.837
REMARK INTRA:                  -2.633
REMARK UNBOUND:                 0.814
REMARK SMILES CCCCCCCCCCCCCCCCCCCCCCCCCCCC(=O)[O-]
REMARK SMILES IDX 15 1 16 2 17 3 18 4 19 5 20 6 21 7 22 8 23 9 24 10 25 11
REMARK SMILES IDX 26 12 27 13 28 14 29 15 30 16 14 17 13 18 12 19 11 20 10 21
REMARK SMILES IDX 9 22 8 23 7 24 6 25 5 26 4 27 3 28 2 29 1 30
REMARK H PARENT
REMARK Flexibility Score: inf
ROOT
ATOM      1  C   UNL     1      32.320  -5.268  -9.663  1.00  0.00     0.000 C 
ENDROOT
BRANCH   1   2
ATOM      2  C   UNL     1      31.496  -5.335  -8.358  1.00  0.00     0.000 C 
BRANCH   2   3
ATOM      3  C   UNL     1      30.920  -3.993  -7.871  1.00  0.00     0.000 C 
BRANCH   3   4
ATOM      4  C   UNL     1      29.449  -4.041  -7.415  1.00  0.00     0.000 C 
BRANCH   4   5
ATOM      5  C   UNL     1      28.472  -3.340  -8.381  1.00  0.00     0.000 C 
BRANCH   5   6
ATOM      6  C   UNL     1      28.215  -4.163  -9.656  1.00  0.00     0.000 C 
BRANCH   6   7
ATOM      7  C   UNL     1      28.560  -3.392 -10.940  1.00  0.00     0.000 C 
BRANCH   7   8
ATOM      8  C   UNL     1      29.172  -4.298 -12.025  1.00  0.00     0.000 C 
BRANCH   8   9
ATOM      9  C   UNL     1      28.475  -5.664 -12.113  1.00  0.00     0.000 C 
BRANCH   9  10
ATOM     10  C   UNL     1      28.795  -6.411 -13.419  1.00  0.00     0.000 C 
BRANCH  10  11
ATOM     11  C   UNL     1      29.388  -7.812 -13.152  1.00  0.00     0.000 C 
BRANCH  11  12
ATOM     12  C   UNL     1      29.848  -8.542 -14.426  1.00  0.00     0.006 C 
BRANCH  12  13
ATOM     13  C   UNL     1      29.176  -8.013 -15.699  1.00  0.00     0.053 C 
BRANCH  13  14
ATOM     14  C   UNL     1      29.431  -8.935 -16.849  1.00  0.00     0.041 C 
ATOM     15  O   UNL     1      30.446  -9.683 -16.848  1.00  0.00    -0.550 OA
ATOM     16  O   UNL     1      28.519  -9.010 -17.896  1.00  0.00    -0.550 OA
ENDBRANCH  13  14
ENDBRANCH  12  13
ENDBRANCH  11  12
ENDBRANCH  10  11
ENDBRANCH   9  10
ENDBRANCH   8   9
ENDBRANCH   7   8
ENDBRANCH   6   7
ENDBRANCH   5   6
ENDBRANCH   4   5
ENDBRANCH   3   4
ENDBRANCH   2   3
ENDBRANCH   1   2
BRANCH   1  17
ATOM     17  C   UNL     1      32.952  -6.598 -10.111  1.00  0.00     0.000 C 
BRANCH  17  18
ATOM     18  C   UNL     1      32.588  -6.987 -11.551  1.00  0.00     0.000 C 
BRANCH  18  19
ATOM     19  C   UNL     1      32.234  -5.737 -12.373  1.00  0.00     0.000 C 
BRANCH  19  20
ATOM     20  C   UNL     1      32.321  -5.981 -13.887  1.00  0.00     0.000 C 
BRANCH  20  21
ATOM     21  C   UNL     1      31.239  -5.214 -14.666  1.00  0.00     0.000 C 
BRANCH  21  22
ATOM     22  C   UNL     1      31.571  -5.068 -16.162  1.00  0.00    -0.000 C 
BRANCH  22  23
ATOM     23  C   UNL     1      32.893  -5.724 -16.605  1.00  0.00    -0.000 C 
BRANCH  23  24
ATOM     24  C   UNL     1      33.687  -4.897 -17.639  1.00  0.00    -0.000 C 
BRANCH  24  25
ATOM     25  C   UNL     1      34.508  -5.785 -18.592  1.00  0.00    -0.000 C 
BRANCH  25  26
ATOM     26  C   UNL     1      36.003  -5.427 -18.592  1.00  0.00    -0.000 C 
BRANCH  26  27
ATOM     27  C   UNL     1      36.375  -4.439 -17.476  1.00  0.00    -0.000 C 
BRANCH  27  28
ATOM     28  C   UNL     1      37.086  -5.159 -16.320  1.00  0.00    -0.000 C 
BRANCH  28  29
ATOM     29  C   UNL     1      37.387  -6.633 -16.638  1.00  0.00    -0.003 C 
ATOM     30  C   UNL     1      38.805  -7.045 -16.242  1.00  0.00     0.004 C 
ENDBRANCH  28  29
ENDBRANCH  27  28
ENDBRANCH  26  27
ENDBRANCH  25  26
ENDBRANCH  24  25
ENDBRANCH  23  24
ENDBRANCH  22  23
ENDBRANCH  21  22
ENDBRANCH  20  21
ENDBRANCH  19  20
ENDBRANCH  18  19
ENDBRANCH  17  18
ENDBRANCH   1  17
TORSDOF 26
ENDMDL
MODEL 6
REMARK VINA RESULT:     1.743      3.559      8.647
REMARK INTER + INTRA:           5.206
REMARK INTER:                   6.019
REMARK INTRA:                  -0.813
REMARK UNBOUND:                 0.814
REMARK SMILES CCCCCCCCCCCCCCCCCCCCCCCCCCCC(=O)[O-]
REMARK SMILES IDX 15 1 16 2 17 3 18 4 19 5 20 6 21 7 22 8 23 9 24 10 25 11
REMARK SMILES IDX 26 12 27 13 28 14 29 15 30 16 14 17 13 18 12 19 11 20 10 21
REMARK SMILES IDX 9 22 8 23 7 24 6 25 5 26 4 27 3 28 2 29 1 30
REMARK H PARENT
REMARK Flexibility Score: inf
ROOT
ATOM      1  C   UNL     1      29.491  -8.177 -13.472  1.00  0.00     0.000 C 
ENDROOT
BRANCH   1   2
ATOM      2  C   UNL     1      28.876  -6.770 -13.641  1.00  0.00     0.000 C 
BRANCH   2   3
ATOM      3  C   UNL     1      28.939  -5.868 -12.395  1.00  0.00     0.000 C 
BRANCH   3   4
ATOM      4  C   UNL     1      29.883  -4.657 -12.513  1.00  0.00     0.000 C 
BRANCH   4   5
ATOM      5  C   UNL     1      31.379  -5.030 -12.524  1.00  0.00     0.000 C 
BRANCH   5   6
ATOM      6  C   UNL     1      31.629  -6.473 -12.052  1.00  0.00     0.000 C 
BRANCH   6   7
ATOM      7  C   UNL     1      33.003  -6.649 -11.385  1.00  0.00     0.000 C 
BRANCH   7   8
ATOM      8  C   UNL     1      32.899  -6.818  -9.857  1.00  0.00     0.000 C 
BRANCH   8   9
ATOM      9  C   UNL     1      32.716  -5.478  -9.128  1.00  0.00     0.000 C 
BRANCH   9  10
ATOM     10  C   UNL     1      31.246  -5.028  -9.072  1.00  0.00     0.000 C 
BRANCH  10  11
ATOM     11  C   UNL     1      30.919  -4.286  -7.757  1.00  0.00     0.000 C 
BRANCH  11  12
ATOM     12  C   UNL     1      29.440  -3.884  -7.626  1.00  0.00     0.006 C 
BRANCH  12  13
ATOM     13  C   UNL     1      28.679  -3.943  -8.956  1.00  0.00     0.053 C 
BRANCH  13  14
ATOM     14  C   UNL     1      27.833  -2.721  -9.131  1.00  0.00     0.041 C 
ATOM     15  O   UNL     1      27.776  -1.854  -8.218  1.00  0.00    -0.550 OA
ATOM     16  O   UNL     1      27.150  -2.513 -10.325  1.00  0.00    -0.550 OA
ENDBRANCH  13  14
ENDBRANCH  12  13
ENDBRANCH  11  12
ENDBRANCH  10  11
ENDBRANCH   9  10
ENDBRANCH   8   9
ENDBRANCH   7   8
ENDBRANCH   6   7
ENDBRANCH   5   6
ENDBRANCH   4   5
ENDBRANCH   3   4
ENDBRANCH   2   3
ENDBRANCH   1   2
BRANCH   1  17
ATOM     17  C   UNL     1      29.621  -8.999 -14.766  1.00  0.00     0.000 C 
BRANCH  17  18
ATOM     18  C   UNL     1      29.601  -8.135 -16.036  1.00  0.00     0.000 C 
BRANCH  18  19
ATOM     19  C   UNL     1      30.885  -7.296 -16.137  1.00  0.00     0.000 C 
BRANCH  19  20
ATOM     20  C   UNL     1      30.660  -5.822 -15.768  1.00  0.00     0.000 C 
BRANCH  20  21
ATOM     21  C   UNL     1      31.869  -4.939 -16.121  1.00  0.00     0.000 C 
BRANCH  21  22
ATOM     22  C   UNL     1      32.999  -5.724 -16.811  1.00  0.00    -0.000 C 
BRANCH  22  23
ATOM     23  C   UNL     1      33.702  -4.980 -17.963  1.00  0.00    -0.000 C 
BRANCH  23  24
ATOM     24  C   UNL     1      34.687  -5.857 -18.767  1.00  0.00    -0.000 C 
BRANCH  24  25
ATOM     25  C   UNL     1      36.126  -5.314 -18.719  1.00  0.00    -0.000 C 
BRANCH  25  26
ATOM     26  C   UNL     1      36.251  -4.048 -17.855  1.00  0.00    -0.000 C 
BRANCH  26  27
ATOM     27  C   UNL     1      36.377  -4.364 -16.357  1.00  0.00    -0.000 C 
BRANCH  27  28
ATOM     28  C   UNL     1      36.837  -5.813 -16.138  1.00  0.00    -0.000 C 
BRANCH  28  29
ATOM     29  C   UNL     1      38.368  -5.944 -16.080  1.00  0.00    -0.003 C 
ATOM     30  C   UNL     1      38.864  -7.303 -16.573  1.00  0.00     0.004 C 
ENDBRANCH  28  29
ENDBRANCH  27  28
ENDBRANCH  26  27
ENDBRANCH  25  26
ENDBRANCH  24  25
ENDBRANCH  23  24
ENDBRANCH  22  23
ENDBRANCH  21  22
ENDBRANCH  20  21
ENDBRANCH  19  20
ENDBRANCH  18  19
ENDBRANCH  17  18
ENDBRANCH   1  17
TORSDOF 26
ENDMDL
MODEL 7
REMARK VINA RESULT:     1.810      2.363      8.138
REMARK INTER + INTRA:           5.375
REMARK INTER:                   5.935
REMARK INTRA:                  -0.561
REMARK UNBOUND:                 0.814
REMARK SMILES CCCCCCCCCCCCCCCCCCCCCCCCCCCC(=O)[O-]
REMARK SMILES IDX 15 1 16 2 17 3 18 4 19 5 20 6 21 7 22 8 23 9 24 10 25 11
REMARK SMILES IDX 26 12 27 13 28 14 29 15 30 16 14 17 13 18 12 19 11 20 10 21
REMARK SMILES IDX 9 22 8 23 7 24 6 25 5 26 4 27 3 28 2 29 1 30
REMARK H PARENT
REMARK Flexibility Score: inf
ROOT
ATOM      1  C   UNL     1      27.944  -3.010  -9.129  1.00  0.00     0.000 C 
ENDROOT
BRANCH   1   2
ATOM      2  C   UNL     1      28.822  -4.141  -8.550  1.00  0.00     0.000 C 
BRANCH   2   3
ATOM      3  C   UNL     1      29.885  -3.695  -7.529  1.00  0.00     0.000 C 
BRANCH   3   4
ATOM      4  C   UNL     1      31.231  -4.437  -7.622  1.00  0.00     0.000 C 
BRANCH   4   5
ATOM      5  C   UNL     1      31.531  -5.014  -9.021  1.00  0.00     0.000 C 
BRANCH   5   6
ATOM      6  C   UNL     1      32.783  -5.908  -9.032  1.00  0.00     0.000 C 
BRANCH   6   7
ATOM      7  C   UNL     1      32.948  -6.681 -10.351  1.00  0.00     0.000 C 
BRANCH   7   8
ATOM      8  C   UNL     1      32.230  -5.997 -11.529  1.00  0.00     0.000 C 
BRANCH   8   9
ATOM      9  C   UNL     1      31.531  -7.004 -12.457  1.00  0.00     0.000 C 
BRANCH   9  10
ATOM     10  C   UNL     1      30.172  -7.471 -11.910  1.00  0.00     0.000 C 
BRANCH  10  11
ATOM     11  C   UNL     1      29.220  -7.924 -13.038  1.00  0.00     0.000 C 
BRANCH  11  12
ATOM     12  C   UNL     1      29.895  -8.014 -14.418  1.00  0.00     0.006 C 
BRANCH  12  13
ATOM     13  C   UNL     1      29.702  -9.376 -15.095  1.00  0.00     0.053 C 
BRANCH  13  14
ATOM     14  C   UNL     1      29.621  -9.217 -16.580  1.00  0.00     0.041 C 
ATOM     15  O   UNL     1      28.582  -8.738 -17.109  1.00  0.00    -0.550 OA
ATOM     16  O   UNL     1      30.713  -9.545 -17.376  1.00  0.00    -0.550 OA
ENDBRANCH  13  14
ENDBRANCH  12  13
ENDBRANCH  11  12
ENDBRANCH  10  11
ENDBRANCH   9  10
ENDBRANCH   8   9
ENDBRANCH   7   8
ENDBRANCH   6   7
ENDBRANCH   5   6
ENDBRANCH   4   5
ENDBRANCH   3   4
ENDBRANCH   2   3
ENDBRANCH   1   2
BRANCH   1  17
ATOM     17  C   UNL     1      28.001  -2.851 -10.659  1.00  0.00     0.000 C 
BRANCH  17  18
ATOM     18  C   UNL     1      28.445  -4.130 -11.385  1.00  0.00     0.000 C 
BRANCH  18  19
ATOM     19  C   UNL     1      29.568  -3.817 -12.386  1.00  0.00     0.000 C 
BRANCH  19  20
ATOM     20  C   UNL     1      29.639  -4.838 -13.533  1.00  0.00     0.000 C 
BRANCH  20  21
ATOM     21  C   UNL     1      30.513  -4.347 -14.699  1.00  0.00     0.000 C 
BRANCH  21  22
ATOM     22  C   UNL     1      31.313  -5.482 -15.364  1.00  0.00    -0.000 C 
BRANCH  22  23
ATOM     23  C   UNL     1      31.952  -5.125 -16.720  1.00  0.00    -0.000 C 
BRANCH  23  24
ATOM     24  C   UNL     1      33.449  -5.487 -16.822  1.00  0.00    -0.000 C 
BRANCH  24  25
ATOM     25  C   UNL     1      33.979  -5.381 -18.263  1.00  0.00    -0.000 C 
BRANCH  25  26
ATOM     26  C   UNL     1      35.414  -5.916 -18.406  1.00  0.00    -0.000 C 
BRANCH  26  27
ATOM     27  C   UNL     1      35.920  -6.599 -17.126  1.00  0.00    -0.000 C 
BRANCH  27  28
ATOM     28  C   UNL     1      37.363  -6.175 -16.811  1.00  0.00    -0.000 C 
BRANCH  28  29
ATOM     29  C   UNL     1      37.480  -4.675 -16.490  1.00  0.00    -0.003 C 
ATOM     30  C   UNL     1      37.096  -3.786 -17.672  1.00  0.00     0.004 C 
ENDBRANCH  28  29
ENDBRANCH  27  28
ENDBRANCH  26  27
ENDBRANCH  25  26
ENDBRANCH  24  25
ENDBRANCH  23  24
ENDBRANCH  22  23
ENDBRANCH  21  22
ENDBRANCH  20  21
ENDBRANCH  19  20
ENDBRANCH  18  19
ENDBRANCH  17  18
ENDBRANCH   1  17
TORSDOF 26
ENDMDL
MODEL 8
REMARK VINA RESULT:     1.997      2.513      7.593
REMARK INTER + INTRA:           5.845
REMARK INTER:                   6.403
REMARK INTRA:                  -0.558
REMARK UNBOUND:                 0.814
REMARK SMILES CCCCCCCCCCCCCCCCCCCCCCCCCCCC(=O)[O-]
REMARK SMILES IDX 15 1 16 2 17 3 18 4 19 5 20 6 21 7 22 8 23 9 24 10 25 11
REMARK SMILES IDX 26 12 27 13 28 14 29 15 30 16 14 17 13 18 12 19 11 20 10 21
REMARK SMILES IDX 9 22 8 23 7 24 6 25 5 26 4 27 3 28 2 29 1 30
REMARK H PARENT
REMARK Flexibility Score: inf
ROOT
ATOM      1  C   UNL     1      29.612  -7.762 -16.555  1.00  0.00     0.000 C 
ENDROOT
BRANCH   1   2
ATOM      2  C   UNL     1      29.621  -9.229 -16.072  1.00  0.00     0.000 C 
BRANCH   2   3
ATOM      3  C   UNL     1      29.602  -9.422 -14.545  1.00  0.00     0.000 C 
BRANCH   3   4
ATOM      4  C   UNL     1      29.995  -8.179 -13.725  1.00  0.00     0.000 C 
BRANCH   4   5
ATOM      5  C   UNL     1      29.216  -8.033 -12.401  1.00  0.00     0.000 C 
BRANCH   5   6
ATOM      6  C   UNL     1      28.486  -6.682 -12.295  1.00  0.00     0.000 C 
BRANCH   6   7
ATOM      7  C   UNL     1      28.752  -5.768 -13.502  1.00  0.00     0.000 C 
BRANCH   7   8
ATOM      8  C   UNL     1      29.816  -4.694 -13.206  1.00  0.00     0.000 C 
BRANCH   8   9
ATOM      9  C   UNL     1      30.305  -4.735 -11.749  1.00  0.00     0.000 C 
BRANCH   9  10
ATOM     10  C   UNL     1      31.838  -4.784 -11.639  1.00  0.00     0.000 C 
BRANCH  10  11
ATOM     11  C   UNL     1      32.421  -6.070 -12.266  1.00  0.00     0.000 C 
BRANCH  11  12
ATOM     12  C   UNL     1      32.781  -7.152 -11.234  1.00  0.00     0.006 C 
BRANCH  12  13
ATOM     13  C   UNL     1      32.893  -6.608  -9.805  1.00  0.00     0.053 C 
BRANCH  13  14
ATOM     14  C   UNL     1      33.929  -7.365  -9.034  1.00  0.00     0.041 C 
ATOM     15  O   UNL     1      33.738  -7.642  -7.820  1.00  0.00    -0.550 OA
ATOM     16  O   UNL     1      35.080  -7.813  -9.673  1.00  0.00    -0.550 OA
ENDBRANCH  13  14
ENDBRANCH  12  13
ENDBRANCH  11  12
ENDBRANCH  10  11
ENDBRANCH   9  10
ENDBRANCH   8   9
ENDBRANCH   7   8
ENDBRANCH   6   7
ENDBRANCH   5   6
ENDBRANCH   4   5
ENDBRANCH   3   4
ENDBRANCH   2   3
ENDBRANCH   1   2
BRANCH   1  17
ATOM     17  C   UNL     1      30.958  -7.024 -16.441  1.00  0.00     0.000 C 
BRANCH  17  18
ATOM     18  C   UNL     1      30.855  -5.689 -15.687  1.00  0.00     0.000 C 
BRANCH  18  19
ATOM     19  C   UNL     1      32.009  -4.756 -16.086  1.00  0.00     0.000 C 
BRANCH  19  20
ATOM     20  C   UNL     1      33.158  -5.500 -16.783  1.00  0.00     0.000 C 
BRANCH  20  21
ATOM     21  C   UNL     1      33.410  -4.981 -18.209  1.00  0.00     0.000 C 
BRANCH  21  22
ATOM     22  C   UNL     1      34.400  -5.858 -18.996  1.00  0.00    -0.000 C 
BRANCH  22  23
ATOM     23  C   UNL     1      35.697  -6.215 -18.244  1.00  0.00    -0.000 C 
BRANCH  23  24
ATOM     24  C   UNL     1      36.942  -5.451 -18.744  1.00  0.00    -0.000 C 
BRANCH  24  25
ATOM     25  C   UNL     1      36.879  -3.949 -18.413  1.00  0.00    -0.000 C 
BRANCH  25  26
ATOM     26  C   UNL     1      36.488  -3.684 -16.949  1.00  0.00    -0.000 C 
BRANCH  26  27
ATOM     27  C   UNL     1      36.525  -4.954 -16.087  1.00  0.00    -0.000 C 
BRANCH  27  28
ATOM     28  C   UNL     1      37.970  -5.337 -15.733  1.00  0.00    -0.000 C 
BRANCH  28  29
ATOM     29  C   UNL     1      38.197  -6.858 -15.743  1.00  0.00    -0.003 C 
ATOM     30  C   UNL     1      39.250  -7.291 -16.762  1.00  0.00     0.004 C 
ENDBRANCH  28  29
ENDBRANCH  27  28
ENDBRANCH  26  27
ENDBRANCH  25  26
ENDBRANCH  24  25
ENDBRANCH  23  24
ENDBRANCH  22  23
ENDBRANCH  21  22
ENDBRANCH  20  21
ENDBRANCH  19  20
ENDBRANCH  18  19
ENDBRANCH  17  18
ENDBRANCH   1  17
TORSDOF 26
ENDMDL
MODEL 9
REMARK VINA RESULT:     2.137      3.862      7.198
REMARK INTER + INTRA:           6.198
REMARK INTER:                   8.472
REMARK INTRA:                  -2.273
REMARK UNBOUND:                 0.814
REMARK SMILES CCCCCCCCCCCCCCCCCCCCCCCCCCCC(=O)[O-]
REMARK SMILES IDX 15 1 16 2 17 3 18 4 19 5 20 6 21 7 22 8 23 9 24 10 25 11
REMARK SMILES IDX 26 12 27 13 28 14 29 15 30 16 14 17 13 18 12 19 11 20 10 21
REMARK SMILES IDX 9 22 8 23 7 24 6 25 5 26 4 27 3 28 2 29 1 30
REMARK H PARENT
REMARK Flexibility Score: inf
ROOT
ATOM      1  C   UNL     1      36.405  -4.585 -17.515  1.00  0.00     0.000 C 
ENDROOT
BRANCH   1   2
ATOM      2  C   UNL     1      37.361  -5.093 -16.414  1.00  0.00     0.000 C 
BRANCH   2   3
ATOM      3  C   UNL     1      37.513  -6.623 -16.325  1.00  0.00     0.000 C 
BRANCH   3   4
ATOM      4  C   UNL     1      38.961  -7.128 -16.178  1.00  0.00     0.000 C 
BRANCH   4   5
ATOM      5  C   UNL     1      39.074  -8.519 -15.521  1.00  0.00     0.000 C 
BRANCH   5   6
ATOM      6  C   UNL     1      39.868  -8.485 -14.203  1.00  0.00     0.000 C 
BRANCH   6   7
ATOM      7  C   UNL     1      39.153  -9.223 -13.061  1.00  0.00     0.000 C 
BRANCH   7   8
ATOM      8  C   UNL     1      40.035 -10.310 -12.418  1.00  0.00     0.000 C 
BRANCH   8   9
ATOM      9  C   UNL     1      39.227 -11.544 -11.985  1.00  0.00     0.000 C 
BRANCH   9  10
ATOM     10  C   UNL     1      39.121 -12.603 -13.095  1.00  0.00     0.000 C 
BRANCH  10  11
ATOM     11  C   UNL     1      38.174 -13.758 -12.702  1.00  0.00     0.000 C 
BRANCH  11  12
ATOM     12  C   UNL     1      36.799 -13.692 -13.388  1.00  0.00     0.006 C 
BRANCH  12  13
ATOM     13  C   UNL     1      36.855 -13.074 -14.790  1.00  0.00     0.053 C 
BRANCH  13  14
ATOM     14  C   UNL     1      35.475 -12.903 -15.344  1.00  0.00     0.041 C 
ATOM     15  O   UNL     1      34.544 -12.485 -14.605  1.00  0.00    -0.550 OA
ATOM     16  O   UNL     1      35.231 -13.152 -16.690  1.00  0.00    -0.550 OA
ENDBRANCH  13  14
ENDBRANCH  12  13
ENDBRANCH  11  12
ENDBRANCH  10  11
ENDBRANCH   9  10
ENDBRANCH   8   9
ENDBRANCH   7   8
ENDBRANCH   6   7
ENDBRANCH   5   6
ENDBRANCH   4   5
ENDBRANCH   3   4
ENDBRANCH   2   3
ENDBRANCH   1   2
BRANCH   1  17
ATOM     17  C   UNL     1      35.900  -5.659 -18.494  1.00  0.00     0.000 C 
BRANCH  17  18
ATOM     18  C   UNL     1      34.390  -5.921 -18.380  1.00  0.00     0.000 C 
BRANCH  18  19
ATOM     19  C   UNL     1      33.737  -4.897 -17.439  1.00  0.00     0.000 C 
BRANCH  19  20
ATOM     20  C   UNL     1      33.165  -5.541 -16.167  1.00  0.00     0.000 C 
BRANCH  20  21
ATOM     21  C   UNL     1      31.631  -5.446 -16.102  1.00  0.00     0.000 C 
BRANCH  21  22
ATOM     22  C   UNL     1      30.939  -6.802 -16.331  1.00  0.00    -0.000 C 
BRANCH  22  23
ATOM     23  C   UNL     1      29.612  -6.995 -15.572  1.00  0.00    -0.000 C 
BRANCH  23  24
ATOM     24  C   UNL     1      29.705  -7.979 -14.387  1.00  0.00    -0.000 C 
BRANCH  24  25
ATOM     25  C   UNL     1      29.426  -7.296 -13.036  1.00  0.00    -0.000 C 
BRANCH  25  26
ATOM     26  C   UNL     1      29.590  -5.769 -13.102  1.00  0.00    -0.000 C 
BRANCH  26  27
ATOM     27  C   UNL     1      30.644  -5.244 -12.115  1.00  0.00    -0.000 C 
BRANCH  27  28
ATOM     28  C   UNL     1      32.024  -5.850 -12.412  1.00  0.00    -0.000 C 
BRANCH  28  29
ATOM     29  C   UNL     1      32.524  -6.762 -11.279  1.00  0.00    -0.003 C 
ATOM     30  C   UNL     1      32.632  -6.035  -9.939  1.00  0.00     0.004 C 
ENDBRANCH  28  29
ENDBRANCH  27  28
ENDBRANCH  26  27
ENDBRANCH  25  26
ENDBRANCH  24  25
ENDBRANCH  23  24
ENDBRANCH  22  23
ENDBRANCH  21  22
ENDBRANCH  20  21
ENDBRANCH  19  20
ENDBRANCH  18  19
ENDBRANCH  17  18
ENDBRANCH   1  17
TORSDOF 26
ENDMDL
