MODEL 1
REMARK VINA RESULT:    -5.322      0.000      0.000
REMARK INTER + INTRA:          -7.141
REMARK INTER:                  -6.722
REMARK INTRA:                  -0.419
REMARK UNBOUND:                -0.419
REMARK SMILES CC(C)=CCCC(C)=CCO
REMARK SMILES IDX 7 1 9 2 8 3 6 4 5 5 4 6 1 7 2 8 3 9 10 10 11 11
REMARK H PARENT 11 12
REMARK Flexibility Score: inf
ROOT
ATOM      1  C   UNL     1      26.549  34.864   2.001  1.00  0.00    -0.075 C 
ATOM      2  C   UNL     1      26.833  36.094   2.485  1.00  0.00    -0.000 C 
ATOM      3  C   UNL     1      25.745  33.865   2.801  1.00  0.00     0.039 C 
ENDROOT
BRANCH   1   4
ATOM      4  C   UNL     1      27.039  34.482   0.622  1.00  0.00     0.034 C 
BRANCH   4   5
ATOM      5  C   UNL     1      25.876  34.008  -0.257  1.00  0.00     0.032 C 
BRANCH   5   6
ATOM      6  C   UNL     1      26.219  32.709  -0.943  1.00  0.00    -0.028 C 
ATOM      7  C   UNL     1      24.673  31.357   0.490  1.00  0.00     0.039 C 
ATOM      8  C   UNL     1      25.707  31.507  -0.602  1.00  0.00    -0.080 C 
ATOM      9  C   UNL     1      26.174  30.287  -1.354  1.00  0.00     0.039 C 
ENDBRANCH   5   6
ENDBRANCH   4   5
ENDBRANCH   1   4
BRANCH   2  10
ATOM     10  C   UNL     1      26.391  36.588   3.840  1.00  0.00     0.183 C 
BRANCH  10  11
ATOM     11  O   UNL     1      26.950  37.844   4.115  1.00  0.00    -0.392 OA
ATOM     12  H   UNL     1      26.198  38.491   4.139  1.00  0.00     0.210 HD
ENDBRANCH  10  11
ENDBRANCH   2  10
TORSDOF 5
ENDMDL
MODEL 2
REMARK VINA RESULT:    -5.274      2.624      3.145
REMARK INTER + INTRA:          -7.080
REMARK INTER:                  -6.610
REMARK INTRA:                  -0.471
REMARK UNBOUND:                -0.419
REMARK SMILES CC(C)=CCCC(C)=CCO
REMARK SMILES IDX 7 1 9 2 8 3 6 4 5 5 4 6 1 7 2 8 3 9 10 10 11 11
REMARK H PARENT 11 12
REMARK Flexibility Score: inf
ROOT
ATOM      1  C   UNL     1      25.661  34.040   2.029  1.00  0.00    -0.075 C 
ATOM      2  C   UNL     1      24.803  33.015   2.227  1.00  0.00    -0.000 C 
ATOM      3  C   UNL     1      26.533  34.569   3.144  1.00  0.00     0.039 C 
ENDROOT
BRANCH   1   4
ATOM      4  C   UNL     1      25.759  34.666   0.655  1.00  0.00     0.034 C 
BRANCH   4   5
ATOM      5  C   UNL     1      26.490  33.734  -0.317  1.00  0.00     0.032 C 
BRANCH   5   6
ATOM      6  C   UNL     1      25.594  33.357  -1.471  1.00  0.00    -0.028 C 
ATOM      7  C   UNL     1      25.379  30.972  -0.737  1.00  0.00     0.039 C 
ATOM      8  C   UNL     1      25.108  32.115  -1.688  1.00  0.00    -0.080 C 
ATOM      9  C   UNL     1      24.256  31.880  -2.908  1.00  0.00     0.039 C 
ENDBRANCH   5   6
ENDBRANCH   4   5
ENDBRANCH   1   4
BRANCH   2  10
ATOM     10  C   UNL     1      24.626  32.308   3.547  1.00  0.00     0.183 C 
BRANCH  10  11
ATOM     11  O   UNL     1      23.875  31.136   3.385  1.00  0.00    -0.392 OA
ATOM     12  H   UNL     1      23.160  31.345   2.728  1.00  0.00     0.210 HD
ENDBRANCH  10  11
ENDBRANCH   2  10
TORSDOF 5
ENDMDL
MODEL 3
REMARK VINA RESULT:    -5.140      0.955      1.824
REMARK INTER + INTRA:          -6.911
REMARK INTER:                  -6.485
REMARK INTRA:                  -0.426
REMARK UNBOUND:                -0.419
REMARK SMILES CC(C)=CCCC(C)=CCO
REMARK SMILES IDX 7 1 9 2 8 3 6 4 5 5 4 6 1 7 2 8 3 9 10 10 11 11
REMARK H PARENT 11 12
REMARK Flexibility Score: inf
ROOT
ATOM      1  C   UNL     1      26.169  34.572   2.539  1.00  0.00    -0.075 C 
ATOM      2  C   UNL     1      26.118  35.563   3.457  1.00  0.00    -0.000 C 
ATOM      3  C   UNL     1      26.975  34.710   1.268  1.00  0.00     0.039 C 
ENDROOT
BRANCH   1   4
ATOM      4  C   UNL     1      25.407  33.290   2.794  1.00  0.00     0.034 C 
BRANCH   4   5
ATOM      5  C   UNL     1      24.417  33.011   1.658  1.00  0.00     0.032 C 
BRANCH   5   6
ATOM      6  C   UNL     1      24.781  31.740   0.932  1.00  0.00    -0.028 C 
ATOM      7  C   UNL     1      25.189  32.910  -1.245  1.00  0.00     0.039 C 
ATOM      8  C   UNL     1      25.105  31.675  -0.378  1.00  0.00    -0.080 C 
ATOM      9  C   UNL     1      25.408  30.325  -0.977  1.00  0.00     0.039 C 
ENDBRANCH   5   6
ENDBRANCH   4   5
ENDBRANCH   1   4
BRANCH   2  10
ATOM     10  C   UNL     1      26.841  36.879   3.315  1.00  0.00     0.183 C 
BRANCH  10  11
ATOM     11  O   UNL     1      26.772  37.613   4.507  1.00  0.00    -0.392 OA
ATOM     12  H   UNL     1      26.075  38.307   4.373  1.00  0.00     0.210 HD
ENDBRANCH  10  11
ENDBRANCH   2  10
TORSDOF 5
ENDMDL
MODEL 4
REMARK VINA RESULT:    -5.080      3.423      5.423
REMARK INTER + INTRA:          -6.835
REMARK INTER:                  -6.474
REMARK INTRA:                  -0.361
REMARK UNBOUND:                -0.419
REMARK SMILES CC(C)=CCCC(C)=CCO
REMARK SMILES IDX 7 1 9 2 8 3 6 4 5 5 4 6 1 7 2 8 3 9 10 10 11 11
REMARK H PARENT 11 12
REMARK Flexibility Score: inf
ROOT
ATOM      1  C   UNL     1      26.038  32.957  -1.335  1.00  0.00    -0.075 C 
ATOM      2  C   UNL     1      25.394  33.366  -2.451  1.00  0.00    -0.000 C 
ATOM      3  C   UNL     1      26.530  31.537  -1.180  1.00  0.00     0.039 C 
ENDROOT
BRANCH   1   4
ATOM      4  C   UNL     1      26.280  33.948  -0.217  1.00  0.00     0.034 C 
BRANCH   4   5
ATOM      5  C   UNL     1      24.964  34.316   0.478  1.00  0.00     0.032 C 
BRANCH   5   6
ATOM      6  C   UNL     1      24.582  33.263   1.489  1.00  0.00    -0.028 C 
ATOM      7  C   UNL     1      26.092  34.187   3.262  1.00  0.00     0.039 C 
ATOM      8  C   UNL     1      25.099  33.177   2.734  1.00  0.00    -0.080 C 
ATOM      9  C   UNL     1      24.649  32.045   3.622  1.00  0.00     0.039 C 
ENDBRANCH   5   6
ENDBRANCH   4   5
ENDBRANCH   1   4
BRANCH   2  10
ATOM     10  C   UNL     1      25.104  32.472  -3.630  1.00  0.00     0.183 C 
BRANCH  10  11
ATOM     11  O   UNL     1      26.164  32.502  -4.546  1.00  0.00    -0.392 OA
ATOM     12  H   UNL     1      25.867  31.987  -5.341  1.00  0.00     0.210 HD
ENDBRANCH  10  11
ENDBRANCH   2  10
TORSDOF 5
ENDMDL
MODEL 5
REMARK VINA RESULT:    -5.080      9.242     10.505
REMARK INTER + INTRA:          -6.835
REMARK INTER:                  -6.405
REMARK INTRA:                  -0.430
REMARK UNBOUND:                -0.419
REMARK SMILES CC(C)=CCCC(C)=CCO
REMARK SMILES IDX 7 1 9 2 8 3 6 4 5 5 4 6 1 7 2 8 3 9 10 10 11 11
REMARK H PARENT 11 12
REMARK Flexibility Score: inf
ROOT
ATOM      1  C   UNL     1      35.148  30.109   2.327  1.00  0.00    -0.075 C 
ATOM      2  C   UNL     1      34.362  30.204   3.423  1.00  0.00    -0.000 C 
ATOM      3  C   UNL     1      35.142  28.875   1.454  1.00  0.00     0.039 C 
ENDROOT
BRANCH   1   4
ATOM      4  C   UNL     1      36.048  31.268   1.960  1.00  0.00     0.034 C 
BRANCH   4   5
ATOM      5  C   UNL     1      36.458  32.054   3.210  1.00  0.00     0.032 C 
BRANCH   5   6
ATOM      6  C   UNL     1      36.077  33.508   3.076  1.00  0.00    -0.028 C 
ATOM      7  C   UNL     1      34.438  33.420   4.968  1.00  0.00     0.039 C 
ATOM      8  C   UNL     1      35.153  34.129   3.841  1.00  0.00    -0.080 C 
ATOM      9  C   UNL     1      34.848  35.579   3.564  1.00  0.00     0.039 C 
ENDBRANCH   5   6
ENDBRANCH   4   5
ENDBRANCH   1   4
BRANCH   2  10
ATOM     10  C   UNL     1      33.421  29.119   3.880  1.00  0.00     0.183 C 
BRANCH  10  11
ATOM     11  O   UNL     1      32.864  29.440   5.126  1.00  0.00    -0.392 OA
ATOM     12  H   UNL     1      33.390  30.201   5.484  1.00  0.00     0.210 HD
ENDBRANCH  10  11
ENDBRANCH   2  10
TORSDOF 5
ENDMDL
MODEL 6
REMARK VINA RESULT:    -4.940      3.363      5.434
REMARK INTER + INTRA:          -6.659
REMARK INTER:                  -6.257
REMARK INTRA:                  -0.401
REMARK UNBOUND:                -0.419
REMARK SMILES CC(C)=CCCC(C)=CCO
REMARK SMILES IDX 7 1 9 2 8 3 6 4 5 5 4 6 1 7 2 8 3 9 10 10 11 11
REMARK H PARENT 11 12
REMARK Flexibility Score: inf
ROOT
ATOM      1  C   UNL     1      25.947  32.552  -1.241  1.00  0.00    -0.075 C 
ATOM      2  C   UNL     1      26.782  31.519  -0.988  1.00  0.00    -0.000 C 
ATOM      3  C   UNL     1      24.872  32.461  -2.299  1.00  0.00     0.039 C 
ENDROOT
BRANCH   1   4
ATOM      4  C   UNL     1      26.085  33.827  -0.438  1.00  0.00     0.034 C 
BRANCH   4   5
ATOM      5  C   UNL     1      24.774  34.161   0.282  1.00  0.00     0.032 C 
BRANCH   5   6
ATOM      6  C   UNL     1      24.477  33.140   1.353  1.00  0.00    -0.028 C 
ATOM      7  C   UNL     1      25.929  34.264   3.056  1.00  0.00     0.039 C 
ATOM      8  C   UNL     1      25.008  33.158   2.594  1.00  0.00    -0.080 C 
ATOM      9  C   UNL     1      24.649  32.046   3.546  1.00  0.00     0.039 C 
ENDBRANCH   5   6
ENDBRANCH   4   5
ENDBRANCH   1   4
BRANCH   2  10
ATOM     10  C   UNL     1      26.733  30.200  -1.717  1.00  0.00     0.183 C 
BRANCH  10  11
ATOM     11  O   UNL     1      27.982  29.565  -1.674  1.00  0.00    -0.392 OA
ATOM     12  H   UNL     1      27.806  28.590  -1.735  1.00  0.00     0.210 HD
ENDBRANCH  10  11
ENDBRANCH   2  10
TORSDOF 5
ENDMDL
MODEL 7
REMARK VINA RESULT:    -4.917      9.373     10.488
REMARK INTER + INTRA:          -6.629
REMARK INTER:                  -6.351
REMARK INTRA:                  -0.279
REMARK UNBOUND:                -0.419
REMARK SMILES CC(C)=CCCC(C)=CCO
REMARK SMILES IDX 7 1 9 2 8 3 6 4 5 5 4 6 1 7 2 8 3 9 10 10 11 11
REMARK H PARENT 11 12
REMARK Flexibility Score: inf
ROOT
ATOM      1  C   UNL     1      36.333  31.270   2.375  1.00  0.00    -0.075 C 
ATOM      2  C   UNL     1      35.394  30.297   2.352  1.00  0.00    -0.000 C 
ATOM      3  C   UNL     1      37.601  31.166   1.559  1.00  0.00     0.039 C 
ENDROOT
BRANCH   1   4
ATOM      4  C   UNL     1      36.105  32.496   3.232  1.00  0.00     0.034 C 
BRANCH   4   5
ATOM      5  C   UNL     1      34.653  32.973   3.124  1.00  0.00     0.032 C 
BRANCH   5   6
ATOM      6  C   UNL     1      34.033  33.113   4.492  1.00  0.00    -0.028 C 
ATOM      7  C   UNL     1      32.892  30.886   4.382  1.00  0.00     0.039 C 
ATOM      8  C   UNL     1      33.219  32.197   5.060  1.00  0.00    -0.080 C 
ATOM      9  C   UNL     1      32.642  32.494   6.420  1.00  0.00     0.039 C 
ENDBRANCH   5   6
ENDBRANCH   4   5
ENDBRANCH   1   4
BRANCH   2  10
ATOM     10  C   UNL     1      35.508  29.037   1.532  1.00  0.00     0.183 C 
BRANCH  10  11
ATOM     11  O   UNL     1      34.386  28.881   0.707  1.00  0.00    -0.392 OA
ATOM     12  H   UNL     1      34.721  28.860  -0.227  1.00  0.00     0.210 HD
ENDBRANCH  10  11
ENDBRANCH   2  10
TORSDOF 5
ENDMDL
MODEL 8
REMARK VINA RESULT:    -4.915      1.390      1.694
REMARK INTER + INTRA:          -6.627
REMARK INTER:                  -6.049
REMARK INTRA:                  -0.578
REMARK UNBOUND:                -0.419
REMARK SMILES CC(C)=CCCC(C)=CCO
REMARK SMILES IDX 7 1 9 2 8 3 6 4 5 5 4 6 1 7 2 8 3 9 10 10 11 11
REMARK H PARENT 11 12
REMARK Flexibility Score: inf
ROOT
ATOM      1  C   UNL     1      25.452  34.292   0.878  1.00  0.00    -0.075 C 
ATOM      2  C   UNL     1      26.444  34.752   1.673  1.00  0.00    -0.000 C 
ATOM      3  C   UNL     1      24.307  33.477   1.432  1.00  0.00     0.039 C 
ENDROOT
BRANCH   1   4
ATOM      4  C   UNL     1      25.484  34.607  -0.601  1.00  0.00     0.034 C 
BRANCH   4   5
ATOM      5  C   UNL     1      25.031  33.397  -1.426  1.00  0.00     0.032 C 
BRANCH   5   6
ATOM      6  C   UNL     1      26.143  32.384  -1.543  1.00  0.00    -0.028 C 
ATOM      7  C   UNL     1      24.688  30.467  -0.848  1.00  0.00     0.039 C 
ATOM      8  C   UNL     1      26.011  31.069  -1.262  1.00  0.00    -0.080 C 
ATOM      9  C   UNL     1      27.223  30.182  -1.387  1.00  0.00     0.039 C 
ENDBRANCH   5   6
ENDBRANCH   4   5
ENDBRANCH   1   4
BRANCH   2  10
ATOM     10  C   UNL     1      26.513  34.508   3.159  1.00  0.00     0.183 C 
BRANCH  10  11
ATOM     11  O   UNL     1      25.996  35.603   3.865  1.00  0.00    -0.392 OA
ATOM     12  H   UNL     1      26.732  36.263   3.943  1.00  0.00     0.210 HD
ENDBRANCH  10  11
ENDBRANCH   2  10
TORSDOF 5
ENDMDL
