MODEL 1
REMARK VINA RESULT:    -6.247      0.000      0.000
REMARK INTER + INTRA:          -7.075
REMARK INTER:                  -6.795
REMARK INTRA:                  -0.280
REMARK UNBOUND:                -0.280
REMARK SMILES C[C@@H]1[C@@H](C)CC[C@@]2(C(=O)[O-])CC[C@@]3(C)C(=CC[C@@H]4[C@@]5(C)CC[C@@H](O)C(C)(C)[C@@H]5CC[C@]43C)[C@@H]12
REMARK SMILES IDX 7 1 6 2 11 3 33 4 5 5 12 6 15 7 2 8 3 9 13 10 16 11 1 12
REMARK SMILES IDX 4 13 14 14 31 15 17 16 18 17 30 18 32 19 19 20 29 21 28 22
REMARK SMILES IDX 21 23 20 24 25 25 22 26 23 27 26 28 27 29 8 30 9 31 10 32
REMARK SMILES IDX 24 33
REMARK H PARENT 24 34
REMARK Flexibility Score: inf
ROOT
ATOM      1  C   UNL     1     -31.008 -60.923  61.517  1.00  0.00     0.017 C 
ATOM      2  C   UNL     1     -32.120 -60.991  62.589  1.00  0.00     0.014 C 
ATOM      3  C   UNL     1     -30.568 -62.371  61.115  1.00  0.00     0.014 C 
ATOM      4  C   UNL     1     -31.496 -60.110  60.249  1.00  0.00     0.030 C 
ATOM      5  C   UNL     1     -32.627 -59.599  63.010  1.00  0.00     0.004 C 
ATOM      6  C   UNL     1     -31.559 -63.164  60.232  1.00  0.00     0.013 C 
ATOM      7  C   UNL     1     -31.476 -60.988  58.976  1.00  0.00    -0.063 C 
ATOM      8  C   UNL     1     -32.825 -59.301  60.450  1.00  0.00    -0.003 C 
ATOM      9  C   UNL     1     -32.823 -58.590  61.836  1.00  0.00    -0.011 C 
ATOM     10  C   UNL     1     -32.165 -62.381  58.997  1.00  0.00    -0.006 C 
ATOM     11  C   UNL     1     -30.500 -60.697  58.075  1.00  0.00    -0.027 C 
ATOM     12  C   UNL     1     -33.019 -58.307  59.288  1.00  0.00     0.008 C 
ATOM     13  C   UNL     1     -34.107 -57.772  62.089  1.00  0.00     0.008 C 
ATOM     14  C   UNL     1     -33.696 -62.212  59.252  1.00  0.00     0.017 C 
ATOM     15  C   UNL     1     -31.971 -63.153  57.588  1.00  0.00    -0.020 C 
ATOM     16  C   UNL     1     -30.029 -61.606  56.979  1.00  0.00     0.032 C 
ATOM     17  C   UNL     1     -30.439 -63.081  57.211  1.00  0.00     0.006 C 
ATOM     18  C   UNL     1     -32.480 -64.641  57.675  1.00  0.00     0.008 C 
ATOM     19  C   UNL     1     -32.830 -62.452  56.483  1.00  0.00     0.012 C 
ATOM     20  C   UNL     1     -29.885 -64.112  56.123  1.00  0.00    -0.025 C 
ATOM     21  C   UNL     1     -31.963 -65.560  56.568  1.00  0.00     0.005 C 
ATOM     22  C   UNL     1     -30.418 -65.539  56.521  1.00  0.00     0.003 C 
ATOM     23  C   UNL     1     -28.322 -64.136  56.224  1.00  0.00     0.010 C 
ATOM     24  C   UNL     1     -30.268 -63.702  54.660  1.00  0.00     0.012 C 
ATOM     25  C   UNL     1     -29.758 -66.767  55.775  1.00  0.00    -0.006 C 
ATOM     26  C   UNL     1     -27.653 -65.304  55.481  1.00  0.00     0.033 C 
ATOM     27  C   UNL     1     -28.205 -66.671  55.916  1.00  0.00     0.120 C 
ATOM     28  C   UNL     1     -30.201 -68.101  56.441  1.00  0.00     0.014 C 
ATOM     29  C   UNL     1     -30.160 -66.874  54.281  1.00  0.00     0.014 C 
ENDROOT
BRANCH   1  30
ATOM     30  C   UNL     1     -29.792 -60.250  62.169  1.00  0.00     0.048 C 
ATOM     31  O   UNL     1     -29.279 -60.728  63.219  1.00  0.00    -0.550 OA
ATOM     32  O   UNL     1     -29.279 -59.055  61.677  1.00  0.00    -0.550 OA
ENDBRANCH   1  30
BRANCH  27  33
ATOM     33  O   UNL     1     -27.824 -66.915  57.248  1.00  0.00    -0.393 OA
ATOM     34  H   UNL     1     -27.494 -66.057  57.619  1.00  0.00     0.210 HD
ENDBRANCH  27  33
TORSDOF 2
ENDMDL
MODEL 2
REMARK VINA RESULT:    -5.904      5.362      9.066
REMARK INTER + INTRA:          -6.702
REMARK INTER:                  -6.409
REMARK INTRA:                  -0.293
REMARK UNBOUND:                -0.280
REMARK SMILES C[C@@H]1[C@@H](C)CC[C@@]2(C(=O)[O-])CC[C@@]3(C)C(=CC[C@@H]4[C@@]5(C)CC[C@@H](O)C(C)(C)[C@@H]5CC[C@]43C)[C@@H]12
REMARK SMILES IDX 7 1 6 2 11 3 33 4 5 5 12 6 15 7 2 8 3 9 13 10 16 11 1 12
REMARK SMILES IDX 4 13 14 14 31 15 17 16 18 17 30 18 32 19 19 20 29 21 28 22
REMARK SMILES IDX 21 23 20 24 25 25 22 26 23 27 26 28 27 29 8 30 9 31 10 32
REMARK SMILES IDX 24 33
REMARK H PARENT 24 34
REMARK Flexibility Score: inf
ROOT
ATOM      1  C   UNL     1     -25.940 -61.737  56.892  1.00  0.00     0.017 C 
ATOM      2  C   UNL     1     -24.964 -62.773  56.287  1.00  0.00     0.014 C 
ATOM      3  C   UNL     1     -25.501 -60.291  56.482  1.00  0.00     0.014 C 
ATOM      4  C   UNL     1     -27.427 -62.027  56.432  1.00  0.00     0.030 C 
ATOM      5  C   UNL     1     -25.353 -64.224  56.623  1.00  0.00     0.004 C 
ATOM      6  C   UNL     1     -25.770 -59.888  55.013  1.00  0.00     0.013 C 
ATOM      7  C   UNL     1     -28.012 -60.835  55.640  1.00  0.00    -0.063 C 
ATOM      8  C   UNL     1     -27.650 -63.423  55.751  1.00  0.00    -0.003 C 
ATOM      9  C   UNL     1     -26.879 -64.534  56.524  1.00  0.00    -0.011 C 
ATOM     10  C   UNL     1     -27.208 -60.236  54.452  1.00  0.00    -0.006 C 
ATOM     11  C   UNL     1     -28.962 -60.108  56.288  1.00  0.00    -0.027 C 
ATOM     12  C   UNL     1     -29.159 -63.725  55.652  1.00  0.00     0.008 C 
ATOM     13  C   UNL     1     -27.067 -65.933  55.902  1.00  0.00     0.008 C 
ATOM     14  C   UNL     1     -27.031 -61.313  53.337  1.00  0.00     0.017 C 
ATOM     15  C   UNL     1     -27.974 -58.964  53.808  1.00  0.00    -0.020 C 
ATOM     16  C   UNL     1     -29.400 -58.722  55.916  1.00  0.00     0.032 C 
ATOM     17  C   UNL     1     -28.385 -58.004  54.993  1.00  0.00     0.006 C 
ATOM     18  C   UNL     1     -27.069 -58.228  52.750  1.00  0.00     0.008 C 
ATOM     19  C   UNL     1     -29.249 -59.451  53.043  1.00  0.00     0.012 C 
ATOM     20  C   UNL     1     -28.752 -56.490  54.638  1.00  0.00    -0.025 C 
ATOM     21  C   UNL     1     -27.512 -56.805  52.408  1.00  0.00     0.005 C 
ATOM     22  C   UNL     1     -27.621 -55.946  53.689  1.00  0.00     0.003 C 
ATOM     23  C   UNL     1     -28.713 -55.655  55.963  1.00  0.00     0.010 C 
ATOM     24  C   UNL     1     -30.187 -56.351  54.022  1.00  0.00     0.012 C 
ATOM     25  C   UNL     1     -27.599 -54.384  53.447  1.00  0.00    -0.006 C 
ATOM     26  C   UNL     1     -28.722 -54.131  55.757  1.00  0.00     0.033 C 
ATOM     27  C   UNL     1     -27.591 -53.657  54.830  1.00  0.00     0.120 C 
ATOM     28  C   UNL     1     -26.296 -53.974  52.702  1.00  0.00     0.014 C 
ATOM     29  C   UNL     1     -28.776 -53.875  52.575  1.00  0.00     0.014 C 
ENDROOT
BRANCH   1  30
ATOM     30  C   UNL     1     -25.807 -61.829  58.419  1.00  0.00     0.048 C 
ATOM     31  O   UNL     1     -26.826 -62.005  59.144  1.00  0.00    -0.550 OA
ATOM     32  O   UNL     1     -24.582 -61.637  59.050  1.00  0.00    -0.550 OA
ENDBRANCH   1  30
BRANCH  27  33
ATOM     33  O   UNL     1     -26.357 -53.857  55.475  1.00  0.00    -0.393 OA
ATOM     34  H   UNL     1     -26.306 -54.819  55.716  1.00  0.00     0.210 HD
ENDBRANCH  27  33
TORSDOF 2
ENDMDL
MODEL 3
REMARK VINA RESULT:    -5.897      9.661     12.065
REMARK INTER + INTRA:          -6.694
REMARK INTER:                  -6.402
REMARK INTRA:                  -0.292
REMARK UNBOUND:                -0.280
REMARK SMILES C[C@@H]1[C@@H](C)CC[C@@]2(C(=O)[O-])CC[C@@]3(C)C(=CC[C@@H]4[C@@]5(C)CC[C@@H](O)C(C)(C)[C@@H]5CC[C@]43C)[C@@H]12
REMARK SMILES IDX 7 1 6 2 11 3 33 4 5 5 12 6 15 7 2 8 3 9 13 10 16 11 1 12
REMARK SMILES IDX 4 13 14 14 31 15 17 16 18 17 30 18 32 19 19 20 29 21 28 22
REMARK SMILES IDX 21 23 20 24 25 25 22 26 23 27 26 28 27 29 8 30 9 31 10 32
REMARK SMILES IDX 24 33
REMARK H PARENT 24 34
REMARK Flexibility Score: inf
ROOT
ATOM      1  C   UNL     1     -17.821 -60.929  56.686  1.00  0.00     0.017 C 
ATOM      2  C   UNL     1     -18.163 -59.616  57.429  1.00  0.00     0.014 C 
ATOM      3  C   UNL     1     -18.361 -62.154  57.498  1.00  0.00     0.014 C 
ATOM      4  C   UNL     1     -18.416 -60.917  55.218  1.00  0.00     0.030 C 
ATOM      5  C   UNL     1     -17.690 -58.362  56.670  1.00  0.00     0.004 C 
ATOM      6  C   UNL     1     -19.891 -62.373  57.463  1.00  0.00     0.013 C 
ATOM      7  C   UNL     1     -19.422 -62.073  55.012  1.00  0.00    -0.063 C 
ATOM      8  C   UNL     1     -18.930 -59.521  54.722  1.00  0.00    -0.003 C 
ATOM      9  C   UNL     1     -17.931 -58.398  55.130  1.00  0.00    -0.011 C 
ATOM     10  C   UNL     1     -20.572 -62.280  56.037  1.00  0.00    -0.006 C 
ATOM     11  C   UNL     1     -18.995 -63.090  54.215  1.00  0.00    -0.027 C 
ATOM     12  C   UNL     1     -19.171 -59.559  53.199  1.00  0.00     0.008 C 
ATOM     13  C   UNL     1     -18.383 -56.999  54.661  1.00  0.00     0.008 C 
ATOM     14  C   UNL     1     -21.507 -61.030  56.043  1.00  0.00     0.017 C 
ATOM     15  C   UNL     1     -21.465 -63.577  55.664  1.00  0.00    -0.020 C 
ATOM     16  C   UNL     1     -19.596 -64.463  54.162  1.00  0.00     0.032 C 
ATOM     17  C   UNL     1     -20.475 -64.777  55.397  1.00  0.00     0.006 C 
ATOM     18  C   UNL     1     -22.493 -63.913  56.808  1.00  0.00     0.008 C 
ATOM     19  C   UNL     1     -22.309 -63.281  54.379  1.00  0.00     0.012 C 
ATOM     20  C   UNL     1     -21.066 -66.262  55.442  1.00  0.00    -0.025 C 
ATOM     21  C   UNL     1     -23.069 -65.328  56.756  1.00  0.00     0.005 C 
ATOM     22  C   UNL     1     -21.934 -66.377  56.750  1.00  0.00     0.003 C 
ATOM     23  C   UNL     1     -19.867 -67.261  55.569  1.00  0.00     0.010 C 
ATOM     24  C   UNL     1     -21.864 -66.627  54.143  1.00  0.00     0.012 C 
ATOM     25  C   UNL     1     -22.375 -67.836  57.172  1.00  0.00    -0.006 C 
ATOM     26  C   UNL     1     -20.271 -68.696  55.949  1.00  0.00     0.033 C 
ATOM     27  C   UNL     1     -21.108 -68.749  57.237  1.00  0.00     0.120 C 
ATOM     28  C   UNL     1     -23.004 -67.816  58.595  1.00  0.00     0.014 C 
ATOM     29  C   UNL     1     -23.442 -68.458  56.235  1.00  0.00     0.014 C 
ENDROOT
BRANCH   1  30
ATOM     30  C   UNL     1     -16.291 -61.047  56.660  1.00  0.00     0.048 C 
ATOM     31  O   UNL     1     -15.675 -61.185  55.566  1.00  0.00    -0.550 OA
ATOM     32  O   UNL     1     -15.551 -61.094  57.837  1.00  0.00    -0.550 OA
ENDBRANCH   1  30
BRANCH  27  33
ATOM     33  O   UNL     1     -20.297 -68.375  58.325  1.00  0.00    -0.393 OA
ATOM     34  H   UNL     1     -19.677 -67.673  57.999  1.00  0.00     0.210 HD
ENDBRANCH  27  33
TORSDOF 2
ENDMDL
MODEL 4
REMARK VINA RESULT:    -5.775      9.434     13.241
REMARK INTER + INTRA:          -6.561
REMARK INTER:                  -6.887
REMARK INTRA:                   0.326
REMARK UNBOUND:                -0.280
REMARK SMILES C[C@@H]1[C@@H](C)CC[C@@]2(C(=O)[O-])CC[C@@]3(C)C(=CC[C@@H]4[C@@]5(C)CC[C@@H](O)C(C)(C)[C@@H]5CC[C@]43C)[C@@H]12
REMARK SMILES IDX 7 1 6 2 11 3 33 4 5 5 12 6 15 7 2 8 3 9 13 10 16 11 1 12
REMARK SMILES IDX 4 13 14 14 31 15 17 16 18 17 30 18 32 19 19 20 29 21 28 22
REMARK SMILES IDX 21 23 20 24 25 25 22 26 23 27 26 28 27 29 8 30 9 31 10 32
REMARK SMILES IDX 24 33
REMARK H PARENT 24 34
REMARK Flexibility Score: inf
ROOT
ATOM      1  C   UNL     1     -20.409 -66.969  57.923  1.00  0.00     0.017 C 
ATOM      2  C   UNL     1     -20.890 -68.136  57.030  1.00  0.00     0.014 C 
ATOM      3  C   UNL     1     -19.044 -66.418  57.389  1.00  0.00     0.014 C 
ATOM      4  C   UNL     1     -21.497 -65.820  57.985  1.00  0.00     0.030 C 
ATOM      5  C   UNL     1     -22.247 -68.708  57.477  1.00  0.00     0.004 C 
ATOM      6  C   UNL     1     -19.110 -65.577  56.093  1.00  0.00     0.013 C 
ATOM      7  C   UNL     1     -20.938 -64.488  57.431  1.00  0.00    -0.063 C 
ATOM      8  C   UNL     1     -22.906 -66.210  57.418  1.00  0.00    -0.003 C 
ATOM      9  C   UNL     1     -23.305 -67.639  57.892  1.00  0.00    -0.011 C 
ATOM     10  C   UNL     1     -20.239 -64.469  56.043  1.00  0.00    -0.006 C 
ATOM     11  C   UNL     1     -20.695 -63.522  58.357  1.00  0.00    -0.027 C 
ATOM     12  C   UNL     1     -23.950 -65.151  57.827  1.00  0.00     0.008 C 
ATOM     13  C   UNL     1     -24.690 -68.077  57.369  1.00  0.00     0.008 C 
ATOM     14  C   UNL     1     -21.255 -64.884  54.933  1.00  0.00     0.017 C 
ATOM     15  C   UNL     1     -19.678 -62.993  55.688  1.00  0.00    -0.020 C 
ATOM     16  C   UNL     1     -19.823 -62.319  58.150  1.00  0.00     0.032 C 
ATOM     17  C   UNL     1     -18.868 -62.477  56.941  1.00  0.00     0.006 C 
ATOM     18  C   UNL     1     -18.790 -63.015  54.389  1.00  0.00     0.008 C 
ATOM     19  C   UNL     1     -20.878 -62.034  55.391  1.00  0.00     0.012 C 
ATOM     20  C   UNL     1     -17.848 -61.265  56.727  1.00  0.00    -0.025 C 
ATOM     21  C   UNL     1     -17.882 -61.797  54.212  1.00  0.00     0.005 C 
ATOM     22  C   UNL     1     -16.985 -61.603  55.455  1.00  0.00     0.003 C 
ATOM     23  C   UNL     1     -16.887 -61.213  57.963  1.00  0.00     0.010 C 
ATOM     24  C   UNL     1     -18.577 -59.881  56.623  1.00  0.00     0.012 C 
ATOM     25  C   UNL     1     -15.705 -60.705  55.218  1.00  0.00    -0.006 C 
ATOM     26  C   UNL     1     -15.648 -60.321  57.769  1.00  0.00     0.033 C 
ATOM     27  C   UNL     1     -14.839 -60.702  56.519  1.00  0.00     0.120 C 
ATOM     28  C   UNL     1     -14.830 -61.307  54.081  1.00  0.00     0.014 C 
ATOM     29  C   UNL     1     -16.038 -59.253  54.786  1.00  0.00     0.014 C 
ENDROOT
BRANCH   1  30
ATOM     30  C   UNL     1     -20.142 -67.550  59.319  1.00  0.00     0.048 C 
ATOM     31  O   UNL     1     -19.568 -66.857  60.205  1.00  0.00    -0.550 OA
ATOM     32  O   UNL     1     -20.443 -68.874  59.619  1.00  0.00    -0.550 OA
ENDBRANCH   1  30
BRANCH  27  33
ATOM     33  O   UNL     1     -14.260 -61.969  56.717  1.00  0.00    -0.393 OA
ATOM     34  H   UNL     1     -14.897 -62.640  56.359  1.00  0.00     0.210 HD
ENDBRANCH  27  33
TORSDOF 2
ENDMDL
MODEL 5
REMARK VINA RESULT:    -5.681      5.092      9.428
REMARK INTER + INTRA:          -6.459
REMARK INTER:                  -6.166
REMARK INTRA:                  -0.293
REMARK UNBOUND:                -0.280
REMARK SMILES C[C@@H]1[C@@H](C)CC[C@@]2(C(=O)[O-])CC[C@@]3(C)C(=CC[C@@H]4[C@@]5(C)CC[C@@H](O)C(C)(C)[C@@H]5CC[C@]43C)[C@@H]12
REMARK SMILES IDX 7 1 6 2 11 3 33 4 5 5 12 6 15 7 2 8 3 9 13 10 16 11 1 12
REMARK SMILES IDX 4 13 14 14 31 15 17 16 18 17 30 18 32 19 19 20 29 21 28 22
REMARK SMILES IDX 21 23 20 24 25 25 22 26 23 27 26 28 27 29 8 30 9 31 10 32
REMARK SMILES IDX 24 33
REMARK H PARENT 24 34
REMARK Flexibility Score: inf
ROOT
ATOM      1  C   UNL     1     -22.364 -66.847  57.042  1.00  0.00     0.017 C 
ATOM      2  C   UNL     1     -21.536 -66.146  58.144  1.00  0.00     0.014 C 
ATOM      3  C   UNL     1     -23.857 -66.970  57.498  1.00  0.00     0.014 C 
ATOM      4  C   UNL     1     -22.256 -66.062  55.671  1.00  0.00     0.030 C 
ATOM      5  C   UNL     1     -20.059 -65.960  57.751  1.00  0.00     0.004 C 
ATOM      6  C   UNL     1     -24.685 -65.665  57.480  1.00  0.00     0.013 C 
ATOM      7  C   UNL     1     -23.642 -65.568  55.195  1.00  0.00    -0.063 C 
ATOM      8  C   UNL     1     -21.132 -64.968  55.619  1.00  0.00    -0.003 C 
ATOM      9  C   UNL     1     -19.825 -65.501  56.278  1.00  0.00    -0.011 C 
ATOM     10  C   UNL     1     -24.551 -64.777  56.177  1.00  0.00    -0.006 C 
ATOM     11  C   UNL     1     -24.163 -66.221  54.122  1.00  0.00    -0.027 C 
ATOM     12  C   UNL     1     -20.905 -64.515  54.163  1.00  0.00     0.008 C 
ATOM     13  C   UNL     1     -18.679 -64.468  56.251  1.00  0.00     0.008 C 
ATOM     14  C   UNL     1     -23.852 -63.442  56.586  1.00  0.00     0.017 C 
ATOM     15  C   UNL     1     -25.974 -64.414  55.496  1.00  0.00    -0.020 C 
ATOM     16  C   UNL     1     -25.605 -66.206  53.710  1.00  0.00     0.032 C 
ATOM     17  C   UNL     1     -26.544 -65.736  54.848  1.00  0.00     0.006 C 
ATOM     18  C   UNL     1     -26.973 -63.803  56.548  1.00  0.00     0.008 C 
ATOM     19  C   UNL     1     -25.764 -63.322  54.394  1.00  0.00     0.012 C 
ATOM     20  C   UNL     1     -28.103 -65.788  54.499  1.00  0.00    -0.025 C 
ATOM     21  C   UNL     1     -28.442 -63.826  56.125  1.00  0.00     0.005 C 
ATOM     22  C   UNL     1     -28.881 -65.262  55.762  1.00  0.00     0.003 C 
ATOM     23  C   UNL     1     -28.503 -67.285  54.274  1.00  0.00     0.010 C 
ATOM     24  C   UNL     1     -28.449 -64.994  53.192  1.00  0.00     0.012 C 
ATOM     25  C   UNL     1     -30.443 -65.504  55.774  1.00  0.00    -0.006 C 
ATOM     26  C   UNL     1     -30.019 -67.544  54.250  1.00  0.00     0.033 C 
ATOM     27  C   UNL     1     -30.724 -67.019  55.511  1.00  0.00     0.120 C 
ATOM     28  C   UNL     1     -31.029 -65.161  57.173  1.00  0.00     0.014 C 
ATOM     29  C   UNL     1     -31.214 -64.626  54.754  1.00  0.00     0.014 C 
ENDROOT
BRANCH   1  30
ATOM     30  C   UNL     1     -21.817 -68.275  56.905  1.00  0.00     0.048 C 
ATOM     31  O   UNL     1     -21.501 -68.736  55.773  1.00  0.00    -0.550 OA
ATOM     32  O   UNL     1     -21.737 -69.125  58.003  1.00  0.00    -0.550 OA
ENDBRANCH   1  30
BRANCH  27  33
ATOM     33  O   UNL     1     -30.314 -67.785  56.617  1.00  0.00    -0.393 OA
ATOM     34  H   UNL     1     -29.715 -67.213  57.162  1.00  0.00     0.210 HD
ENDBRANCH  27  33
TORSDOF 2
ENDMDL
MODEL 6
REMARK VINA RESULT:    -5.628      6.892     10.142
REMARK INTER + INTRA:          -6.402
REMARK INTER:                  -6.151
REMARK INTRA:                  -0.251
REMARK UNBOUND:                -0.280
REMARK SMILES C[C@@H]1[C@@H](C)CC[C@@]2(C(=O)[O-])CC[C@@]3(C)C(=CC[C@@H]4[C@@]5(C)CC[C@@H](O)C(C)(C)[C@@H]5CC[C@]43C)[C@@H]12
REMARK SMILES IDX 7 1 6 2 11 3 33 4 5 5 12 6 15 7 2 8 3 9 13 10 16 11 1 12
REMARK SMILES IDX 4 13 14 14 31 15 17 16 18 17 30 18 32 19 19 20 29 21 28 22
REMARK SMILES IDX 21 23 20 24 25 25 22 26 23 27 26 28 27 29 8 30 9 31 10 32
REMARK SMILES IDX 24 33
REMARK H PARENT 24 34
REMARK Flexibility Score: inf
ROOT
ATOM      1  C   UNL     1     -21.833 -67.472  55.987  1.00  0.00     0.017 C 
ATOM      2  C   UNL     1     -21.901 -68.423  57.204  1.00  0.00     0.014 C 
ATOM      3  C   UNL     1     -23.179 -67.533  55.189  1.00  0.00     0.014 C 
ATOM      4  C   UNL     1     -21.516 -65.990  56.447  1.00  0.00     0.030 C 
ATOM      5  C   UNL     1     -20.620 -68.391  58.058  1.00  0.00     0.004 C 
ATOM      6  C   UNL     1     -24.390 -66.829  55.843  1.00  0.00     0.013 C 
ATOM      7  C   UNL     1     -22.655 -65.023  56.048  1.00  0.00    -0.063 C 
ATOM      8  C   UNL     1     -21.040 -65.844  57.934  1.00  0.00    -0.003 C 
ATOM      9  C   UNL     1     -20.023 -66.969  58.292  1.00  0.00    -0.011 C 
ATOM     10  C   UNL     1     -24.123 -65.378  56.414  1.00  0.00    -0.006 C 
ATOM     11  C   UNL     1     -22.368 -64.161  55.036  1.00  0.00    -0.027 C 
ATOM     12  C   UNL     1     -20.453 -64.437  58.164  1.00  0.00     0.008 C 
ATOM     13  C   UNL     1     -19.514 -66.873  59.746  1.00  0.00     0.008 C 
ATOM     14  C   UNL     1     -24.281 -65.446  57.965  1.00  0.00     0.017 C 
ATOM     15  C   UNL     1     -25.154 -64.264  55.850  1.00  0.00    -0.020 C 
ATOM     16  C   UNL     1     -23.378 -63.409  54.221  1.00  0.00     0.032 C 
ATOM     17  C   UNL     1     -24.800 -64.012  54.332  1.00  0.00     0.006 C 
ATOM     18  C   UNL     1     -26.649 -64.724  56.031  1.00  0.00     0.008 C 
ATOM     19  C   UNL     1     -24.992 -62.939  56.667  1.00  0.00     0.012 C 
ATOM     20  C   UNL     1     -25.902 -63.309  53.412  1.00  0.00    -0.025 C 
ATOM     21  C   UNL     1     -27.660 -63.968  55.169  1.00  0.00     0.005 C 
ATOM     22  C   UNL     1     -27.267 -64.046  53.676  1.00  0.00     0.003 C 
ATOM     23  C   UNL     1     -25.509 -63.543  51.914  1.00  0.00     0.010 C 
ATOM     24  C   UNL     1     -25.985 -61.762  53.653  1.00  0.00     0.012 C 
ATOM     25  C   UNL     1     -28.440 -63.734  52.662  1.00  0.00    -0.006 C 
ATOM     26  C   UNL     1     -26.622 -63.217  50.904  1.00  0.00     0.033 C 
ATOM     27  C   UNL     1     -27.927 -63.972  51.205  1.00  0.00     0.120 C 
ATOM     28  C   UNL     1     -29.629 -64.709  52.899  1.00  0.00     0.014 C 
ATOM     29  C   UNL     1     -29.019 -62.303  52.805  1.00  0.00     0.014 C 
ENDROOT
BRANCH   1  30
ATOM     30  C   UNL     1     -20.735 -68.008  55.057  1.00  0.00     0.048 C 
ATOM     31  O   UNL     1     -20.867 -69.125  54.483  1.00  0.00    -0.550 OA
ATOM     32  O   UNL     1     -19.536 -67.325  54.888  1.00  0.00    -0.550 OA
ENDBRANCH   1  30
BRANCH  27  33
ATOM     33  O   UNL     1     -27.723 -65.346  50.982  1.00  0.00    -0.393 OA
ATOM     34  H   UNL     1     -27.977 -65.818  51.817  1.00  0.00     0.210 HD
ENDBRANCH  27  33
TORSDOF 2
ENDMDL
MODEL 7
REMARK VINA RESULT:    -5.599      9.171     13.279
REMARK INTER + INTRA:          -6.370
REMARK INTER:                  -6.077
REMARK INTRA:                  -0.293
REMARK UNBOUND:                -0.280
REMARK SMILES C[C@@H]1[C@@H](C)CC[C@@]2(C(=O)[O-])CC[C@@]3(C)C(=CC[C@@H]4[C@@]5(C)CC[C@@H](O)C(C)(C)[C@@H]5CC[C@]43C)[C@@H]12
REMARK SMILES IDX 7 1 6 2 11 3 33 4 5 5 12 6 15 7 2 8 3 9 13 10 16 11 1 12
REMARK SMILES IDX 4 13 14 14 31 15 17 16 18 17 30 18 32 19 19 20 29 21 28 22
REMARK SMILES IDX 21 23 20 24 25 25 22 26 23 27 26 28 27 29 8 30 9 31 10 32
REMARK SMILES IDX 24 33
REMARK H PARENT 24 34
REMARK Flexibility Score: inf
ROOT
ATOM      1  C   UNL     1     -22.346 -64.983  57.112  1.00  0.00     0.017 C 
ATOM      2  C   UNL     1     -22.272 -66.252  57.992  1.00  0.00     0.014 C 
ATOM      3  C   UNL     1     -21.474 -63.847  57.744  1.00  0.00     0.014 C 
ATOM      4  C   UNL     1     -21.878 -65.296  55.631  1.00  0.00     0.030 C 
ATOM      5  C   UNL     1     -23.082 -67.427  57.413  1.00  0.00     0.004 C 
ATOM      6  C   UNL     1     -19.942 -64.012  57.616  1.00  0.00     0.013 C 
ATOM      7  C   UNL     1     -20.644 -64.449  55.242  1.00  0.00    -0.063 C 
ATOM      8  C   UNL     1     -21.746 -66.820  55.285  1.00  0.00    -0.003 C 
ATOM      9  C   UNL     1     -22.951 -67.616  55.870  1.00  0.00    -0.011 C 
ATOM     10  C   UNL     1     -19.407 -64.420  56.183  1.00  0.00    -0.006 C 
ATOM     11  C   UNL     1     -20.874 -63.450  54.348  1.00  0.00    -0.027 C 
ATOM     12  C   UNL     1     -21.614 -67.005  53.760  1.00  0.00     0.008 C 
ATOM     13  C   UNL     1     -22.879 -69.125  55.555  1.00  0.00     0.008 C 
ATOM     14  C   UNL     1     -18.797 -65.852  56.299  1.00  0.00     0.017 C 
ATOM     15  C   UNL     1     -18.262 -63.427  55.616  1.00  0.00    -0.020 C 
ATOM     16  C   UNL     1     -19.971 -62.278  54.102  1.00  0.00     0.032 C 
ATOM     17  C   UNL     1     -18.956 -62.057  55.250  1.00  0.00     0.006 C 
ATOM     18  C   UNL     1     -17.104 -63.232  56.665  1.00  0.00     0.008 C 
ATOM     19  C   UNL     1     -17.607 -64.056  54.341  1.00  0.00     0.012 C 
ATOM     20  C   UNL     1     -18.028 -60.766  55.088  1.00  0.00    -0.025 C 
ATOM     21  C   UNL     1     -16.214 -62.013  56.417  1.00  0.00     0.005 C 
ATOM     22  C   UNL     1     -17.065 -60.726  56.333  1.00  0.00     0.003 C 
ATOM     23  C   UNL     1     -18.944 -59.497  55.146  1.00  0.00     0.010 C 
ATOM     24  C   UNL     1     -17.262 -60.747  53.721  1.00  0.00     0.012 C 
ATOM     25  C   UNL     1     -16.263 -59.382  56.556  1.00  0.00    -0.006 C 
ATOM     26  C   UNL     1     -18.186 -58.171  55.331  1.00  0.00     0.033 C 
ATOM     27  C   UNL     1     -17.270 -58.186  56.566  1.00  0.00     0.120 C 
ATOM     28  C   UNL     1     -15.556 -59.402  57.941  1.00  0.00     0.014 C 
ATOM     29  C   UNL     1     -15.149 -59.143  55.504  1.00  0.00     0.014 C 
ENDROOT
BRANCH   1  30
ATOM     30  C   UNL     1     -23.802 -64.499  57.139  1.00  0.00     0.048 C 
ATOM     31  O   UNL     1     -24.436 -64.306  56.064  1.00  0.00    -0.550 OA
ATOM     32  O   UNL     1     -24.433 -64.176  58.336  1.00  0.00    -0.550 OA
ENDBRANCH   1  30
BRANCH  27  33
ATOM     33  O   UNL     1     -18.065 -58.233  57.725  1.00  0.00    -0.393 OA
ATOM     34  H   UNL     1     -17.504 -57.908  58.477  1.00  0.00     0.210 HD
ENDBRANCH  27  33
TORSDOF 2
ENDMDL
MODEL 8
REMARK VINA RESULT:    -5.561      5.105      7.751
REMARK INTER + INTRA:          -6.329
REMARK INTER:                  -6.056
REMARK INTRA:                  -0.273
REMARK UNBOUND:                -0.280
REMARK SMILES C[C@@H]1[C@@H](C)CC[C@@]2(C(=O)[O-])CC[C@@]3(C)C(=CC[C@@H]4[C@@]5(C)CC[C@@H](O)C(C)(C)[C@@H]5CC[C@]43C)[C@@H]12
REMARK SMILES IDX 7 1 6 2 11 3 33 4 5 5 12 6 15 7 2 8 3 9 13 10 16 11 1 12
REMARK SMILES IDX 4 13 14 14 31 15 17 16 18 17 30 18 32 19 19 20 29 21 28 22
REMARK SMILES IDX 21 23 20 24 25 25 22 26 23 27 26 28 27 29 8 30 9 31 10 32
REMARK SMILES IDX 24 33
REMARK H PARENT 24 34
REMARK Flexibility Score: inf
ROOT
ATOM      1  C   UNL     1     -29.929 -65.128  55.145  1.00  0.00     0.017 C 
ATOM      2  C   UNL     1     -30.811 -65.388  53.901  1.00  0.00     0.014 C 
ATOM      3  C   UNL     1     -28.895 -66.291  55.315  1.00  0.00     0.014 C 
ATOM      4  C   UNL     1     -29.194 -63.730  55.033  1.00  0.00     0.030 C 
ATOM      5  C   UNL     1     -31.834 -64.265  53.651  1.00  0.00     0.004 C 
ATOM      6  C   UNL     1     -27.716 -66.305  54.314  1.00  0.00     0.013 C 
ATOM      7  C   UNL     1     -27.658 -63.901  55.046  1.00  0.00    -0.063 C 
ATOM      8  C   UNL     1     -29.726 -62.790  53.895  1.00  0.00    -0.003 C 
ATOM      9  C   UNL     1     -31.283 -62.819  53.850  1.00  0.00    -0.011 C 
ATOM     10  C   UNL     1     -26.992 -64.918  54.077  1.00  0.00    -0.006 C 
ATOM     11  C   UNL     1     -27.030 -63.494  56.182  1.00  0.00    -0.027 C 
ATOM     12  C   UNL     1     -29.178 -61.363  54.091  1.00  0.00     0.008 C 
ATOM     13  C   UNL     1     -31.865 -61.906  52.750  1.00  0.00     0.008 C 
ATOM     14  C   UNL     1     -27.260 -64.494  52.599  1.00  0.00     0.017 C 
ATOM     15  C   UNL     1     -25.390 -64.981  54.302  1.00  0.00    -0.020 C 
ATOM     16  C   UNL     1     -25.644 -63.889  56.599  1.00  0.00     0.032 C 
ATOM     17  C   UNL     1     -25.132 -65.143  55.851  1.00  0.00     0.006 C 
ATOM     18  C   UNL     1     -24.742 -66.154  53.477  1.00  0.00     0.008 C 
ATOM     19  C   UNL     1     -24.736 -63.657  53.784  1.00  0.00     0.012 C 
ATOM     20  C   UNL     1     -23.697 -65.667  56.321  1.00  0.00    -0.025 C 
ATOM     21  C   UNL     1     -23.343 -66.565  53.938  1.00  0.00     0.005 C 
ATOM     22  C   UNL     1     -23.350 -66.925  55.441  1.00  0.00     0.003 C 
ATOM     23  C   UNL     1     -23.812 -66.138  57.810  1.00  0.00     0.010 C 
ATOM     24  C   UNL     1     -22.600 -64.550  56.252  1.00  0.00     0.012 C 
ATOM     25  C   UNL     1     -22.123 -67.800  55.921  1.00  0.00    -0.006 C 
ATOM     26  C   UNL     1     -22.617 -66.965  58.312  1.00  0.00     0.033 C 
ATOM     27  C   UNL     1     -22.331 -68.184  57.421  1.00  0.00     0.120 C 
ATOM     28  C   UNL     1     -22.058 -69.125  55.108  1.00  0.00     0.014 C 
ATOM     29  C   UNL     1     -20.751 -67.104  55.726  1.00  0.00     0.014 C 
ENDROOT
BRANCH   1  30
ATOM     30  C   UNL     1     -30.854 -65.168  56.370  1.00  0.00     0.048 C 
ATOM     31  O   UNL     1     -31.492 -66.218  56.660  1.00  0.00    -0.550 OA
ATOM     32  O   UNL     1     -31.082 -64.032  57.140  1.00  0.00    -0.550 OA
ENDBRANCH   1  30
BRANCH  27  33
ATOM     33  O   UNL     1     -23.392 -69.100  57.543  1.00  0.00    -0.393 OA
ATOM     34  H   UNL     1     -24.013 -68.737  58.226  1.00  0.00     0.210 HD
ENDBRANCH  27  33
TORSDOF 2
ENDMDL
MODEL 9
REMARK VINA RESULT:    -5.463      4.727      8.633
REMARK INTER + INTRA:          -6.222
REMARK INTER:                  -5.943
REMARK INTRA:                  -0.278
REMARK UNBOUND:                -0.280
REMARK SMILES C[C@@H]1[C@@H](C)CC[C@@]2(C(=O)[O-])CC[C@@]3(C)C(=CC[C@@H]4[C@@]5(C)CC[C@@H](O)C(C)(C)[C@@H]5CC[C@]43C)[C@@H]12
REMARK SMILES IDX 7 1 6 2 11 3 33 4 5 5 12 6 15 7 2 8 3 9 13 10 16 11 1 12
REMARK SMILES IDX 4 13 14 14 31 15 17 16 18 17 30 18 32 19 19 20 29 21 28 22
REMARK SMILES IDX 21 23 20 24 25 25 22 26 23 27 26 28 27 29 8 30 9 31 10 32
REMARK SMILES IDX 24 33
REMARK H PARENT 24 34
REMARK Flexibility Score: inf
ROOT
ATOM      1  C   UNL     1     -29.084 -65.942  54.343  1.00  0.00     0.017 C 
ATOM      2  C   UNL     1     -29.980 -65.256  53.286  1.00  0.00     0.014 C 
ATOM      3  C   UNL     1     -27.844 -66.595  53.645  1.00  0.00     0.014 C 
ATOM      4  C   UNL     1     -28.628 -64.908  55.453  1.00  0.00     0.030 C 
ATOM      5  C   UNL     1     -31.206 -64.560  53.905  1.00  0.00     0.004 C 
ATOM      6  C   UNL     1     -26.749 -65.622  53.153  1.00  0.00     0.013 C 
ATOM      7  C   UNL     1     -27.089 -64.771  55.494  1.00  0.00    -0.063 C 
ATOM      8  C   UNL     1     -29.395 -63.540  55.440  1.00  0.00    -0.003 C 
ATOM      9  C   UNL     1     -30.920 -63.774  55.221  1.00  0.00    -0.011 C 
ATOM     10  C   UNL     1     -26.310 -64.497  54.177  1.00  0.00    -0.006 C 
ATOM     11  C   UNL     1     -26.476 -65.327  56.574  1.00  0.00    -0.027 C 
ATOM     12  C   UNL     1     -29.109 -62.763  56.741  1.00  0.00     0.008 C 
ATOM     13  C   UNL     1     -31.729 -62.460  55.206  1.00  0.00     0.008 C 
ATOM     14  C   UNL     1     -26.744 -63.122  53.580  1.00  0.00     0.017 C 
ATOM     15  C   UNL     1     -24.713 -64.452  54.438  1.00  0.00    -0.020 C 
ATOM     16  C   UNL     1     -25.018 -65.665  56.668  1.00  0.00     0.032 C 
ATOM     17  C   UNL     1     -24.331 -65.731  55.282  1.00  0.00     0.006 C 
ATOM     18  C   UNL     1     -23.913 -64.388  53.084  1.00  0.00     0.008 C 
ATOM     19  C   UNL     1     -24.348 -63.155  55.234  1.00  0.00     0.012 C 
ATOM     20  C   UNL     1     -22.797 -66.180  55.312  1.00  0.00    -0.025 C 
ATOM     21  C   UNL     1     -22.436 -64.768  53.194  1.00  0.00     0.005 C 
ATOM     22  C   UNL     1     -22.280 -66.170  53.825  1.00  0.00     0.003 C 
ATOM     23  C   UNL     1     -22.730 -67.654  55.837  1.00  0.00     0.010 C 
ATOM     24  C   UNL     1     -21.932 -65.287  56.267  1.00  0.00     0.012 C 
ATOM     25  C   UNL     1     -20.885 -66.867  53.564  1.00  0.00    -0.006 C 
ATOM     26  C   UNL     1     -21.373 -68.345  55.622  1.00  0.00     0.033 C 
ATOM     27  C   UNL     1     -20.923 -68.314  54.153  1.00  0.00     0.120 C 
ATOM     28  C   UNL     1     -20.628 -66.997  52.035  1.00  0.00     0.014 C 
ATOM     29  C   UNL     1     -19.681 -66.079  54.141  1.00  0.00     0.014 C 
ENDROOT
BRANCH   1  30
ATOM     30  C   UNL     1     -29.906 -67.084  54.958  1.00  0.00     0.048 C 
ATOM     31  O   UNL     1     -30.347 -68.021  54.234  1.00  0.00    -0.550 OA
ATOM     32  O   UNL     1     -30.261 -67.076  56.302  1.00  0.00    -0.550 OA
ENDBRANCH   1  30
BRANCH  27  33
ATOM     33  O   UNL     1     -21.788 -69.123  53.393  1.00  0.00    -0.393 OA
ATOM     34  H   UNL     1     -22.206 -69.770  54.018  1.00  0.00     0.210 HD
ENDBRANCH  27  33
TORSDOF 2
ENDMDL
