MODEL 1
REMARK VINA RESULT:    -4.819      0.000      0.000
REMARK INTER + INTRA:          -6.004
REMARK INTER:                  -5.805
REMARK INTRA:                  -0.198
REMARK UNBOUND:                -0.198
REMARK SMILES C=CCc1ccc(O)c(OC)c1
REMARK SMILES IDX 9 1 7 2 6 3 5 4 4 5 12 6 10 7 11 8 8 9 3 11 2 12 1 13
REMARK H PARENT 8 10
REMARK Flexibility Score: inf
ROOT
ATOM      1  C   UNL     1     206.378 201.638 200.495  1.00  0.00     0.160 A 
ATOM      2  C   UNL     1     205.733 202.581 201.309  1.00  0.00     0.157 A 
ATOM      3  C   UNL     1     205.056 202.168 202.463  1.00  0.00     0.050 A 
ATOM      4  C   UNL     1     205.019 200.817 202.813  1.00  0.00     0.008 A 
ATOM      5  C   UNL     1     205.668 199.864 202.016  1.00  0.00    -0.040 A 
ATOM      6  C   UNL     1     206.340 200.277 200.854  1.00  0.00     0.054 A 
ENDROOT
BRANCH   1   7
ATOM      7  O   UNL     1     207.041 202.091 199.344  1.00  0.00    -0.493 OA
ATOM      8  C   UNL     1     207.131 201.359 198.125  1.00  0.00     0.278 C 
ENDBRANCH   1   7
BRANCH   2   9
ATOM      9  O   UNL     1     205.769 203.931 200.960  1.00  0.00    -0.504 OA
ATOM     10  H   UNL     1     205.389 204.261 200.081  1.00  0.00     0.293 HD
ENDBRANCH   2   9
BRANCH   5  11
ATOM     11  C   UNL     1     205.602 198.403 202.380  1.00  0.00     0.062 C 
BRANCH  11  12
ATOM     12  C   UNL     1     204.460 197.729 201.672  1.00  0.00    -0.030 C 
ATOM     13  C   UNL     1     203.198 197.860 202.093  1.00  0.00     0.004 C 
ENDBRANCH  11  12
ENDBRANCH   5  11
TORSDOF 4
ENDMDL
MODEL 2
REMARK VINA RESULT:    -4.815      2.309      4.312
REMARK INTER + INTRA:          -5.998
REMARK INTER:                  -5.815
REMARK INTRA:                  -0.182
REMARK UNBOUND:                -0.198
REMARK SMILES C=CCc1ccc(O)c(OC)c1
REMARK SMILES IDX 9 1 7 2 6 3 5 4 4 5 12 6 10 7 11 8 8 9 3 11 2 12 1 13
REMARK H PARENT 8 10
REMARK Flexibility Score: inf
ROOT
ATOM      1  C   UNL     1     205.344 199.411 202.071  1.00  0.00     0.160 A 
ATOM      2  C   UNL     1     204.856 200.266 203.070  1.00  0.00     0.157 A 
ATOM      3  C   UNL     1     205.061 201.647 202.975  1.00  0.00     0.050 A 
ATOM      4  C   UNL     1     205.750 202.184 201.886  1.00  0.00     0.008 A 
ATOM      5  C   UNL     1     206.235 201.344 200.874  1.00  0.00    -0.040 A 
ATOM      6  C   UNL     1     206.037 199.957 200.973  1.00  0.00     0.054 A 
ENDROOT
BRANCH   1   7
ATOM      7  O   UNL     1     205.124 198.031 202.205  1.00  0.00    -0.493 OA
ATOM      8  C   UNL     1     203.994 197.340 201.680  1.00  0.00     0.278 C 
ENDBRANCH   1   7
BRANCH   2   9
ATOM      9  O   UNL     1     204.167 199.730 204.158  1.00  0.00    -0.504 OA
ATOM     10  H   UNL     1     204.067 200.244 205.026  1.00  0.00     0.293 HD
ENDBRANCH   2   9
BRANCH   5  11
ATOM     11  C   UNL     1     207.004 201.924 199.715  1.00  0.00     0.062 C 
BRANCH  11  12
ATOM     12  C   UNL     1     207.057 200.951 198.571  1.00  0.00    -0.030 C 
ATOM     13  C   UNL     1     207.329 201.347 197.324  1.00  0.00     0.004 C 
ENDBRANCH  11  12
ENDBRANCH   5  11
TORSDOF 4
ENDMDL
MODEL 3
REMARK VINA RESULT:    -4.811     14.744     16.944
REMARK INTER + INTRA:          -5.993
REMARK INTER:                  -5.847
REMARK INTRA:                  -0.146
REMARK UNBOUND:                -0.198
REMARK SMILES C=CCc1ccc(O)c(OC)c1
REMARK SMILES IDX 9 1 7 2 6 3 5 4 4 5 12 6 10 7 11 8 8 9 3 11 2 12 1 13
REMARK H PARENT 8 10
REMARK Flexibility Score: inf
ROOT
ATOM      1  C   UNL     1     190.170 196.290 201.879  1.00  0.00     0.160 A 
ATOM      2  C   UNL     1     190.777 195.456 202.831  1.00  0.00     0.157 A 
ATOM      3  C   UNL     1     190.605 194.068 202.760  1.00  0.00     0.050 A 
ATOM      4  C   UNL     1     189.833 193.504 201.743  1.00  0.00     0.008 A 
ATOM      5  C   UNL     1     189.229 194.323 200.779  1.00  0.00    -0.040 A 
ATOM      6  C   UNL     1     189.393 195.716 200.854  1.00  0.00     0.054 A 
ENDROOT
BRANCH   1   7
ATOM      7  O   UNL     1     190.361 197.677 201.987  1.00  0.00    -0.493 OA
ATOM      8  C   UNL     1     191.508 198.372 201.509  1.00  0.00     0.278 C 
ENDBRANCH   1   7
BRANCH   2   9
ATOM      9  O   UNL     1     191.548 196.018 203.847  1.00  0.00    -0.504 OA
ATOM     10  H   UNL     1     191.240 196.840 204.353  1.00  0.00     0.293 HD
ENDBRANCH   2   9
BRANCH   5  11
ATOM     11  C   UNL     1     188.371 193.714 199.700  1.00  0.00     0.062 C 
BRANCH  11  12
ATOM     12  C   UNL     1     188.145 194.694 198.583  1.00  0.00    -0.030 C 
ATOM     13  C   UNL     1     188.467 194.404 197.318  1.00  0.00     0.004 C 
ENDBRANCH  11  12
ENDBRANCH   5  11
TORSDOF 4
ENDMDL
MODEL 4
REMARK VINA RESULT:    -4.689      2.999      5.183
REMARK INTER + INTRA:          -5.846
REMARK INTER:                  -5.689
REMARK INTRA:                  -0.157
REMARK UNBOUND:                -0.198
REMARK SMILES C=CCc1ccc(O)c(OC)c1
REMARK SMILES IDX 9 1 7 2 6 3 5 4 4 5 12 6 10 7 11 8 8 9 3 11 2 12 1 13
REMARK H PARENT 8 10
REMARK Flexibility Score: inf
ROOT
ATOM      1  C   UNL     1     203.167 198.925 202.372  1.00  0.00     0.160 A 
ATOM      2  C   UNL     1     204.109 197.940 202.041  1.00  0.00     0.157 A 
ATOM      3  C   UNL     1     205.446 198.292 201.822  1.00  0.00     0.050 A 
ATOM      4  C   UNL     1     205.852 199.623 201.933  1.00  0.00     0.008 A 
ATOM      5  C   UNL     1     204.924 200.618 202.273  1.00  0.00    -0.040 A 
ATOM      6  C   UNL     1     203.581 200.267 202.484  1.00  0.00     0.054 A 
ENDROOT
BRANCH   1   7
ATOM      7  O   UNL     1     201.834 198.533 202.578  1.00  0.00    -0.493 OA
ATOM      8  C   UNL     1     200.803 198.641 201.602  1.00  0.00     0.278 C 
ENDBRANCH   1   7
BRANCH   2   9
ATOM      9  O   UNL     1     203.705 196.610 201.930  1.00  0.00    -0.504 OA
ATOM     10  H   UNL     1     203.031 196.206 202.570  1.00  0.00     0.293 HD
ENDBRANCH   2   9
BRANCH   5  11
ATOM     11  C   UNL     1     205.359 202.058 202.363  1.00  0.00     0.062 C 
BRANCH  11  12
ATOM     12  C   UNL     1     205.670 202.606 200.998  1.00  0.00    -0.030 C 
ATOM     13  C   UNL     1     206.916 202.612 200.511  1.00  0.00     0.004 C 
ENDBRANCH  11  12
ENDBRANCH   5  11
TORSDOF 4
ENDMDL
MODEL 5
REMARK VINA RESULT:    -4.369     11.671     13.511
REMARK INTER + INTRA:          -5.461
REMARK INTER:                  -5.216
REMARK INTRA:                  -0.245
REMARK UNBOUND:                -0.198
REMARK SMILES C=CCc1ccc(O)c(OC)c1
REMARK SMILES IDX 9 1 7 2 6 3 5 4 4 5 12 6 10 7 11 8 8 9 3 11 2 12 1 13
REMARK H PARENT 8 10
REMARK Flexibility Score: inf
ROOT
ATOM      1  C   UNL     1     200.064 191.418 195.592  1.00  0.00     0.160 A 
ATOM      2  C   UNL     1     199.919 192.703 195.049  1.00  0.00     0.157 A 
ATOM      3  C   UNL     1     199.859 192.877 193.661  1.00  0.00     0.050 A 
ATOM      4  C   UNL     1     199.941 191.775 192.808  1.00  0.00     0.008 A 
ATOM      5  C   UNL     1     200.076 190.483 193.336  1.00  0.00    -0.040 A 
ATOM      6  C   UNL     1     200.144 190.309 194.728  1.00  0.00     0.054 A 
ENDROOT
BRANCH   1   7
ATOM      7  O   UNL     1     200.126 191.286 196.989  1.00  0.00    -0.493 OA
ATOM      8  C   UNL     1     199.029 190.901 197.811  1.00  0.00     0.278 C 
ENDBRANCH   1   7
BRANCH   2   9
ATOM      9  O   UNL     1     199.837 193.805 195.899  1.00  0.00    -0.504 OA
ATOM     10  H   UNL     1     199.063 194.458 195.847  1.00  0.00     0.293 HD
ENDBRANCH   2   9
BRANCH   5  11
ATOM     11  C   UNL     1     200.194 189.298 192.412  1.00  0.00     0.062 C 
BRANCH  11  12
ATOM     12  C   UNL     1     201.423 188.495 192.733  1.00  0.00    -0.030 C 
ATOM     13  C   UNL     1     202.531 188.578 191.988  1.00  0.00     0.004 C 
ENDBRANCH  11  12
ENDBRANCH   5  11
TORSDOF 4
ENDMDL
MODEL 6
REMARK VINA RESULT:    -4.317     12.466     13.563
REMARK INTER + INTRA:          -5.398
REMARK INTER:                  -5.206
REMARK INTRA:                  -0.192
REMARK UNBOUND:                -0.198
REMARK SMILES C=CCc1ccc(O)c(OC)c1
REMARK SMILES IDX 9 1 7 2 6 3 5 4 4 5 12 6 10 7 11 8 8 9 3 11 2 12 1 13
REMARK H PARENT 8 10
REMARK Flexibility Score: inf
ROOT
ATOM      1  C   UNL     1     198.233 189.789 201.842  1.00  0.00     0.160 A 
ATOM      2  C   UNL     1     197.454 189.506 202.974  1.00  0.00     0.157 A 
ATOM      3  C   UNL     1     198.011 188.811 204.054  1.00  0.00     0.050 A 
ATOM      4  C   UNL     1     199.344 188.398 204.015  1.00  0.00     0.008 A 
ATOM      5  C   UNL     1     200.139 188.683 202.896  1.00  0.00    -0.040 A 
ATOM      6  C   UNL     1     199.578 189.372 201.808  1.00  0.00     0.054 A 
ENDROOT
BRANCH   1   7
ATOM      7  O   UNL     1     197.637 190.482 200.776  1.00  0.00    -0.493 OA
ATOM      8  C   UNL     1     197.809 190.149 199.402  1.00  0.00     0.278 C 
ENDBRANCH   1   7
BRANCH   2   9
ATOM      9  O   UNL     1     196.123 189.918 203.014  1.00  0.00    -0.504 OA
ATOM     10  H   UNL     1     195.385 189.297 203.325  1.00  0.00     0.293 HD
ENDBRANCH   2   9
BRANCH   5  11
ATOM     11  C   UNL     1     201.568 188.209 202.844  1.00  0.00     0.062 C 
BRANCH  11  12
ATOM     12  C   UNL     1     202.400 189.121 201.988  1.00  0.00    -0.030 C 
ATOM     13  C   UNL     1     203.530 188.704 201.407  1.00  0.00     0.004 C 
ENDBRANCH  11  12
ENDBRANCH   5  11
TORSDOF 4
ENDMDL
MODEL 7
REMARK VINA RESULT:    -4.293     13.012     13.989
REMARK INTER + INTRA:          -5.369
REMARK INTER:                  -5.127
REMARK INTRA:                  -0.242
REMARK UNBOUND:                -0.198
REMARK SMILES C=CCc1ccc(O)c(OC)c1
REMARK SMILES IDX 9 1 7 2 6 3 5 4 4 5 12 6 10 7 11 8 8 9 3 11 2 12 1 13
REMARK H PARENT 8 10
REMARK Flexibility Score: inf
ROOT
ATOM      1  C   UNL     1     195.350 204.389 195.562  1.00  0.00     0.160 A 
ATOM      2  C   UNL     1     195.348 203.150 194.903  1.00  0.00     0.157 A 
ATOM      3  C   UNL     1     195.324 203.098 193.504  1.00  0.00     0.050 A 
ATOM      4  C   UNL     1     195.305 204.276 192.755  1.00  0.00     0.008 A 
ATOM      5  C   UNL     1     195.318 205.522 193.399  1.00  0.00    -0.040 A 
ATOM      6  C   UNL     1     195.333 205.574 194.802  1.00  0.00     0.054 A 
ENDROOT
BRANCH   1   7
ATOM      7  O   UNL     1     195.368 204.399 196.966  1.00  0.00    -0.493 OA
ATOM      8  C   UNL     1     196.536 204.601 197.755  1.00  0.00     0.278 C 
ENDBRANCH   1   7
BRANCH   2   9
ATOM      9  O   UNL     1     195.367 201.973 195.650  1.00  0.00    -0.504 OA
ATOM     10  H   UNL     1     195.448 201.988 196.660  1.00  0.00     0.293 HD
ENDBRANCH   2   9
BRANCH   5  11
ATOM     11  C   UNL     1     195.266 206.792 192.588  1.00  0.00     0.062 C 
BRANCH  11  12
ATOM     12  C   UNL     1     194.094 207.638 192.999  1.00  0.00    -0.030 C 
ATOM     13  C   UNL     1     192.995 207.730 192.243  1.00  0.00     0.004 C 
ENDBRANCH  11  12
ENDBRANCH   5  11
TORSDOF 4
ENDMDL
MODEL 8
REMARK VINA RESULT:    -4.261     10.718     12.393
REMARK INTER + INTRA:          -5.331
REMARK INTER:                  -5.047
REMARK INTRA:                  -0.284
REMARK UNBOUND:                -0.198
REMARK SMILES C=CCc1ccc(O)c(OC)c1
REMARK SMILES IDX 9 1 7 2 6 3 5 4 4 5 12 6 10 7 11 8 8 9 3 11 2 12 1 13
REMARK H PARENT 8 10
REMARK Flexibility Score: inf
ROOT
ATOM      1  C   UNL     1     197.047 194.852 195.994  1.00  0.00     0.160 A 
ATOM      2  C   UNL     1     196.058 194.181 195.259  1.00  0.00     0.157 A 
ATOM      3  C   UNL     1     196.385 193.034 194.525  1.00  0.00     0.050 A 
ATOM      4  C   UNL     1     197.694 192.548 194.523  1.00  0.00     0.008 A 
ATOM      5  C   UNL     1     198.691 193.201 195.261  1.00  0.00    -0.040 A 
ATOM      6  C   UNL     1     198.366 194.357 195.990  1.00  0.00     0.054 A 
ENDROOT
BRANCH   1   7
ATOM      7  O   UNL     1     196.682 196.002 196.712  1.00  0.00    -0.493 OA
ATOM      8  C   UNL     1     196.903 196.186 198.107  1.00  0.00     0.278 C 
ENDBRANCH   1   7
BRANCH   2   9
ATOM      9  O   UNL     1     194.751 194.666 195.261  1.00  0.00    -0.504 OA
ATOM     10  H   UNL     1     193.964 194.065 195.475  1.00  0.00     0.293 HD
ENDBRANCH   2   9
BRANCH   5  11
ATOM     11  C   UNL     1     200.108 192.691 195.232  1.00  0.00     0.062 C 
BRANCH  11  12
ATOM     12  C   UNL     1     200.173 191.270 195.716  1.00  0.00    -0.030 C 
ATOM     13  C   UNL     1     200.031 190.960 197.009  1.00  0.00     0.004 C 
ENDBRANCH  11  12
ENDBRANCH   5  11
TORSDOF 4
ENDMDL
MODEL 9
REMARK VINA RESULT:    -4.255     11.346     12.599
REMARK INTER + INTRA:          -5.324
REMARK INTER:                  -5.093
REMARK INTRA:                  -0.231
REMARK UNBOUND:                -0.198
REMARK SMILES C=CCc1ccc(O)c(OC)c1
REMARK SMILES IDX 9 1 7 2 6 3 5 4 4 5 12 6 10 7 11 8 8 9 3 11 2 12 1 13
REMARK H PARENT 8 10
REMARK Flexibility Score: inf
ROOT
ATOM      1  C   UNL     1     196.117 205.609 203.003  1.00  0.00     0.160 A 
ATOM      2  C   UNL     1     196.085 206.752 203.815  1.00  0.00     0.157 A 
ATOM      3  C   UNL     1     194.979 207.610 203.777  1.00  0.00     0.050 A 
ATOM      4  C   UNL     1     193.900 207.333 202.935  1.00  0.00     0.008 A 
ATOM      5  C   UNL     1     193.913 206.188 202.126  1.00  0.00    -0.040 A 
ATOM      6  C   UNL     1     195.026 205.332 202.157  1.00  0.00     0.054 A 
ENDROOT
BRANCH   1   7
ATOM      7  O   UNL     1     197.246 204.777 203.065  1.00  0.00    -0.493 OA
ATOM      8  C   UNL     1     198.332 204.822 202.144  1.00  0.00     0.278 C 
ENDBRANCH   1   7
BRANCH   2   9
ATOM      9  O   UNL     1     197.161 207.030 204.656  1.00  0.00    -0.504 OA
ATOM     10  H   UNL     1     197.152 207.825 205.284  1.00  0.00     0.293 HD
ENDBRANCH   2   9
BRANCH   5  11
ATOM     11  C   UNL     1     192.760 205.908 201.196  1.00  0.00     0.062 C 
BRANCH  11  12
ATOM     12  C   UNL     1     191.775 207.043 201.213  1.00  0.00    -0.030 C 
ATOM     13  C   UNL     1     191.615 207.850 200.159  1.00  0.00     0.004 C 
ENDBRANCH  11  12
ENDBRANCH   5  11
TORSDOF 4
ENDMDL
