MODEL 1
REMARK VINA RESULT:    -6.084      0.000      0.000
REMARK INTER + INTRA:          -7.884
REMARK INTER:                  -7.507
REMARK INTRA:                  -0.378
REMARK UNBOUND:                -0.378
REMARK SMILES Oc1cc(O)c2cc(O)c(-c3cc(O)c(O)c(O)c3)[o+]c2c1
REMARK SMILES IDX 10 1 20 2 21 3 22 4 2 5 3 6 4 7 6 8 7 9 8 10 11 11 12 12
REMARK SMILES IDX 13 13 19 14 15 15 17 16 14 17 16 19 18 21 9 23 1 25 5 27
REMARK H PARENT 14 18 16 20 18 22 9 24 1 26 5 28
REMARK Flexibility Score: inf
ROOT
ATOM      1  C   UNL     1      27.977   9.451  27.485  1.00  0.00     0.402 A 
ATOM      2  O   UNL     1      26.883   8.878  27.981  1.00  0.00    -0.202 OA
ATOM      3  C   UNL     1      26.112   8.051  27.283  1.00  0.00     0.368 A 
ATOM      4  C   UNL     1      24.984   7.496  27.893  1.00  0.00     0.162 A 
ATOM      5  C   UNL     1      24.158   6.622  27.185  1.00  0.00     0.128 A 
ATOM      6  C   UNL     1      24.462   6.298  25.858  1.00  0.00     0.093 A 
ATOM      7  C   UNL     1      25.586   6.840  25.225  1.00  0.00     0.136 A 
ATOM      8  C   UNL     1      26.427   7.732  25.941  1.00  0.00     0.125 A 
ATOM      9  C   UNL     1      27.567   8.334  25.383  1.00  0.00     0.078 A 
ATOM     10  C   UNL     1      28.344   9.206  26.149  1.00  0.00     0.223 A 
ENDROOT
BRANCH   1  11
ATOM     11  C   UNL     1      28.758  10.349  28.366  1.00  0.00     0.091 A 
ATOM     12  C   UNL     1      28.467  11.722  28.386  1.00  0.00     0.068 A 
ATOM     13  C   UNL     1      29.177  12.591  29.226  1.00  0.00     0.162 A 
ATOM     14  C   UNL     1      29.749   9.848  29.228  1.00  0.00     0.068 A 
ATOM     15  C   UNL     1      30.181  12.084  30.069  1.00  0.00     0.200 A 
ATOM     16  C   UNL     1      30.461  10.712  30.070  1.00  0.00     0.162 A 
BRANCH  13  17
ATOM     17  O   UNL     1      28.889  13.955  29.227  1.00  0.00    -0.504 OA
ATOM     18  H   UNL     1      29.611  14.649  29.382  1.00  0.00     0.293 HD
ENDBRANCH  13  17
BRANCH  15  19
ATOM     19  O   UNL     1      30.904  12.928  30.912  1.00  0.00    -0.502 OA
ATOM     20  H   UNL     1      31.284  13.811  30.592  1.00  0.00     0.293 HD
ENDBRANCH  15  19
BRANCH  16  21
ATOM     21  O   UNL     1      31.449  10.211  30.918  1.00  0.00    -0.504 OA
ATOM     22  H   UNL     1      31.849  10.775  31.658  1.00  0.00     0.293 HD
ENDBRANCH  16  21
ENDBRANCH   1  11
BRANCH  10  23
ATOM     23  O   UNL     1      29.448   9.843  25.581  1.00  0.00    -0.500 OA
ATOM     24  H   UNL     1      29.374  10.760  25.158  1.00  0.00     0.294 HD
ENDBRANCH  10  23
BRANCH   5  25
ATOM     25  O   UNL     1      23.037   6.079  27.810  1.00  0.00    -0.507 OA
ATOM     26  H   UNL     1      23.097   5.656  28.729  1.00  0.00     0.293 HD
ENDBRANCH   5  25
BRANCH   7  27
ATOM     27  O   UNL     1      25.822   6.464  23.899  1.00  0.00    -0.507 OA
ATOM     28  H   UNL     1      26.664   6.010  23.576  1.00  0.00     0.293 HD
ENDBRANCH   7  27
TORSDOF 7
ENDMDL
MODEL 2
REMARK VINA RESULT:    -5.808      1.410      3.370
REMARK INTER + INTRA:          -7.544
REMARK INTER:                  -7.312
REMARK INTRA:                  -0.232
REMARK UNBOUND:                -0.378
REMARK SMILES Oc1cc(O)c2cc(O)c(-c3cc(O)c(O)c(O)c3)[o+]c2c1
REMARK SMILES IDX 10 1 20 2 21 3 22 4 2 5 3 6 4 7 6 8 7 9 8 10 11 11 12 12
REMARK SMILES IDX 13 13 19 14 15 15 17 16 14 17 16 19 18 21 9 23 1 25 5 27
REMARK H PARENT 14 18 16 20 18 22 9 24 1 26 5 28
REMARK Flexibility Score: inf
ROOT
ATOM      1  C   UNL     1      28.012   9.256  27.324  1.00  0.00     0.402 A 
ATOM      2  O   UNL     1      28.737   8.560  26.451  1.00  0.00    -0.202 OA
ATOM      3  C   UNL     1      28.209   7.707  25.579  1.00  0.00     0.368 A 
ATOM      4  C   UNL     1      29.054   7.025  24.699  1.00  0.00     0.162 A 
ATOM      5  C   UNL     1      28.528   6.125  23.772  1.00  0.00     0.128 A 
ATOM      6  C   UNL     1      27.146   5.906  23.720  1.00  0.00     0.093 A 
ATOM      7  C   UNL     1      26.279   6.578  24.591  1.00  0.00     0.136 A 
ATOM      8  C   UNL     1      26.812   7.491  25.538  1.00  0.00     0.125 A 
ATOM      9  C   UNL     1      26.020   8.198  26.457  1.00  0.00     0.078 A 
ATOM     10  C   UNL     1      26.617   9.078  27.365  1.00  0.00     0.223 A 
ENDROOT
BRANCH   1  11
ATOM     11  C   UNL     1      28.716  10.182  28.239  1.00  0.00     0.091 A 
ATOM     12  C   UNL     1      29.698   9.681  29.108  1.00  0.00     0.068 A 
ATOM     13  C   UNL     1      30.394  10.539  29.970  1.00  0.00     0.162 A 
ATOM     14  C   UNL     1      28.465  11.565  28.217  1.00  0.00     0.068 A 
ATOM     15  C   UNL     1      30.121  11.918  29.955  1.00  0.00     0.200 A 
ATOM     16  C   UNL     1      29.159  12.428  29.075  1.00  0.00     0.162 A 
BRANCH  13  17
ATOM     17  O   UNL     1      31.357  10.029  30.839  1.00  0.00    -0.504 OA
ATOM     18  H   UNL     1      32.318   9.895  30.547  1.00  0.00     0.293 HD
ENDBRANCH  13  17
BRANCH  15  19
ATOM     19  O   UNL     1      30.798  12.793  30.805  1.00  0.00    -0.502 OA
ATOM     20  H   UNL     1      31.807  12.884  30.791  1.00  0.00     0.293 HD
ENDBRANCH  15  19
BRANCH  16  21
ATOM     21  O   UNL     1      28.900  13.798  29.054  1.00  0.00    -0.504 OA
ATOM     22  H   UNL     1      29.516  14.448  28.580  1.00  0.00     0.293 HD
ENDBRANCH  16  21
ENDBRANCH   1  11
BRANCH  10  23
ATOM     23  O   UNL     1      25.837   9.743  28.311  1.00  0.00    -0.500 OA
ATOM     24  H   UNL     1      24.984  10.225  28.054  1.00  0.00     0.294 HD
ENDBRANCH  10  23
BRANCH   5  25
ATOM     25  O   UNL     1      29.386   5.454  22.903  1.00  0.00    -0.507 OA
ATOM     26  H   UNL     1      29.388   4.443  22.838  1.00  0.00     0.293 HD
ENDBRANCH   5  25
BRANCH   7  27
ATOM     27  O   UNL     1      24.913   6.306  24.474  1.00  0.00    -0.507 OA
ATOM     28  H   UNL     1      24.186   7.007  24.514  1.00  0.00     0.293 HD
ENDBRANCH   7  27
TORSDOF 7
ENDMDL
MODEL 3
REMARK VINA RESULT:    -5.770      1.378      2.805
REMARK INTER + INTRA:          -7.497
REMARK INTER:                  -7.328
REMARK INTRA:                  -0.170
REMARK UNBOUND:                -0.378
REMARK SMILES Oc1cc(O)c2cc(O)c(-c3cc(O)c(O)c(O)c3)[o+]c2c1
REMARK SMILES IDX 10 1 20 2 21 3 22 4 2 5 3 6 4 7 6 8 7 9 8 10 11 11 12 12
REMARK SMILES IDX 13 13 19 14 15 15 17 16 14 17 16 19 18 21 9 23 1 25 5 27
REMARK H PARENT 14 18 16 20 18 22 9 24 1 26 5 28
REMARK Flexibility Score: inf
ROOT
ATOM      1  C   UNL     1      28.015   9.246  27.350  1.00  0.00     0.402 A 
ATOM      2  O   UNL     1      28.703   8.524  26.469  1.00  0.00    -0.202 OA
ATOM      3  C   UNL     1      28.138   7.668  25.625  1.00  0.00     0.368 A 
ATOM      4  C   UNL     1      28.946   6.957  24.734  1.00  0.00     0.162 A 
ATOM      5  C   UNL     1      28.380   6.053  23.835  1.00  0.00     0.128 A 
ATOM      6  C   UNL     1      26.993   5.859  23.824  1.00  0.00     0.093 A 
ATOM      7  C   UNL     1      26.162   6.559  24.706  1.00  0.00     0.136 A 
ATOM      8  C   UNL     1      26.736   7.477  25.624  1.00  0.00     0.125 A 
ATOM      9  C   UNL     1      25.981   8.211  26.553  1.00  0.00     0.078 A 
ATOM     10  C   UNL     1      26.618   9.094  27.431  1.00  0.00     0.223 A 
ENDROOT
BRANCH   1  11
ATOM     11  C   UNL     1      28.759  10.173  28.232  1.00  0.00     0.091 A 
ATOM     12  C   UNL     1      28.451  11.543  28.210  1.00  0.00     0.068 A 
ATOM     13  C   UNL     1      29.126  12.440  29.049  1.00  0.00     0.162 A 
ATOM     14  C   UNL     1      29.729   9.705  29.135  1.00  0.00     0.068 A 
ATOM     15  C   UNL     1      30.110  11.965  29.935  1.00  0.00     0.200 A 
ATOM     16  C   UNL     1      30.405  10.597  29.978  1.00  0.00     0.162 A 
BRANCH  13  17
ATOM     17  O   UNL     1      28.823  13.800  29.009  1.00  0.00    -0.504 OA
ATOM     18  H   UNL     1      29.309  14.469  29.594  1.00  0.00     0.293 HD
ENDBRANCH  13  17
BRANCH  15  19
ATOM     19  O   UNL     1      30.797  12.838  30.778  1.00  0.00    -0.502 OA
ATOM     20  H   UNL     1      31.084  12.570  31.712  1.00  0.00     0.293 HD
ENDBRANCH  15  19
BRANCH  16  21
ATOM     21  O   UNL     1      31.372  10.129  30.866  1.00  0.00    -0.504 OA
ATOM     22  H   UNL     1      31.486  10.532  31.789  1.00  0.00     0.293 HD
ENDBRANCH  16  21
ENDBRANCH   1  11
BRANCH  10  23
ATOM     23  O   UNL     1      25.876   9.787  28.387  1.00  0.00    -0.500 OA
ATOM     24  H   UNL     1      25.946   9.572  29.374  1.00  0.00     0.294 HD
ENDBRANCH  10  23
BRANCH   5  25
ATOM     25  O   UNL     1      29.202   5.354  22.955  1.00  0.00    -0.507 OA
ATOM     26  H   UNL     1      29.848   5.834  22.339  1.00  0.00     0.293 HD
ENDBRANCH   5  25
BRANCH   7  27
ATOM     27  O   UNL     1      24.789   6.310  24.630  1.00  0.00    -0.507 OA
ATOM     28  H   UNL     1      24.083   7.027  24.536  1.00  0.00     0.293 HD
ENDBRANCH   7  27
TORSDOF 7
ENDMDL
MODEL 4
REMARK VINA RESULT:    -5.618      2.273      2.339
REMARK INTER + INTRA:          -7.310
REMARK INTER:                  -7.463
REMARK INTRA:                   0.153
REMARK UNBOUND:                -0.378
REMARK SMILES Oc1cc(O)c2cc(O)c(-c3cc(O)c(O)c(O)c3)[o+]c2c1
REMARK SMILES IDX 10 1 20 2 21 3 22 4 2 5 3 6 4 7 6 8 7 9 8 10 11 11 12 12
REMARK SMILES IDX 13 13 19 14 15 15 17 16 14 17 16 19 18 21 9 23 1 25 5 27
REMARK H PARENT 14 18 16 20 18 22 9 24 1 26 5 28
REMARK Flexibility Score: inf
ROOT
ATOM      1  C   UNL     1      28.518   9.477  26.560  1.00  0.00     0.402 A 
ATOM      2  O   UNL     1      27.342   9.808  26.032  1.00  0.00    -0.202 OA
ATOM      3  C   UNL     1      26.796   9.165  25.006  1.00  0.00     0.368 A 
ATOM      4  C   UNL     1      25.554   9.586  24.524  1.00  0.00     0.162 A 
ATOM      5  C   UNL     1      24.955   8.928  23.448  1.00  0.00     0.128 A 
ATOM      6  C   UNL     1      25.601   7.840  22.850  1.00  0.00     0.093 A 
ATOM      7  C   UNL     1      26.846   7.399  23.315  1.00  0.00     0.136 A 
ATOM      8  C   UNL     1      27.459   8.068  24.407  1.00  0.00     0.125 A 
ATOM      9  C   UNL     1      28.711   7.703  24.930  1.00  0.00     0.078 A 
ATOM     10  C   UNL     1      29.254   8.413  26.005  1.00  0.00     0.223 A 
ENDROOT
BRANCH   1  11
ATOM     11  C   UNL     1      29.018  10.265  27.710  1.00  0.00     0.091 A 
ATOM     12  C   UNL     1      28.625  11.605  27.851  1.00  0.00     0.068 A 
ATOM     13  C   UNL     1      29.066  12.368  28.941  1.00  0.00     0.162 A 
ATOM     14  C   UNL     1      29.831   9.684  28.697  1.00  0.00     0.068 A 
ATOM     15  C   UNL     1      29.897  11.784  29.913  1.00  0.00     0.200 A 
ATOM     16  C   UNL     1      30.274  10.441  29.790  1.00  0.00     0.162 A 
BRANCH  13  17
ATOM     17  O   UNL     1      28.681  13.702  29.063  1.00  0.00    -0.504 OA
ATOM     18  H   UNL     1      28.324  14.226  28.273  1.00  0.00     0.293 HD
ENDBRANCH  13  17
BRANCH  15  19
ATOM     19  O   UNL     1      30.351  12.522  31.005  1.00  0.00    -0.502 OA
ATOM     20  H   UNL     1      30.713  13.464  30.906  1.00  0.00     0.293 HD
ENDBRANCH  15  19
BRANCH  16  21
ATOM     21  O   UNL     1      31.088   9.862  30.763  1.00  0.00    -0.504 OA
ATOM     22  H   UNL     1      32.049   9.608  30.569  1.00  0.00     0.293 HD
ENDBRANCH  16  21
ENDBRANCH   1  11
BRANCH  10  23
ATOM     23  O   UNL     1      30.518   8.084  26.493  1.00  0.00    -0.500 OA
ATOM     24  H   UNL     1      31.083   8.754  27.002  1.00  0.00     0.294 HD
ENDBRANCH  10  23
BRANCH   5  25
ATOM     25  O   UNL     1      23.716   9.363  22.982  1.00  0.00    -0.507 OA
ATOM     26  H   UNL     1      22.851   9.054  23.410  1.00  0.00     0.293 HD
ENDBRANCH   5  25
BRANCH   7  27
ATOM     27  O   UNL     1      27.423   6.304  22.667  1.00  0.00    -0.507 OA
ATOM     28  H   UNL     1      27.200   6.015  21.725  1.00  0.00     0.293 HD
ENDBRANCH   7  27
TORSDOF 7
ENDMDL
MODEL 5
REMARK VINA RESULT:    -5.571      2.227      4.409
REMARK INTER + INTRA:          -7.251
REMARK INTER:                  -6.890
REMARK INTRA:                  -0.361
REMARK UNBOUND:                -0.378
REMARK SMILES Oc1cc(O)c2cc(O)c(-c3cc(O)c(O)c(O)c3)[o+]c2c1
REMARK SMILES IDX 10 1 20 2 21 3 22 4 2 5 3 6 4 7 6 8 7 9 8 10 11 11 12 12
REMARK SMILES IDX 13 13 19 14 15 15 17 16 14 17 16 19 18 21 9 23 1 25 5 27
REMARK H PARENT 14 18 16 20 18 22 9 24 1 26 5 28
REMARK Flexibility Score: inf
ROOT
ATOM      1  C   UNL     1      29.412   9.113  27.365  1.00  0.00     0.402 A 
ATOM      2  O   UNL     1      30.239   9.162  26.324  1.00  0.00    -0.202 OA
ATOM      3  C   UNL     1      30.153   8.340  25.284  1.00  0.00     0.368 A 
ATOM      4  C   UNL     1      31.068   8.472  24.236  1.00  0.00     0.162 A 
ATOM      5  C   UNL     1      31.001   7.624  23.130  1.00  0.00     0.128 A 
ATOM      6  C   UNL     1      30.010   6.636  23.069  1.00  0.00     0.093 A 
ATOM      7  C   UNL     1      29.082   6.484  24.106  1.00  0.00     0.136 A 
ATOM      8  C   UNL     1      29.150   7.343  25.234  1.00  0.00     0.125 A 
ATOM      9  C   UNL     1      28.271   7.254  26.325  1.00  0.00     0.078 A 
ATOM     10  C   UNL     1      28.403   8.133  27.404  1.00  0.00     0.223 A 
ENDROOT
BRANCH   1  11
ATOM     11  C   UNL     1      29.604  10.090  28.461  1.00  0.00     0.091 A 
ATOM     12  C   UNL     1      30.353   9.724  29.590  1.00  0.00     0.068 A 
ATOM     13  C   UNL     1      30.568  10.636  30.631  1.00  0.00     0.162 A 
ATOM     14  C   UNL     1      29.102  11.400  28.370  1.00  0.00     0.068 A 
ATOM     15  C   UNL     1      30.043  11.938  30.541  1.00  0.00     0.200 A 
ATOM     16  C   UNL     1      29.315  12.317  29.407  1.00  0.00     0.162 A 
BRANCH  13  17
ATOM     17  O   UNL     1      31.301  10.257  31.754  1.00  0.00    -0.504 OA
ATOM     18  H   UNL     1      30.975   9.529  32.380  1.00  0.00     0.293 HD
ENDBRANCH  13  17
BRANCH  15  19
ATOM     19  O   UNL     1      30.241  12.863  31.565  1.00  0.00    -0.502 OA
ATOM     20  H   UNL     1      29.832  12.745  32.484  1.00  0.00     0.293 HD
ENDBRANCH  15  19
BRANCH  16  21
ATOM     21  O   UNL     1      28.807  13.612  29.315  1.00  0.00    -0.504 OA
ATOM     22  H   UNL     1      27.821  13.807  29.441  1.00  0.00     0.293 HD
ENDBRANCH  16  21
ENDBRANCH   1  11
BRANCH  10  23
ATOM     23  O   UNL     1      27.562   8.014  28.511  1.00  0.00    -0.500 OA
ATOM     24  H   UNL     1      27.311   7.110  28.894  1.00  0.00     0.294 HD
ENDBRANCH  10  23
BRANCH   5  25
ATOM     25  O   UNL     1      31.921   7.771  22.095  1.00  0.00    -0.507 OA
ATOM     26  H   UNL     1      31.929   8.597  21.507  1.00  0.00     0.293 HD
ENDBRANCH   5  25
BRANCH   7  27
ATOM     27  O   UNL     1      28.123   5.477  23.968  1.00  0.00    -0.507 OA
ATOM     28  H   UNL     1      28.324   4.488  24.011  1.00  0.00     0.293 HD
ENDBRANCH   7  27
TORSDOF 7
ENDMDL
MODEL 6
REMARK VINA RESULT:    -5.569      2.253      2.925
REMARK INTER + INTRA:          -7.248
REMARK INTER:                  -7.509
REMARK INTRA:                   0.260
REMARK UNBOUND:                -0.378
REMARK SMILES Oc1cc(O)c2cc(O)c(-c3cc(O)c(O)c(O)c3)[o+]c2c1
REMARK SMILES IDX 10 1 20 2 21 3 22 4 2 5 3 6 4 7 6 8 7 9 8 10 11 11 12 12
REMARK SMILES IDX 13 13 19 14 15 15 17 16 14 17 16 19 18 21 9 23 1 25 5 27
REMARK H PARENT 14 18 16 20 18 22 9 24 1 26 5 28
REMARK Flexibility Score: inf
ROOT
ATOM      1  C   UNL     1      28.473   9.517  26.660  1.00  0.00     0.402 A 
ATOM      2  O   UNL     1      27.310   9.841  26.101  1.00  0.00    -0.202 OA
ATOM      3  C   UNL     1      26.789   9.187  25.069  1.00  0.00     0.368 A 
ATOM      4  C   UNL     1      25.558   9.602  24.553  1.00  0.00     0.162 A 
ATOM      5  C   UNL     1      24.986   8.932  23.471  1.00  0.00     0.128 A 
ATOM      6  C   UNL     1      25.646   7.838  22.900  1.00  0.00     0.093 A 
ATOM      7  C   UNL     1      26.880   7.403  23.399  1.00  0.00     0.136 A 
ATOM      8  C   UNL     1      27.467   8.084  24.498  1.00  0.00     0.125 A 
ATOM      9  C   UNL     1      28.705   7.726  25.055  1.00  0.00     0.078 A 
ATOM     10  C   UNL     1      29.222   8.448  26.135  1.00  0.00     0.223 A 
ENDROOT
BRANCH   1  11
ATOM     11  C   UNL     1      28.945  10.318  27.813  1.00  0.00     0.091 A 
ATOM     12  C   UNL     1      29.797   9.729  28.760  1.00  0.00     0.068 A 
ATOM     13  C   UNL     1      30.275  10.470  29.850  1.00  0.00     0.162 A 
ATOM     14  C   UNL     1      28.605  11.675  27.950  1.00  0.00     0.068 A 
ATOM     15  C   UNL     1      29.912  11.821  29.990  1.00  0.00     0.200 A 
ATOM     16  C   UNL     1      29.081  12.421  29.036  1.00  0.00     0.162 A 
BRANCH  13  17
ATOM     17  O   UNL     1      31.109   9.871  30.793  1.00  0.00    -0.504 OA
ATOM     18  H   UNL     1      30.901   9.907  31.784  1.00  0.00     0.293 HD
ENDBRANCH  13  17
BRANCH  15  19
ATOM     19  O   UNL     1      30.372  12.579  31.066  1.00  0.00    -0.502 OA
ATOM     20  H   UNL     1      29.879  12.614  31.951  1.00  0.00     0.293 HD
ENDBRANCH  15  19
BRANCH  16  21
ATOM     21  O   UNL     1      28.734  13.765  29.171  1.00  0.00    -0.504 OA
ATOM     22  H   UNL     1      27.955  14.057  29.749  1.00  0.00     0.293 HD
ENDBRANCH  16  21
ENDBRANCH   1  11
BRANCH  10  23
ATOM     23  O   UNL     1      30.475   8.125  26.656  1.00  0.00    -0.500 OA
ATOM     24  H   UNL     1      30.972   7.291  26.370  1.00  0.00     0.294 HD
ENDBRANCH  10  23
BRANCH   5  25
ATOM     25  O   UNL     1      23.758   9.361  22.970  1.00  0.00    -0.507 OA
ATOM     26  H   UNL     1      23.331  10.224  23.284  1.00  0.00     0.293 HD
ENDBRANCH   5  25
BRANCH   7  27
ATOM     27  O   UNL     1      27.474   6.302  22.776  1.00  0.00    -0.507 OA
ATOM     28  H   UNL     1      27.098   5.834  21.963  1.00  0.00     0.293 HD
ENDBRANCH   7  27
TORSDOF 7
ENDMDL
MODEL 7
REMARK VINA RESULT:    -5.526      2.027      2.826
REMARK INTER + INTRA:          -7.196
REMARK INTER:                  -6.827
REMARK INTRA:                  -0.368
REMARK UNBOUND:                -0.378
REMARK SMILES Oc1cc(O)c2cc(O)c(-c3cc(O)c(O)c(O)c3)[o+]c2c1
REMARK SMILES IDX 10 1 20 2 21 3 22 4 2 5 3 6 4 7 6 8 7 9 8 10 11 11 12 12
REMARK SMILES IDX 13 13 19 14 15 15 17 16 14 17 16 19 18 21 9 23 1 25 5 27
REMARK H PARENT 14 18 16 20 18 22 9 24 1 26 5 28
REMARK Flexibility Score: inf
ROOT
ATOM      1  C   UNL     1      29.776   9.505  26.774  1.00  0.00     0.402 A 
ATOM      2  O   UNL     1      28.661   8.832  26.501  1.00  0.00    -0.202 OA
ATOM      3  C   UNL     1      28.522   8.052  25.435  1.00  0.00     0.368 A 
ATOM      4  C   UNL     1      27.311   7.383  25.235  1.00  0.00     0.162 A 
ATOM      5  C   UNL     1      27.137   6.555  24.125  1.00  0.00     0.128 A 
ATOM      6  C   UNL     1      28.181   6.392  23.208  1.00  0.00     0.093 A 
ATOM      7  C   UNL     1      29.404   7.051  23.385  1.00  0.00     0.136 A 
ATOM      8  C   UNL     1      29.583   7.896  24.512  1.00  0.00     0.125 A 
ATOM      9  C   UNL     1      30.769   8.606  24.763  1.00  0.00     0.078 A 
ATOM     10  C   UNL     1      30.869   9.424  25.892  1.00  0.00     0.223 A 
ENDROOT
BRANCH   1  11
ATOM     11  C   UNL     1      29.812  10.335  28.000  1.00  0.00     0.091 A 
ATOM     12  C   UNL     1      29.157  11.576  28.012  1.00  0.00     0.068 A 
ATOM     13  C   UNL     1      29.157  12.372  29.165  1.00  0.00     0.162 A 
ATOM     14  C   UNL     1      30.440   9.882  29.173  1.00  0.00     0.068 A 
ATOM     15  C   UNL     1      29.806  11.920  30.328  1.00  0.00     0.200 A 
ATOM     16  C   UNL     1      30.442  10.673  30.329  1.00  0.00     0.162 A 
BRANCH  13  17
ATOM     17  O   UNL     1      28.515  13.609  29.162  1.00  0.00    -0.504 OA
ATOM     18  H   UNL     1      27.545  13.705  29.440  1.00  0.00     0.293 HD
ENDBRANCH  13  17
BRANCH  15  19
ATOM     19  O   UNL     1      29.823  12.695  31.487  1.00  0.00    -0.502 OA
ATOM     20  H   UNL     1      29.949  13.700  31.462  1.00  0.00     0.293 HD
ENDBRANCH  15  19
BRANCH  16  21
ATOM     21  O   UNL     1      31.073  10.222  31.488  1.00  0.00    -0.504 OA
ATOM     22  H   UNL     1      30.915   9.290  31.851  1.00  0.00     0.293 HD
ENDBRANCH  16  21
ENDBRANCH   1  11
BRANCH  10  23
ATOM     23  O   UNL     1      32.028  10.168  26.116  1.00  0.00    -0.500 OA
ATOM     24  H   UNL     1      32.225  10.589  27.016  1.00  0.00     0.294 HD
ENDBRANCH  10  23
BRANCH   5  25
ATOM     25  O   UNL     1      25.923   5.897  23.944  1.00  0.00    -0.507 OA
ATOM     26  H   UNL     1      25.877   4.891  23.832  1.00  0.00     0.293 HD
ENDBRANCH   5  25
BRANCH   7  27
ATOM     27  O   UNL     1      30.397   6.833  22.427  1.00  0.00    -0.507 OA
ATOM     28  H   UNL     1      31.209   6.249  22.568  1.00  0.00     0.293 HD
ENDBRANCH   7  27
TORSDOF 7
ENDMDL
MODEL 8
REMARK VINA RESULT:    -5.461      2.586      3.615
REMARK INTER + INTRA:          -7.116
REMARK INTER:                  -6.823
REMARK INTRA:                  -0.293
REMARK UNBOUND:                -0.378
REMARK SMILES Oc1cc(O)c2cc(O)c(-c3cc(O)c(O)c(O)c3)[o+]c2c1
REMARK SMILES IDX 10 1 20 2 21 3 22 4 2 5 3 6 4 7 6 8 7 9 8 10 11 11 12 12
REMARK SMILES IDX 13 13 19 14 15 15 17 16 14 17 16 19 18 21 9 23 1 25 5 27
REMARK H PARENT 14 18 16 20 18 22 9 24 1 26 5 28
REMARK Flexibility Score: inf
ROOT
ATOM      1  C   UNL     1      29.599   9.922  26.591  1.00  0.00     0.402 A 
ATOM      2  O   UNL     1      28.747   8.955  26.259  1.00  0.00    -0.202 OA
ATOM      3  C   UNL     1      29.061   7.951  25.448  1.00  0.00     0.368 A 
ATOM      4  C   UNL     1      28.097   6.981  25.161  1.00  0.00     0.162 A 
ATOM      5  C   UNL     1      28.400   5.914  24.315  1.00  0.00     0.128 A 
ATOM      6  C   UNL     1      29.678   5.813  23.751  1.00  0.00     0.093 A 
ATOM      7  C   UNL     1      30.661   6.771  24.023  1.00  0.00     0.136 A 
ATOM      8  C   UNL     1      30.355   7.860  24.882  1.00  0.00     0.125 A 
ATOM      9  C   UNL     1      31.274   8.874  25.199  1.00  0.00     0.078 A 
ATOM     10  C   UNL     1      30.898   9.918  26.049  1.00  0.00     0.223 A 
ENDROOT
BRANCH   1  11
ATOM     11  C   UNL     1      29.132  10.983  27.512  1.00  0.00     0.091 A 
ATOM     12  C   UNL     1      28.114  11.857  27.099  1.00  0.00     0.068 A 
ATOM     13  C   UNL     1      27.639  12.857  27.958  1.00  0.00     0.162 A 
ATOM     14  C   UNL     1      29.645  11.099  28.815  1.00  0.00     0.068 A 
ATOM     15  C   UNL     1      28.173  12.979  29.253  1.00  0.00     0.200 A 
ATOM     16  C   UNL     1      29.173  12.095  29.679  1.00  0.00     0.162 A 
BRANCH  13  17
ATOM     17  O   UNL     1      26.638  13.728  27.532  1.00  0.00    -0.504 OA
ATOM     18  H   UNL     1      25.756  13.386  27.169  1.00  0.00     0.293 HD
ENDBRANCH  13  17
BRANCH  15  19
ATOM     19  O   UNL     1      27.719  13.967  30.126  1.00  0.00    -0.502 OA
ATOM     20  H   UNL     1      28.187  14.861  30.217  1.00  0.00     0.293 HD
ENDBRANCH  15  19
BRANCH  16  21
ATOM     21  O   UNL     1      29.691  12.211  30.969  1.00  0.00    -0.504 OA
ATOM     22  H   UNL     1      29.855  11.398  31.550  1.00  0.00     0.293 HD
ENDBRANCH  16  21
ENDBRANCH   1  11
BRANCH  10  23
ATOM     23  O   UNL     1      31.793  10.952  26.325  1.00  0.00    -0.500 OA
ATOM     24  H   UNL     1      31.571  11.685  26.989  1.00  0.00     0.294 HD
ENDBRANCH  10  23
BRANCH   5  25
ATOM     25  O   UNL     1      27.425   4.957  24.041  1.00  0.00    -0.507 OA
ATOM     26  H   UNL     1      26.842   5.017  23.214  1.00  0.00     0.293 HD
ENDBRANCH   5  25
BRANCH   7  27
ATOM     27  O   UNL     1      31.912   6.598  23.424  1.00  0.00    -0.507 OA
ATOM     28  H   UNL     1      32.696   6.137  23.863  1.00  0.00     0.293 HD
ENDBRANCH   7  27
TORSDOF 7
ENDMDL
MODEL 9
REMARK VINA RESULT:    -5.346      2.261      3.623
REMARK INTER + INTRA:          -6.974
REMARK INTER:                  -6.619
REMARK INTRA:                  -0.355
REMARK UNBOUND:                -0.378
REMARK SMILES Oc1cc(O)c2cc(O)c(-c3cc(O)c(O)c(O)c3)[o+]c2c1
REMARK SMILES IDX 10 1 20 2 21 3 22 4 2 5 3 6 4 7 6 8 7 9 8 10 11 11 12 12
REMARK SMILES IDX 13 13 19 14 15 15 17 16 14 17 16 19 18 21 9 23 1 25 5 27
REMARK H PARENT 14 18 16 20 18 22 9 24 1 26 5 28
REMARK Flexibility Score: inf
ROOT
ATOM      1  C   UNL     1      27.422   8.115  26.991  1.00  0.00     0.402 A 
ATOM      2  O   UNL     1      27.454   6.992  27.705  1.00  0.00    -0.202 OA
ATOM      3  C   UNL     1      26.367   6.294  28.016  1.00  0.00     0.368 A 
ATOM      4  C   UNL     1      26.503   5.125  28.769  1.00  0.00     0.162 A 
ATOM      5  C   UNL     1      25.380   4.369  29.109  1.00  0.00     0.128 A 
ATOM      6  C   UNL     1      24.110   4.785  28.691  1.00  0.00     0.093 A 
ATOM      7  C   UNL     1      23.947   5.952  27.936  1.00  0.00     0.136 A 
ATOM      8  C   UNL     1      25.088   6.724  27.592  1.00  0.00     0.125 A 
ATOM      9  C   UNL     1      25.018   7.914  26.849  1.00  0.00     0.078 A 
ATOM     10  C   UNL     1      26.186   8.624  26.552  1.00  0.00     0.223 A 
ENDROOT
BRANCH   1  11
ATOM     11  C   UNL     1      28.703   8.798  26.701  1.00  0.00     0.091 A 
ATOM     12  C   UNL     1      29.115   9.865  27.515  1.00  0.00     0.068 A 
ATOM     13  C   UNL     1      30.333  10.516  27.276  1.00  0.00     0.162 A 
ATOM     14  C   UNL     1      29.546   8.364  25.664  1.00  0.00     0.068 A 
ATOM     15  C   UNL     1      31.160  10.089  26.223  1.00  0.00     0.200 A 
ATOM     16  C   UNL     1      30.766   9.010  25.422  1.00  0.00     0.162 A 
BRANCH  13  17
ATOM     17  O   UNL     1      30.725  11.585  28.081  1.00  0.00    -0.504 OA
ATOM     18  H   UNL     1      30.280  11.769  28.973  1.00  0.00     0.293 HD
ENDBRANCH  13  17
BRANCH  15  19
ATOM     19  O   UNL     1      32.376  10.722  25.963  1.00  0.00    -0.502 OA
ATOM     20  H   UNL     1      33.079  10.311  25.362  1.00  0.00     0.293 HD
ENDBRANCH  15  19
BRANCH  16  21
ATOM     21  O   UNL     1      31.595   8.581  24.387  1.00  0.00    -0.504 OA
ATOM     22  H   UNL     1      32.184   7.762  24.482  1.00  0.00     0.293 HD
ENDBRANCH  16  21
ENDBRANCH   1  11
BRANCH  10  23
ATOM     23  O   UNL     1      26.113   9.831  25.859  1.00  0.00    -0.500 OA
ATOM     24  H   UNL     1      25.225  10.256  25.620  1.00  0.00     0.294 HD
ENDBRANCH  10  23
BRANCH   5  25
ATOM     25  O   UNL     1      25.536   3.207  29.860  1.00  0.00    -0.507 OA
ATOM     26  H   UNL     1      24.871   2.444  29.799  1.00  0.00     0.293 HD
ENDBRANCH   5  25
BRANCH   7  27
ATOM     27  O   UNL     1      22.647   6.296  27.555  1.00  0.00    -0.507 OA
ATOM     28  H   UNL     1      22.383   6.588  26.625  1.00  0.00     0.293 HD
ENDBRANCH   7  27
TORSDOF 7
ENDMDL
