MODEL 1
REMARK VINA RESULT:    -6.565      0.000      0.000
REMARK INTER + INTRA:          -7.997
REMARK INTER:                  -7.717
REMARK INTRA:                  -0.280
REMARK UNBOUND:                -0.280
REMARK SMILES O=c1cc(-c2ccc(O)c(O)c2)oc2cc(O)cc(O)c12
REMARK SMILES IDX 4 1 3 2 2 3 1 4 21 5 19 6 18 7 16 8 15 9 14 10 13 11 5 12
REMARK SMILES IDX 6 13 7 14 8 15 12 16 10 17 9 18 11 20 20 22 17 24
REMARK H PARENT 9 19 11 21 20 23 17 25
REMARK Flexibility Score: inf
ROOT
ATOM      1  C   UNL     1      28.909  47.609 140.019  1.00  0.00     0.138 A 
ATOM      2  C   UNL     1      28.402  48.855 140.423  1.00  0.00     0.100 A 
ATOM      3  C   UNL     1      29.266  49.803 140.973  1.00  0.00     0.197 A 
ATOM      4  O   UNL     1      28.800  50.920 141.331  1.00  0.00    -0.289 OA
ATOM      5  C   UNL     1      30.634  49.499 141.113  1.00  0.00     0.107 A 
ATOM      6  C   UNL     1      31.576  50.402 141.661  1.00  0.00     0.134 A 
ATOM      7  C   UNL     1      32.924  50.025 141.760  1.00  0.00     0.093 A 
ATOM      8  C   UNL     1      33.345  48.765 141.322  1.00  0.00     0.123 A 
ATOM      9  C   UNL     1      32.418  47.871 140.781  1.00  0.00     0.094 A 
ATOM     10  C   UNL     1      31.071  48.227 140.673  1.00  0.00     0.146 A 
ATOM     11  O   UNL     1      30.210  47.357 140.156  1.00  0.00    -0.456 OA
ENDROOT
BRANCH   1  12
ATOM     12  C   UNL     1      28.039  46.563 139.426  1.00  0.00     0.021 A 
ATOM     13  C   UNL     1      27.270  46.808 138.273  1.00  0.00     0.016 A 
ATOM     14  C   UNL     1      26.451  45.808 137.742  1.00  0.00     0.051 A 
ATOM     15  C   UNL     1      26.378  44.553 138.353  1.00  0.00     0.157 A 
ATOM     16  C   UNL     1      27.951  45.303 140.045  1.00  0.00     0.062 A 
ATOM     17  C   UNL     1      27.129  44.299 139.511  1.00  0.00     0.158 A 
BRANCH  15  18
ATOM     18  O   UNL     1      25.553  43.576 137.799  1.00  0.00    -0.504 OA
ATOM     19  H   UNL     1      24.577  43.752 137.587  1.00  0.00     0.293 HD
ENDBRANCH  15  18
BRANCH  17  20
ATOM     20  O   UNL     1      27.058  43.052 140.130  1.00  0.00    -0.504 OA
ATOM     21  H   UNL     1      26.173  42.580 140.273  1.00  0.00     0.293 HD
ENDBRANCH  17  20
ENDBRANCH   1  12
BRANCH   6  22
ATOM     22  O   UNL     1      31.185  51.666 142.106  1.00  0.00    -0.507 OA
ATOM     23  H   UNL     1      30.350  52.120 141.755  1.00  0.00     0.293 HD
ENDBRANCH   6  22
BRANCH   8  24
ATOM     24  O   UNL     1      34.683  48.390 141.421  1.00  0.00    -0.508 OA
ATOM     25  H   UNL     1      35.292  48.379 140.610  1.00  0.00     0.293 HD
ENDBRANCH   8  24
TORSDOF 5
ENDMDL
MODEL 2
REMARK VINA RESULT:    -6.560      1.888      2.747
REMARK INTER + INTRA:          -7.991
REMARK INTER:                  -7.677
REMARK INTRA:                  -0.314
REMARK UNBOUND:                -0.280
REMARK SMILES O=c1cc(-c2ccc(O)c(O)c2)oc2cc(O)cc(O)c12
REMARK SMILES IDX 4 1 3 2 2 3 1 4 21 5 19 6 18 7 16 8 15 9 14 10 13 11 5 12
REMARK SMILES IDX 6 13 7 14 8 15 12 16 10 17 9 18 11 20 20 22 17 24
REMARK H PARENT 9 19 11 21 20 23 17 25
REMARK Flexibility Score: inf
ROOT
ATOM      1  C   UNL     1      30.708  46.884 140.443  1.00  0.00     0.138 A 
ATOM      2  C   UNL     1      30.993  48.256 140.540  1.00  0.00     0.100 A 
ATOM      3  C   UNL     1      32.254  48.667 140.975  1.00  0.00     0.197 A 
ATOM      4  O   UNL     1      32.500  49.902 141.057  1.00  0.00    -0.289 OA
ATOM      5  C   UNL     1      33.224  47.701 141.307  1.00  0.00     0.107 A 
ATOM      6  C   UNL     1      34.525  48.032 141.756  1.00  0.00     0.134 A 
ATOM      7  C   UNL     1      35.436  47.010 142.061  1.00  0.00     0.093 A 
ATOM      8  C   UNL     1      35.070  45.666 141.924  1.00  0.00     0.123 A 
ATOM      9  C   UNL     1      33.787  45.335 141.482  1.00  0.00     0.094 A 
ATOM     10  C   UNL     1      32.865  46.339 141.173  1.00  0.00     0.146 A 
ATOM     11  O   UNL     1      31.651  45.997 140.755  1.00  0.00    -0.456 OA
ENDROOT
BRANCH   1  12
ATOM     12  C   UNL     1      29.385  46.389 139.985  1.00  0.00     0.021 A 
ATOM     13  C   UNL     1      28.484  47.219 139.293  1.00  0.00     0.016 A 
ATOM     14  C   UNL     1      27.241  46.729 138.883  1.00  0.00     0.051 A 
ATOM     15  C   UNL     1      26.873  45.410 139.162  1.00  0.00     0.157 A 
ATOM     16  C   UNL     1      29.004  45.067 140.275  1.00  0.00     0.062 A 
ATOM     17  C   UNL     1      27.756  44.575 139.863  1.00  0.00     0.158 A 
BRANCH  15  18
ATOM     18  O   UNL     1      25.627  44.951 138.738  1.00  0.00    -0.504 OA
ATOM     19  H   UNL     1      24.879  45.584 138.480  1.00  0.00     0.293 HD
ENDBRANCH  15  18
BRANCH  17  20
ATOM     20  O   UNL     1      27.394  43.259 140.149  1.00  0.00    -0.504 OA
ATOM     21  H   UNL     1      27.957  42.475 139.843  1.00  0.00     0.293 HD
ENDBRANCH  17  20
ENDBRANCH   1  12
BRANCH   6  22
ATOM     22  O   UNL     1      34.917  49.364 141.901  1.00  0.00    -0.507 OA
ATOM     23  H   UNL     1      34.248  50.124 141.868  1.00  0.00     0.293 HD
ENDBRANCH   6  22
BRANCH   8  24
ATOM     24  O   UNL     1      35.974  44.651 142.226  1.00  0.00    -0.508 OA
ATOM     25  H   UNL     1      36.072  43.833 141.634  1.00  0.00     0.293 HD
ENDBRANCH   8  24
TORSDOF 5
ENDMDL
MODEL 3
REMARK VINA RESULT:    -6.365      1.549      6.804
REMARK INTER + INTRA:          -7.762
REMARK INTER:                  -7.454
REMARK INTRA:                  -0.308
REMARK UNBOUND:                -0.280
REMARK SMILES O=c1cc(-c2ccc(O)c(O)c2)oc2cc(O)cc(O)c12
REMARK SMILES IDX 4 1 3 2 2 3 1 4 21 5 19 6 18 7 16 8 15 9 14 10 13 11 5 12
REMARK SMILES IDX 6 13 7 14 8 15 12 16 10 17 9 18 11 20 20 22 17 24
REMARK H PARENT 9 19 11 21 20 23 17 25
REMARK Flexibility Score: inf
ROOT
ATOM      1  C   UNL     1      29.965  48.054 140.302  1.00  0.00     0.138 A 
ATOM      2  C   UNL     1      28.904  48.772 139.726  1.00  0.00     0.100 A 
ATOM      3  C   UNL     1      27.800  48.083 139.222  1.00  0.00     0.197 A 
ATOM      4  O   UNL     1      26.852  48.737 138.709  1.00  0.00    -0.289 OA
ATOM      5  C   UNL     1      27.764  46.676 139.300  1.00  0.00     0.107 A 
ATOM      6  C   UNL     1      26.685  45.901 138.813  1.00  0.00     0.134 A 
ATOM      7  C   UNL     1      26.723  44.504 138.934  1.00  0.00     0.093 A 
ATOM      8  C   UNL     1      27.818  43.870 139.533  1.00  0.00     0.123 A 
ATOM      9  C   UNL     1      28.885  44.632 140.015  1.00  0.00     0.094 A 
ATOM     10  C   UNL     1      28.866  46.025 139.904  1.00  0.00     0.146 A 
ATOM     11  O   UNL     1      29.895  46.726 140.369  1.00  0.00    -0.456 OA
ENDROOT
BRANCH   1  12
ATOM     12  C   UNL     1      31.163  48.734 140.856  1.00  0.00     0.021 A 
ATOM     13  C   UNL     1      31.102  50.050 141.352  1.00  0.00     0.016 A 
ATOM     14  C   UNL     1      32.248  50.670 141.858  1.00  0.00     0.051 A 
ATOM     15  C   UNL     1      33.471  49.994 141.872  1.00  0.00     0.157 A 
ATOM     16  C   UNL     1      32.399  48.064 140.860  1.00  0.00     0.062 A 
ATOM     17  C   UNL     1      33.549  48.686 141.369  1.00  0.00     0.158 A 
BRANCH  15  18
ATOM     18  O   UNL     1      34.595  50.639 142.385  1.00  0.00    -0.504 OA
ATOM     19  H   UNL     1      35.532  50.274 142.255  1.00  0.00     0.293 HD
ENDBRANCH  15  18
BRANCH  17  20
ATOM     20  O   UNL     1      34.767  48.007 141.375  1.00  0.00    -0.504 OA
ATOM     21  H   UNL     1      34.821  47.012 141.193  1.00  0.00     0.293 HD
ENDBRANCH  17  20
ENDBRANCH   1  12
BRANCH   6  22
ATOM     22  O   UNL     1      25.581  46.506 138.211  1.00  0.00    -0.507 OA
ATOM     23  H   UNL     1      24.679  46.547 138.671  1.00  0.00     0.293 HD
ENDBRANCH   6  22
BRANCH   8  24
ATOM     24  O   UNL     1      27.856  42.483 139.654  1.00  0.00    -0.508 OA
ATOM     25  H   UNL     1      27.177  41.980 140.215  1.00  0.00     0.293 HD
ENDBRANCH   8  24
TORSDOF 5
ENDMDL
MODEL 4
REMARK VINA RESULT:    -6.303      3.111      5.276
REMARK INTER + INTRA:          -7.689
REMARK INTER:                  -7.394
REMARK INTRA:                  -0.295
REMARK UNBOUND:                -0.280
REMARK SMILES O=c1cc(-c2ccc(O)c(O)c2)oc2cc(O)cc(O)c12
REMARK SMILES IDX 4 1 3 2 2 3 1 4 21 5 19 6 18 7 16 8 15 9 14 10 13 11 5 12
REMARK SMILES IDX 6 13 7 14 8 15 12 16 10 17 9 18 11 20 20 22 17 24
REMARK H PARENT 9 19 11 21 20 23 17 25
REMARK Flexibility Score: inf
ROOT
ATOM      1  C   UNL     1      27.295  44.049 138.611  1.00  0.00     0.138 A 
ATOM      2  C   UNL     1      28.241  44.285 139.623  1.00  0.00     0.100 A 
ATOM      3  C   UNL     1      28.573  45.598 139.960  1.00  0.00     0.197 A 
ATOM      4  O   UNL     1      29.423  45.798 140.870  1.00  0.00    -0.289 OA
ATOM      5  C   UNL     1      27.953  46.668 139.284  1.00  0.00     0.107 A 
ATOM      6  C   UNL     1      28.234  48.026 139.564  1.00  0.00     0.134 A 
ATOM      7  C   UNL     1      27.569  49.034 138.850  1.00  0.00     0.093 A 
ATOM      8  C   UNL     1      26.630  48.708 137.864  1.00  0.00     0.123 A 
ATOM      9  C   UNL     1      26.351  47.368 137.585  1.00  0.00     0.094 A 
ATOM     10  C   UNL     1      27.003  46.349 138.285  1.00  0.00     0.146 A 
ATOM     11  O   UNL     1      26.720  45.083 138.000  1.00  0.00    -0.456 OA
ENDROOT
BRANCH   1  12
ATOM     12  C   UNL     1      26.900  42.675 138.212  1.00  0.00     0.021 A 
ATOM     13  C   UNL     1      26.006  42.442 137.150  1.00  0.00     0.016 A 
ATOM     14  C   UNL     1      25.644  41.137 136.802  1.00  0.00     0.051 A 
ATOM     15  C   UNL     1      26.158  40.047 137.509  1.00  0.00     0.157 A 
ATOM     16  C   UNL     1      27.403  41.574 138.929  1.00  0.00     0.062 A 
ATOM     17  C   UNL     1      27.041  40.265 138.579  1.00  0.00     0.158 A 
BRANCH  15  18
ATOM     18  O   UNL     1      25.779  38.758 137.136  1.00  0.00    -0.504 OA
ATOM     19  H   UNL     1      26.459  38.032 136.941  1.00  0.00     0.293 HD
ENDBRANCH  15  18
BRANCH  17  20
ATOM     20  O   UNL     1      27.554  39.183 139.292  1.00  0.00    -0.504 OA
ATOM     21  H   UNL     1      27.031  38.743 140.039  1.00  0.00     0.293 HD
ENDBRANCH  17  20
ENDBRANCH   1  12
BRANCH   6  22
ATOM     22  O   UNL     1      29.165  48.381 140.541  1.00  0.00    -0.507 OA
ATOM     23  H   UNL     1      30.161  48.368 140.358  1.00  0.00     0.293 HD
ENDBRANCH   6  22
BRANCH   8  24
ATOM     24  O   UNL     1      25.969  49.708 137.155  1.00  0.00    -0.508 OA
ATOM     25  H   UNL     1      25.226  49.492 136.500  1.00  0.00     0.293 HD
ENDBRANCH   8  24
TORSDOF 5
ENDMDL
MODEL 5
REMARK VINA RESULT:    -6.178      2.664      4.493
REMARK INTER + INTRA:          -7.542
REMARK INTER:                  -7.224
REMARK INTRA:                  -0.318
REMARK UNBOUND:                -0.280
REMARK SMILES O=c1cc(-c2ccc(O)c(O)c2)oc2cc(O)cc(O)c12
REMARK SMILES IDX 4 1 3 2 2 3 1 4 21 5 19 6 18 7 16 8 15 9 14 10 13 11 5 12
REMARK SMILES IDX 6 13 7 14 8 15 12 16 10 17 9 18 11 20 20 22 17 24
REMARK H PARENT 9 19 11 21 20 23 17 25
REMARK Flexibility Score: inf
ROOT
ATOM      1  C   UNL     1      27.585  46.432 138.872  1.00  0.00     0.138 A 
ATOM      2  C   UNL     1      28.495  46.850 139.856  1.00  0.00     0.100 A 
ATOM      3  C   UNL     1      28.762  48.211 140.012  1.00  0.00     0.197 A 
ATOM      4  O   UNL     1      29.580  48.575 140.901  1.00  0.00    -0.289 OA
ATOM      5  C   UNL     1      28.113  49.146 139.183  1.00  0.00     0.107 A 
ATOM      6  C   UNL     1      28.327  50.542 139.274  1.00  0.00     0.134 A 
ATOM      7  C   UNL     1      27.636  51.409 138.414  1.00  0.00     0.093 A 
ATOM      8  C   UNL     1      26.736  50.906 137.468  1.00  0.00     0.123 A 
ATOM      9  C   UNL     1      26.522  49.529 137.374  1.00  0.00     0.094 A 
ATOM     10  C   UNL     1      27.201  48.649 138.221  1.00  0.00     0.146 A 
ATOM     11  O   UNL     1      26.980  47.343 138.111  1.00  0.00    -0.456 OA
ENDROOT
BRANCH   1  12
ATOM     12  C   UNL     1      27.260  44.999 138.662  1.00  0.00     0.021 A 
ATOM     13  C   UNL     1      27.801  43.991 139.482  1.00  0.00     0.016 A 
ATOM     14  C   UNL     1      27.487  42.648 139.255  1.00  0.00     0.051 A 
ATOM     15  C   UNL     1      26.638  42.287 138.205  1.00  0.00     0.157 A 
ATOM     16  C   UNL     1      26.418  44.628 137.598  1.00  0.00     0.062 A 
ATOM     17  C   UNL     1      26.102  43.281 137.371  1.00  0.00     0.158 A 
BRANCH  15  18
ATOM     18  O   UNL     1      26.342  40.939 138.006  1.00  0.00    -0.504 OA
ATOM     19  H   UNL     1      27.043  40.274 137.702  1.00  0.00     0.293 HD
ENDBRANCH  15  18
BRANCH  17  20
ATOM     20  O   UNL     1      25.258  42.928 136.319  1.00  0.00    -0.504 OA
ATOM     21  H   UNL     1      24.492  43.524 136.029  1.00  0.00     0.293 HD
ENDBRANCH  17  20
ENDBRANCH   1  12
BRANCH   6  22
ATOM     22  O   UNL     1      29.218  51.072 140.208  1.00  0.00    -0.507 OA
ATOM     23  H   UNL     1      28.906  51.674 140.961  1.00  0.00     0.293 HD
ENDBRANCH   6  22
BRANCH   8  24
ATOM     24  O   UNL     1      26.050  51.766 136.614  1.00  0.00    -0.508 OA
ATOM     25  H   UNL     1      26.535  52.464 136.061  1.00  0.00     0.293 HD
ENDBRANCH   8  24
TORSDOF 5
ENDMDL
MODEL 6
REMARK VINA RESULT:    -6.128      2.224      3.769
REMARK INTER + INTRA:          -7.483
REMARK INTER:                  -7.193
REMARK INTRA:                  -0.290
REMARK UNBOUND:                -0.280
REMARK SMILES O=c1cc(-c2ccc(O)c(O)c2)oc2cc(O)cc(O)c12
REMARK SMILES IDX 4 1 3 2 2 3 1 4 21 5 19 6 18 7 16 8 15 9 14 10 13 11 5 12
REMARK SMILES IDX 6 13 7 14 8 15 12 16 10 17 9 18 11 20 20 22 17 24
REMARK H PARENT 9 19 11 21 20 23 17 25
REMARK Flexibility Score: inf
ROOT
ATOM      1  C   UNL     1      27.220  45.873 138.579  1.00  0.00     0.138 A 
ATOM      2  C   UNL     1      26.335  46.804 138.009  1.00  0.00     0.100 A 
ATOM      3  C   UNL     1      26.522  48.165 138.248  1.00  0.00     0.197 A 
ATOM      4  O   UNL     1      25.722  48.992 137.730  1.00  0.00    -0.289 OA
ATOM      5  C   UNL     1      27.597  48.589 139.054  1.00  0.00     0.107 A 
ATOM      6  C   UNL     1      27.857  49.949 139.347  1.00  0.00     0.134 A 
ATOM      7  C   UNL     1      28.953  50.290 140.153  1.00  0.00     0.093 A 
ATOM      8  C   UNL     1      29.792  49.297 140.672  1.00  0.00     0.123 A 
ATOM      9  C   UNL     1      29.538  47.953 140.386  1.00  0.00     0.094 A 
ATOM     10  C   UNL     1      28.452  47.593 139.584  1.00  0.00     0.146 A 
ATOM     11  O   UNL     1      28.232  46.308 139.328  1.00  0.00    -0.456 OA
ENDROOT
BRANCH   1  12
ATOM     12  C   UNL     1      27.072  44.413 138.359  1.00  0.00     0.021 A 
ATOM     13  C   UNL     1      27.645  43.471 139.235  1.00  0.00     0.016 A 
ATOM     14  C   UNL     1      27.498  42.102 138.997  1.00  0.00     0.051 A 
ATOM     15  C   UNL     1      26.788  41.648 137.882  1.00  0.00     0.157 A 
ATOM     16  C   UNL     1      26.370  43.951 137.231  1.00  0.00     0.062 A 
ATOM     17  C   UNL     1      26.222  42.576 136.993  1.00  0.00     0.158 A 
BRANCH  15  18
ATOM     18  O   UNL     1      26.658  40.276 137.673  1.00  0.00    -0.504 OA
ATOM     19  H   UNL     1      27.306  39.756 137.093  1.00  0.00     0.293 HD
ENDBRANCH  15  18
BRANCH  17  20
ATOM     20  O   UNL     1      25.516  42.132 135.876  1.00  0.00    -0.504 OA
ATOM     21  H   UNL     1      25.770  41.280 135.392  1.00  0.00     0.293 HD
ENDBRANCH  17  20
ENDBRANCH   1  12
BRANCH   6  22
ATOM     22  O   UNL     1      27.037  50.961 138.844  1.00  0.00    -0.507 OA
ATOM     23  H   UNL     1      27.129  51.923 139.149  1.00  0.00     0.293 HD
ENDBRANCH   6  22
BRANCH   8  24
ATOM     24  O   UNL     1      30.880  49.634 141.473  1.00  0.00    -0.508 OA
ATOM     25  H   UNL     1      31.684  49.022 141.560  1.00  0.00     0.293 HD
ENDBRANCH   8  24
TORSDOF 5
ENDMDL
MODEL 7
REMARK VINA RESULT:    -6.098      2.166      6.509
REMARK INTER + INTRA:          -7.448
REMARK INTER:                  -7.156
REMARK INTRA:                  -0.293
REMARK UNBOUND:                -0.280
REMARK SMILES O=c1cc(-c2ccc(O)c(O)c2)oc2cc(O)cc(O)c12
REMARK SMILES IDX 4 1 3 2 2 3 1 4 21 5 19 6 18 7 16 8 15 9 14 10 13 11 5 12
REMARK SMILES IDX 6 13 7 14 8 15 12 16 10 17 9 18 11 20 20 22 17 24
REMARK H PARENT 9 19 11 21 20 23 17 25
REMARK Flexibility Score: inf
ROOT
ATOM      1  C   UNL     1      30.033  47.571 140.090  1.00  0.00     0.138 A 
ATOM      2  C   UNL     1      29.217  46.432 139.986  1.00  0.00     0.100 A 
ATOM      3  C   UNL     1      27.935  46.551 139.450  1.00  0.00     0.197 A 
ATOM      4  O   UNL     1      27.211  45.522 139.361  1.00  0.00    -0.289 OA
ATOM      5  C   UNL     1      27.476  47.811 139.017  1.00  0.00     0.107 A 
ATOM      6  C   UNL     1      26.191  48.019 138.464  1.00  0.00     0.134 A 
ATOM      7  C   UNL     1      25.812  49.305 138.050  1.00  0.00     0.093 A 
ATOM      8  C   UNL     1      26.694  50.384 138.180  1.00  0.00     0.123 A 
ATOM      9  C   UNL     1      27.964  50.183 138.727  1.00  0.00     0.094 A 
ATOM     10  C   UNL     1      28.360  48.909 139.144  1.00  0.00     0.146 A 
ATOM     11  O   UNL     1      29.573  48.745 139.662  1.00  0.00    -0.456 OA
ENDROOT
BRANCH   1  12
ATOM     12  C   UNL     1      31.406  47.503 140.650  1.00  0.00     0.021 A 
ATOM     13  C   UNL     1      32.107  48.664 141.029  1.00  0.00     0.016 A 
ATOM     14  C   UNL     1      33.403  48.572 141.544  1.00  0.00     0.051 A 
ATOM     15  C   UNL     1      34.024  47.327 141.681  1.00  0.00     0.157 A 
ATOM     16  C   UNL     1      32.041  46.255 140.777  1.00  0.00     0.062 A 
ATOM     17  C   UNL     1      33.342  46.163 141.295  1.00  0.00     0.158 A 
BRANCH  15  18
ATOM     18  O   UNL     1      35.317  47.269 142.199  1.00  0.00    -0.504 OA
ATOM     19  H   UNL     1      35.496  47.187 143.194  1.00  0.00     0.293 HD
ENDBRANCH  15  18
BRANCH  17  20
ATOM     20  O   UNL     1      33.957  44.918 141.425  1.00  0.00    -0.504 OA
ATOM     21  H   UNL     1      34.196  44.358 140.616  1.00  0.00     0.293 HD
ENDBRANCH  17  20
ENDBRANCH   1  12
BRANCH   6  22
ATOM     22  O   UNL     1      25.290  46.963 138.322  1.00  0.00    -0.507 OA
ATOM     23  H   UNL     1      25.509  46.028 138.647  1.00  0.00     0.293 HD
ENDBRANCH   6  22
BRANCH   8  24
ATOM     24  O   UNL     1      26.319  51.661 137.770  1.00  0.00    -0.508 OA
ATOM     25  H   UNL     1      26.959  52.446 137.826  1.00  0.00     0.293 HD
ENDBRANCH   8  24
TORSDOF 5
ENDMDL
MODEL 8
REMARK VINA RESULT:    -6.064      2.566      4.689
REMARK INTER + INTRA:          -7.408
REMARK INTER:                  -7.143
REMARK INTRA:                  -0.264
REMARK UNBOUND:                -0.280
REMARK SMILES O=c1cc(-c2ccc(O)c(O)c2)oc2cc(O)cc(O)c12
REMARK SMILES IDX 4 1 3 2 2 3 1 4 21 5 19 6 18 7 16 8 15 9 14 10 13 11 5 12
REMARK SMILES IDX 6 13 7 14 8 15 12 16 10 17 9 18 11 20 20 22 17 24
REMARK H PARENT 9 19 11 21 20 23 17 25
REMARK Flexibility Score: inf
ROOT
ATOM      1  C   UNL     1      28.904  48.699 139.915  1.00  0.00     0.138 A 
ATOM      2  C   UNL     1      28.773  47.301 139.981  1.00  0.00     0.100 A 
ATOM      3  C   UNL     1      29.876  46.524 140.335  1.00  0.00     0.197 A 
ATOM      4  O   UNL     1      29.747  45.270 140.392  1.00  0.00    -0.289 OA
ATOM      5  C   UNL     1      31.104  47.150 140.625  1.00  0.00     0.107 A 
ATOM      6  C   UNL     1      32.270  46.436 140.991  1.00  0.00     0.134 A 
ATOM      7  C   UNL     1      33.454  47.136 141.270  1.00  0.00     0.093 A 
ATOM      8  C   UNL     1      33.492  48.532 141.191  1.00  0.00     0.123 A 
ATOM      9  C   UNL     1      32.343  49.240 140.830  1.00  0.00     0.094 A 
ATOM     10  C   UNL     1      31.154  48.562 140.548  1.00  0.00     0.146 A 
ATOM     11  O   UNL     1      30.076  49.260 140.205  1.00  0.00    -0.456 OA
ENDROOT
BRANCH   1  12
ATOM     12  C   UNL     1      27.764  49.576 139.546  1.00  0.00     0.021 A 
ATOM     13  C   UNL     1      26.738  49.878 140.461  1.00  0.00     0.016 A 
ATOM     14  C   UNL     1      25.671  50.700 140.083  1.00  0.00     0.051 A 
ATOM     15  C   UNL     1      25.606  51.225 138.789  1.00  0.00     0.157 A 
ATOM     16  C   UNL     1      27.686  50.097 138.242  1.00  0.00     0.062 A 
ATOM     17  C   UNL     1      26.617  50.922 137.863  1.00  0.00     0.158 A 
BRANCH  15  18
ATOM     18  O   UNL     1      24.531  52.042 138.444  1.00  0.00    -0.504 OA
ATOM     19  H   UNL     1      23.581  51.831 138.727  1.00  0.00     0.293 HD
ENDBRANCH  15  18
BRANCH  17  20
ATOM     20  O   UNL     1      26.556  51.439 136.570  1.00  0.00    -0.504 OA
ATOM     21  H   UNL     1      25.830  52.088 136.291  1.00  0.00     0.293 HD
ENDBRANCH  17  20
ENDBRANCH   1  12
BRANCH   6  22
ATOM     22  O   UNL     1      32.261  45.044 141.078  1.00  0.00    -0.507 OA
ATOM     23  H   UNL     1      32.867  44.546 141.720  1.00  0.00     0.293 HD
ENDBRANCH   6  22
BRANCH   8  24
ATOM     24  O   UNL     1      34.667  49.227 141.468  1.00  0.00    -0.508 OA
ATOM     25  H   UNL     1      35.556  48.945 141.071  1.00  0.00     0.293 HD
ENDBRANCH   8  24
TORSDOF 5
ENDMDL
MODEL 9
REMARK VINA RESULT:    -5.873      3.400      8.924
REMARK INTER + INTRA:          -7.184
REMARK INTER:                  -6.889
REMARK INTRA:                  -0.295
REMARK UNBOUND:                -0.280
REMARK SMILES O=c1cc(-c2ccc(O)c(O)c2)oc2cc(O)cc(O)c12
REMARK SMILES IDX 4 1 3 2 2 3 1 4 21 5 19 6 18 7 16 8 15 9 14 10 13 11 5 12
REMARK SMILES IDX 6 13 7 14 8 15 12 16 10 17 9 18 11 20 20 22 17 24
REMARK H PARENT 9 19 11 21 20 23 17 25
REMARK Flexibility Score: inf
ROOT
ATOM      1  C   UNL     1      26.882  43.290 138.380  1.00  0.00     0.138 A 
ATOM      2  C   UNL     1      25.983  43.281 137.301  1.00  0.00     0.100 A 
ATOM      3  C   UNL     1      25.469  42.067 136.844  1.00  0.00     0.197 A 
ATOM      4  O   UNL     1      24.661  42.070 135.875  1.00  0.00    -0.289 OA
ATOM      5  C   UNL     1      25.857  40.867 137.473  1.00  0.00     0.107 A 
ATOM      6  C   UNL     1      25.385  39.595 137.073  1.00  0.00     0.134 A 
ATOM      7  C   UNL     1      25.814  38.447 137.756  1.00  0.00     0.093 A 
ATOM      8  C   UNL     1      26.706  38.549 138.830  1.00  0.00     0.123 A 
ATOM      9  C   UNL     1      27.174  39.804 139.228  1.00  0.00     0.094 A 
ATOM     10  C   UNL     1      26.758  40.959 138.560  1.00  0.00     0.146 A 
ATOM     11  O   UNL     1      27.220  42.140 138.959  1.00  0.00    -0.456 OA
ENDROOT
BRANCH   1  12
ATOM     12  C   UNL     1      27.459  44.552 138.909  1.00  0.00     0.021 A 
ATOM     13  C   UNL     1      28.428  44.549 139.931  1.00  0.00     0.016 A 
ATOM     14  C   UNL     1      28.946  45.753 140.418  1.00  0.00     0.051 A 
ATOM     15  C   UNL     1      28.504  46.975 139.903  1.00  0.00     0.157 A 
ATOM     16  C   UNL     1      27.008  45.784 138.405  1.00  0.00     0.062 A 
ATOM     17  C   UNL     1      27.529  46.992 138.893  1.00  0.00     0.158 A 
BRANCH  15  18
ATOM     18  O   UNL     1      29.041  48.157 140.408  1.00  0.00    -0.504 OA
ATOM     19  H   UNL     1      29.080  49.008 139.860  1.00  0.00     0.293 HD
ENDBRANCH  15  18
BRANCH  17  20
ATOM     20  O   UNL     1      27.079  48.207 138.378  1.00  0.00    -0.504 OA
ATOM     21  H   UNL     1      27.723  48.946 138.122  1.00  0.00     0.293 HD
ENDBRANCH  17  20
ENDBRANCH   1  12
BRANCH   6  22
ATOM     22  O   UNL     1      24.495  39.462 136.005  1.00  0.00    -0.507 OA
ATOM     23  H   UNL     1      23.927  38.633 135.884  1.00  0.00     0.293 HD
ENDBRANCH   6  22
BRANCH   8  24
ATOM     24  O   UNL     1      27.133  37.411 139.508  1.00  0.00    -0.508 OA
ATOM     25  H   UNL     1      26.545  36.949 140.194  1.00  0.00     0.293 HD
ENDBRANCH   8  24
TORSDOF 5
ENDMDL
