MODEL 1
REMARK VINA RESULT:    -5.371      0.000      0.000
REMARK INTER + INTRA:          -6.328
REMARK INTER:                  -6.313
REMARK INTRA:                  -0.016
REMARK UNBOUND:                -0.016
REMARK SMILES COc1cc2ccc(=O)oc2c(OC)c1OC
REMARK SMILES IDX 3 1 15 2 12 3 11 4 5 5 4 6 6 7 7 8 8 9 9 10 10 11 2 12 1 13
REMARK SMILES IDX 16 14 17 15 13 16 14 17
REMARK H PARENT
REMARK Flexibility Score: inf
ROOT
ATOM      1  C   UNL     1       9.458   9.449  13.605  1.00  0.00     0.165 A 
ATOM      2  C   UNL     1      10.214  10.053  14.649  1.00  0.00     0.207 A 
ATOM      3  C   UNL     1      11.518  10.550  14.369  1.00  0.00     0.208 A 
ATOM      4  C   UNL     1      12.041  10.439  13.074  1.00  0.00     0.184 A 
ATOM      5  C   UNL     1      11.288   9.840  12.048  1.00  0.00     0.025 A 
ATOM      6  C   UNL     1      10.011   9.351  12.314  1.00  0.00     0.062 A 
ATOM      7  C   UNL     1      11.849   9.750  10.769  1.00  0.00     0.020 A 
ATOM      8  C   UNL     1      13.130  10.252  10.545  1.00  0.00     0.094 A 
ATOM      9  C   UNL     1      13.822  10.834  11.611  1.00  0.00     0.336 A 
ATOM     10  O   UNL     1      14.980  11.294  11.432  1.00  0.00    -0.246 OA
ATOM     11  O   UNL     1      13.263  10.906  12.815  1.00  0.00    -0.419 OA
ENDROOT
BRANCH   1  12
ATOM     12  O   UNL     1       8.170   8.954  13.866  1.00  0.00    -0.493 OA
ATOM     13  C   UNL     1       7.107   9.698  14.452  1.00  0.00     0.278 C 
ENDBRANCH   1  12
BRANCH   2  14
ATOM     14  O   UNL     1       9.720  10.182  15.961  1.00  0.00    -0.490 OA
ATOM     15  C   UNL     1       9.981   9.330  17.071  1.00  0.00     0.278 C 
ENDBRANCH   2  14
BRANCH   3  16
ATOM     16  O   UNL     1      12.348  11.165  15.327  1.00  0.00    -0.490 OA
ATOM     17  C   UNL     1      12.325  12.529  15.734  1.00  0.00     0.278 C 
ENDBRANCH   3  16
TORSDOF 3
ENDMDL
MODEL 2
REMARK VINA RESULT:    -5.110      1.379      4.766
REMARK INTER + INTRA:          -6.022
REMARK INTER:                  -5.721
REMARK INTRA:                  -0.302
REMARK UNBOUND:                -0.016
REMARK SMILES COc1cc2ccc(=O)oc2c(OC)c1OC
REMARK SMILES IDX 3 1 15 2 12 3 11 4 5 5 4 6 6 7 7 8 8 9 9 10 10 11 2 12 1 13
REMARK SMILES IDX 16 14 17 15 13 16 14 17
REMARK H PARENT
REMARK Flexibility Score: inf
ROOT
ATOM      1  C   UNL     1      12.708   9.854  11.443  1.00  0.00     0.165 A 
ATOM      2  C   UNL     1      12.974  10.368  12.744  1.00  0.00     0.207 A 
ATOM      3  C   UNL     1      11.934  10.381  13.716  1.00  0.00     0.208 A 
ATOM      4  C   UNL     1      10.665   9.889  13.383  1.00  0.00     0.184 A 
ATOM      5  C   UNL     1      10.410   9.383  12.096  1.00  0.00     0.025 A 
ATOM      6  C   UNL     1      11.423   9.368  11.138  1.00  0.00     0.062 A 
ATOM      7  C   UNL     1       9.128   8.902  11.806  1.00  0.00     0.020 A 
ATOM      8  C   UNL     1       8.144   8.935  12.792  1.00  0.00     0.094 A 
ATOM      9  C   UNL     1       8.467   9.452  14.050  1.00  0.00     0.336 A 
ATOM     10  O   UNL     1       7.594   9.492  14.956  1.00  0.00    -0.246 OA
ATOM     11  O   UNL     1       9.694   9.901  14.296  1.00  0.00    -0.419 OA
ENDROOT
BRANCH   1  12
ATOM     12  O   UNL     1      13.723   9.836  10.474  1.00  0.00    -0.493 OA
ATOM     13  C   UNL     1      14.609   8.747  10.231  1.00  0.00     0.278 C 
ENDBRANCH   1  12
BRANCH   2  14
ATOM     14  O   UNL     1      14.237  10.870  13.113  1.00  0.00    -0.490 OA
ATOM     15  C   UNL     1      15.335  10.140  13.650  1.00  0.00     0.278 C 
ENDBRANCH   2  14
BRANCH   3  16
ATOM     16  O   UNL     1      12.091  10.866  15.030  1.00  0.00    -0.490 OA
ATOM     17  C   UNL     1      12.086  12.227  15.447  1.00  0.00     0.278 C 
ENDBRANCH   3  16
TORSDOF 3
ENDMDL
MODEL 3
REMARK VINA RESULT:    -4.908      1.641      4.236
REMARK INTER + INTRA:          -5.784
REMARK INTER:                  -5.682
REMARK INTRA:                  -0.102
REMARK UNBOUND:                -0.016
REMARK SMILES COc1cc2ccc(=O)oc2c(OC)c1OC
REMARK SMILES IDX 3 1 15 2 12 3 11 4 5 5 4 6 6 7 7 8 8 9 9 10 10 11 2 12 1 13
REMARK SMILES IDX 16 14 17 15 13 16 14 17
REMARK H PARENT
REMARK Flexibility Score: inf
ROOT
ATOM      1  C   UNL     1      11.719  10.316  13.928  1.00  0.00     0.165 A 
ATOM      2  C   UNL     1      10.497  10.005  14.590  1.00  0.00     0.207 A 
ATOM      3  C   UNL     1       9.464   9.339  13.872  1.00  0.00     0.208 A 
ATOM      4  C   UNL     1       9.660   9.000  12.526  1.00  0.00     0.184 A 
ATOM      5  C   UNL     1      10.869   9.311  11.880  1.00  0.00     0.025 A 
ATOM      6  C   UNL     1      11.886   9.963  12.576  1.00  0.00     0.062 A 
ATOM      7  C   UNL     1      11.022   8.954  10.535  1.00  0.00     0.020 A 
ATOM      8  C   UNL     1       9.981   8.303   9.876  1.00  0.00     0.094 A 
ATOM      9  C   UNL     1       8.806   8.025  10.579  1.00  0.00     0.336 A 
ATOM     10  O   UNL     1       7.853   7.439  10.005  1.00  0.00    -0.246 OA
ATOM     11  O   UNL     1       8.690   8.377  11.857  1.00  0.00    -0.419 OA
ENDROOT
BRANCH   1  12
ATOM     12  O   UNL     1      12.747  10.972  14.624  1.00  0.00    -0.493 OA
ATOM     13  C   UNL     1      14.093  10.516  14.724  1.00  0.00     0.278 C 
ENDBRANCH   1  12
BRANCH   2  14
ATOM     14  O   UNL     1      10.266  10.330  15.940  1.00  0.00    -0.490 OA
ATOM     15  C   UNL     1      10.044   9.431  17.021  1.00  0.00     0.278 C 
ENDBRANCH   2  14
BRANCH   3  16
ATOM     16  O   UNL     1       8.219   8.986  14.430  1.00  0.00    -0.490 OA
ATOM     17  C   UNL     1       7.047   9.791  14.492  1.00  0.00     0.278 C 
ENDBRANCH   3  16
TORSDOF 3
ENDMDL
MODEL 4
REMARK VINA RESULT:    -4.866      1.709      3.459
REMARK INTER + INTRA:          -5.735
REMARK INTER:                  -5.448
REMARK INTRA:                  -0.287
REMARK UNBOUND:                -0.016
REMARK SMILES COc1cc2ccc(=O)oc2c(OC)c1OC
REMARK SMILES IDX 3 1 15 2 12 3 11 4 5 5 4 6 6 7 7 8 8 9 9 10 10 11 2 12 1 13
REMARK SMILES IDX 16 14 17 15 13 16 14 17
REMARK H PARENT
REMARK Flexibility Score: inf
ROOT
ATOM      1  C   UNL     1      11.355  10.292  14.458  1.00  0.00     0.165 A 
ATOM      2  C   UNL     1      10.792  10.111  13.163  1.00  0.00     0.207 A 
ATOM      3  C   UNL     1      11.656   9.954  12.042  1.00  0.00     0.208 A 
ATOM      4  C   UNL     1      13.045   9.978  12.226  1.00  0.00     0.184 A 
ATOM      5  C   UNL     1      13.593  10.158  13.508  1.00  0.00     0.025 A 
ATOM      6  C   UNL     1      12.754  10.313  14.611  1.00  0.00     0.062 A 
ATOM      7  C   UNL     1      14.986  10.176  13.647  1.00  0.00     0.020 A 
ATOM      8  C   UNL     1      15.789  10.017  12.519  1.00  0.00     0.094 A 
ATOM      9  C   UNL     1      15.177   9.844  11.274  1.00  0.00     0.336 A 
ATOM     10  O   UNL     1      15.882   9.699  10.242  1.00  0.00    -0.246 OA
ATOM     11  O   UNL     1      13.851   9.830  11.174  1.00  0.00    -0.419 OA
ENDROOT
BRANCH   1  12
ATOM     12  O   UNL     1      10.516  10.449  15.572  1.00  0.00    -0.493 OA
ATOM     13  C   UNL     1       9.962   9.385  16.341  1.00  0.00     0.278 C 
ENDBRANCH   1  12
BRANCH   2  14
ATOM     14  O   UNL     1       9.402  10.081  12.941  1.00  0.00    -0.490 OA
ATOM     15  C   UNL     1       8.555   8.937  12.916  1.00  0.00     0.278 C 
ENDBRANCH   2  14
BRANCH   3  16
ATOM     16  O   UNL     1      11.205   9.769  10.720  1.00  0.00    -0.490 OA
ATOM     17  C   UNL     1      10.901   8.533  10.082  1.00  0.00     0.278 C 
ENDBRANCH   3  16
TORSDOF 3
ENDMDL
MODEL 5
REMARK VINA RESULT:    -4.770      1.873      5.780
REMARK INTER + INTRA:          -5.622
REMARK INTER:                  -5.429
REMARK INTRA:                  -0.193
REMARK UNBOUND:                -0.016
REMARK SMILES COc1cc2ccc(=O)oc2c(OC)c1OC
REMARK SMILES IDX 3 1 15 2 12 3 11 4 5 5 4 6 6 7 7 8 8 9 9 10 10 11 2 12 1 13
REMARK SMILES IDX 16 14 17 15 13 16 14 17
REMARK H PARENT
REMARK Flexibility Score: inf
ROOT
ATOM      1  C   UNL     1      13.943   9.800  12.985  1.00  0.00     0.165 A 
ATOM      2  C   UNL     1      13.266   9.654  11.741  1.00  0.00     0.207 A 
ATOM      3  C   UNL     1      11.843   9.620  11.720  1.00  0.00     0.208 A 
ATOM      4  C   UNL     1      11.127   9.729  12.919  1.00  0.00     0.184 A 
ATOM      5  C   UNL     1      11.803   9.872  14.144  1.00  0.00     0.025 A 
ATOM      6  C   UNL     1      13.196   9.906  14.173  1.00  0.00     0.062 A 
ATOM      7  C   UNL     1      11.048   9.978  15.319  1.00  0.00     0.020 A 
ATOM      8  C   UNL     1       9.657   9.939  15.245  1.00  0.00     0.094 A 
ATOM      9  C   UNL     1       9.051   9.794  13.994  1.00  0.00     0.336 A 
ATOM     10  O   UNL     1       7.797   9.757  13.904  1.00  0.00    -0.246 OA
ATOM     11  O   UNL     1       9.795   9.697  12.895  1.00  0.00    -0.419 OA
ENDROOT
BRANCH   1  12
ATOM     12  O   UNL     1      15.346   9.835  13.021  1.00  0.00    -0.493 OA
ATOM     13  C   UNL     1      16.156  10.876  12.484  1.00  0.00     0.278 C 
ENDBRANCH   1  12
BRANCH   2  14
ATOM     14  O   UNL     1      13.953   9.542  10.517  1.00  0.00    -0.490 OA
ATOM     15  C   UNL     1      14.519   8.366   9.948  1.00  0.00     0.278 C 
ENDBRANCH   2  14
BRANCH   3  16
ATOM     16  O   UNL     1      11.077   9.479  10.545  1.00  0.00    -0.490 OA
ATOM     17  C   UNL     1      10.748   8.267   9.876  1.00  0.00     0.278 C 
ENDBRANCH   3  16
TORSDOF 3
ENDMDL
MODEL 6
REMARK VINA RESULT:    -4.696      1.720      4.914
REMARK INTER + INTRA:          -5.535
REMARK INTER:                  -5.275
REMARK INTRA:                  -0.260
REMARK UNBOUND:                -0.016
REMARK SMILES COc1cc2ccc(=O)oc2c(OC)c1OC
REMARK SMILES IDX 3 1 15 2 12 3 11 4 5 5 4 6 6 7 7 8 8 9 9 10 10 11 2 12 1 13
REMARK SMILES IDX 16 14 17 15 13 16 14 17
REMARK H PARENT
REMARK Flexibility Score: inf
ROOT
ATOM      1  C   UNL     1      12.079  10.943  11.654  1.00  0.00     0.165 A 
ATOM      2  C   UNL     1      13.145  10.913  12.598  1.00  0.00     0.207 A 
ATOM      3  C   UNL     1      12.879  10.513  13.938  1.00  0.00     0.208 A 
ATOM      4  C   UNL     1      11.576  10.156  14.312  1.00  0.00     0.184 A 
ATOM      5  C   UNL     1      10.530  10.189  13.373  1.00  0.00     0.025 A 
ATOM      6  C   UNL     1      10.781  10.579  12.059  1.00  0.00     0.062 A 
ATOM      7  C   UNL     1       9.243   9.824  13.789  1.00  0.00     0.020 A 
ATOM      8  C   UNL     1       9.034   9.440  15.113  1.00  0.00     0.094 A 
ATOM      9  C   UNL     1      10.120   9.430  15.992  1.00  0.00     0.336 A 
ATOM     10  O   UNL     1       9.955   9.087  17.191  1.00  0.00    -0.246 OA
ATOM     11  O   UNL     1      11.331   9.782  15.568  1.00  0.00    -0.419 OA
ENDROOT
BRANCH   1  12
ATOM     12  O   UNL     1      12.326  11.335  10.329  1.00  0.00    -0.493 OA
ATOM     13  C   UNL     1      12.428  12.681   9.875  1.00  0.00     0.278 C 
ENDBRANCH   1  12
BRANCH   2  14
ATOM     14  O   UNL     1      14.465  11.265  12.258  1.00  0.00    -0.490 OA
ATOM     15  C   UNL     1      15.456  10.433  11.664  1.00  0.00     0.278 C 
ENDBRANCH   2  14
BRANCH   3  16
ATOM     16  O   UNL     1      13.858  10.448  14.949  1.00  0.00    -0.490 OA
ATOM     17  C   UNL     1      14.824   9.421  15.142  1.00  0.00     0.278 C 
ENDBRANCH   3  16
TORSDOF 3
ENDMDL
MODEL 7
REMARK VINA RESULT:    -4.668      1.611      4.538
REMARK INTER + INTRA:          -5.502
REMARK INTER:                  -5.290
REMARK INTRA:                  -0.212
REMARK UNBOUND:                -0.016
REMARK SMILES COc1cc2ccc(=O)oc2c(OC)c1OC
REMARK SMILES IDX 3 1 15 2 12 3 11 4 5 5 4 6 6 7 7 8 8 9 9 10 10 11 2 12 1 13
REMARK SMILES IDX 16 14 17 15 13 16 14 17
REMARK H PARENT
REMARK Flexibility Score: inf
ROOT
ATOM      1  C   UNL     1      13.227  10.411  12.440  1.00  0.00     0.165 A 
ATOM      2  C   UNL     1      12.325  10.519  13.537  1.00  0.00     0.207 A 
ATOM      3  C   UNL     1      11.005  10.001  13.409  1.00  0.00     0.208 A 
ATOM      4  C   UNL     1      10.610   9.393  12.209  1.00  0.00     0.184 A 
ATOM      5  C   UNL     1      11.506   9.292  11.131  1.00  0.00     0.025 A 
ATOM      6  C   UNL     1      12.800   9.797  11.248  1.00  0.00     0.062 A 
ATOM      7  C   UNL     1      11.070   8.678   9.951  1.00  0.00     0.020 A 
ATOM      8  C   UNL     1       9.768   8.186   9.875  1.00  0.00     0.094 A 
ATOM      9  C   UNL     1       8.930   8.322  10.985  1.00  0.00     0.336 A 
ATOM     10  O   UNL     1       7.750   7.885  10.939  1.00  0.00    -0.246 OA
ATOM     11  O   UNL     1       9.373   8.909  12.093  1.00  0.00    -0.419 OA
ENDROOT
BRANCH   1  12
ATOM     12  O   UNL     1      14.531  10.918  12.552  1.00  0.00    -0.493 OA
ATOM     13  C   UNL     1      15.723  10.142  12.478  1.00  0.00     0.278 C 
ENDBRANCH   1  12
BRANCH   2  14
ATOM     14  O   UNL     1      12.688  11.122  14.756  1.00  0.00    -0.490 OA
ATOM     15  C   UNL     1      12.314  12.412  15.228  1.00  0.00     0.278 C 
ENDBRANCH   2  14
BRANCH   3  16
ATOM     16  O   UNL     1      10.036  10.055  14.430  1.00  0.00    -0.490 OA
ATOM     17  C   UNL     1       9.849   9.119  15.486  1.00  0.00     0.278 C 
ENDBRANCH   3  16
TORSDOF 3
ENDMDL
MODEL 8
REMARK VINA RESULT:    -4.629      1.778      2.346
REMARK INTER + INTRA:          -5.457
REMARK INTER:                  -5.318
REMARK INTRA:                  -0.139
REMARK UNBOUND:                -0.016
REMARK SMILES COc1cc2ccc(=O)oc2c(OC)c1OC
REMARK SMILES IDX 3 1 15 2 12 3 11 4 5 5 4 6 6 7 7 8 8 9 9 10 10 11 2 12 1 13
REMARK SMILES IDX 16 14 17 15 13 16 14 17
REMARK H PARENT
REMARK Flexibility Score: inf
ROOT
ATOM      1  C   UNL     1      10.900  10.064  12.498  1.00  0.00     0.165 A 
ATOM      2  C   UNL     1      11.719   9.722  13.612  1.00  0.00     0.207 A 
ATOM      3  C   UNL     1      13.117   9.990  13.559  1.00  0.00     0.208 A 
ATOM      4  C   UNL     1      13.668  10.584  12.416  1.00  0.00     0.184 A 
ATOM      5  C   UNL     1      12.852  10.918  11.320  1.00  0.00     0.025 A 
ATOM      6  C   UNL     1      11.483  10.659  11.364  1.00  0.00     0.062 A 
ATOM      7  C   UNL     1      13.445  11.509  10.198  1.00  0.00     0.020 A 
ATOM      8  C   UNL     1      14.817  11.751  10.195  1.00  0.00     0.094 A 
ATOM      9  C   UNL     1      15.568  11.394  11.319  1.00  0.00     0.336 A 
ATOM     10  O   UNL     1      16.809  11.602  11.338  1.00  0.00    -0.246 OA
ATOM     11  O   UNL     1      14.977  10.833  12.370  1.00  0.00    -0.419 OA
ENDROOT
BRANCH   1  12
ATOM     12  O   UNL     1       9.521   9.806  12.536  1.00  0.00    -0.493 OA
ATOM     13  C   UNL     1       8.899   8.594  12.118  1.00  0.00     0.278 C 
ENDBRANCH   1  12
BRANCH   2  14
ATOM     14  O   UNL     1      11.199   9.125  14.776  1.00  0.00    -0.490 OA
ATOM     15  C   UNL     1      10.437   9.751  15.803  1.00  0.00     0.278 C 
ENDBRANCH   2  14
BRANCH   3  16
ATOM     16  O   UNL     1      14.015   9.692  14.603  1.00  0.00    -0.490 OA
ATOM     17  C   UNL     1      14.883   8.568  14.693  1.00  0.00     0.278 C 
ENDBRANCH   3  16
TORSDOF 3
ENDMDL
MODEL 9
REMARK VINA RESULT:    -4.496      2.254      5.583
REMARK INTER + INTRA:          -5.300
REMARK INTER:                  -5.052
REMARK INTRA:                  -0.248
REMARK UNBOUND:                -0.016
REMARK SMILES COc1cc2ccc(=O)oc2c(OC)c1OC
REMARK SMILES IDX 3 1 15 2 12 3 11 4 5 5 4 6 6 7 7 8 8 9 9 10 10 11 2 12 1 13
REMARK SMILES IDX 16 14 17 15 13 16 14 17
REMARK H PARENT
REMARK Flexibility Score: inf
ROOT
ATOM      1  C   UNL     1      14.523   9.474  12.175  1.00  0.00     0.165 A 
ATOM      2  C   UNL     1      14.266  10.751  11.600  1.00  0.00     0.207 A 
ATOM      3  C   UNL     1      13.215  11.554  12.127  1.00  0.00     0.208 A 
ATOM      4  C   UNL     1      12.449  11.081  13.200  1.00  0.00     0.184 A 
ATOM      5  C   UNL     1      12.709   9.818  13.761  1.00  0.00     0.025 A 
ATOM      6  C   UNL     1      13.736   9.025  13.252  1.00  0.00     0.062 A 
ATOM      7  C   UNL     1      11.919   9.384  14.833  1.00  0.00     0.020 A 
ATOM      8  C   UNL     1      10.902  10.208  15.312  1.00  0.00     0.094 A 
ATOM      9  C   UNL     1      10.699  11.451  14.706  1.00  0.00     0.336 A 
ATOM     10  O   UNL     1       9.787  12.212  15.123  1.00  0.00    -0.246 OA
ATOM     11  O   UNL     1      11.466  11.836  13.690  1.00  0.00    -0.419 OA
ENDROOT
BRANCH   1  12
ATOM     12  O   UNL     1      15.556   8.670  11.666  1.00  0.00    -0.493 OA
ATOM     13  C   UNL     1      15.556   7.246  11.646  1.00  0.00     0.278 C 
ENDBRANCH   1  12
BRANCH   2  14
ATOM     14  O   UNL     1      15.016  11.258  10.522  1.00  0.00    -0.490 OA
ATOM     15  C   UNL     1      16.226  12.006  10.586  1.00  0.00     0.278 C 
ENDBRANCH   2  14
BRANCH   3  16
ATOM     16  O   UNL     1      12.878  12.830  11.633  1.00  0.00    -0.490 OA
ATOM     17  C   UNL     1      12.060  13.125  10.506  1.00  0.00     0.278 C 
ENDBRANCH   3  16
TORSDOF 3
ENDMDL
