MODEL 1
REMARK VINA RESULT:    -6.851      0.000      0.000
REMARK INTER + INTRA:          -8.156
REMARK INTER:                  -7.852
REMARK INTRA:                  -0.304
REMARK UNBOUND:                -0.304
REMARK SMILES O=C1C[C@H](c2ccc(O)cc2)Oc2cc(O)cc(O)c21
REMARK SMILES IDX 3 1 4 2 12 3 13 4 14 5 15 6 17 7 18 8 20 9 2 10 1 11 5 12
REMARK SMILES IDX 6 13 11 14 7 15 10 16 8 17 9 18 19 20 16 22
REMARK H PARENT 9 19 19 21 16 23
REMARK Flexibility Score: inf
ROOT
ATOM      1  C   UNL     1      71.463 -35.816   7.812  1.00  0.00     0.131 C 
ATOM      2  C   UNL     1      70.719 -36.978   8.482  1.00  0.00     0.211 C 
ATOM      3  O   UNL     1      71.249 -37.213   9.785  1.00  0.00    -0.484 OA
ATOM      4  C   UNL     1      72.628 -37.253  10.023  1.00  0.00     0.138 A 
ATOM      5  C   UNL     1      73.088 -37.798  11.224  1.00  0.00     0.093 A 
ATOM      6  C   UNL     1      74.458 -37.877  11.482  1.00  0.00     0.123 A 
ATOM      7  C   UNL     1      75.369 -37.426  10.526  1.00  0.00     0.093 A 
ATOM      8  C   UNL     1      74.932 -36.883   9.312  1.00  0.00     0.133 A 
ATOM      9  C   UNL     1      73.536 -36.745   9.066  1.00  0.00     0.102 A 
ATOM     10  C   UNL     1      72.951 -36.020   7.900  1.00  0.00     0.174 C 
ATOM     11  O   UNL     1      73.676 -35.471   7.031  1.00  0.00    -0.294 OA
ENDROOT
BRANCH   2  12
ATOM     12  C   UNL     1      69.240 -36.689   8.567  1.00  0.00    -0.007 A 
ATOM     13  C   UNL     1      68.653 -35.710   7.747  1.00  0.00     0.011 A 
ATOM     14  C   UNL     1      68.423 -37.439   9.431  1.00  0.00     0.011 A 
ATOM     15  C   UNL     1      67.277 -35.468   7.809  1.00  0.00     0.046 A 
ATOM     16  C   UNL     1      67.048 -37.195   9.491  1.00  0.00     0.046 A 
ATOM     17  C   UNL     1      66.472 -36.207   8.681  1.00  0.00     0.115 A 
BRANCH  17  18
ATOM     18  O   UNL     1      65.102 -35.956   8.732  1.00  0.00    -0.508 OA
ATOM     19  H   UNL     1      64.423 -36.691   8.571  1.00  0.00     0.293 HD
ENDBRANCH  17  18
ENDBRANCH   2  12
BRANCH   8  20
ATOM     20  O   UNL     1      75.918 -36.520   8.391  1.00  0.00    -0.507 OA
ATOM     21  H   UNL     1      76.308 -35.593   8.306  1.00  0.00     0.293 HD
ENDBRANCH   8  20
BRANCH   6  22
ATOM     22  O   UNL     1      74.926 -38.413  12.680  1.00  0.00    -0.508 OA
ATOM     23  H   UNL     1      75.602 -37.920  13.252  1.00  0.00     0.293 HD
ENDBRANCH   6  22
TORSDOF 4
ENDMDL
MODEL 2
REMARK VINA RESULT:    -6.431      8.314     12.291
REMARK INTER + INTRA:          -7.676
REMARK INTER:                  -7.373
REMARK INTRA:                  -0.302
REMARK UNBOUND:                -0.304
REMARK SMILES O=C1C[C@H](c2ccc(O)cc2)Oc2cc(O)cc(O)c21
REMARK SMILES IDX 3 1 4 2 12 3 13 4 14 5 15 6 17 7 18 8 20 9 2 10 1 11 5 12
REMARK SMILES IDX 6 13 11 14 7 15 10 16 8 17 9 18 19 20 16 22
REMARK H PARENT 9 19 19 21 16 23
REMARK Flexibility Score: inf
ROOT
ATOM      1  C   UNL     1      62.450 -33.024  15.010  1.00  0.00     0.131 C 
ATOM      2  C   UNL     1      62.425 -32.630  13.528  1.00  0.00     0.211 C 
ATOM      3  O   UNL     1      63.064 -31.367  13.345  1.00  0.00    -0.484 OA
ATOM      4  C   UNL     1      62.805 -30.282  14.191  1.00  0.00     0.138 A 
ATOM      5  C   UNL     1      63.196 -29.004  13.785  1.00  0.00     0.093 A 
ATOM      6  C   UNL     1      62.930 -27.897  14.592  1.00  0.00     0.123 A 
ATOM      7  C   UNL     1      62.255 -28.068  15.801  1.00  0.00     0.093 A 
ATOM      8  C   UNL     1      61.846 -29.338  16.225  1.00  0.00     0.133 A 
ATOM      9  C   UNL     1      62.166 -30.479  15.435  1.00  0.00     0.102 A 
ATOM     10  C   UNL     1      61.949 -31.892  15.866  1.00  0.00     0.174 C 
ATOM     11  O   UNL     1      61.452 -32.174  16.987  1.00  0.00    -0.294 OA
ENDROOT
BRANCH   2  12
ATOM     12  C   UNL     1      63.102 -33.681  12.683  1.00  0.00    -0.007 A 
ATOM     13  C   UNL     1      63.348 -33.454  11.318  1.00  0.00     0.011 A 
ATOM     14  C   UNL     1      63.546 -34.879  13.268  1.00  0.00     0.011 A 
ATOM     15  C   UNL     1      64.003 -34.418  10.547  1.00  0.00     0.046 A 
ATOM     16  C   UNL     1      64.202 -35.843  12.495  1.00  0.00     0.046 A 
ATOM     17  C   UNL     1      64.430 -35.615  11.132  1.00  0.00     0.115 A 
BRANCH  17  18
ATOM     18  O   UNL     1      65.082 -36.568  10.351  1.00  0.00    -0.508 OA
ATOM     19  H   UNL     1      66.066 -36.484  10.126  1.00  0.00     0.293 HD
ENDBRANCH  17  18
ENDBRANCH   2  12
BRANCH   8  20
ATOM     20  O   UNL     1      61.119 -29.402  17.417  1.00  0.00    -0.507 OA
ATOM     21  H   UNL     1      61.487 -29.162  18.325  1.00  0.00     0.293 HD
ENDBRANCH   8  20
BRANCH   6  22
ATOM     22  O   UNL     1      63.322 -26.619  14.197  1.00  0.00    -0.508 OA
ATOM     23  H   UNL     1      63.883 -26.470  13.366  1.00  0.00     0.293 HD
ENDBRANCH   6  22
TORSDOF 4
ENDMDL
MODEL 3
REMARK VINA RESULT:    -6.184      9.082     12.297
REMARK INTER + INTRA:          -7.392
REMARK INTER:                  -7.094
REMARK INTRA:                  -0.299
REMARK UNBOUND:                -0.304
REMARK SMILES O=C1C[C@H](c2ccc(O)cc2)Oc2cc(O)cc(O)c21
REMARK SMILES IDX 3 1 4 2 12 3 13 4 14 5 15 6 17 7 18 8 20 9 2 10 1 11 5 12
REMARK SMILES IDX 6 13 11 14 7 15 10 16 8 17 9 18 19 20 16 22
REMARK H PARENT 9 19 19 21 16 23
REMARK Flexibility Score: inf
ROOT
ATOM      1  C   UNL     1      61.713 -32.613  15.364  1.00  0.00     0.131 C 
ATOM      2  C   UNL     1      62.694 -31.589  14.780  1.00  0.00     0.211 C 
ATOM      3  O   UNL     1      62.760 -31.728  13.361  1.00  0.00    -0.484 OA
ATOM      4  C   UNL     1      62.866 -32.981  12.747  1.00  0.00     0.138 A 
ATOM      5  C   UNL     1      63.247 -33.044  11.405  1.00  0.00     0.093 A 
ATOM      6  C   UNL     1      63.388 -34.278  10.770  1.00  0.00     0.123 A 
ATOM      7  C   UNL     1      63.165 -35.455  11.487  1.00  0.00     0.093 A 
ATOM      8  C   UNL     1      62.790 -35.418  12.835  1.00  0.00     0.133 A 
ATOM      9  C   UNL     1      62.586 -34.161  13.474  1.00  0.00     0.102 A 
ATOM     10  C   UNL     1      62.013 -33.991  14.841  1.00  0.00     0.174 C 
ATOM     11  O   UNL     1      61.665 -34.977  15.540  1.00  0.00    -0.294 OA
ENDROOT
BRANCH   2  12
ATOM     12  C   UNL     1      62.284 -30.184  15.146  1.00  0.00    -0.007 A 
ATOM     13  C   UNL     1      61.259 -29.957  16.080  1.00  0.00     0.011 A 
ATOM     14  C   UNL     1      62.965 -29.084  14.596  1.00  0.00     0.011 A 
ATOM     15  C   UNL     1      60.904 -28.653  16.438  1.00  0.00     0.046 A 
ATOM     16  C   UNL     1      62.609 -27.781  14.956  1.00  0.00     0.046 A 
ATOM     17  C   UNL     1      61.575 -27.562  15.877  1.00  0.00     0.115 A 
BRANCH  17  18
ATOM     18  O   UNL     1      61.211 -26.268  16.243  1.00  0.00    -0.508 OA
ATOM     19  H   UNL     1      61.748 -25.463  15.941  1.00  0.00     0.293 HD
ENDBRANCH  17  18
ENDBRANCH   2  12
BRANCH   8  20
ATOM     20  O   UNL     1      62.652 -36.647  13.486  1.00  0.00    -0.507 OA
ATOM     21  H   UNL     1      63.029 -37.519  13.148  1.00  0.00     0.293 HD
ENDBRANCH   8  20
BRANCH   6  22
ATOM     22  O   UNL     1      63.762 -34.350   9.429  1.00  0.00    -0.508 OA
ATOM     23  H   UNL     1      63.076 -34.296   8.685  1.00  0.00     0.293 HD
ENDBRANCH   6  22
TORSDOF 4
ENDMDL
MODEL 4
REMARK VINA RESULT:    -6.074     12.656     13.628
REMARK INTER + INTRA:          -7.266
REMARK INTER:                  -6.973
REMARK INTRA:                  -0.293
REMARK UNBOUND:                -0.304
REMARK SMILES O=C1C[C@H](c2ccc(O)cc2)Oc2cc(O)cc(O)c21
REMARK SMILES IDX 3 1 4 2 12 3 13 4 14 5 15 6 17 7 18 8 20 9 2 10 1 11 5 12
REMARK SMILES IDX 6 13 11 14 7 15 10 16 8 17 9 18 19 20 16 22
REMARK H PARENT 9 19 19 21 16 23
REMARK Flexibility Score: inf
ROOT
ATOM      1  C   UNL     1      74.954 -30.763  21.431  1.00  0.00     0.131 C 
ATOM      2  C   UNL     1      74.009 -31.259  20.330  1.00  0.00     0.211 C 
ATOM      3  O   UNL     1      73.154 -32.280  20.841  1.00  0.00    -0.484 OA
ATOM      4  C   UNL     1      73.645 -33.324  21.634  1.00  0.00     0.138 A 
ATOM      5  C   UNL     1      72.846 -34.451  21.834  1.00  0.00     0.093 A 
ATOM      6  C   UNL     1      73.315 -35.521  22.597  1.00  0.00     0.123 A 
ATOM      7  C   UNL     1      74.597 -35.469  23.147  1.00  0.00     0.093 A 
ATOM      8  C   UNL     1      75.420 -34.353  22.954  1.00  0.00     0.133 A 
ATOM      9  C   UNL     1      74.925 -33.233  22.226  1.00  0.00     0.102 A 
ATOM     10  C   UNL     1      75.631 -31.923  22.109  1.00  0.00     0.174 C 
ATOM     11  O   UNL     1      76.742 -31.719  22.661  1.00  0.00    -0.294 OA
ENDROOT
BRANCH   2  12
ATOM     12  C   UNL     1      73.186 -30.121  19.777  1.00  0.00    -0.007 A 
ATOM     13  C   UNL     1      72.073 -29.633  20.483  1.00  0.00     0.011 A 
ATOM     14  C   UNL     1      73.560 -29.499  18.574  1.00  0.00     0.011 A 
ATOM     15  C   UNL     1      71.332 -28.559  19.981  1.00  0.00     0.046 A 
ATOM     16  C   UNL     1      72.818 -28.424  18.074  1.00  0.00     0.046 A 
ATOM     17  C   UNL     1      71.701 -27.954  18.775  1.00  0.00     0.115 A 
BRANCH  17  18
ATOM     18  O   UNL     1      70.954 -26.883  18.286  1.00  0.00    -0.508 OA
ATOM     19  H   UNL     1      71.235 -25.924  18.450  1.00  0.00     0.293 HD
ENDBRANCH  17  18
ENDBRANCH   2  12
BRANCH   8  20
ATOM     20  O   UNL     1      76.709 -34.420  23.488  1.00  0.00    -0.507 OA
ATOM     21  H   UNL     1      77.535 -34.661  22.961  1.00  0.00     0.293 HD
ENDBRANCH   8  20
BRANCH   6  22
ATOM     22  O   UNL     1      72.522 -36.648  22.807  1.00  0.00    -0.508 OA
ATOM     23  H   UNL     1      72.629 -37.483  22.243  1.00  0.00     0.293 HD
ENDBRANCH   6  22
TORSDOF 4
ENDMDL
MODEL 5
REMARK VINA RESULT:    -5.954     11.562     14.006
REMARK INTER + INTRA:          -7.128
REMARK INTER:                  -6.843
REMARK INTRA:                  -0.285
REMARK UNBOUND:                -0.304
REMARK SMILES O=C1C[C@H](c2ccc(O)cc2)Oc2cc(O)cc(O)c21
REMARK SMILES IDX 3 1 4 2 12 3 13 4 14 5 15 6 17 7 18 8 20 9 2 10 1 11 5 12
REMARK SMILES IDX 6 13 11 14 7 15 10 16 8 17 9 18 19 20 16 22
REMARK H PARENT 9 19 19 21 16 23
REMARK Flexibility Score: inf
ROOT
ATOM      1  C   UNL     1      72.330 -30.557  21.688  1.00  0.00     0.131 C 
ATOM      2  C   UNL     1      72.548 -31.801  20.819  1.00  0.00     0.211 C 
ATOM      3  O   UNL     1      73.050 -31.425  19.538  1.00  0.00    -0.484 OA
ATOM      4  C   UNL     1      72.500 -30.359  18.816  1.00  0.00     0.138 A 
ATOM      5  C   UNL     1      72.803 -30.238  17.458  1.00  0.00     0.093 A 
ATOM      6  C   UNL     1      72.251 -29.202  16.703  1.00  0.00     0.123 A 
ATOM      7  C   UNL     1      71.378 -28.295  17.306  1.00  0.00     0.093 A 
ATOM      8  C   UNL     1      71.053 -28.401  18.664  1.00  0.00     0.133 A 
ATOM      9  C   UNL     1      71.658 -29.419  19.454  1.00  0.00     0.102 A 
ATOM     10  C   UNL     1      71.537 -29.521  20.938  1.00  0.00     0.174 C 
ATOM     11  O   UNL     1      70.869 -28.691  21.606  1.00  0.00    -0.294 OA
ENDROOT
BRANCH   2  12
ATOM     12  C   UNL     1      73.501 -32.762  21.488  1.00  0.00    -0.007 A 
ATOM     13  C   UNL     1      73.091 -34.066  21.817  1.00  0.00     0.011 A 
ATOM     14  C   UNL     1      74.829 -32.379  21.739  1.00  0.00     0.011 A 
ATOM     15  C   UNL     1      73.987 -34.961  22.408  1.00  0.00     0.046 A 
ATOM     16  C   UNL     1      75.724 -33.276  22.330  1.00  0.00     0.046 A 
ATOM     17  C   UNL     1      75.304 -34.569  22.668  1.00  0.00     0.115 A 
BRANCH  17  18
ATOM     18  O   UNL     1      76.187 -35.472  23.258  1.00  0.00    -0.508 OA
ATOM     19  H   UNL     1      76.188 -36.452  23.004  1.00  0.00     0.293 HD
ENDBRANCH  17  18
ENDBRANCH   2  12
BRANCH   8  20
ATOM     20  O   UNL     1      70.121 -27.487  19.162  1.00  0.00    -0.507 OA
ATOM     21  H   UNL     1      70.029 -27.236  20.135  1.00  0.00     0.293 HD
ENDBRANCH   8  20
BRANCH   6  22
ATOM     22  O   UNL     1      72.553 -29.070  15.349  1.00  0.00    -0.508 OA
ATOM     23  H   UNL     1      73.047 -28.260  14.993  1.00  0.00     0.293 HD
ENDBRANCH   6  22
TORSDOF 4
ENDMDL
MODEL 6
REMARK VINA RESULT:    -5.849      1.345      1.985
REMARK INTER + INTRA:          -7.008
REMARK INTER:                  -6.700
REMARK INTRA:                  -0.309
REMARK UNBOUND:                -0.304
REMARK SMILES O=C1C[C@H](c2ccc(O)cc2)Oc2cc(O)cc(O)c21
REMARK SMILES IDX 3 1 4 2 12 3 13 4 14 5 15 6 17 7 18 8 20 9 2 10 1 11 5 12
REMARK SMILES IDX 6 13 11 14 7 15 10 16 8 17 9 18 19 20 16 22
REMARK H PARENT 9 19 19 21 16 23
REMARK Flexibility Score: inf
ROOT
ATOM      1  C   UNL     1      69.665 -36.249   8.238  1.00  0.00     0.131 C 
ATOM      2  C   UNL     1      69.256 -37.555   8.930  1.00  0.00     0.211 C 
ATOM      3  O   UNL     1      70.008 -37.731  10.130  1.00  0.00    -0.484 OA
ATOM      4  C   UNL     1      71.390 -37.515  10.171  1.00  0.00     0.138 A 
ATOM      5  C   UNL     1      72.116 -38.004  11.259  1.00  0.00     0.093 A 
ATOM      6  C   UNL     1      73.499 -37.829  11.318  1.00  0.00     0.123 A 
ATOM      7  C   UNL     1      74.160 -37.178  10.276  1.00  0.00     0.093 A 
ATOM      8  C   UNL     1      73.455 -36.686   9.171  1.00  0.00     0.133 A 
ATOM      9  C   UNL     1      72.037 -36.809   9.131  1.00  0.00     0.102 A 
ATOM     10  C   UNL     1      71.162 -36.168   8.106  1.00  0.00     0.174 C 
ATOM     11  O   UNL     1      71.636 -35.460   7.181  1.00  0.00    -0.294 OA
ENDROOT
BRANCH   2  12
ATOM     12  C   UNL     1      67.779 -37.557   9.239  1.00  0.00    -0.007 A 
ATOM     13  C   UNL     1      67.323 -37.450  10.565  1.00  0.00     0.011 A 
ATOM     14  C   UNL     1      66.839 -37.611   8.195  1.00  0.00     0.011 A 
ATOM     15  C   UNL     1      65.954 -37.422  10.842  1.00  0.00     0.046 A 
ATOM     16  C   UNL     1      65.470 -37.582   8.475  1.00  0.00     0.046 A 
ATOM     17  C   UNL     1      65.023 -37.490   9.800  1.00  0.00     0.115 A 
BRANCH  17  18
ATOM     18  O   UNL     1      63.661 -37.461  10.091  1.00  0.00    -0.508 OA
ATOM     19  H   UNL     1      63.169 -36.587  10.232  1.00  0.00     0.293 HD
ENDBRANCH  17  18
ENDBRANCH   2  12
BRANCH   8  20
ATOM     20  O   UNL     1      74.210 -36.108   8.147  1.00  0.00    -0.507 OA
ATOM     21  H   UNL     1      75.211 -36.188   8.059  1.00  0.00     0.293 HD
ENDBRANCH   8  20
BRANCH   6  22
ATOM     22  O   UNL     1      74.231 -38.309  12.404  1.00  0.00    -0.508 OA
ATOM     23  H   UNL     1      75.099 -37.872  12.691  1.00  0.00     0.293 HD
ENDBRANCH   6  22
TORSDOF 4
ENDMDL
MODEL 7
REMARK VINA RESULT:    -5.815     13.429     14.093
REMARK INTER + INTRA:          -6.970
REMARK INTER:                  -6.680
REMARK INTRA:                  -0.289
REMARK UNBOUND:                -0.304
REMARK SMILES O=C1C[C@H](c2ccc(O)cc2)Oc2cc(O)cc(O)c21
REMARK SMILES IDX 3 1 4 2 12 3 13 4 14 5 15 6 17 7 18 8 20 9 2 10 1 11 5 12
REMARK SMILES IDX 6 13 11 14 7 15 10 16 8 17 9 18 19 20 16 22
REMARK H PARENT 9 19 19 21 16 23
REMARK Flexibility Score: inf
ROOT
ATOM      1  C   UNL     1      70.393 -27.667  20.928  1.00  0.00     0.131 C 
ATOM      2  C   UNL     1      70.594 -26.760  19.708  1.00  0.00     0.211 C 
ATOM      3  O   UNL     1      70.614 -27.541  18.514  1.00  0.00    -0.484 OA
ATOM      4  C   UNL     1      71.348 -28.729  18.424  1.00  0.00     0.138 A 
ATOM      5  C   UNL     1      71.594 -29.274  17.162  1.00  0.00     0.093 A 
ATOM      6  C   UNL     1      72.345 -30.443  17.034  1.00  0.00     0.123 A 
ATOM      7  C   UNL     1      72.867 -31.058  18.172  1.00  0.00     0.093 A 
ATOM      8  C   UNL     1      72.641 -30.527  19.448  1.00  0.00     0.133 A 
ATOM      9  C   UNL     1      71.827 -29.367  19.591  1.00  0.00     0.102 A 
ATOM     10  C   UNL     1      71.364 -28.816  20.899  1.00  0.00     0.174 C 
ATOM     11  O   UNL     1      71.677 -29.355  21.991  1.00  0.00    -0.294 OA
ENDROOT
BRANCH   2  12
ATOM     12  C   UNL     1      69.504 -25.719  19.629  1.00  0.00    -0.007 A 
ATOM     13  C   UNL     1      69.596 -24.654  18.717  1.00  0.00     0.011 A 
ATOM     14  C   UNL     1      68.356 -25.836  20.431  1.00  0.00     0.011 A 
ATOM     15  C   UNL     1      68.569 -23.709  18.626  1.00  0.00     0.046 A 
ATOM     16  C   UNL     1      67.330 -24.891  20.339  1.00  0.00     0.046 A 
ATOM     17  C   UNL     1      67.435 -23.823  19.438  1.00  0.00     0.115 A 
BRANCH  17  18
ATOM     18  O   UNL     1      66.419 -22.875  19.337  1.00  0.00    -0.508 OA
ATOM     19  H   UNL     1      66.466 -21.995  19.837  1.00  0.00     0.293 HD
ENDBRANCH  17  18
ENDBRANCH   2  12
BRANCH   8  20
ATOM     20  O   UNL     1      73.259 -31.175  20.520  1.00  0.00    -0.507 OA
ATOM     21  H   UNL     1      73.249 -30.842  21.472  1.00  0.00     0.293 HD
ENDBRANCH   8  20
BRANCH   6  22
ATOM     22  O   UNL     1      72.590 -30.998  15.779  1.00  0.00    -0.508 OA
ATOM     23  H   UNL     1      73.527 -31.245  15.483  1.00  0.00     0.293 HD
ENDBRANCH   6  22
TORSDOF 4
ENDMDL
MODEL 8
REMARK VINA RESULT:    -5.762      1.885      7.176
REMARK INTER + INTRA:          -6.908
REMARK INTER:                  -6.596
REMARK INTRA:                  -0.312
REMARK UNBOUND:                -0.304
REMARK SMILES O=C1C[C@H](c2ccc(O)cc2)Oc2cc(O)cc(O)c21
REMARK SMILES IDX 3 1 4 2 12 3 13 4 14 5 15 6 17 7 18 8 20 9 2 10 1 11 5 12
REMARK SMILES IDX 6 13 11 14 7 15 10 16 8 17 9 18 19 20 16 22
REMARK H PARENT 9 19 19 21 16 23
REMARK Flexibility Score: inf
ROOT
ATOM      1  C   UNL     1      71.800 -37.520  10.595  1.00  0.00     0.131 C 
ATOM      2  C   UNL     1      72.969 -37.435   9.607  1.00  0.00     0.211 C 
ATOM      3  O   UNL     1      72.843 -36.267   8.796  1.00  0.00    -0.484 OA
ATOM      4  C   UNL     1      71.623 -35.904   8.213  1.00  0.00     0.138 A 
ATOM      5  C   UNL     1      71.623 -34.957   7.187  1.00  0.00     0.093 A 
ATOM      6  C   UNL     1      70.427 -34.592   6.567  1.00  0.00     0.123 A 
ATOM      7  C   UNL     1      69.231 -35.191   6.963  1.00  0.00     0.093 A 
ATOM      8  C   UNL     1      69.207 -36.148   7.984  1.00  0.00     0.133 A 
ATOM      9  C   UNL     1      70.414 -36.483   8.661  1.00  0.00     0.102 A 
ATOM     10  C   UNL     1      70.489 -37.344   9.878  1.00  0.00     0.174 C 
ATOM     11  O   UNL     1      69.459 -37.848  10.397  1.00  0.00    -0.294 OA
ENDROOT
BRANCH   2  12
ATOM     12  C   UNL     1      74.289 -37.418  10.338  1.00  0.00    -0.007 A 
ATOM     13  C   UNL     1      74.475 -38.191  11.498  1.00  0.00     0.011 A 
ATOM     14  C   UNL     1      75.367 -36.671   9.833  1.00  0.00     0.011 A 
ATOM     15  C   UNL     1      75.709 -38.195  12.154  1.00  0.00     0.046 A 
ATOM     16  C   UNL     1      76.601 -36.677  10.491  1.00  0.00     0.046 A 
ATOM     17  C   UNL     1      76.774 -37.438  11.655  1.00  0.00     0.115 A 
BRANCH  17  18
ATOM     18  O   UNL     1      77.999 -37.451  12.319  1.00  0.00    -0.508 OA
ATOM     19  H   UNL     1      78.560 -36.612  12.413  1.00  0.00     0.293 HD
ENDBRANCH  17  18
ENDBRANCH   2  12
BRANCH   8  20
ATOM     20  O   UNL     1      67.972 -36.739   8.266  1.00  0.00    -0.507 OA
ATOM     21  H   UNL     1      67.327 -37.076   7.568  1.00  0.00     0.293 HD
ENDBRANCH   8  20
BRANCH   6  22
ATOM     22  O   UNL     1      70.417 -33.643   5.546  1.00  0.00    -0.508 OA
ATOM     23  H   UNL     1      71.131 -33.631   4.827  1.00  0.00     0.293 HD
ENDBRANCH   6  22
TORSDOF 4
ENDMDL
MODEL 9
REMARK VINA RESULT:    -5.536     11.841     13.728
REMARK INTER + INTRA:          -6.650
REMARK INTER:                  -6.371
REMARK INTRA:                  -0.279
REMARK UNBOUND:                -0.304
REMARK SMILES O=C1C[C@H](c2ccc(O)cc2)Oc2cc(O)cc(O)c21
REMARK SMILES IDX 3 1 4 2 12 3 13 4 14 5 15 6 17 7 18 8 20 9 2 10 1 11 5 12
REMARK SMILES IDX 6 13 11 14 7 15 10 16 8 17 9 18 19 20 16 22
REMARK H PARENT 9 19 19 21 16 23
REMARK Flexibility Score: inf
ROOT
ATOM      1  C   UNL     1      72.876 -31.103  18.399  1.00  0.00     0.131 C 
ATOM      2  C   UNL     1      73.864 -30.612  19.464  1.00  0.00     0.211 C 
ATOM      3  O   UNL     1      73.521 -29.291  19.879  1.00  0.00    -0.484 OA
ATOM      4  C   UNL     1      73.190 -28.291  18.956  1.00  0.00     0.138 A 
ATOM      5  C   UNL     1      73.181 -26.961  19.378  1.00  0.00     0.093 A 
ATOM      6  C   UNL     1      72.881 -25.938  18.477  1.00  0.00     0.123 A 
ATOM      7  C   UNL     1      72.607 -26.248  17.145  1.00  0.00     0.093 A 
ATOM      8  C   UNL     1      72.618 -27.574  16.695  1.00  0.00     0.133 A 
ATOM      9  C   UNL     1      72.866 -28.627  17.622  1.00  0.00     0.102 A 
ATOM     10  C   UNL     1      72.724 -30.080  17.307  1.00  0.00     0.174 C 
ATOM     11  O   UNL     1      72.369 -30.478  16.168  1.00  0.00    -0.294 OA
ENDROOT
BRANCH   2  12
ATOM     12  C   UNL     1      73.877 -31.542  20.652  1.00  0.00    -0.007 A 
ATOM     13  C   UNL     1      72.751 -32.326  20.960  1.00  0.00     0.011 A 
ATOM     14  C   UNL     1      75.038 -31.675  21.432  1.00  0.00     0.011 A 
ATOM     15  C   UNL     1      72.780 -33.209  22.044  1.00  0.00     0.046 A 
ATOM     16  C   UNL     1      75.064 -32.558  22.516  1.00  0.00     0.046 A 
ATOM     17  C   UNL     1      73.934 -33.326  22.826  1.00  0.00     0.115 A 
BRANCH  17  18
ATOM     18  O   UNL     1      73.948 -34.210  23.903  1.00  0.00    -0.508 OA
ATOM     19  H   UNL     1      74.726 -34.841  24.059  1.00  0.00     0.293 HD
ENDBRANCH  17  18
ENDBRANCH   2  12
BRANCH   8  20
ATOM     20  O   UNL     1      72.397 -27.780  15.331  1.00  0.00    -0.507 OA
ATOM     21  H   UNL     1      73.040 -27.516  14.601  1.00  0.00     0.293 HD
ENDBRANCH   8  20
BRANCH   6  22
ATOM     22  O   UNL     1      72.863 -24.607  18.892  1.00  0.00    -0.508 OA
ATOM     23  H   UNL     1      73.720 -24.079  19.011  1.00  0.00     0.293 HD
ENDBRANCH   6  22
TORSDOF 4
ENDMDL
