MODEL 1
REMARK VINA RESULT:    -3.125      0.000      0.000
REMARK INTER + INTRA:          -5.179
REMARK INTER:                  -4.404
REMARK INTRA:                  -0.775
REMARK UNBOUND:                -0.775
REMARK SMILES CCCCCCCCC(=O)[O-]
REMARK SMILES IDX 6 1 7 2 8 3 9 4 10 5 11 6 5 7 4 8 3 9 2 10 1 11
REMARK H PARENT
REMARK Flexibility Score: inf
ROOT
ATOM      1  C   UNL     1       4.871  11.183   7.583  1.00  0.00     0.000 C 
ENDROOT
BRANCH   1   2
ATOM      2  C   UNL     1       5.433  12.341   8.423  1.00  0.00     0.006 C 
BRANCH   2   3
ATOM      3  C   UNL     1       6.248  13.303   7.555  1.00  0.00     0.053 C 
BRANCH   3   4
ATOM      4  C   UNL     1       7.682  13.306   7.978  1.00  0.00     0.041 C 
ATOM      5  O   UNL     1       8.006  12.885   9.120  1.00  0.00    -0.550 OA
ATOM      6  O   UNL     1       8.667  13.729   7.095  1.00  0.00    -0.550 OA
ENDBRANCH   3   4
ENDBRANCH   2   3
ENDBRANCH   1   2
BRANCH   1   7
ATOM      7  C   UNL     1       5.461   9.821   7.980  1.00  0.00     0.000 C 
BRANCH   7   8
ATOM      8  C   UNL     1       6.854   9.580   7.375  1.00  0.00    -0.000 C 
BRANCH   8   9
ATOM      9  C   UNL     1       7.949   9.450   8.446  1.00  0.00    -0.000 C 
BRANCH   9  10
ATOM     10  C   UNL     1       9.352   9.748   7.899  1.00  0.00    -0.003 C 
ATOM     11  C   UNL     1       9.285  10.257   6.461  1.00  0.00     0.004 C 
ENDBRANCH   9  10
ENDBRANCH   8   9
ENDBRANCH   7   8
ENDBRANCH   1   7
TORSDOF 7
ENDMDL
MODEL 2
REMARK VINA RESULT:    -2.990      0.686      1.276
REMARK INTER + INTRA:          -4.989
REMARK INTER:                  -4.390
REMARK INTRA:                  -0.599
REMARK UNBOUND:                -0.775
REMARK SMILES CCCCCCCCC(=O)[O-]
REMARK SMILES IDX 6 1 7 2 8 3 9 4 10 5 11 6 5 7 4 8 3 9 2 10 1 11
REMARK H PARENT
REMARK Flexibility Score: inf
ROOT
ATOM      1  C   UNL     1       5.214  11.297   7.618  1.00  0.00     0.000 C 
ENDROOT
BRANCH   1   2
ATOM      2  C   UNL     1       5.332  12.661   8.315  1.00  0.00     0.006 C 
BRANCH   2   3
ATOM      3  C   UNL     1       6.249  13.601   7.528  1.00  0.00     0.053 C 
BRANCH   3   4
ATOM      4  C   UNL     1       7.679  13.374   7.903  1.00  0.00     0.041 C 
ATOM      5  O   UNL     1       8.600  13.680   7.100  1.00  0.00    -0.550 OA
ATOM      6  O   UNL     1       7.998  12.871   9.157  1.00  0.00    -0.550 OA
ENDBRANCH   3   4
ENDBRANCH   2   3
ENDBRANCH   1   2
BRANCH   1   7
ATOM      7  C   UNL     1       5.836  10.155   8.437  1.00  0.00     0.000 C 
BRANCH   7   8
ATOM      8  C   UNL     1       6.671   9.194   7.574  1.00  0.00    -0.000 C 
BRANCH   8   9
ATOM      9  C   UNL     1       7.905   9.875   6.958  1.00  0.00    -0.000 C 
BRANCH   9  10
ATOM     10  C   UNL     1       9.153   9.754   7.844  1.00  0.00    -0.003 C 
ATOM     11  C   UNL     1      10.091   8.666   7.327  1.00  0.00     0.004 C 
ENDBRANCH   9  10
ENDBRANCH   8   9
ENDBRANCH   7   8
ENDBRANCH   1   7
TORSDOF 7
ENDMDL
MODEL 3
REMARK VINA RESULT:    -2.982      2.930      5.033
REMARK INTER + INTRA:          -4.978
REMARK INTER:                  -4.540
REMARK INTRA:                  -0.438
REMARK UNBOUND:                -0.775
REMARK SMILES CCCCCCCCC(=O)[O-]
REMARK SMILES IDX 6 1 7 2 8 3 9 4 10 5 11 6 5 7 4 8 3 9 2 10 1 11
REMARK H PARENT
REMARK Flexibility Score: inf
ROOT
ATOM      1  C   UNL     1       7.906   9.984   7.240  1.00  0.00     0.000 C 
ENDROOT
BRANCH   1   2
ATOM      2  C   UNL     1       8.609   9.181   6.134  1.00  0.00     0.006 C 
BRANCH   2   3
ATOM      3  C   UNL     1       9.883   9.892   5.667  1.00  0.00     0.053 C 
BRANCH   3   4
ATOM      4  C   UNL     1      11.035   8.939   5.641  1.00  0.00     0.041 C 
ATOM      5  O   UNL     1      12.005   9.140   4.863  1.00  0.00    -0.550 OA
ATOM      6  O   UNL     1      11.063   7.857   6.510  1.00  0.00    -0.550 OA
ENDBRANCH   3   4
ENDBRANCH   2   3
ENDBRANCH   1   2
BRANCH   1   7
ATOM      7  C   UNL     1       8.702  11.226   7.671  1.00  0.00     0.000 C 
BRANCH   7   8
ATOM      8  C   UNL     1       7.850  12.228   8.468  1.00  0.00    -0.000 C 
BRANCH   8   9
ATOM      9  C   UNL     1       7.357  13.401   7.605  1.00  0.00    -0.000 C 
BRANCH   9  10
ATOM     10  C   UNL     1       5.848  13.650   7.749  1.00  0.00    -0.003 C 
ATOM     11  C   UNL     1       5.071  12.336   7.745  1.00  0.00     0.004 C 
ENDBRANCH   9  10
ENDBRANCH   8   9
ENDBRANCH   7   8
ENDBRANCH   1   7
TORSDOF 7
ENDMDL
MODEL 4
REMARK VINA RESULT:    -2.979      1.323      3.584
REMARK INTER + INTRA:          -4.973
REMARK INTER:                  -4.321
REMARK INTRA:                  -0.652
REMARK UNBOUND:                -0.775
REMARK SMILES CCCCCCCCC(=O)[O-]
REMARK SMILES IDX 6 1 7 2 8 3 9 4 10 5 11 6 5 7 4 8 3 9 2 10 1 11
REMARK H PARENT
REMARK Flexibility Score: inf
ROOT
ATOM      1  C   UNL     1       6.388  10.455   8.257  1.00  0.00     0.000 C 
ENDROOT
BRANCH   1   2
ATOM      2  C   UNL     1       7.369   9.890   7.217  1.00  0.00     0.006 C 
BRANCH   2   3
ATOM      3  C   UNL     1       8.805   9.921   7.747  1.00  0.00     0.053 C 
BRANCH   3   4
ATOM      4  C   UNL     1       9.162  11.295   8.216  1.00  0.00     0.041 C 
ATOM      5  O   UNL     1       9.396  11.507   9.435  1.00  0.00    -0.550 OA
ATOM      6  O   UNL     1       9.286  12.332   7.301  1.00  0.00    -0.550 OA
ENDBRANCH   3   4
ENDBRANCH   2   3
ENDBRANCH   1   2
BRANCH   1   7
ATOM      7  C   UNL     1       5.061  10.916   7.633  1.00  0.00     0.000 C 
BRANCH   7   8
ATOM      8  C   UNL     1       4.769  12.403   7.898  1.00  0.00    -0.000 C 
BRANCH   8   9
ATOM      9  C   UNL     1       5.965  13.309   7.561  1.00  0.00    -0.000 C 
BRANCH   9  10
ATOM     10  C   UNL     1       6.236  14.361   8.646  1.00  0.00    -0.003 C 
ATOM     11  C   UNL     1       6.657  13.702   9.957  1.00  0.00     0.004 C 
ENDBRANCH   9  10
ENDBRANCH   8   9
ENDBRANCH   7   8
ENDBRANCH   1   7
TORSDOF 7
ENDMDL
MODEL 5
REMARK VINA RESULT:    -2.964      2.964      4.867
REMARK INTER + INTRA:          -4.952
REMARK INTER:                  -4.445
REMARK INTRA:                  -0.507
REMARK UNBOUND:                -0.775
REMARK SMILES CCCCCCCCC(=O)[O-]
REMARK SMILES IDX 6 1 7 2 8 3 9 4 10 5 11 6 5 7 4 8 3 9 2 10 1 11
REMARK H PARENT
REMARK Flexibility Score: inf
ROOT
ATOM      1  C   UNL     1       9.045  11.350   7.497  1.00  0.00     0.000 C 
ENDROOT
BRANCH   1   2
ATOM      2  C   UNL     1       9.181   9.892   7.030  1.00  0.00     0.006 C 
BRANCH   2   3
ATOM      3  C   UNL     1       9.770   9.822   5.619  1.00  0.00     0.053 C 
BRANCH   3   4
ATOM      4  C   UNL     1      10.938   8.889   5.583  1.00  0.00     0.041 C 
ATOM      5  O   UNL     1      10.883   7.782   6.181  1.00  0.00    -0.550 OA
ATOM      6  O   UNL     1      12.070   9.220   4.849  1.00  0.00    -0.550 OA
ENDBRANCH   3   4
ENDBRANCH   2   3
ENDBRANCH   1   2
BRANCH   1   7
ATOM      7  C   UNL     1       8.720  11.468   8.994  1.00  0.00     0.000 C 
BRANCH   7   8
ATOM      8  C   UNL     1       7.382  12.181   9.255  1.00  0.00    -0.000 C 
BRANCH   8   9
ATOM      9  C   UNL     1       6.742  12.723   7.967  1.00  0.00    -0.000 C 
BRANCH   9  10
ATOM     10  C   UNL     1       5.319  12.191   7.743  1.00  0.00    -0.003 C 
ATOM     11  C   UNL     1       5.305  10.666   7.683  1.00  0.00     0.004 C 
ENDBRANCH   9  10
ENDBRANCH   8   9
ENDBRANCH   7   8
ENDBRANCH   1   7
TORSDOF 7
ENDMDL
MODEL 6
REMARK VINA RESULT:    -2.907      1.516      2.780
REMARK INTER + INTRA:          -4.872
REMARK INTER:                  -4.197
REMARK INTRA:                  -0.675
REMARK UNBOUND:                -0.775
REMARK SMILES CCCCCCCCC(=O)[O-]
REMARK SMILES IDX 6 1 7 2 8 3 9 4 10 5 11 6 5 7 4 8 3 9 2 10 1 11
REMARK H PARENT
REMARK Flexibility Score: inf
ROOT
ATOM      1  C   UNL     1       7.959   9.762   8.321  1.00  0.00     0.000 C 
ENDROOT
BRANCH   1   2
ATOM      2  C   UNL     1       7.017  10.618   7.460  1.00  0.00     0.006 C 
BRANCH   2   3
ATOM      3  C   UNL     1       6.499  11.824   8.247  1.00  0.00     0.053 C 
BRANCH   3   4
ATOM      4  C   UNL     1       7.616  12.770   8.552  1.00  0.00     0.041 C 
ATOM      5  O   UNL     1       7.963  12.978   9.745  1.00  0.00    -0.550 OA
ATOM      6  O   UNL     1       8.308  13.385   7.517  1.00  0.00    -0.550 OA
ENDBRANCH   3   4
ENDBRANCH   2   3
ENDBRANCH   1   2
BRANCH   1   7
ATOM      7  C   UNL     1       9.394   9.722   7.773  1.00  0.00     0.000 C 
BRANCH   7   8
ATOM      8  C   UNL     1       9.480  10.173   6.306  1.00  0.00    -0.000 C 
BRANCH   8   9
ATOM      9  C   UNL     1      10.036   9.077   5.382  1.00  0.00    -0.000 C 
BRANCH   9  10
ATOM     10  C   UNL     1       8.984   8.536   4.404  1.00  0.00    -0.003 C 
ATOM     11  C   UNL     1       8.038   7.559   5.098  1.00  0.00     0.004 C 
ENDBRANCH   9  10
ENDBRANCH   8   9
ENDBRANCH   7   8
ENDBRANCH   1   7
TORSDOF 7
ENDMDL
MODEL 7
REMARK VINA RESULT:    -2.839      2.902      3.434
REMARK INTER + INTRA:          -4.776
REMARK INTER:                  -4.442
REMARK INTRA:                  -0.334
REMARK UNBOUND:                -0.775
REMARK SMILES CCCCCCCCC(=O)[O-]
REMARK SMILES IDX 6 1 7 2 8 3 9 4 10 5 11 6 5 7 4 8 3 9 2 10 1 11
REMARK H PARENT
REMARK Flexibility Score: inf
ROOT
ATOM      1  C   UNL     1       5.408  12.416   7.947  1.00  0.00     0.000 C 
ENDROOT
BRANCH   1   2
ATOM      2  C   UNL     1       5.698  13.814   7.378  1.00  0.00     0.006 C 
BRANCH   2   3
ATOM      3  C   UNL     1       4.596  14.803   7.769  1.00  0.00     0.053 C 
BRANCH   3   4
ATOM      4  C   UNL     1       3.555  14.879   6.698  1.00  0.00     0.041 C 
ATOM      5  O   UNL     1       3.746  15.593   5.678  1.00  0.00    -0.550 OA
ATOM      6  O   UNL     1       2.395  14.124   6.802  1.00  0.00    -0.550 OA
ENDBRANCH   3   4
ENDBRANCH   2   3
ENDBRANCH   1   2
BRANCH   1   7
ATOM      7  C   UNL     1       6.590  11.449   7.778  1.00  0.00     0.000 C 
BRANCH   7   8
ATOM      8  C   UNL     1       7.930  12.071   8.208  1.00  0.00    -0.000 C 
BRANCH   8   9
ATOM      9  C   UNL     1       9.102  11.618   7.323  1.00  0.00    -0.000 C 
BRANCH   9  10
ATOM     10  C   UNL     1       9.057  10.117   7.001  1.00  0.00    -0.003 C 
ATOM     11  C   UNL     1       9.810   9.809   5.709  1.00  0.00     0.004 C 
ENDBRANCH   9  10
ENDBRANCH   8   9
ENDBRANCH   7   8
ENDBRANCH   1   7
TORSDOF 7
ENDMDL
MODEL 8
REMARK VINA RESULT:    -2.832      1.962      4.098
REMARK INTER + INTRA:          -4.766
REMARK INTER:                  -3.928
REMARK INTRA:                  -0.839
REMARK UNBOUND:                -0.775
REMARK SMILES CCCCCCCCC(=O)[O-]
REMARK SMILES IDX 6 1 7 2 8 3 9 4 10 5 11 6 5 7 4 8 3 9 2 10 1 11
REMARK H PARENT
REMARK Flexibility Score: inf
ROOT
ATOM      1  C   UNL     1       7.921  11.295  10.400  1.00  0.00     0.000 C 
ENDROOT
BRANCH   1   2
ATOM      2  C   UNL     1       9.145  11.177   9.478  1.00  0.00     0.006 C 
BRANCH   2   3
ATOM      3  C   UNL     1       8.772  10.499   8.157  1.00  0.00     0.053 C 
BRANCH   3   4
ATOM      4  C   UNL     1       9.347  11.252   7.000  1.00  0.00     0.041 C 
ATOM      5  O   UNL     1       9.697  10.639   5.957  1.00  0.00    -0.550 OA
ATOM      6  O   UNL     1       9.450  12.636   7.053  1.00  0.00    -0.550 OA
ENDBRANCH   3   4
ENDBRANCH   2   3
ENDBRANCH   1   2
BRANCH   1   7
ATOM      7  C   UNL     1       7.568  12.752  10.736  1.00  0.00     0.000 C 
BRANCH   7   8
ATOM      8  C   UNL     1       6.294  13.233  10.022  1.00  0.00    -0.000 C 
BRANCH   8   9
ATOM      9  C   UNL     1       6.599  14.022   8.738  1.00  0.00    -0.000 C 
BRANCH   9  10
ATOM     10  C   UNL     1       6.042  13.343   7.478  1.00  0.00    -0.003 C 
ATOM     11  C   UNL     1       5.318  12.045   7.828  1.00  0.00     0.004 C 
ENDBRANCH   9  10
ENDBRANCH   8   9
ENDBRANCH   7   8
ENDBRANCH   1   7
TORSDOF 7
ENDMDL
MODEL 9
REMARK VINA RESULT:    -2.700      2.038      2.612
REMARK INTER + INTRA:          -4.581
REMARK INTER:                  -4.229
REMARK INTRA:                  -0.352
REMARK UNBOUND:                -0.775
REMARK SMILES CCCCCCCCC(=O)[O-]
REMARK SMILES IDX 6 1 7 2 8 3 9 4 10 5 11 6 5 7 4 8 3 9 2 10 1 11
REMARK H PARENT
REMARK Flexibility Score: inf
ROOT
ATOM      1  C   UNL     1       6.655  11.267   7.838  1.00  0.00     0.000 C 
ENDROOT
BRANCH   1   2
ATOM      2  C   UNL     1       5.475  12.251   7.818  1.00  0.00     0.006 C 
BRANCH   2   3
ATOM      3  C   UNL     1       5.944  13.662   7.456  1.00  0.00     0.053 C 
BRANCH   3   4
ATOM      4  C   UNL     1       5.489  14.647   8.485  1.00  0.00     0.041 C 
ATOM      5  O   UNL     1       6.178  14.845   9.521  1.00  0.00    -0.550 OA
ATOM      6  O   UNL     1       4.331  15.384   8.278  1.00  0.00    -0.550 OA
ENDBRANCH   3   4
ENDBRANCH   2   3
ENDBRANCH   1   2
BRANCH   1   7
ATOM      7  C   UNL     1       7.976  11.932   8.256  1.00  0.00     0.000 C 
BRANCH   7   8
ATOM      8  C   UNL     1       9.153  11.529   7.351  1.00  0.00    -0.000 C 
BRANCH   8   9
ATOM      9  C   UNL     1       9.188  10.018   7.066  1.00  0.00    -0.000 C 
BRANCH   9  10
ATOM     10  C   UNL     1       9.506   9.699   5.598  1.00  0.00    -0.003 C 
ATOM     11  C   UNL     1      10.859   9.003   5.468  1.00  0.00     0.004 C 
ENDBRANCH   9  10
ENDBRANCH   8   9
ENDBRANCH   7   8
ENDBRANCH   1   7
TORSDOF 7
ENDMDL
