MODEL 1
REMARK VINA RESULT:    -5.723      0.000      0.000
REMARK INTER + INTRA:          -5.890
REMARK INTER:                  -5.890
REMARK INTRA:                   0.000
REMARK UNBOUND:                 0.000
REMARK SMILES Oc1ccc2[nH]ccc2c1
REMARK SMILES IDX 3 1 4 2 5 3 9 4 8 5 7 6 6 7 10 8 2 9 1 11
REMARK H PARENT 6 10 1 12
REMARK Flexibility Score: inf
ROOT
ATOM      1  C   UNL     1     -35.468  42.940  41.634  1.00  0.00     0.048 A 
ATOM      2  C   UNL     1     -35.080  42.467  40.367  1.00  0.00     0.030 A 
ATOM      3  C   UNL     1     -34.741  43.408  39.396  1.00  0.00     0.046 A 
ATOM      4  C   UNL     1     -34.779  44.752  39.653  1.00  0.00     0.003 A 
ATOM      5  C   UNL     1     -34.393  45.403  38.502  1.00  0.00     0.028 A 
ATOM      6  C   UNL     1     -34.132  44.391  37.583  1.00  0.00     0.083 A 
ATOM      7  N   UNL     1     -34.346  43.174  38.135  1.00  0.00    -0.361 N 
ATOM      8  C   UNL     1     -35.160  45.254  40.896  1.00  0.00     0.056 A 
ATOM      9  C   UNL     1     -35.508  44.331  41.901  1.00  0.00     0.116 A 
ATOM     10  H   UNL     1     -34.229  42.246  37.670  1.00  0.00     0.166 HD
ENDROOT
BRANCH   9  11
ATOM     11  O   UNL     1     -35.893  44.800  43.155  1.00  0.00    -0.508 OA
ATOM     12  H   UNL     1     -36.443  44.228  43.787  1.00  0.00     0.293 HD
ENDBRANCH   9  11
TORSDOF 1
ENDMDL
MODEL 2
REMARK VINA RESULT:    -5.576      9.088     10.959
REMARK INTER + INTRA:          -5.739
REMARK INTER:                  -5.739
REMARK INTRA:                   0.000
REMARK UNBOUND:                 0.000
REMARK SMILES Oc1ccc2[nH]ccc2c1
REMARK SMILES IDX 3 1 4 2 5 3 9 4 8 5 7 6 6 7 10 8 2 9 1 11
REMARK H PARENT 6 10 1 12
REMARK Flexibility Score: inf
ROOT
ATOM      1  C   UNL     1     -38.568  39.249  45.919  1.00  0.00     0.048 A 
ATOM      2  C   UNL     1     -38.053  38.815  47.155  1.00  0.00     0.030 A 
ATOM      3  C   UNL     1     -38.955  38.328  48.100  1.00  0.00     0.046 A 
ATOM      4  C   UNL     1     -40.299  38.268  47.848  1.00  0.00     0.003 A 
ATOM      5  C   UNL     1     -40.906  37.747  48.970  1.00  0.00     0.028 A 
ATOM      6  C   UNL     1     -39.868  37.510  49.867  1.00  0.00     0.083 A 
ATOM      7  N   UNL     1     -38.678  37.867  49.330  1.00  0.00    -0.361 N 
ATOM      8  C   UNL     1     -40.841  38.691  46.636  1.00  0.00     0.056 A 
ATOM      9  C   UNL     1     -39.959  39.188  45.657  1.00  0.00     0.116 A 
ATOM     10  H   UNL     1     -37.741  37.797  49.784  1.00  0.00     0.166 HD
ENDROOT
BRANCH   9  11
ATOM     11  O   UNL     1     -40.468  39.618  44.435  1.00  0.00    -0.508 OA
ATOM     12  H   UNL     1     -41.441  39.477  44.188  1.00  0.00     0.293 HD
ENDBRANCH   9  11
TORSDOF 1
ENDMDL
MODEL 3
REMARK VINA RESULT:    -5.391      7.986      9.459
REMARK INTER + INTRA:          -5.549
REMARK INTER:                  -5.549
REMARK INTRA:                   0.000
REMARK UNBOUND:                 0.000
REMARK SMILES Oc1ccc2[nH]ccc2c1
REMARK SMILES IDX 3 1 4 2 5 3 9 4 8 5 7 6 6 7 10 8 2 9 1 11
REMARK H PARENT 6 10 1 12
REMARK Flexibility Score: inf
ROOT
ATOM      1  C   UNL     1     -40.346  38.140  48.022  1.00  0.00     0.048 A 
ATOM      2  C   UNL     1     -40.915  38.543  46.801  1.00  0.00     0.030 A 
ATOM      3  C   UNL     1     -40.064  39.066  45.828  1.00  0.00     0.046 A 
ATOM      4  C   UNL     1     -38.717  39.190  46.042  1.00  0.00     0.003 A 
ATOM      5  C   UNL     1     -38.168  39.734  44.902  1.00  0.00     0.028 A 
ATOM      6  C   UNL     1     -39.239  39.917  44.033  1.00  0.00     0.083 A 
ATOM      7  N   UNL     1     -40.396  39.507  44.604  1.00  0.00    -0.361 N 
ATOM      8  C   UNL     1     -38.123  38.801  47.241  1.00  0.00     0.056 A 
ATOM      9  C   UNL     1     -38.953  38.267  48.245  1.00  0.00     0.116 A 
ATOM     10  H   UNL     1     -41.348  39.531  44.177  1.00  0.00     0.166 HD
ENDROOT
BRANCH   9  11
ATOM     11  O   UNL     1     -38.391  37.868  49.455  1.00  0.00    -0.508 OA
ATOM     12  H   UNL     1     -38.713  37.037  49.939  1.00  0.00     0.293 HD
ENDBRANCH   9  11
TORSDOF 1
ENDMDL
MODEL 4
REMARK VINA RESULT:    -5.342      2.586      4.104
REMARK INTER + INTRA:          -5.498
REMARK INTER:                  -5.498
REMARK INTRA:                   0.000
REMARK UNBOUND:                 0.000
REMARK SMILES Oc1ccc2[nH]ccc2c1
REMARK SMILES IDX 3 1 4 2 5 3 9 4 8 5 7 6 6 7 10 8 2 9 1 11
REMARK H PARENT 6 10 1 12
REMARK Flexibility Score: inf
ROOT
ATOM      1  C   UNL     1     -34.671  45.062  39.080  1.00  0.00     0.048 A 
ATOM      2  C   UNL     1     -35.101  45.473  40.355  1.00  0.00     0.030 A 
ATOM      3  C   UNL     1     -35.342  44.486  41.310  1.00  0.00     0.046 A 
ATOM      4  C   UNL     1     -35.170  43.157  41.031  1.00  0.00     0.003 A 
ATOM      5  C   UNL     1     -35.488  42.452  42.170  1.00  0.00     0.028 A 
ATOM      6  C   UNL     1     -35.845  43.417  43.107  1.00  0.00     0.083 A 
ATOM      7  N   UNL     1     -35.754  44.658  42.576  1.00  0.00    -0.361 N 
ATOM      8  C   UNL     1     -34.746  42.716  39.778  1.00  0.00     0.056 A 
ATOM      9  C   UNL     1     -34.493  43.686  38.789  1.00  0.00     0.116 A 
ATOM     10  H   UNL     1     -35.963  45.562  43.057  1.00  0.00     0.166 HD
ENDROOT
BRANCH   9  11
ATOM     11  O   UNL     1     -34.068  43.280  37.527  1.00  0.00    -0.508 OA
ATOM     12  H   UNL     1     -34.650  42.698  36.935  1.00  0.00     0.293 HD
ENDBRANCH   9  11
TORSDOF 1
ENDMDL
MODEL 5
REMARK VINA RESULT:    -5.191     10.838     12.344
REMARK INTER + INTRA:          -5.343
REMARK INTER:                  -5.343
REMARK INTRA:                   0.000
REMARK UNBOUND:                 0.000
REMARK SMILES Oc1ccc2[nH]ccc2c1
REMARK SMILES IDX 3 1 4 2 5 3 9 4 8 5 7 6 6 7 10 8 2 9 1 11
REMARK H PARENT 6 10 1 12
REMARK Flexibility Score: inf
ROOT
ATOM      1  C   UNL     1     -41.309  36.092  50.094  1.00  0.00     0.048 A 
ATOM      2  C   UNL     1     -40.429  35.577  49.125  1.00  0.00     0.030 A 
ATOM      3  C   UNL     1     -39.755  36.485  48.309  1.00  0.00     0.046 A 
ATOM      4  C   UNL     1     -39.934  37.836  48.436  1.00  0.00     0.003 A 
ATOM      5  C   UNL     1     -39.135  38.447  47.494  1.00  0.00     0.028 A 
ATOM      6  C   UNL     1     -38.496  37.406  46.829  1.00  0.00     0.083 A 
ATOM      7  N   UNL     1     -38.878  36.209  47.331  1.00  0.00    -0.361 N 
ATOM      8  C   UNL     1     -40.799  38.379  49.384  1.00  0.00     0.056 A 
ATOM      9  C   UNL     1     -41.495  37.491  50.226  1.00  0.00     0.116 A 
ATOM     10  H   UNL     1     -38.555  35.266  47.018  1.00  0.00     0.166 HD
ENDROOT
BRANCH   9  11
ATOM     11  O   UNL     1     -42.367  38.000  51.185  1.00  0.00    -0.508 OA
ATOM     12  H   UNL     1     -42.689  38.961  51.149  1.00  0.00     0.293 HD
ENDBRANCH   9  11
TORSDOF 1
ENDMDL
MODEL 6
REMARK VINA RESULT:    -5.168      2.907      4.283
REMARK INTER + INTRA:          -5.319
REMARK INTER:                  -5.319
REMARK INTRA:                   0.000
REMARK UNBOUND:                 0.000
REMARK SMILES Oc1ccc2[nH]ccc2c1
REMARK SMILES IDX 3 1 4 2 5 3 9 4 8 5 7 6 6 7 10 8 2 9 1 11
REMARK H PARENT 6 10 1 12
REMARK Flexibility Score: inf
ROOT
ATOM      1  C   UNL     1     -32.500  45.964  37.105  1.00  0.00     0.048 A 
ATOM      2  C   UNL     1     -31.968  45.077  38.060  1.00  0.00     0.030 A 
ATOM      3  C   UNL     1     -32.862  44.386  38.875  1.00  0.00     0.046 A 
ATOM      4  C   UNL     1     -34.216  44.555  38.763  1.00  0.00     0.003 A 
ATOM      5  C   UNL     1     -34.812  43.741  39.701  1.00  0.00     0.028 A 
ATOM      6  C   UNL     1     -33.759  43.103  40.350  1.00  0.00     0.083 A 
ATOM      7  N   UNL     1     -32.570  43.501  39.841  1.00  0.00    -0.361 N 
ATOM      8  C   UNL     1     -34.775  45.426  37.829  1.00  0.00     0.056 A 
ATOM      9  C   UNL     1     -33.901  46.140  36.987  1.00  0.00     0.116 A 
ATOM     10  H   UNL     1     -31.622  43.183  40.142  1.00  0.00     0.166 HD
ENDROOT
BRANCH   9  11
ATOM     11  O   UNL     1     -34.426  47.018  36.043  1.00  0.00    -0.508 OA
ATOM     12  H   UNL     1     -34.510  46.756  35.067  1.00  0.00     0.293 HD
ENDBRANCH   9  11
TORSDOF 1
ENDMDL
MODEL 7
REMARK VINA RESULT:    -5.100      1.322      2.747
REMARK INTER + INTRA:          -5.250
REMARK INTER:                  -5.250
REMARK INTRA:                   0.000
REMARK UNBOUND:                 0.000
REMARK SMILES Oc1ccc2[nH]ccc2c1
REMARK SMILES IDX 3 1 4 2 5 3 9 4 8 5 7 6 6 7 10 8 2 9 1 11
REMARK H PARENT 6 10 1 12
REMARK Flexibility Score: inf
ROOT
ATOM      1  C   UNL     1     -34.764  45.372  39.047  1.00  0.00     0.048 A 
ATOM      2  C   UNL     1     -34.363  44.188  38.403  1.00  0.00     0.030 A 
ATOM      3  C   UNL     1     -34.353  43.012  39.151  1.00  0.00     0.046 A 
ATOM      4  C   UNL     1     -34.718  42.995  40.471  1.00  0.00     0.003 A 
ATOM      5  C   UNL     1     -34.599  41.697  40.915  1.00  0.00     0.028 A 
ATOM      6  C   UNL     1     -34.156  40.974  39.811  1.00  0.00     0.083 A 
ATOM      7  N   UNL     1     -34.008  41.782  38.736  1.00  0.00    -0.361 N 
ATOM      8  C   UNL     1     -35.119  44.151  41.139  1.00  0.00     0.056 A 
ATOM      9  C   UNL     1     -35.142  45.357  40.413  1.00  0.00     0.116 A 
ATOM     10  H   UNL     1     -33.690  41.503  37.782  1.00  0.00     0.166 HD
ENDROOT
BRANCH   9  11
ATOM     11  O   UNL     1     -35.538  46.530  41.050  1.00  0.00    -0.508 OA
ATOM     12  H   UNL     1     -36.518  46.771  41.153  1.00  0.00     0.293 HD
ENDBRANCH   9  11
TORSDOF 1
ENDMDL
MODEL 8
REMARK VINA RESULT:    -5.084      8.981     10.187
REMARK INTER + INTRA:          -5.233
REMARK INTER:                  -5.233
REMARK INTRA:                   0.000
REMARK UNBOUND:                 0.000
REMARK SMILES Oc1ccc2[nH]ccc2c1
REMARK SMILES IDX 3 1 4 2 5 3 9 4 8 5 7 6 6 7 10 8 2 9 1 11
REMARK H PARENT 6 10 1 12
REMARK Flexibility Score: inf
ROOT
ATOM      1  C   UNL     1     -40.600  38.020  48.020  1.00  0.00     0.048 A 
ATOM      2  C   UNL     1     -39.351  37.784  48.622  1.00  0.00     0.030 A 
ATOM      3  C   UNL     1     -38.207  38.125  47.901  1.00  0.00     0.046 A 
ATOM      4  C   UNL     1     -38.282  38.671  46.648  1.00  0.00     0.003 A 
ATOM      5  C   UNL     1     -36.992  38.888  46.216  1.00  0.00     0.028 A 
ATOM      6  C   UNL     1     -36.181  38.451  47.258  1.00  0.00     0.083 A 
ATOM      7  N   UNL     1     -36.928  37.985  48.286  1.00  0.00    -0.361 N 
ATOM      8  C   UNL     1     -39.503  38.916  46.023  1.00  0.00     0.056 A 
ATOM      9  C   UNL     1     -40.680  38.586  46.723  1.00  0.00     0.116 A 
ATOM     10  H   UNL     1     -36.578  37.597  49.190  1.00  0.00     0.166 HD
ENDROOT
BRANCH   9  11
ATOM     11  O   UNL     1     -41.917  38.818  46.127  1.00  0.00    -0.508 OA
ATOM     12  H   UNL     1     -42.529  38.054  45.866  1.00  0.00     0.293 HD
ENDBRANCH   9  11
TORSDOF 1
ENDMDL
MODEL 9
REMARK VINA RESULT:    -5.019      2.957      4.288
REMARK INTER + INTRA:          -5.166
REMARK INTER:                  -5.166
REMARK INTRA:                   0.000
REMARK UNBOUND:                 0.000
REMARK SMILES Oc1ccc2[nH]ccc2c1
REMARK SMILES IDX 3 1 4 2 5 3 9 4 8 5 7 6 6 7 10 8 2 9 1 11
REMARK H PARENT 6 10 1 12
REMARK Flexibility Score: inf
ROOT
ATOM      1  C   UNL     1     -33.680  46.102  37.389  1.00  0.00     0.048 A 
ATOM      2  C   UNL     1     -34.738  45.544  38.131  1.00  0.00     0.030 A 
ATOM      3  C   UNL     1     -34.425  44.567  39.075  1.00  0.00     0.046 A 
ATOM      4  C   UNL     1     -33.137  44.152  39.283  1.00  0.00     0.003 A 
ATOM      5  C   UNL     1     -33.167  43.189  40.267  1.00  0.00     0.028 A 
ATOM      6  C   UNL     1     -34.509  43.067  40.614  1.00  0.00     0.083 A 
ATOM      7  N   UNL     1     -35.274  43.911  39.883  1.00  0.00    -0.361 N 
ATOM      8  C   UNL     1     -32.068  44.684  38.564  1.00  0.00     0.056 A 
ATOM      9  C   UNL     1     -32.346  45.675  37.603  1.00  0.00     0.116 A 
ATOM     10  H   UNL     1     -36.310  44.025  39.939  1.00  0.00     0.166 HD
ENDROOT
BRANCH   9  11
ATOM     11  O   UNL     1     -31.301  46.226  36.867  1.00  0.00    -0.508 OA
ATOM     12  H   UNL     1     -31.123  45.945  35.910  1.00  0.00     0.293 HD
ENDBRANCH   9  11
TORSDOF 1
ENDMDL
