MODEL 1
REMARK VINA RESULT:    -5.414      0.000      0.000
REMARK INTER + INTRA:         -11.100
REMARK INTER:                  -8.262
REMARK INTRA:                  -2.837
REMARK UNBOUND:                -2.837
REMARK SMILES CC(=O)CCC=C(C)CCC=C(C)CCC=C(C)C
REMARK SMILES IDX 10 1 11 2 12 3 13 4 14 5 15 6 16 7 18 8 17 9 19 10 9 11 7 12
REMARK SMILES IDX 6 13 8 14 5 15 4 16 2 17 3 18 1 19
REMARK H PARENT
REMARK Flexibility Score: inf
ROOT
ATOM      1  C   UNL     1      15.540 -33.975  23.277  1.00  0.00     0.032 C 
ENDROOT
BRANCH   1   2
ATOM      2  C   UNL     1      15.192 -34.128  21.815  1.00  0.00    -0.028 C 
ATOM      3  C   UNL     1      16.041 -33.969  20.772  1.00  0.00    -0.077 C 
ATOM      4  C   UNL     1      15.462 -34.043  19.379  1.00  0.00     0.039 C 
BRANCH   3   5
ATOM      5  C   UNL     1      17.518 -33.638  20.922  1.00  0.00     0.034 C 
BRANCH   5   6
ATOM      6  C   UNL     1      17.879 -32.258  20.340  1.00  0.00     0.032 C 
BRANCH   6   7
ATOM      7  C   UNL     1      19.200 -31.746  20.862  1.00  0.00    -0.028 C 
ATOM      8  C   UNL     1      20.878 -30.108  21.589  1.00  0.00     0.039 C 
ATOM      9  C   UNL     1      19.493 -30.451  21.099  1.00  0.00    -0.080 C 
ATOM     10  C   UNL     1      18.486 -29.345  20.887  1.00  0.00     0.039 C 
ENDBRANCH   6   7
ENDBRANCH   5   6
ENDBRANCH   3   5
ENDBRANCH   1   2
BRANCH   1  11
ATOM     11  C   UNL     1      15.142 -32.597  23.815  1.00  0.00     0.034 C 
BRANCH  11  12
ATOM     12  C   UNL     1      16.290 -31.613  23.702  1.00  0.00    -0.077 C 
ATOM     13  C   UNL     1      16.166 -30.402  23.107  1.00  0.00    -0.028 C 
ATOM     14  C   UNL     1      17.643 -32.018  24.237  1.00  0.00     0.039 C 
BRANCH  13  15
ATOM     15  C   UNL     1      14.883 -29.846  22.535  1.00  0.00     0.035 C 
BRANCH  15  16
ATOM     16  C   UNL     1      14.606 -30.376  21.122  1.00  0.00     0.079 C 
BRANCH  16  17
ATOM     17  C   UNL     1      13.225 -30.971  21.009  1.00  0.00     0.130 C 
ATOM     18  O   UNL     1      12.974 -31.741  20.094  1.00  0.00    -0.300 OA
ATOM     19  C   UNL     1      12.155 -30.652  22.012  1.00  0.00     0.087 C 
ENDBRANCH  16  17
ENDBRANCH  15  16
ENDBRANCH  13  15
ENDBRANCH  11  12
ENDBRANCH   1  11
TORSDOF 9
ENDMDL
MODEL 2
REMARK VINA RESULT:    -5.332      1.989      2.840
REMARK INTER + INTRA:         -10.975
REMARK INTER:                  -8.546
REMARK INTRA:                  -2.428
REMARK UNBOUND:                -2.837
REMARK SMILES CC(=O)CCC=C(C)CCC=C(C)CCC=C(C)C
REMARK SMILES IDX 10 1 11 2 12 3 13 4 14 5 15 6 16 7 18 8 17 9 19 10 9 11 7 12
REMARK SMILES IDX 6 13 8 14 5 15 4 16 2 17 3 18 1 19
REMARK H PARENT
REMARK Flexibility Score: inf
ROOT
ATOM      1  C   UNL     1      14.991 -34.319  20.810  1.00  0.00     0.032 C 
ENDROOT
BRANCH   1   2
ATOM      2  C   UNL     1      16.037 -34.284  19.721  1.00  0.00    -0.028 C 
ATOM      3  C   UNL     1      17.376 -34.215  19.903  1.00  0.00    -0.077 C 
ATOM      4  C   UNL     1      18.244 -34.063  18.676  1.00  0.00     0.039 C 
BRANCH   3   5
ATOM      5  C   UNL     1      18.048 -34.196  21.267  1.00  0.00     0.034 C 
BRANCH   5   6
ATOM      6  C   UNL     1      18.873 -32.918  21.506  1.00  0.00     0.032 C 
BRANCH   6   7
ATOM      7  C   UNL     1      18.090 -31.665  21.195  1.00  0.00    -0.028 C 
ATOM      8  C   UNL     1      16.739 -29.660  21.625  1.00  0.00     0.039 C 
ATOM      9  C   UNL     1      17.518 -30.857  22.112  1.00  0.00    -0.080 C 
ATOM     10  C   UNL     1      17.632 -31.115  23.596  1.00  0.00     0.039 C 
ENDBRANCH   6   7
ENDBRANCH   5   6
ENDBRANCH   3   5
ENDBRANCH   1   2
BRANCH   1  11
ATOM     11  C   UNL     1      14.557 -32.910  21.227  1.00  0.00     0.034 C 
BRANCH  11  12
ATOM     12  C   UNL     1      14.478 -32.786  22.736  1.00  0.00    -0.077 C 
ATOM     13  C   UNL     1      13.825 -31.775  23.359  1.00  0.00    -0.028 C 
ATOM     14  C   UNL     1      15.196 -33.810  23.583  1.00  0.00     0.039 C 
BRANCH  13  15
ATOM     15  C   UNL     1      13.052 -30.683  22.659  1.00  0.00     0.035 C 
BRANCH  15  16
ATOM     16  C   UNL     1      13.456 -29.287  23.150  1.00  0.00     0.079 C 
BRANCH  16  17
ATOM     17  C   UNL     1      12.254 -28.452  23.513  1.00  0.00     0.130 C 
ATOM     18  O   UNL     1      11.169 -28.709  23.015  1.00  0.00    -0.300 OA
ATOM     19  C   UNL     1      12.359 -27.321  24.494  1.00  0.00     0.087 C 
ENDBRANCH  16  17
ENDBRANCH  15  16
ENDBRANCH  13  15
ENDBRANCH  11  12
ENDBRANCH   1  11
TORSDOF 9
ENDMDL
MODEL 3
REMARK VINA RESULT:    -5.325      1.763      3.688
REMARK INTER + INTRA:         -10.965
REMARK INTER:                  -7.702
REMARK INTRA:                  -3.262
REMARK UNBOUND:                -2.837
REMARK SMILES CC(=O)CCC=C(C)CCC=C(C)CCC=C(C)C
REMARK SMILES IDX 10 1 11 2 12 3 13 4 14 5 15 6 16 7 18 8 17 9 19 10 9 11 7 12
REMARK SMILES IDX 6 13 8 14 5 15 4 16 2 17 3 18 1 19
REMARK H PARENT
REMARK Flexibility Score: inf
ROOT
ATOM      1  C   UNL     1      17.554 -30.349  21.661  1.00  0.00     0.032 C 
ENDROOT
BRANCH   1   2
ATOM      2  C   UNL     1      17.437 -31.486  20.673  1.00  0.00    -0.028 C 
ATOM      3  C   UNL     1      18.341 -32.476  20.485  1.00  0.00    -0.077 C 
ATOM      4  C   UNL     1      18.092 -33.448  19.356  1.00  0.00     0.039 C 
BRANCH   3   5
ATOM      5  C   UNL     1      19.627 -32.614  21.284  1.00  0.00     0.034 C 
BRANCH   5   6
ATOM      6  C   UNL     1      19.972 -34.080  21.608  1.00  0.00     0.032 C 
BRANCH   6   7
ATOM      7  C   UNL     1      19.262 -34.574  22.845  1.00  0.00    -0.028 C 
ATOM      8  C   UNL     1      17.675 -35.879  24.189  1.00  0.00     0.039 C 
ATOM      9  C   UNL     1      18.307 -35.527  22.865  1.00  0.00    -0.080 C 
ATOM     10  C   UNL     1      17.855 -36.242  21.613  1.00  0.00     0.039 C 
ENDBRANCH   6   7
ENDBRANCH   5   6
ENDBRANCH   3   5
ENDBRANCH   1   2
BRANCH   1  11
ATOM     11  C   UNL     1      16.538 -30.478  22.800  1.00  0.00     0.034 C 
BRANCH  11  12
ATOM     12  C   UNL     1      16.891 -31.632  23.718  1.00  0.00    -0.077 C 
ATOM     13  C   UNL     1      16.101 -32.722  23.867  1.00  0.00    -0.028 C 
ATOM     14  C   UNL     1      18.159 -31.544  24.535  1.00  0.00     0.039 C 
BRANCH  13  15
ATOM     15  C   UNL     1      14.813 -32.967  23.118  1.00  0.00     0.035 C 
BRANCH  15  16
ATOM     16  C   UNL     1      15.038 -33.788  21.841  1.00  0.00     0.079 C 
BRANCH  16  17
ATOM     17  C   UNL     1      14.373 -33.154  20.644  1.00  0.00     0.130 C 
ATOM     18  O   UNL     1      14.424 -33.714  19.560  1.00  0.00    -0.300 OA
ATOM     19  C   UNL     1      13.630 -31.855  20.763  1.00  0.00     0.087 C 
ENDBRANCH  16  17
ENDBRANCH  15  16
ENDBRANCH  13  15
ENDBRANCH  11  12
ENDBRANCH   1  11
TORSDOF 9
ENDMDL
MODEL 4
REMARK VINA RESULT:    -5.314      2.264      5.577
REMARK INTER + INTRA:         -10.948
REMARK INTER:                  -8.112
REMARK INTRA:                  -2.836
REMARK UNBOUND:                -2.837
REMARK SMILES CC(=O)CCC=C(C)CCC=C(C)CCC=C(C)C
REMARK SMILES IDX 10 1 11 2 12 3 13 4 14 5 15 6 16 7 18 8 17 9 19 10 9 11 7 12
REMARK SMILES IDX 6 13 8 14 5 15 4 16 2 17 3 18 1 19
REMARK H PARENT
REMARK Flexibility Score: inf
ROOT
ATOM      1  C   UNL     1      15.057 -33.625  22.351  1.00  0.00     0.032 C 
ENDROOT
BRANCH   1   2
ATOM      2  C   UNL     1      16.075 -32.981  23.263  1.00  0.00    -0.028 C 
ATOM      3  C   UNL     1      16.826 -31.892  22.978  1.00  0.00    -0.077 C 
ATOM      4  C   UNL     1      17.878 -31.482  23.981  1.00  0.00     0.039 C 
BRANCH   3   5
ATOM      5  C   UNL     1      16.731 -31.112  21.675  1.00  0.00     0.034 C 
BRANCH   5   6
ATOM      6  C   UNL     1      15.799 -29.890  21.780  1.00  0.00     0.032 C 
BRANCH   6   7
ATOM      7  C   UNL     1      14.407 -30.188  21.279  1.00  0.00    -0.028 C 
ATOM      8  C   UNL     1      12.015 -30.731  21.392  1.00  0.00     0.039 C 
ATOM      9  C   UNL     1      13.331 -30.413  22.060  1.00  0.00    -0.080 C 
ATOM     10  C   UNL     1      13.403 -30.359  23.567  1.00  0.00     0.039 C 
ENDBRANCH   6   7
ENDBRANCH   5   6
ENDBRANCH   3   5
ENDBRANCH   1   2
BRANCH   1  11
ATOM     11  C   UNL     1      15.718 -34.559  21.332  1.00  0.00     0.034 C 
BRANCH  11  12
ATOM     12  C   UNL     1      15.554 -34.031  19.920  1.00  0.00    -0.077 C 
ATOM     13  C   UNL     1      16.563 -34.017  19.018  1.00  0.00    -0.028 C 
ATOM     14  C   UNL     1      14.217 -33.456  19.515  1.00  0.00     0.039 C 
BRANCH  13  15
ATOM     15  C   UNL     1      17.950 -34.563  19.261  1.00  0.00     0.035 C 
BRANCH  15  16
ATOM     16  C   UNL     1      18.876 -33.519  19.899  1.00  0.00     0.079 C 
BRANCH  16  17
ATOM     17  C   UNL     1      19.471 -34.015  21.194  1.00  0.00     0.130 C 
ATOM     18  O   UNL     1      19.122 -35.096  21.642  1.00  0.00    -0.300 OA
ATOM     19  C   UNL     1      20.503 -33.214  21.934  1.00  0.00     0.087 C 
ENDBRANCH  16  17
ENDBRANCH  15  16
ENDBRANCH  13  15
ENDBRANCH  11  12
ENDBRANCH   1  11
TORSDOF 9
ENDMDL
MODEL 5
REMARK VINA RESULT:    -5.313      2.003      4.930
REMARK INTER + INTRA:         -10.946
REMARK INTER:                  -8.157
REMARK INTRA:                  -2.789
REMARK UNBOUND:                -2.837
REMARK SMILES CC(=O)CCC=C(C)CCC=C(C)CCC=C(C)C
REMARK SMILES IDX 10 1 11 2 12 3 13 4 14 5 15 6 16 7 18 8 17 9 19 10 9 11 7 12
REMARK SMILES IDX 6 13 8 14 5 15 4 16 2 17 3 18 1 19
REMARK H PARENT
REMARK Flexibility Score: inf
ROOT
ATOM      1  C   UNL     1      17.662 -33.813  23.443  1.00  0.00     0.032 C 
ENDROOT
BRANCH   1   2
ATOM      2  C   UNL     1      18.423 -33.088  22.358  1.00  0.00    -0.028 C 
ATOM      3  C   UNL     1      18.277 -31.787  22.014  1.00  0.00    -0.077 C 
ATOM      4  C   UNL     1      19.045 -31.287  20.814  1.00  0.00     0.039 C 
BRANCH   3   5
ATOM      5  C   UNL     1      17.325 -30.827  22.710  1.00  0.00     0.034 C 
BRANCH   5   6
ATOM      6  C   UNL     1      16.152 -30.395  21.809  1.00  0.00     0.032 C 
BRANCH   6   7
ATOM      7  C   UNL     1      15.034 -29.753  22.594  1.00  0.00    -0.028 C 
ATOM      8  C   UNL     1      12.731 -29.145  23.192  1.00  0.00     0.039 C 
ATOM      9  C   UNL     1      13.719 -29.885  22.324  1.00  0.00    -0.080 C 
ATOM     10  C   UNL     1      13.211 -30.743  21.189  1.00  0.00     0.039 C 
ENDBRANCH   6   7
ENDBRANCH   5   6
ENDBRANCH   3   5
ENDBRANCH   1   2
BRANCH   1  11
ATOM     11  C   UNL     1      16.583 -34.733  22.863  1.00  0.00     0.034 C 
BRANCH  11  12
ATOM     12  C   UNL     1      15.308 -33.965  22.573  1.00  0.00    -0.077 C 
ATOM     13  C   UNL     1      14.749 -33.905  21.341  1.00  0.00    -0.028 C 
ATOM     14  C   UNL     1      14.656 -33.197  23.699  1.00  0.00     0.039 C 
BRANCH  13  15
ATOM     15  C   UNL     1      15.270 -34.622  20.118  1.00  0.00     0.035 C 
BRANCH  15  16
ATOM     16  C   UNL     1      16.379 -33.829  19.414  1.00  0.00     0.079 C 
BRANCH  16  17
ATOM     17  C   UNL     1      17.587 -34.687  19.131  1.00  0.00     0.130 C 
ATOM     18  O   UNL     1      18.608 -34.168  18.706  1.00  0.00    -0.300 OA
ATOM     19  C   UNL     1      17.568 -36.166  19.383  1.00  0.00     0.087 C 
ENDBRANCH  16  17
ENDBRANCH  15  16
ENDBRANCH  13  15
ENDBRANCH  11  12
ENDBRANCH   1  11
TORSDOF 9
ENDMDL
MODEL 6
REMARK VINA RESULT:    -5.280      2.421      5.607
REMARK INTER + INTRA:         -10.895
REMARK INTER:                  -9.001
REMARK INTRA:                  -1.894
REMARK UNBOUND:                -2.837
REMARK SMILES CC(=O)CCC=C(C)CCC=C(C)CCC=C(C)C
REMARK SMILES IDX 10 1 11 2 12 3 13 4 14 5 15 6 16 7 18 8 17 9 19 10 9 11 7 12
REMARK SMILES IDX 6 13 8 14 5 15 4 16 2 17 3 18 1 19
REMARK H PARENT
REMARK Flexibility Score: inf
ROOT
ATOM      1  C   UNL     1      16.519 -30.028  22.467  1.00  0.00     0.032 C 
ENDROOT
BRANCH   1   2
ATOM      2  C   UNL     1      15.728 -31.100  23.180  1.00  0.00    -0.028 C 
ATOM      3  C   UNL     1      14.406 -31.348  23.030  1.00  0.00    -0.077 C 
ATOM      4  C   UNL     1      13.780 -32.385  23.933  1.00  0.00     0.039 C 
BRANCH   3   5
ATOM      5  C   UNL     1      13.502 -30.588  22.072  1.00  0.00     0.034 C 
BRANCH   5   6
ATOM      6  C   UNL     1      12.441 -29.742  22.800  1.00  0.00     0.032 C 
BRANCH   6   7
ATOM      7  C   UNL     1      13.054 -28.615  23.595  1.00  0.00    -0.028 C 
ATOM      8  C   UNL     1      13.258 -26.377  24.584  1.00  0.00     0.039 C 
ATOM      9  C   UNL     1      12.490 -27.405  23.789  1.00  0.00    -0.080 C 
ATOM     10  C   UNL     1      11.129 -27.051  23.238  1.00  0.00     0.039 C 
ENDBRANCH   6   7
ENDBRANCH   5   6
ENDBRANCH   3   5
ENDBRANCH   1   2
BRANCH   1  11
ATOM     11  C   UNL     1      16.920 -30.463  21.054  1.00  0.00     0.034 C 
BRANCH  11  12
ATOM     12  C   UNL     1      18.101 -31.413  21.088  1.00  0.00    -0.077 C 
ATOM     13  C   UNL     1      18.046 -32.675  20.600  1.00  0.00    -0.028 C 
ATOM     14  C   UNL     1      19.384 -30.945  21.735  1.00  0.00     0.039 C 
BRANCH  13  15
ATOM     15  C   UNL     1      16.847 -33.287  19.916  1.00  0.00     0.035 C 
BRANCH  15  16
ATOM     16  C   UNL     1      15.909 -33.981  20.911  1.00  0.00     0.079 C 
BRANCH  16  17
ATOM     17  C   UNL     1      16.651 -34.955  21.793  1.00  0.00     0.130 C 
ATOM     18  O   UNL     1      17.199 -35.925  21.292  1.00  0.00    -0.300 OA
ATOM     19  C   UNL     1      16.748 -34.744  23.276  1.00  0.00     0.087 C 
ENDBRANCH  16  17
ENDBRANCH  15  16
ENDBRANCH  13  15
ENDBRANCH  11  12
ENDBRANCH   1  11
TORSDOF 9
ENDMDL
MODEL 7
REMARK VINA RESULT:    -5.267      2.332      5.089
REMARK INTER + INTRA:         -10.876
REMARK INTER:                  -8.026
REMARK INTRA:                  -2.851
REMARK UNBOUND:                -2.837
REMARK SMILES CC(=O)CCC=C(C)CCC=C(C)CCC=C(C)C
REMARK SMILES IDX 10 1 11 2 12 3 13 4 14 5 15 6 16 7 18 8 17 9 19 10 9 11 7 12
REMARK SMILES IDX 6 13 8 14 5 15 4 16 2 17 3 18 1 19
REMARK H PARENT
REMARK Flexibility Score: inf
ROOT
ATOM      1  C   UNL     1      17.183 -30.980  22.297  1.00  0.00     0.032 C 
ENDROOT
BRANCH   1   2
ATOM      2  C   UNL     1      15.807 -30.714  22.860  1.00  0.00    -0.028 C 
ATOM      3  C   UNL     1      14.824 -31.630  23.030  1.00  0.00    -0.077 C 
ATOM      4  C   UNL     1      13.475 -31.133  23.492  1.00  0.00     0.039 C 
BRANCH   3   5
ATOM      5  C   UNL     1      14.974 -33.107  22.703  1.00  0.00     0.034 C 
BRANCH   5   6
ATOM      6  C   UNL     1      15.648 -33.902  23.838  1.00  0.00     0.032 C 
BRANCH   6   7
ATOM      7  C   UNL     1      16.938 -34.549  23.395  1.00  0.00    -0.028 C 
ATOM      8  C   UNL     1      19.352 -34.985  23.310  1.00  0.00     0.039 C 
ATOM      9  C   UNL     1      18.160 -34.267  23.891  1.00  0.00    -0.080 C 
ATOM     10  C   UNL     1      18.368 -33.261  24.999  1.00  0.00     0.039 C 
ENDBRANCH   6   7
ENDBRANCH   5   6
ENDBRANCH   3   5
ENDBRANCH   1   2
BRANCH   1  11
ATOM     11  C   UNL     1      17.126 -31.379  20.818  1.00  0.00     0.034 C 
BRANCH  11  12
ATOM     12  C   UNL     1      18.196 -32.400  20.486  1.00  0.00    -0.077 C 
ATOM     13  C   UNL     1      17.935 -33.553  19.824  1.00  0.00    -0.028 C 
ATOM     14  C   UNL     1      19.611 -32.140  20.950  1.00  0.00     0.039 C 
BRANCH  13  15
ATOM     15  C   UNL     1      16.582 -33.954  19.286  1.00  0.00     0.035 C 
BRANCH  15  16
ATOM     16  C   UNL     1      16.065 -35.246  19.932  1.00  0.00     0.079 C 
BRANCH  16  17
ATOM     17  C   UNL     1      16.973 -36.416  19.645  1.00  0.00     0.130 C 
ATOM     18  O   UNL     1      17.109 -36.806  18.496  1.00  0.00    -0.300 OA
ATOM     19  C   UNL     1      17.733 -37.100  20.745  1.00  0.00     0.087 C 
ENDBRANCH  16  17
ENDBRANCH  15  16
ENDBRANCH  13  15
ENDBRANCH  11  12
ENDBRANCH   1  11
TORSDOF 9
ENDMDL
MODEL 8
REMARK VINA RESULT:    -5.251      2.267      5.181
REMARK INTER + INTRA:         -10.851
REMARK INTER:                  -8.120
REMARK INTRA:                  -2.731
REMARK UNBOUND:                -2.837
REMARK SMILES CC(=O)CCC=C(C)CCC=C(C)CCC=C(C)C
REMARK SMILES IDX 10 1 11 2 12 3 13 4 14 5 15 6 16 7 18 8 17 9 19 10 9 11 7 12
REMARK SMILES IDX 6 13 8 14 5 15 4 16 2 17 3 18 1 19
REMARK H PARENT
REMARK Flexibility Score: inf
ROOT
ATOM      1  C   UNL     1      17.600 -33.993  18.817  1.00  0.00     0.032 C 
ENDROOT
BRANCH   1   2
ATOM      2  C   UNL     1      18.740 -33.596  19.726  1.00  0.00    -0.028 C 
ATOM      3  C   UNL     1      18.817 -32.462  20.460  1.00  0.00    -0.077 C 
ATOM      4  C   UNL     1      20.102 -32.195  21.207  1.00  0.00     0.039 C 
BRANCH   3   5
ATOM      5  C   UNL     1      17.725 -31.405  20.507  1.00  0.00     0.034 C 
BRANCH   5   6
ATOM      6  C   UNL     1      17.574 -30.767  21.901  1.00  0.00     0.032 C 
BRANCH   6   7
ATOM      7  C   UNL     1      16.424 -31.358  22.680  1.00  0.00    -0.028 C 
ATOM      8  C   UNL     1      14.126 -31.606  23.508  1.00  0.00     0.039 C 
ATOM      9  C   UNL     1      15.149 -30.919  22.637  1.00  0.00    -0.080 C 
ATOM     10  C   UNL     1      14.721 -29.772  21.753  1.00  0.00     0.039 C 
ENDBRANCH   6   7
ENDBRANCH   5   6
ENDBRANCH   3   5
ENDBRANCH   1   2
BRANCH   1  11
ATOM     11  C   UNL     1      16.711 -35.065  19.454  1.00  0.00     0.034 C 
BRANCH  11  12
ATOM     12  C   UNL     1      15.825 -34.470  20.531  1.00  0.00    -0.077 C 
ATOM     13  C   UNL     1      16.045 -34.660  21.854  1.00  0.00    -0.028 C 
ATOM     14  C   UNL     1      14.618 -33.664  20.110  1.00  0.00     0.039 C 
BRANCH  13  15
ATOM     15  C   UNL     1      17.208 -35.428  22.437  1.00  0.00     0.035 C 
BRANCH  15  16
ATOM     16  C   UNL     1      17.876 -34.671  23.592  1.00  0.00     0.079 C 
BRANCH  16  17
ATOM     17  C   UNL     1      17.090 -34.798  24.873  1.00  0.00     0.130 C 
ATOM     18  O   UNL     1      16.495 -33.827  25.315  1.00  0.00    -0.300 OA
ATOM     19  C   UNL     1      17.006 -36.104  25.608  1.00  0.00     0.087 C 
ENDBRANCH  16  17
ENDBRANCH  15  16
ENDBRANCH  13  15
ENDBRANCH  11  12
ENDBRANCH   1  11
TORSDOF 9
ENDMDL
MODEL 9
REMARK VINA RESULT:    -5.228      2.308      4.926
REMARK INTER + INTRA:         -10.815
REMARK INTER:                  -8.187
REMARK INTRA:                  -2.628
REMARK UNBOUND:                -2.837
REMARK SMILES CC(=O)CCC=C(C)CCC=C(C)CCC=C(C)C
REMARK SMILES IDX 10 1 11 2 12 3 13 4 14 5 15 6 16 7 18 8 17 9 19 10 9 11 7 12
REMARK SMILES IDX 6 13 8 14 5 15 4 16 2 17 3 18 1 19
REMARK H PARENT
REMARK Flexibility Score: inf
ROOT
ATOM      1  C   UNL     1      17.635 -32.159  20.155  1.00  0.00     0.032 C 
ENDROOT
BRANCH   1   2
ATOM      2  C   UNL     1      17.476 -33.627  19.836  1.00  0.00    -0.028 C 
ATOM      3  C   UNL     1      16.305 -34.298  19.729  1.00  0.00    -0.077 C 
ATOM      4  C   UNL     1      16.370 -35.794  19.528  1.00  0.00     0.039 C 
BRANCH   3   5
ATOM      5  C   UNL     1      14.938 -33.652  19.885  1.00  0.00     0.034 C 
BRANCH   5   6
ATOM      6  C   UNL     1      14.616 -33.288  21.347  1.00  0.00     0.032 C 
BRANCH   6   7
ATOM      7  C   UNL     1      13.962 -31.933  21.468  1.00  0.00    -0.028 C 
ATOM      8  C   UNL     1      12.824 -30.044  22.548  1.00  0.00     0.039 C 
ATOM      9  C   UNL     1      13.480 -31.401  22.611  1.00  0.00    -0.080 C 
ATOM     10  C   UNL     1      13.576 -32.118  23.937  1.00  0.00     0.039 C 
ENDBRANCH   6   7
ENDBRANCH   5   6
ENDBRANCH   3   5
ENDBRANCH   1   2
BRANCH   1  11
ATOM     11  C   UNL     1      18.314 -31.942  21.511  1.00  0.00     0.034 C 
BRANCH  11  12
ATOM     12  C   UNL     1      17.455 -31.086  22.421  1.00  0.00    -0.077 C 
ATOM     13  C   UNL     1      17.152 -31.438  23.694  1.00  0.00    -0.028 C 
ATOM     14  C   UNL     1      16.876 -29.803  21.871  1.00  0.00     0.039 C 
BRANCH  13  15
ATOM     15  C   UNL     1      17.659 -32.677  24.393  1.00  0.00     0.035 C 
BRANCH  15  16
ATOM     16  C   UNL     1      16.543 -33.704  24.623  1.00  0.00     0.079 C 
BRANCH  16  17
ATOM     17  C   UNL     1      17.009 -35.110  24.338  1.00  0.00     0.130 C 
ATOM     18  O   UNL     1      16.834 -35.984  25.173  1.00  0.00    -0.300 OA
ATOM     19  C   UNL     1      17.668 -35.463  23.036  1.00  0.00     0.087 C 
ENDBRANCH  16  17
ENDBRANCH  15  16
ENDBRANCH  13  15
ENDBRANCH  11  12
ENDBRANCH   1  11
TORSDOF 9
ENDMDL
