MODEL 1
REMARK VINA RESULT:    19.748      0.000      0.000
REMARK INTER + INTRA:          25.257
REMARK INTER:                  24.943
REMARK INTRA:                   0.314
REMARK UNBOUND:                 0.314
REMARK SMILES O=C(C=Cc1ccc(O)cc1)c1ccc(O)cc1O
REMARK SMILES IDX 4 1 3 2 5 3 6 4 7 5 8 6 11 7 10 8 9 9 2 11 1 12 12 13 18 14
REMARK SMILES IDX 13 15 17 16 14 17 15 18 19 19 16 21
REMARK H PARENT 9 10 19 20 16 22
REMARK Flexibility Score: inf
ROOT
ATOM      1  C   UNL     1     -26.047  -0.023 -13.903  1.00  0.00     0.012 C 
ATOM      2  C   UNL     1     -26.855   0.604 -14.770  1.00  0.00     0.053 C 
ENDROOT
BRANCH   1   3
ATOM      3  C   UNL     1     -26.092  -1.483 -13.644  1.00  0.00    -0.025 A 
ATOM      4  C   UNL     1     -25.190  -2.129 -12.775  1.00  0.00     0.012 A 
ATOM      5  C   UNL     1     -25.267  -3.511 -12.575  1.00  0.00     0.047 A 
ATOM      6  C   UNL     1     -26.234  -4.268 -13.242  1.00  0.00     0.115 A 
ATOM      7  C   UNL     1     -27.051  -2.257 -14.322  1.00  0.00     0.012 A 
ATOM      8  C   UNL     1     -27.125  -3.638 -14.117  1.00  0.00     0.047 A 
BRANCH   6   9
ATOM      9  O   UNL     1     -26.298  -5.643 -13.030  1.00  0.00    -0.508 OA
ATOM     10  H   UNL     1     -26.275  -6.036 -12.096  1.00  0.00     0.293 HD
ENDBRANCH   6   9
ENDBRANCH   1   3
BRANCH   2  11
ATOM     11  C   UNL     1     -26.772   2.060 -15.013  1.00  0.00     0.189 C 
ATOM     12  O   UNL     1     -27.115   2.538 -16.129  1.00  0.00    -0.289 OA
BRANCH  11  13
ATOM     13  C   UNL     1     -26.256   2.965 -13.962  1.00  0.00     0.064 A 
ATOM     14  C   UNL     1     -24.928   2.873 -13.480  1.00  0.00     0.130 A 
ATOM     15  C   UNL     1     -27.123   3.919 -13.396  1.00  0.00     0.020 A 
ATOM     16  C   UNL     1     -24.510   3.704 -12.432  1.00  0.00     0.093 A 
ATOM     17  C   UNL     1     -26.688   4.751 -12.363  1.00  0.00     0.047 A 
ATOM     18  C   UNL     1     -25.382   4.642 -11.875  1.00  0.00     0.119 A 
BRANCH  14  19
ATOM     19  O   UNL     1     -23.992   1.995 -14.031  1.00  0.00    -0.507 OA
ATOM     20  H   UNL     1     -23.399   1.395 -13.474  1.00  0.00     0.293 HD
ENDBRANCH  14  19
BRANCH  18  21
ATOM     21  O   UNL     1     -24.940   5.462 -10.838  1.00  0.00    -0.508 OA
ATOM     22  H   UNL     1     -24.209   6.148 -10.980  1.00  0.00     0.293 HD
ENDBRANCH  18  21
ENDBRANCH  11  13
ENDBRANCH   2  11
TORSDOF 6
ENDMDL
