MODEL 1
REMARK VINA RESULT:    -2.318      0.000      0.000
REMARK INTER + INTRA:          -2.318
REMARK INTER:                  -2.318
REMARK INTRA:                   0.000
REMARK UNBOUND:                 0.000
REMARK SMILES O=C1CCCCC1
REMARK SMILES IDX 5 1 4 2 3 3 2 4 1 5 7 6 6 7
REMARK H PARENT
REMARK Flexibility Score: inf
ROOT
ATOM      1  C   UNL     1     107.768 106.689 105.422  1.00  0.00     0.001 C 
ATOM      2  C   UNL     1     108.176 107.035 103.981  1.00  0.00     0.008 C 
ATOM      3  C   UNL     1     109.682 107.303 103.875  1.00  0.00     0.075 C 
ATOM      4  C   UNL     1     110.113 108.294 104.920  1.00  0.00     0.132 C 
ATOM      5  O   UNL     1     110.885 109.196 104.634  1.00  0.00    -0.300 OA
ATOM      6  C   UNL     1     109.659 108.107 106.342  1.00  0.00     0.075 C 
ATOM      7  C   UNL     1     108.152 107.819 106.388  1.00  0.00     0.008 C 
ENDROOT
TORSDOF 0
ENDMDL
MODEL 2
REMARK VINA RESULT:    -2.307      4.419      5.559
REMARK INTER + INTRA:          -2.307
REMARK INTER:                  -2.307
REMARK INTRA:                   0.000
REMARK UNBOUND:                 0.000
REMARK SMILES O=C1CCCCC1
REMARK SMILES IDX 5 1 4 2 3 3 2 4 1 5 7 6 6 7
REMARK H PARENT
REMARK Flexibility Score: inf
ROOT
ATOM      1  C   UNL     1     112.300 113.435 105.496  1.00  0.00     0.001 C 
ATOM      2  C   UNL     1     111.950 113.080 104.042  1.00  0.00     0.008 C 
ATOM      3  C   UNL     1     110.448 112.822 103.875  1.00  0.00     0.075 C 
ATOM      4  C   UNL     1     109.966 111.842 104.908  1.00  0.00     0.132 C 
ATOM      5  O   UNL     1     109.200 110.943 104.597  1.00  0.00    -0.300 OA
ATOM      6  C   UNL     1     110.362 112.037 106.346  1.00  0.00     0.075 C 
ATOM      7  C   UNL     1     111.868 112.315 106.453  1.00  0.00     0.008 C 
ENDROOT
TORSDOF 0
ENDMDL
MODEL 3
REMARK VINA RESULT:    -2.291      2.002      2.703
REMARK INTER + INTRA:          -2.291
REMARK INTER:                  -2.291
REMARK INTRA:                   0.000
REMARK UNBOUND:                 0.000
REMARK SMILES O=C1CCCCC1
REMARK SMILES IDX 5 1 4 2 3 3 2 4 1 5 7 6 6 7
REMARK H PARENT
REMARK Flexibility Score: inf
ROOT
ATOM      1  C   UNL     1     108.099 108.958 107.102  1.00  0.00     0.001 C 
ATOM      2  C   UNL     1     108.744 109.374 105.771  1.00  0.00     0.008 C 
ATOM      3  C   UNL     1     108.058 108.694 104.580  1.00  0.00     0.075 C 
ATOM      4  C   UNL     1     107.959 107.211 104.808  1.00  0.00     0.132 C 
ATOM      5  O   UNL     1     108.211 106.429 103.905  1.00  0.00    -0.300 OA
ATOM      6  C   UNL     1     107.453 106.705 106.132  1.00  0.00     0.075 C 
ATOM      7  C   UNL     1     108.154 107.434 107.286  1.00  0.00     0.008 C 
ENDROOT
TORSDOF 0
ENDMDL
MODEL 4
REMARK VINA RESULT:    -2.290      4.547      5.507
REMARK INTER + INTRA:          -2.290
REMARK INTER:                  -2.290
REMARK INTRA:                   0.000
REMARK UNBOUND:                 0.000
REMARK SMILES O=C1CCCCC1
REMARK SMILES IDX 5 1 4 2 3 3 2 4 1 5 7 6 6 7
REMARK H PARENT
REMARK Flexibility Score: inf
ROOT
ATOM      1  C   UNL     1     112.161 110.940 106.845  1.00  0.00     0.001 C 
ATOM      2  C   UNL     1     111.654 110.619 105.431  1.00  0.00     0.008 C 
ATOM      3  C   UNL     1     112.312 111.523 104.382  1.00  0.00     0.075 C 
ATOM      4  C   UNL     1     112.202 112.966 104.790  1.00  0.00     0.132 C 
ATOM      5  O   UNL     1     111.901 113.819 103.969  1.00  0.00    -0.300 OA
ATOM      6  C   UNL     1     112.559 113.360 106.198  1.00  0.00     0.075 C 
ATOM      7  C   UNL     1     111.895 112.410 107.203  1.00  0.00     0.008 C 
ENDROOT
TORSDOF 0
ENDMDL
MODEL 5
REMARK VINA RESULT:    -2.269      3.344      3.873
REMARK INTER + INTRA:          -2.269
REMARK INTER:                  -2.269
REMARK INTRA:                   0.000
REMARK UNBOUND:                 0.000
REMARK SMILES O=C1CCCCC1
REMARK SMILES IDX 5 1 4 2 3 3 2 4 1 5 7 6 6 7
REMARK H PARENT
REMARK Flexibility Score: inf
ROOT
ATOM      1  C   UNL     1     113.387 107.786 105.610  1.00  0.00     0.001 C 
ATOM      2  C   UNL     1     113.405 108.136 104.115  1.00  0.00     0.008 C 
ATOM      3  C   UNL     1     112.980 109.590 103.875  1.00  0.00     0.075 C 
ATOM      4  C   UNL     1     111.688 109.882 104.587  1.00  0.00     0.132 C 
ATOM      5  O   UNL     1     110.808 110.520 104.031  1.00  0.00    -0.300 OA
ATOM      6  C   UNL     1     111.530 109.463 106.023  1.00  0.00     0.075 C 
ATOM      7  C   UNL     1     111.991 108.012 106.210  1.00  0.00     0.008 C 
ENDROOT
TORSDOF 0
ENDMDL
MODEL 6
REMARK VINA RESULT:    -2.243      4.176      5.598
REMARK INTER + INTRA:          -2.243
REMARK INTER:                  -2.243
REMARK INTRA:                   0.000
REMARK UNBOUND:                 0.000
REMARK SMILES O=C1CCCCC1
REMARK SMILES IDX 5 1 4 2 3 3 2 4 1 5 7 6 6 7
REMARK H PARENT
REMARK Flexibility Score: inf
ROOT
ATOM      1  C   UNL     1     112.313 113.374 105.708  1.00  0.00     0.001 C 
ATOM      2  C   UNL     1     111.506 112.410 106.592  1.00  0.00     0.008 C 
ATOM      3  C   UNL     1     111.875 110.949 106.308  1.00  0.00     0.075 C 
ATOM      4  C   UNL     1     111.812 110.670 104.832  1.00  0.00     0.132 C 
ATOM      5  O   UNL     1     111.302 109.639 104.420  1.00  0.00    -0.300 OA
ATOM      6  C   UNL     1     112.468 111.627 103.875  1.00  0.00     0.075 C 
ATOM      7  C   UNL     1     112.085 113.073 104.219  1.00  0.00     0.008 C 
ENDROOT
TORSDOF 0
ENDMDL
MODEL 7
REMARK VINA RESULT:    -2.240      3.516      3.810
REMARK INTER + INTRA:          -2.240
REMARK INTER:                  -2.240
REMARK INTRA:                   0.000
REMARK UNBOUND:                 0.000
REMARK SMILES O=C1CCCCC1
REMARK SMILES IDX 5 1 4 2 3 3 2 4 1 5 7 6 6 7
REMARK H PARENT
REMARK Flexibility Score: inf
ROOT
ATOM      1  C   UNL     1     106.904 112.186 105.571  1.00  0.00     0.001 C 
ATOM      2  C   UNL     1     106.906 111.814 104.080  1.00  0.00     0.008 C 
ATOM      3  C   UNL     1     107.212 110.325 103.875  1.00  0.00     0.075 C 
ATOM      4  C   UNL     1     108.449 109.935 104.635  1.00  0.00     0.132 C 
ATOM      5  O   UNL     1     109.290 109.216 104.118  1.00  0.00    -0.300 OA
ATOM      6  C   UNL     1     108.595 110.363 106.070  1.00  0.00     0.075 C 
ATOM      7  C   UNL     1     108.254 111.851 106.221  1.00  0.00     0.008 C 
ENDROOT
TORSDOF 0
ENDMDL
MODEL 8
REMARK VINA RESULT:    -2.219      2.327      3.970
REMARK INTER + INTRA:          -2.219
REMARK INTER:                  -2.219
REMARK INTRA:                   0.000
REMARK UNBOUND:                 0.000
REMARK SMILES O=C1CCCCC1
REMARK SMILES IDX 5 1 4 2 3 3 2 4 1 5 7 6 6 7
REMARK H PARENT
REMARK Flexibility Score: inf
ROOT
ATOM      1  C   UNL     1     113.335 107.741 106.048  1.00  0.00     0.001 C 
ATOM      2  C   UNL     1     112.213 108.500 106.772  1.00  0.00     0.008 C 
ATOM      3  C   UNL     1     110.844 108.203 106.148  1.00  0.00     0.075 C 
ATOM      4  C   UNL     1     110.893 108.399 104.659  1.00  0.00     0.132 C 
ATOM      5  O   UNL     1     109.983 108.975 104.081  1.00  0.00    -0.300 OA
ATOM      6  C   UNL     1     112.027 107.796 103.876  1.00  0.00     0.075 C 
ATOM      7  C   UNL     1     113.368 108.103 104.556  1.00  0.00     0.008 C 
ENDROOT
TORSDOF 0
ENDMDL
MODEL 9
REMARK VINA RESULT:    -2.217      2.041      2.785
REMARK INTER + INTRA:          -2.217
REMARK INTER:                  -2.217
REMARK INTRA:                   0.000
REMARK UNBOUND:                 0.000
REMARK SMILES O=C1CCCCC1
REMARK SMILES IDX 5 1 4 2 3 3 2 4 1 5 7 6 6 7
REMARK H PARENT
REMARK Flexibility Score: inf
ROOT
ATOM      1  C   UNL     1     110.030 108.482 104.896  1.00  0.00     0.001 C 
ATOM      2  C   UNL     1     109.267 107.418 104.092  1.00  0.00     0.008 C 
ATOM      3  C   UNL     1     107.818 107.284 104.575  1.00  0.00     0.075 C 
ATOM      4  C   UNL     1     107.777 107.111 106.068  1.00  0.00     0.132 C 
ATOM      5  O   UNL     1     107.032 106.286 106.574  1.00  0.00    -0.300 OA
ATOM      6  C   UNL     1     108.593 108.030 106.936  1.00  0.00     0.075 C 
ATOM      7  C   UNL     1     110.024 108.146 106.395  1.00  0.00     0.008 C 
ENDROOT
TORSDOF 0
ENDMDL
