MODEL 1
REMARK VINA RESULT:    -3.648      0.000      0.000
REMARK INTER + INTRA:          -6.706
REMARK INTER:                  -5.888
REMARK INTRA:                  -0.818
REMARK UNBOUND:                -0.818
REMARK SMILES CCCCCCCCCCCCO
REMARK SMILES IDX 7 1 6 2 5 3 4 4 3 5 2 6 1 7 8 8 9 9 10 10 11 11 12 12 13 13
REMARK H PARENT 13 14
REMARK Flexibility Score: inf
ROOT
ATOM      1  C   UNL     1     178.809 171.648 187.808  1.00  0.00     0.000 C 
ENDROOT
BRANCH   1   2
ATOM      2  C   UNL     1     179.789 172.630 188.467  1.00  0.00    -0.000 C 
BRANCH   2   3
ATOM      3  C   UNL     1     179.305 174.077 188.311  1.00  0.00    -0.000 C 
BRANCH   3   4
ATOM      4  C   UNL     1     178.650 174.582 189.602  1.00  0.00    -0.000 C 
BRANCH   4   5
ATOM      5  C   UNL     1     177.148 174.814 189.405  1.00  0.00    -0.000 C 
BRANCH   5   6
ATOM      6  C   UNL     1     176.333 174.079 190.476  1.00  0.00    -0.003 C 
ATOM      7  C   UNL     1     176.020 172.649 190.047  1.00  0.00     0.004 C 
ENDBRANCH   5   6
ENDBRANCH   4   5
ENDBRANCH   3   4
ENDBRANCH   2   3
ENDBRANCH   1   2
BRANCH   1   8
ATOM      8  C   UNL     1     178.625 170.358 188.623  1.00  0.00     0.000 C 
BRANCH   8   9
ATOM      9  C   UNL     1     179.958 169.658 188.930  1.00  0.00     0.000 C 
BRANCH   9  10
ATOM     10  C   UNL     1     180.125 168.396 188.076  1.00  0.00     0.002 C 
BRANCH  10  11
ATOM     11  C   UNL     1     178.769 167.896 187.562  1.00  0.00     0.028 C 
BRANCH  11  12
ATOM     12  C   UNL     1     178.905 166.581 186.785  1.00  0.00     0.156 C 
BRANCH  12  13
ATOM     13  O   UNL     1     179.956 165.806 187.293  1.00  0.00    -0.396 OA
ATOM     14  H   UNL     1     180.700 165.871 186.637  1.00  0.00     0.210 HD
ENDBRANCH  12  13
ENDBRANCH  11  12
ENDBRANCH  10  11
ENDBRANCH   9  10
ENDBRANCH   8   9
ENDBRANCH   1   8
TORSDOF 11
ENDMDL
MODEL 2
REMARK VINA RESULT:    -3.643      9.539     11.834
REMARK INTER + INTRA:          -6.698
REMARK INTER:                  -6.025
REMARK INTRA:                  -0.673
REMARK UNBOUND:                -0.818
REMARK SMILES CCCCCCCCCCCCO
REMARK SMILES IDX 7 1 6 2 5 3 4 4 3 5 2 6 1 7 8 8 9 9 10 10 11 11 12 12 13 13
REMARK H PARENT 13 14
REMARK Flexibility Score: inf
ROOT
ATOM      1  C   UNL     1     170.911 179.736 188.474  1.00  0.00     0.000 C 
ENDROOT
BRANCH   1   2
ATOM      2  C   UNL     1     170.242 179.213 187.193  1.00  0.00    -0.000 C 
BRANCH   2   3
ATOM      3  C   UNL     1     168.839 179.808 187.024  1.00  0.00    -0.000 C 
BRANCH   3   4
ATOM      4  C   UNL     1     168.140 179.964 188.380  1.00  0.00    -0.000 C 
BRANCH   4   5
ATOM      5  C   UNL     1     167.081 178.874 188.582  1.00  0.00    -0.000 C 
BRANCH   5   6
ATOM      6  C   UNL     1     167.026 178.426 190.047  1.00  0.00    -0.003 C 
ATOM      7  C   UNL     1     167.646 177.043 190.225  1.00  0.00     0.004 C 
ENDBRANCH   5   6
ENDBRANCH   4   5
ENDBRANCH   3   4
ENDBRANCH   2   3
ENDBRANCH   1   2
BRANCH   1   8
ATOM      8  C   UNL     1     172.282 179.092 188.731  1.00  0.00     0.000 C 
BRANCH   8   9
ATOM      9  C   UNL     1     173.418 180.125 188.792  1.00  0.00     0.000 C 
BRANCH   9  10
ATOM     10  C   UNL     1     174.436 179.887 187.670  1.00  0.00     0.002 C 
BRANCH  10  11
ATOM     11  C   UNL     1     174.298 178.473 187.092  1.00  0.00     0.028 C 
BRANCH  11  12
ATOM     12  C   UNL     1     173.997 178.501 185.589  1.00  0.00     0.156 C 
BRANCH  12  13
ATOM     13  O   UNL     1     174.606 179.604 184.976  1.00  0.00    -0.396 OA
ATOM     14  H   UNL     1     174.590 179.431 183.998  1.00  0.00     0.210 HD
ENDBRANCH  12  13
ENDBRANCH  11  12
ENDBRANCH  10  11
ENDBRANCH   9  10
ENDBRANCH   8   9
ENDBRANCH   1   8
TORSDOF 11
ENDMDL
MODEL 3
REMARK VINA RESULT:    -3.603     16.839     18.953
REMARK INTER + INTRA:          -6.633
REMARK INTER:                  -5.876
REMARK INTRA:                  -0.757
REMARK UNBOUND:                -0.818
REMARK SMILES CCCCCCCCCCCCO
REMARK SMILES IDX 7 1 6 2 5 3 4 4 3 5 2 6 1 7 8 8 9 9 10 10 11 11 12 12 13 13
REMARK H PARENT 13 14
REMARK Flexibility Score: inf
ROOT
ATOM      1  C   UNL     1     162.638 161.953 188.479  1.00  0.00     0.000 C 
ENDROOT
BRANCH   1   2
ATOM      2  C   UNL     1     163.211 161.170 187.287  1.00  0.00    -0.000 C 
BRANCH   2   3
ATOM      3  C   UNL     1     164.441 160.356 187.707  1.00  0.00    -0.000 C 
BRANCH   3   4
ATOM      4  C   UNL     1     164.504 160.197 189.231  1.00  0.00    -0.000 C 
BRANCH   4   5
ATOM      5  C   UNL     1     165.954 160.211 189.726  1.00  0.00    -0.000 C 
BRANCH   5   6
ATOM      6  C   UNL     1     166.695 161.456 189.224  1.00  0.00    -0.003 C 
ATOM      7  C   UNL     1     166.350 162.680 190.068  1.00  0.00     0.004 C 
ENDBRANCH   5   6
ENDBRANCH   4   5
ENDBRANCH   3   4
ENDBRANCH   2   3
ENDBRANCH   1   2
BRANCH   1   8
ATOM      8  C   UNL     1     161.126 161.744 188.652  1.00  0.00     0.000 C 
BRANCH   8   9
ATOM      9  C   UNL     1     160.378 163.053 188.949  1.00  0.00     0.000 C 
BRANCH   9  10
ATOM     10  C   UNL     1     159.887 163.710 187.653  1.00  0.00     0.002 C 
BRANCH  10  11
ATOM     11  C   UNL     1     160.742 164.934 187.298  1.00  0.00     0.028 C 
BRANCH  11  12
ATOM     12  C   UNL     1     161.050 164.996 185.798  1.00  0.00     0.156 C 
BRANCH  12  13
ATOM     13  O   UNL     1     159.875 165.170 185.052  1.00  0.00    -0.396 OA
ATOM     14  H   UNL     1     159.118 164.978 185.666  1.00  0.00     0.210 HD
ENDBRANCH  12  13
ENDBRANCH  11  12
ENDBRANCH  10  11
ENDBRANCH   9  10
ENDBRANCH   8   9
ENDBRANCH   1   8
TORSDOF 11
ENDMDL
MODEL 4
REMARK VINA RESULT:    -3.486     16.759     18.750
REMARK INTER + INTRA:          -6.444
REMARK INTER:                  -5.538
REMARK INTRA:                  -0.906
REMARK UNBOUND:                -0.818
REMARK SMILES CCCCCCCCCCCCO
REMARK SMILES IDX 7 1 6 2 5 3 4 4 3 5 2 6 1 7 8 8 9 9 10 10 11 11 12 12 13 13
REMARK H PARENT 13 14
REMARK Flexibility Score: inf
ROOT
ATOM      1  C   UNL     1     163.543 162.629 188.595  1.00  0.00     0.000 C 
ENDROOT
BRANCH   1   2
ATOM      2  C   UNL     1     163.172 161.139 188.546  1.00  0.00    -0.000 C 
BRANCH   2   3
ATOM      3  C   UNL     1     164.420 160.269 188.359  1.00  0.00    -0.000 C 
BRANCH   3   4
ATOM      4  C   UNL     1     165.059 159.924 189.710  1.00  0.00    -0.000 C 
BRANCH   4   5
ATOM      5  C   UNL     1     166.518 160.391 189.764  1.00  0.00    -0.000 C 
BRANCH   5   6
ATOM      6  C   UNL     1     166.620 161.813 190.328  1.00  0.00    -0.003 C 
ATOM      7  C   UNL     1     167.225 162.771 189.306  1.00  0.00     0.004 C 
ENDBRANCH   5   6
ENDBRANCH   4   5
ENDBRANCH   3   4
ENDBRANCH   2   3
ENDBRANCH   1   2
BRANCH   1   8
ATOM      8  C   UNL     1     162.311 163.546 188.619  1.00  0.00     0.000 C 
BRANCH   8   9
ATOM      9  C   UNL     1     161.000 162.770 188.820  1.00  0.00     0.000 C 
BRANCH   9  10
ATOM     10  C   UNL     1     159.889 163.327 187.921  1.00  0.00     0.002 C 
BRANCH  10  11
ATOM     11  C   UNL     1     159.988 162.750 186.503  1.00  0.00     0.028 C 
BRANCH  11  12
ATOM     12  C   UNL     1     160.191 161.231 186.519  1.00  0.00     0.156 C 
BRANCH  12  13
ATOM     13  O   UNL     1     161.185 160.848 185.607  1.00  0.00    -0.396 OA
ATOM     14  H   UNL     1     161.837 161.596 185.568  1.00  0.00     0.210 HD
ENDBRANCH  12  13
ENDBRANCH  11  12
ENDBRANCH  10  11
ENDBRANCH   9  10
ENDBRANCH   8   9
ENDBRANCH   1   8
TORSDOF 11
ENDMDL
MODEL 5
REMARK VINA RESULT:    -3.482      3.722      5.629
REMARK INTER + INTRA:          -6.438
REMARK INTER:                  -5.033
REMARK INTRA:                  -1.404
REMARK UNBOUND:                -0.818
REMARK SMILES CCCCCCCCCCCCO
REMARK SMILES IDX 7 1 6 2 5 3 4 4 3 5 2 6 1 7 8 8 9 9 10 10 11 11 12 12 13 13
REMARK H PARENT 13 14
REMARK Flexibility Score: inf
ROOT
ATOM      1  C   UNL     1     175.440 174.722 188.422  1.00  0.00     0.000 C 
ENDROOT
BRANCH   1   2
ATOM      2  C   UNL     1     176.798 175.401 188.661  1.00  0.00    -0.000 C 
BRANCH   2   3
ATOM      3  C   UNL     1     177.460 174.869 189.937  1.00  0.00    -0.000 C 
BRANCH   3   4
ATOM      4  C   UNL     1     178.952 174.597 189.712  1.00  0.00    -0.000 C 
BRANCH   4   5
ATOM      5  C   UNL     1     179.206 174.050 188.303  1.00  0.00    -0.000 C 
BRANCH   5   6
ATOM      6  C   UNL     1     179.734 172.611 188.360  1.00  0.00    -0.003 C 
ATOM      7  C   UNL     1     178.590 171.608 188.476  1.00  0.00     0.004 C 
ENDBRANCH   5   6
ENDBRANCH   4   5
ENDBRANCH   3   4
ENDBRANCH   2   3
ENDBRANCH   1   2
BRANCH   1   8
ATOM      8  C   UNL     1     175.198 174.387 186.942  1.00  0.00     0.000 C 
BRANCH   8   9
ATOM      9  C   UNL     1     175.667 172.971 186.571  1.00  0.00     0.000 C 
BRANCH   9  10
ATOM     10  C   UNL     1     176.840 173.022 185.585  1.00  0.00     0.002 C 
BRANCH  10  11
ATOM     11  C   UNL     1     177.082 174.455 185.091  1.00  0.00     0.028 C 
BRANCH  11  12
ATOM     12  C   UNL     1     178.541 174.674 184.674  1.00  0.00     0.156 C 
BRANCH  12  13
ATOM     13  O   UNL     1     179.035 175.879 185.193  1.00  0.00    -0.396 OA
ATOM     14  H   UNL     1     179.786 175.641 185.798  1.00  0.00     0.210 HD
ENDBRANCH  12  13
ENDBRANCH  11  12
ENDBRANCH  10  11
ENDBRANCH   9  10
ENDBRANCH   8   9
ENDBRANCH   1   8
TORSDOF 11
ENDMDL
MODEL 6
REMARK VINA RESULT:    -3.477     14.038     15.788
REMARK INTER + INTRA:          -6.429
REMARK INTER:                  -5.071
REMARK INTRA:                  -1.358
REMARK UNBOUND:                -0.818
REMARK SMILES CCCCCCCCCCCCO
REMARK SMILES IDX 7 1 6 2 5 3 4 4 3 5 2 6 1 7 8 8 9 9 10 10 11 11 12 12 13 13
REMARK H PARENT 13 14
REMARK Flexibility Score: inf
ROOT
ATOM      1  C   UNL     1     167.313 162.916 189.298  1.00  0.00     0.000 C 
ENDROOT
BRANCH   1   2
ATOM      2  C   UNL     1     166.564 162.066 190.336  1.00  0.00    -0.000 C 
BRANCH   2   3
ATOM      3  C   UNL     1     166.623 160.578 189.973  1.00  0.00    -0.000 C 
BRANCH   3   4
ATOM      4  C   UNL     1     165.216 160.008 189.750  1.00  0.00    -0.000 C 
BRANCH   4   5
ATOM      5  C   UNL     1     164.706 160.338 188.342  1.00  0.00    -0.000 C 
BRANCH   5   6
ATOM      6  C   UNL     1     163.363 161.076 188.403  1.00  0.00    -0.003 C 
ATOM      7  C   UNL     1     163.552 162.579 188.228  1.00  0.00     0.004 C 
ENDBRANCH   5   6
ENDBRANCH   4   5
ENDBRANCH   3   4
ENDBRANCH   2   3
ENDBRANCH   1   2
BRANCH   1   8
ATOM      8  C   UNL     1     168.121 162.063 188.307  1.00  0.00     0.000 C 
BRANCH   8   9
ATOM      9  C   UNL     1     167.578 162.150 186.872  1.00  0.00     0.000 C 
BRANCH   9  10
ATOM     10  C   UNL     1     167.780 160.824 186.129  1.00  0.00     0.002 C 
BRANCH  10  11
ATOM     11  C   UNL     1     168.759 159.914 186.881  1.00  0.00     0.028 C 
BRANCH  11  12
ATOM     12  C   UNL     1     170.134 159.875 186.203  1.00  0.00     0.156 C 
BRANCH  12  13
ATOM     13  O   UNL     1     170.005 159.875 184.807  1.00  0.00    -0.396 OA
ATOM     14  H   UNL     1     169.034 159.963 184.612  1.00  0.00     0.210 HD
ENDBRANCH  12  13
ENDBRANCH  11  12
ENDBRANCH  10  11
ENDBRANCH   9  10
ENDBRANCH   8   9
ENDBRANCH   1   8
TORSDOF 11
ENDMDL
MODEL 7
REMARK VINA RESULT:    -3.455     18.299     19.909
REMARK INTER + INTRA:          -6.394
REMARK INTER:                  -5.221
REMARK INTRA:                  -1.173
REMARK UNBOUND:                -0.818
REMARK SMILES CCCCCCCCCCCCO
REMARK SMILES IDX 7 1 6 2 5 3 4 4 3 5 2 6 1 7 8 8 9 9 10 10 11 11 12 12 13 13
REMARK H PARENT 13 14
REMARK Flexibility Score: inf
ROOT
ATOM      1  C   UNL     1     162.810 162.051 188.232  1.00  0.00     0.000 C 
ENDROOT
BRANCH   1   2
ATOM      2  C   UNL     1     163.293 160.901 187.335  1.00  0.00    -0.000 C 
BRANCH   2   3
ATOM      3  C   UNL     1     163.864 161.437 186.016  1.00  0.00    -0.000 C 
BRANCH   3   4
ATOM      4  C   UNL     1     162.752 161.996 185.120  1.00  0.00    -0.000 C 
BRANCH   4   5
ATOM      5  C   UNL     1     161.678 160.936 184.849  1.00  0.00    -0.000 C 
BRANCH   5   6
ATOM      6  C   UNL     1     160.272 161.515 185.047  1.00  0.00    -0.003 C 
ATOM      7  C   UNL     1     159.875 162.411 183.877  1.00  0.00     0.004 C 
ENDBRANCH   5   6
ENDBRANCH   4   5
ENDBRANCH   3   4
ENDBRANCH   2   3
ENDBRANCH   1   2
BRANCH   1   8
ATOM      8  C   UNL     1     161.319 161.940 188.585  1.00  0.00     0.000 C 
BRANCH   8   9
ATOM      9  C   UNL     1     160.695 163.296 188.950  1.00  0.00     0.000 C 
BRANCH   9  10
ATOM     10  C   UNL     1     160.178 164.018 187.699  1.00  0.00     0.002 C 
BRANCH  10  11
ATOM     11  C   UNL     1     161.079 165.206 187.337  1.00  0.00     0.028 C 
BRANCH  11  12
ATOM     12  C   UNL     1     160.359 166.210 186.430  1.00  0.00     0.156 C 
BRANCH  12  13
ATOM     13  O   UNL     1     160.225 165.704 185.129  1.00  0.00    -0.396 OA
ATOM     14  H   UNL     1     159.706 164.861 185.205  1.00  0.00     0.210 HD
ENDBRANCH  12  13
ENDBRANCH  11  12
ENDBRANCH  10  11
ENDBRANCH   9  10
ENDBRANCH   8   9
ENDBRANCH   1   8
TORSDOF 11
ENDMDL
