MODEL 1
REMARK VINA RESULT:    -6.825      0.000      0.000
REMARK INTER + INTRA:          -7.712
REMARK INTER:                  -7.622
REMARK INTRA:                  -0.090
REMARK UNBOUND:                -0.090
REMARK SMILES CCc1ccc(O)cc1O
REMARK SMILES IDX 3 1 9 2 8 3 6 4 5 5 4 6 2 7 1 8 10 9 7 11
REMARK H PARENT 10 10 7 12
REMARK Flexibility Score: inf
ROOT
ATOM      1  C   UNL     1     -36.154  71.235 -18.749  1.00  0.00    -0.006 A 
ATOM      2  C   UNL     1     -34.772  71.149 -19.012  1.00  0.00     0.122 A 
ATOM      3  C   UNL     1     -34.142  69.896 -19.032  1.00  0.00     0.092 A 
ATOM      4  C   UNL     1     -34.876  68.730 -18.780  1.00  0.00     0.119 A 
ATOM      5  C   UNL     1     -36.243  68.817 -18.505  1.00  0.00     0.047 A 
ATOM      6  C   UNL     1     -36.879  70.061 -18.485  1.00  0.00     0.011 A 
ENDROOT
BRANCH   1   7
ATOM      7  C   UNL     1     -36.850  72.572 -18.691  1.00  0.00     0.036 C 
ATOM      8  C   UNL     1     -38.102  72.568 -19.563  1.00  0.00     0.009 C 
ENDBRANCH   1   7
BRANCH   2   9
ATOM      9  O   UNL     1     -34.029  72.305 -19.251  1.00  0.00    -0.508 OA
ATOM     10  H   UNL     1     -33.507  72.434 -20.110  1.00  0.00     0.293 HD
ENDBRANCH   2   9
BRANCH   4  11
ATOM     11  O   UNL     1     -34.257  67.482 -18.798  1.00  0.00    -0.508 OA
ATOM     12  H   UNL     1     -34.744  66.645 -18.497  1.00  0.00     0.293 HD
ENDBRANCH   4  11
TORSDOF 3
ENDMDL
MODEL 2
REMARK VINA RESULT:    -6.633      1.512      2.153
REMARK INTER + INTRA:          -7.498
REMARK INTER:                  -7.705
REMARK INTRA:                   0.206
REMARK UNBOUND:                -0.090
REMARK SMILES CCc1ccc(O)cc1O
REMARK SMILES IDX 3 1 9 2 8 3 6 4 5 5 4 6 2 7 1 8 10 9 7 11
REMARK H PARENT 10 10 7 12
REMARK Flexibility Score: inf
ROOT
ATOM      1  C   UNL     1     -36.027  71.542 -18.669  1.00  0.00    -0.006 A 
ATOM      2  C   UNL     1     -36.742  70.342 -18.483  1.00  0.00     0.122 A 
ATOM      3  C   UNL     1     -36.081  69.110 -18.601  1.00  0.00     0.092 A 
ATOM      4  C   UNL     1     -34.717  69.065 -18.914  1.00  0.00     0.119 A 
ATOM      5  C   UNL     1     -34.012  70.255 -19.114  1.00  0.00     0.047 A 
ATOM      6  C   UNL     1     -34.662  71.486 -18.997  1.00  0.00     0.011 A 
ENDROOT
BRANCH   1   7
ATOM      7  C   UNL     1     -36.719  72.879 -18.579  1.00  0.00     0.036 C 
ATOM      8  C   UNL     1     -37.811  72.995 -19.638  1.00  0.00     0.009 C 
ENDBRANCH   1   7
BRANCH   2   9
ATOM      9  O   UNL     1     -38.104  70.375 -18.184  1.00  0.00    -0.508 OA
ATOM     10  H   UNL     1     -38.700  69.567 -18.327  1.00  0.00     0.293 HD
ENDBRANCH   2   9
BRANCH   4  11
ATOM     11  O   UNL     1     -34.054  67.846 -19.033  1.00  0.00    -0.508 OA
ATOM     12  H   UNL     1     -33.974  67.208 -18.249  1.00  0.00     0.293 HD
ENDBRANCH   4  11
TORSDOF 3
ENDMDL
MODEL 3
REMARK VINA RESULT:    -5.187      2.429      3.465
REMARK INTER + INTRA:          -5.883
REMARK INTER:                  -5.793
REMARK INTRA:                  -0.090
REMARK UNBOUND:                -0.090
REMARK SMILES CCc1ccc(O)cc1O
REMARK SMILES IDX 3 1 9 2 8 3 6 4 5 5 4 6 2 7 1 8 10 9 7 11
REMARK H PARENT 10 10 7 12
REMARK Flexibility Score: inf
ROOT
ATOM      1  C   UNL     1     -37.795  73.088 -19.439  1.00  0.00    -0.006 A 
ATOM      2  C   UNL     1     -38.542  71.917 -19.679  1.00  0.00     0.122 A 
ATOM      3  C   UNL     1     -38.029  70.670 -19.293  1.00  0.00     0.092 A 
ATOM      4  C   UNL     1     -36.772  70.580 -18.681  1.00  0.00     0.119 A 
ATOM      5  C   UNL     1     -36.026  71.739 -18.456  1.00  0.00     0.047 A 
ATOM      6  C   UNL     1     -36.530  72.985 -18.836  1.00  0.00     0.011 A 
ENDROOT
BRANCH   1   7
ATOM      7  C   UNL     1     -38.310  74.438 -19.872  1.00  0.00     0.036 C 
ATOM      8  C   UNL     1     -38.275  75.428 -18.711  1.00  0.00     0.009 C 
ENDBRANCH   1   7
BRANCH   2   9
ATOM      9  O   UNL     1     -39.788  71.994 -20.301  1.00  0.00    -0.508 OA
ATOM     10  H   UNL     1     -39.880  72.238 -21.280  1.00  0.00     0.293 HD
ENDBRANCH   2   9
BRANCH   4  11
ATOM     11  O   UNL     1     -36.256  69.345 -18.295  1.00  0.00    -0.508 OA
ATOM     12  H   UNL     1     -36.210  69.072 -17.319  1.00  0.00     0.293 HD
ENDBRANCH   4  11
TORSDOF 3
ENDMDL
MODEL 4
REMARK VINA RESULT:    -5.041      2.410      3.915
REMARK INTER + INTRA:          -5.720
REMARK INTER:                  -5.632
REMARK INTRA:                  -0.088
REMARK UNBOUND:                -0.090
REMARK SMILES CCc1ccc(O)cc1O
REMARK SMILES IDX 3 1 9 2 8 3 6 4 5 5 4 6 2 7 1 8 10 9 7 11
REMARK H PARENT 10 10 7 12
REMARK Flexibility Score: inf
ROOT
ATOM      1  C   UNL     1     -36.049  71.934 -18.805  1.00  0.00    -0.006 A 
ATOM      2  C   UNL     1     -36.562  70.622 -18.791  1.00  0.00     0.122 A 
ATOM      3  C   UNL     1     -37.893  70.388 -19.169  1.00  0.00     0.092 A 
ATOM      4  C   UNL     1     -38.719  71.454 -19.549  1.00  0.00     0.119 A 
ATOM      5  C   UNL     1     -38.214  72.757 -19.547  1.00  0.00     0.047 A 
ATOM      6  C   UNL     1     -36.889  72.998 -19.174  1.00  0.00     0.011 A 
ENDROOT
BRANCH   1   7
ATOM      7  C   UNL     1     -34.631  72.216 -18.374  1.00  0.00     0.036 C 
ATOM      8  C   UNL     1     -34.545  73.549 -17.636  1.00  0.00     0.009 C 
ENDBRANCH   1   7
BRANCH   2   9
ATOM      9  O   UNL     1     -35.752  69.555 -18.402  1.00  0.00    -0.508 OA
ATOM     10  H   UNL     1     -35.808  69.156 -17.472  1.00  0.00     0.293 HD
ENDBRANCH   2   9
BRANCH   4  11
ATOM     11  O   UNL     1     -40.041  71.230 -19.925  1.00  0.00    -0.508 OA
ATOM     12  H   UNL     1     -40.641  71.990 -20.227  1.00  0.00     0.293 HD
ENDBRANCH   4  11
TORSDOF 3
ENDMDL
MODEL 5
REMARK VINA RESULT:    -5.034      1.845      4.095
REMARK INTER + INTRA:          -5.712
REMARK INTER:                  -6.034
REMARK INTRA:                   0.322
REMARK UNBOUND:                -0.090
REMARK SMILES CCc1ccc(O)cc1O
REMARK SMILES IDX 3 1 9 2 8 3 6 4 5 5 4 6 2 7 1 8 10 9 7 11
REMARK H PARENT 10 10 7 12
REMARK Flexibility Score: inf
ROOT
ATOM      1  C   UNL     1     -36.780  70.602 -18.718  1.00  0.00    -0.006 A 
ATOM      2  C   UNL     1     -36.149  71.863 -18.712  1.00  0.00     0.122 A 
ATOM      3  C   UNL     1     -36.842  72.993 -19.169  1.00  0.00     0.092 A 
ATOM      4  C   UNL     1     -38.155  72.875 -19.644  1.00  0.00     0.119 A 
ATOM      5  C   UNL     1     -38.775  71.624 -19.664  1.00  0.00     0.047 A 
ATOM      6  C   UNL     1     -38.093  70.493 -19.208  1.00  0.00     0.011 A 
ENDROOT
BRANCH   1   7
ATOM      7  C   UNL     1     -36.048  69.366 -18.260  1.00  0.00     0.036 C 
ATOM      8  C   UNL     1     -34.745  69.192 -19.034  1.00  0.00     0.009 C 
ENDBRANCH   1   7
BRANCH   2   9
ATOM      9  O   UNL     1     -34.837  71.989 -18.254  1.00  0.00    -0.508 OA
ATOM     10  H   UNL     1     -34.191  72.651 -18.667  1.00  0.00     0.293 HD
ENDBRANCH   2   9
BRANCH   4  11
ATOM     11  O   UNL     1     -38.849  73.993 -20.100  1.00  0.00    -0.508 OA
ATOM     12  H   UNL     1     -39.787  74.202 -19.777  1.00  0.00     0.293 HD
ENDBRANCH   4  11
TORSDOF 3
ENDMDL
MODEL 6
REMARK VINA RESULT:    -4.662      9.789     10.448
REMARK INTER + INTRA:          -5.296
REMARK INTER:                  -5.192
REMARK INTRA:                  -0.104
REMARK UNBOUND:                -0.090
REMARK SMILES CCc1ccc(O)cc1O
REMARK SMILES IDX 3 1 9 2 8 3 6 4 5 5 4 6 2 7 1 8 10 9 7 11
REMARK H PARENT 10 10 7 12
REMARK Flexibility Score: inf
ROOT
ATOM      1  C   UNL     1     -39.112  72.814  -9.619  1.00  0.00    -0.006 A 
ATOM      2  C   UNL     1     -39.103  71.567 -10.276  1.00  0.00     0.122 A 
ATOM      3  C   UNL     1     -40.297  70.845 -10.423  1.00  0.00     0.092 A 
ATOM      4  C   UNL     1     -41.497  71.351  -9.909  1.00  0.00     0.119 A 
ATOM      5  C   UNL     1     -41.504  72.580  -9.244  1.00  0.00     0.047 A 
ATOM      6  C   UNL     1     -40.320  73.306  -9.095  1.00  0.00     0.011 A 
ENDROOT
BRANCH   1   7
ATOM      7  C   UNL     1     -37.838  73.595  -9.421  1.00  0.00     0.036 C 
ATOM      8  C   UNL     1     -37.711  74.698 -10.467  1.00  0.00     0.009 C 
ENDBRANCH   1   7
BRANCH   2   9
ATOM      9  O   UNL     1     -37.910  71.048 -10.780  1.00  0.00    -0.508 OA
ATOM     10  H   UNL     1     -37.121  70.845 -10.177  1.00  0.00     0.293 HD
ENDBRANCH   2   9
BRANCH   4  11
ATOM     11  O   UNL     1     -42.686  70.641 -10.050  1.00  0.00    -0.508 OA
ATOM     12  H   UNL     1     -42.720  69.758 -10.548  1.00  0.00     0.293 HD
ENDBRANCH   4  11
TORSDOF 3
ENDMDL
MODEL 7
REMARK VINA RESULT:    -4.637      9.679     10.699
REMARK INTER + INTRA:          -5.269
REMARK INTER:                  -5.181
REMARK INTRA:                  -0.088
REMARK UNBOUND:                -0.090
REMARK SMILES CCc1ccc(O)cc1O
REMARK SMILES IDX 3 1 9 2 8 3 6 4 5 5 4 6 2 7 1 8 10 9 7 11
REMARK H PARENT 10 10 7 12
REMARK Flexibility Score: inf
ROOT
ATOM      1  C   UNL     1     -39.111  72.280  -9.610  1.00  0.00    -0.006 A 
ATOM      2  C   UNL     1     -37.903  72.790 -10.127  1.00  0.00     0.122 A 
ATOM      3  C   UNL     1     -37.610  74.156 -10.001  1.00  0.00     0.092 A 
ATOM      4  C   UNL     1     -38.517  75.019  -9.374  1.00  0.00     0.119 A 
ATOM      5  C   UNL     1     -39.721  74.516  -8.875  1.00  0.00     0.047 A 
ATOM      6  C   UNL     1     -40.020  73.157  -8.995  1.00  0.00     0.011 A 
ENDROOT
BRANCH   1   7
ATOM      7  C   UNL     1     -39.464  70.822  -9.759  1.00  0.00     0.036 C 
ATOM      8  C   UNL     1     -40.960  70.649 -10.000  1.00  0.00     0.009 C 
ENDBRANCH   1   7
BRANCH   2   9
ATOM      9  O   UNL     1     -36.998  71.941 -10.765  1.00  0.00    -0.508 OA
ATOM     10  H   UNL     1     -36.967  70.948 -10.562  1.00  0.00     0.293 HD
ENDBRANCH   2   9
BRANCH   4  11
ATOM     11  O   UNL     1     -38.234  76.377  -9.245  1.00  0.00    -0.508 OA
ATOM     12  H   UNL     1     -38.899  77.086  -9.534  1.00  0.00     0.293 HD
ENDBRANCH   4  11
TORSDOF 3
ENDMDL
MODEL 8
REMARK VINA RESULT:    -4.603     10.008     10.661
REMARK INTER + INTRA:          -5.230
REMARK INTER:                  -5.207
REMARK INTRA:                  -0.024
REMARK UNBOUND:                -0.090
REMARK SMILES CCc1ccc(O)cc1O
REMARK SMILES IDX 3 1 9 2 8 3 6 4 5 5 4 6 2 7 1 8 10 9 7 11
REMARK H PARENT 10 10 7 12
REMARK Flexibility Score: inf
ROOT
ATOM      1  C   UNL     1     -39.013  72.611  -9.657  1.00  0.00    -0.006 A 
ATOM      2  C   UNL     1     -40.233  73.234  -9.323  1.00  0.00     0.122 A 
ATOM      3  C   UNL     1     -41.436  72.523  -9.445  1.00  0.00     0.092 A 
ATOM      4  C   UNL     1     -41.434  71.201  -9.906  1.00  0.00     0.119 A 
ATOM      5  C   UNL     1     -40.226  70.589 -10.251  1.00  0.00     0.047 A 
ATOM      6  C   UNL     1     -39.023  71.289 -10.132  1.00  0.00     0.011 A 
ENDROOT
BRANCH   1   7
ATOM      7  C   UNL     1     -37.709  73.363  -9.565  1.00  0.00     0.036 C 
ATOM      8  C   UNL     1     -37.540  74.301 -10.755  1.00  0.00     0.009 C 
ENDBRANCH   1   7
BRANCH   2   9
ATOM      9  O   UNL     1     -40.247  74.555  -8.875  1.00  0.00    -0.508 OA
ATOM     10  H   UNL     1     -40.300  74.781  -7.889  1.00  0.00     0.293 HD
ENDBRANCH   2   9
BRANCH   4  11
ATOM     11  O   UNL     1     -42.624  70.489 -10.030  1.00  0.00    -0.508 OA
ATOM     12  H   UNL     1     -42.674  69.630 -10.566  1.00  0.00     0.293 HD
ENDBRANCH   4  11
TORSDOF 3
ENDMDL
MODEL 9
REMARK VINA RESULT:    -4.447     10.192     10.811
REMARK INTER + INTRA:          -5.056
REMARK INTER:                  -4.959
REMARK INTRA:                  -0.098
REMARK UNBOUND:                -0.090
REMARK SMILES CCc1ccc(O)cc1O
REMARK SMILES IDX 3 1 9 2 8 3 6 4 5 5 4 6 2 7 1 8 10 9 7 11
REMARK H PARENT 10 10 7 12
REMARK Flexibility Score: inf
ROOT
ATOM      1  C   UNL     1     -40.235  73.189  -9.526  1.00  0.00    -0.006 A 
ATOM      2  C   UNL     1     -40.237  74.396 -10.255  1.00  0.00     0.122 A 
ATOM      3  C   UNL     1     -39.032  75.081 -10.475  1.00  0.00     0.092 A 
ATOM      4  C   UNL     1     -37.829  74.579  -9.965  1.00  0.00     0.119 A 
ATOM      5  C   UNL     1     -37.829  73.391  -9.230  1.00  0.00     0.047 A 
ATOM      6  C   UNL     1     -39.023  72.702  -9.007  1.00  0.00     0.011 A 
ENDROOT
BRANCH   1   7
ATOM      7  C   UNL     1     -41.519  72.449  -9.248  1.00  0.00     0.036 C 
ATOM      8  C   UNL     1     -41.548  71.118  -9.993  1.00  0.00     0.009 C 
ENDBRANCH   1   7
BRANCH   2   9
ATOM      9  O   UNL     1     -41.432  74.912 -10.756  1.00  0.00    -0.508 OA
ATOM     10  H   UNL     1     -42.056  74.351 -11.325  1.00  0.00     0.293 HD
ENDBRANCH   2   9
BRANCH   4  11
ATOM     11  O   UNL     1     -36.629  75.254 -10.179  1.00  0.00    -0.508 OA
ATOM     12  H   UNL     1     -36.286  75.439 -11.115  1.00  0.00     0.293 HD
ENDBRANCH   4  11
TORSDOF 3
ENDMDL
