MODEL 1
REMARK VINA RESULT:    -4.101      0.000      0.000
REMARK INTER + INTRA:          -5.813
REMARK INTER:                  -5.779
REMARK INTRA:                  -0.034
REMARK UNBOUND:                -0.034
REMARK SMILES CC1=CCC(=C(C)C)C(=O)CC(C)=CCC1
REMARK SMILES IDX 12 1 14 2 13 3 15 4 16 5 2 6 1 7 3 8 11 10 9 11 10 12 5 13
REMARK SMILES IDX 6 14 7 15 8 16 4 17
REMARK H PARENT
REMARK Flexibility Score: 60.00
ROOT
ATOM      1  C   UNL     1      10.672 -19.179  18.989  1.00  0.00    -0.070 C 
ATOM      2  C   UNL     1      11.673 -18.268  19.114  1.00  0.00    -0.027 C 
ATOM      3  C   UNL     1       9.787 -19.066  17.772  1.00  0.00     0.039 C 
ENDROOT
BRANCH   2   4
ATOM      4  C   UNL     1      12.589 -18.092  20.301  1.00  0.00     0.032 C 
BRANCH   4   5
ATOM      5  C   UNL     1      11.872 -17.578  21.558  1.00  0.00     0.034 C 
BRANCH   5   6
ATOM      6  C   UNL     1      12.362 -18.249  22.829  1.00  0.00    -0.077 C 
ATOM      7  C   UNL     1      13.794 -18.030  23.250  1.00  0.00     0.039 C 
ATOM      8  C   UNL     1      11.619 -19.118  23.562  1.00  0.00    -0.023 CG0
ATOM      9  G   UNL     1      10.137 -19.418  23.423  1.00  0.00     0.000 G0
ENDBRANCH   5   6
ENDBRANCH   4   5
ENDBRANCH   2   4
BRANCH   1  10
ATOM     10  C   UNL     1      10.461 -20.372  19.916  1.00  0.00     0.111 C 
BRANCH  10  11
ATOM     11  C   UNL     1       9.495 -20.121  21.043  1.00  0.00     0.163 C 
ATOM     12  O   UNL     1       8.420 -19.510  20.797  1.00  0.00    -0.294 OA
BRANCH  11  13
ATOM     13  C   UNL     1       9.785 -20.543  22.443  1.00  0.00    -0.002 C 
ATOM     14  C   UNL     1       9.632 -21.835  22.853  1.00  0.00    -0.069 C 
ATOM     15  C   UNL     1       9.067 -22.897  21.938  1.00  0.00     0.039 C 
ATOM     16  C   UNL     1       9.958 -22.249  24.270  1.00  0.00     0.039 C 
BRANCH  13  17
ATOM     17  C   UNL     1      10.129 -19.437  23.426  1.00  0.00     0.066 CG0
ATOM     18  G   UNL     1      11.606 -19.113  23.560  1.00  0.00     0.000 G0
ENDBRANCH  13  17
ENDBRANCH  11  13
ENDBRANCH  10  11
ENDBRANCH   1  10
TORSDOF 0
ENDMDL
MODEL 2
REMARK VINA RESULT:    -4.018      1.457      3.956
REMARK INTER + INTRA:          -5.696
REMARK INTER:                  -5.789
REMARK INTRA:                   0.093
REMARK UNBOUND:                -0.034
REMARK SMILES CC1=CCC(=C(C)C)C(=O)CC(C)=CCC1
REMARK SMILES IDX 12 1 14 2 13 3 15 4 16 5 2 6 1 7 3 8 11 10 9 11 10 12 5 13
REMARK SMILES IDX 6 14 7 15 8 16 4 17
REMARK H PARENT
REMARK Flexibility Score: 60.00
ROOT
ATOM      1  C   UNL     1      10.563 -20.615  20.306  1.00  0.00    -0.070 C 
ATOM      2  C   UNL     1       9.679 -21.389  20.989  1.00  0.00    -0.027 C 
ATOM      3  C   UNL     1      10.100 -20.042  18.988  1.00  0.00     0.039 C 
ENDROOT
BRANCH   2   4
ATOM      4  C   UNL     1       9.957 -22.180  22.244  1.00  0.00     0.032 C 
BRANCH   4   5
ATOM      5  C   UNL     1       9.553 -21.449  23.533  1.00  0.00     0.034 C 
BRANCH   5   6
ATOM      6  C   UNL     1      10.715 -21.268  24.493  1.00  0.00    -0.077 C 
ATOM      7  C   UNL     1      11.112 -22.432  25.367  1.00  0.00     0.039 C 
ATOM      8  C   UNL     1      11.361 -20.089  24.688  1.00  0.00    -0.023 CG0
ATOM      9  G   UNL     1      11.237 -18.817  23.868  1.00  0.00     0.000 G0
ENDBRANCH   5   6
ENDBRANCH   4   5
ENDBRANCH   2   4
BRANCH   1  10
ATOM     10  C   UNL     1      11.930 -20.185  20.829  1.00  0.00     0.111 C 
BRANCH  10  11
ATOM     11  C   UNL     1      11.962 -18.799  21.418  1.00  0.00     0.163 C 
ATOM     12  O   UNL     1      11.690 -17.817  20.675  1.00  0.00    -0.294 OA
BRANCH  11  13
ATOM     13  C   UNL     1      12.334 -18.552  22.840  1.00  0.00    -0.002 C 
ATOM     14  C   UNL     1      13.609 -18.241  23.208  1.00  0.00    -0.069 C 
ATOM     15  C   UNL     1      14.743 -18.222  22.208  1.00  0.00     0.039 C 
ATOM     16  C   UNL     1      13.961 -17.968  24.653  1.00  0.00     0.039 C 
BRANCH  13  17
ATOM     17  C   UNL     1      11.249 -18.799  23.875  1.00  0.00     0.066 CG0
ATOM     18  G   UNL     1      11.377 -20.088  24.666  1.00  0.00     0.000 G0
ENDBRANCH  13  17
ENDBRANCH  11  13
ENDBRANCH  10  11
ENDBRANCH   1  10
TORSDOF 0
ENDMDL
MODEL 3
REMARK VINA RESULT:    -3.951      2.146      3.610
REMARK INTER + INTRA:          -5.602
REMARK INTER:                  -5.496
REMARK INTRA:                  -0.106
REMARK UNBOUND:                -0.034
REMARK SMILES CC1=CCC(=C(C)C)C(=O)CC(C)=CCC1
REMARK SMILES IDX 12 1 14 2 13 3 15 4 16 5 2 6 1 7 3 8 11 10 9 11 10 12 5 13
REMARK SMILES IDX 6 14 7 15 8 16 4 17
REMARK H PARENT
REMARK Flexibility Score: 60.00
ROOT
ATOM      1  C   UNL     1       9.682 -18.443  18.886  1.00  0.00    -0.070 C 
ATOM      2  C   UNL     1       8.584 -17.870  19.446  1.00  0.00    -0.027 C 
ATOM      3  C   UNL     1       9.468 -19.263  17.637  1.00  0.00     0.039 C 
ENDROOT
BRANCH   2   4
ATOM      4  C   UNL     1       8.526 -17.132  20.762  1.00  0.00     0.032 C 
BRANCH   4   5
ATOM      5  C   UNL     1       8.583 -18.055  21.987  1.00  0.00     0.034 C 
BRANCH   5   6
ATOM      6  C   UNL     1       9.416 -17.479  23.118  1.00  0.00    -0.077 C 
ATOM      7  C   UNL     1       8.860 -16.313  23.898  1.00  0.00     0.039 C 
ATOM      8  C   UNL     1      10.679 -17.884  23.410  1.00  0.00    -0.023 CG0
ATOM      9  G   UNL     1      11.416 -19.093  22.863  1.00  0.00     0.000 G0
ENDBRANCH   5   6
ENDBRANCH   4   5
ENDBRANCH   2   4
BRANCH   1  10
ATOM     10  C   UNL     1      11.117 -18.215  19.351  1.00  0.00     0.111 C 
BRANCH  10  11
ATOM     11  C   UNL     1      11.628 -19.248  20.322  1.00  0.00     0.163 C 
ATOM     12  O   UNL     1      11.489 -20.468  20.038  1.00  0.00    -0.294 OA
BRANCH  11  13
ATOM     13  C   UNL     1      12.262 -18.870  21.618  1.00  0.00    -0.002 C 
ATOM     14  C   UNL     1      13.556 -18.448  21.691  1.00  0.00    -0.069 C 
ATOM     15  C   UNL     1      14.456 -18.430  20.476  1.00  0.00     0.039 C 
ATOM     16  C   UNL     1      14.173 -18.044  23.011  1.00  0.00     0.039 C 
BRANCH  13  17
ATOM     17  C   UNL     1      11.435 -19.110  22.869  1.00  0.00     0.066 CG0
ATOM     18  G   UNL     1      10.693 -17.900  23.409  1.00  0.00     0.000 G0
ENDBRANCH  13  17
ENDBRANCH  11  13
ENDBRANCH  10  11
ENDBRANCH   1  10
TORSDOF 0
ENDMDL
MODEL 4
REMARK VINA RESULT:    -3.869      5.397      7.475
REMARK INTER + INTRA:          -5.486
REMARK INTER:                  -5.454
REMARK INTRA:                  -0.032
REMARK UNBOUND:                -0.034
REMARK SMILES CC1=CCC(=C(C)C)C(=O)CC(C)=CCC1
REMARK SMILES IDX 12 1 14 2 13 3 15 4 16 5 2 6 1 7 3 8 11 10 9 11 10 12 5 13
REMARK SMILES IDX 6 14 7 15 8 16 4 17
REMARK H PARENT
REMARK Flexibility Score: 60.00
ROOT
ATOM      1  C   UNL     1       9.325 -22.538  24.483  1.00  0.00    -0.070 C 
ATOM      2  C   UNL     1       9.505 -23.496  23.535  1.00  0.00    -0.027 C 
ATOM      3  C   UNL     1      10.517 -22.187  25.340  1.00  0.00     0.039 C 
ENDROOT
BRANCH   2   4
ATOM      4  C   UNL     1       8.438 -24.111  22.662  1.00  0.00     0.032 C 
BRANCH   4   5
ATOM      5  C   UNL     1       7.726 -25.305  23.313  1.00  0.00     0.034 C 
BRANCH   5   6
ATOM      6  C   UNL     1       6.232 -25.317  23.042  1.00  0.00    -0.077 C 
ATOM      7  C   UNL     1       5.743 -25.913  21.745  1.00  0.00     0.039 C 
ATOM      8  C   UNL     1       5.310 -24.733  23.850  1.00  0.00    -0.023 CG0
ATOM      9  G   UNL     1       5.522 -24.175  25.246  1.00  0.00     0.000 G0
ENDBRANCH   5   6
ENDBRANCH   4   5
ENDBRANCH   2   4
BRANCH   1  10
ATOM     10  C   UNL     1       8.054 -21.712  24.655  1.00  0.00     0.111 C 
BRANCH  10  11
ATOM     11  C   UNL     1       7.106 -22.240  25.700  1.00  0.00     0.163 C 
ATOM     12  O   UNL     1       7.506 -22.331  26.892  1.00  0.00    -0.294 OA
BRANCH  11  13
ATOM     13  C   UNL     1       5.724 -22.684  25.361  1.00  0.00    -0.002 C 
ATOM     14  C   UNL     1       4.686 -21.805  25.269  1.00  0.00    -0.069 C 
ATOM     15  C   UNL     1       4.854 -20.340  25.601  1.00  0.00     0.039 C 
ATOM     16  C   UNL     1       3.296 -22.272  24.898  1.00  0.00     0.039 C 
BRANCH  13  17
ATOM     17  C   UNL     1       5.503 -24.184  25.256  1.00  0.00     0.066 CG0
ATOM     18  G   UNL     1       5.299 -24.722  23.852  1.00  0.00     0.000 G0
ENDBRANCH  13  17
ENDBRANCH  11  13
ENDBRANCH  10  11
ENDBRANCH   1  10
TORSDOF 0
ENDMDL
MODEL 5
REMARK VINA RESULT:    -3.798      2.334      3.977
REMARK INTER + INTRA:          -5.387
REMARK INTER:                  -5.467
REMARK INTRA:                   0.080
REMARK UNBOUND:                -0.034
REMARK SMILES CC1=CCC(=C(C)C)C(=O)CC(C)=CCC1
REMARK SMILES IDX 12 1 14 2 13 3 15 4 16 5 2 6 1 7 3 8 11 10 9 11 10 12 5 13
REMARK SMILES IDX 6 14 7 15 8 16 4 17
REMARK H PARENT
REMARK Flexibility Score: 60.00
ROOT
ATOM      1  C   UNL     1      13.266 -18.217  21.293  1.00  0.00    -0.070 C 
ATOM      2  C   UNL     1      13.297 -17.839  22.599  1.00  0.00    -0.027 C 
ATOM      3  C   UNL     1      14.430 -19.034  20.787  1.00  0.00     0.039 C 
ENDROOT
BRANCH   2   4
ATOM      4  C   UNL     1      12.330 -16.909  23.290  1.00  0.00     0.032 C 
BRANCH   4   5
ATOM      5  C   UNL     1      11.043 -17.601  23.763  1.00  0.00     0.034 C 
BRANCH   5   6
ATOM      6  C   UNL     1       9.788 -16.877  23.311  1.00  0.00    -0.077 C 
ATOM      7  C   UNL     1       9.525 -15.492  23.851  1.00  0.00     0.039 C 
ATOM      8  C   UNL     1       8.831 -17.436  22.526  1.00  0.00    -0.023 CG0
ATOM      9  G   UNL     1       8.904 -18.749  21.768  1.00  0.00     0.000 G0
ENDBRANCH   5   6
ENDBRANCH   4   5
ENDBRANCH   2   4
BRANCH   1  10
ATOM     10  C   UNL     1      12.093 -17.985  20.347  1.00  0.00     0.111 C 
BRANCH  10  11
ATOM     11  C   UNL     1      11.029 -19.050  20.402  1.00  0.00     0.163 C 
ATOM     12  O   UNL     1      11.382 -20.260  20.411  1.00  0.00    -0.294 OA
BRANCH  11  13
ATOM     13  C   UNL     1       9.576 -18.716  20.415  1.00  0.00    -0.002 C 
ATOM     14  C   UNL     1       8.924 -18.289  19.297  1.00  0.00    -0.069 C 
ATOM     15  C   UNL     1       9.656 -18.035  17.998  1.00  0.00     0.039 C 
ATOM     16  C   UNL     1       7.443 -17.982  19.324  1.00  0.00     0.039 C 
BRANCH  13  17
ATOM     17  C   UNL     1       8.889 -18.746  21.770  1.00  0.00     0.066 CG0
ATOM     18  G   UNL     1       8.844 -17.423  22.513  1.00  0.00     0.000 G0
ENDBRANCH  13  17
ENDBRANCH  11  13
ENDBRANCH  10  11
ENDBRANCH   1  10
TORSDOF 0
ENDMDL
MODEL 6
REMARK VINA RESULT:    -3.731      2.033      4.391
REMARK INTER + INTRA:          -5.292
REMARK INTER:                  -5.451
REMARK INTRA:                   0.159
REMARK UNBOUND:                -0.034
REMARK SMILES CC1=CCC(=C(C)C)C(=O)CC(C)=CCC1
REMARK SMILES IDX 12 1 14 2 13 3 15 4 16 5 2 6 1 7 3 8 11 10 9 11 10 12 5 13
REMARK SMILES IDX 6 14 7 15 8 16 4 17
REMARK H PARENT
REMARK Flexibility Score: 60.00
ROOT
ATOM      1  C   UNL     1       8.711 -18.637  21.861  1.00  0.00    -0.070 C 
ATOM      2  C   UNL     1       8.132 -18.002  20.807  1.00  0.00    -0.027 C 
ATOM      3  C   UNL     1       8.687 -17.923  23.191  1.00  0.00     0.039 C 
ENDROOT
BRANCH   2   4
ATOM      4  C   UNL     1       8.157 -18.446  19.364  1.00  0.00     0.032 C 
BRANCH   4   5
ATOM      5  C   UNL     1       9.203 -17.711  18.514  1.00  0.00     0.034 C 
BRANCH   5   6
ATOM      6  C   UNL     1      10.413 -18.572  18.198  1.00  0.00    -0.077 C 
ATOM      7  C   UNL     1      10.438 -19.320  16.887  1.00  0.00     0.039 C 
ATOM      8  C   UNL     1      11.434 -18.793  19.066  1.00  0.00    -0.023 CG0
ATOM      9  G   UNL     1      11.703 -18.083  20.380  1.00  0.00     0.000 G0
ENDBRANCH   5   6
ENDBRANCH   4   5
ENDBRANCH   2   4
BRANCH   1  10
ATOM     10  C   UNL     1       9.264 -20.058  21.825  1.00  0.00     0.111 C 
BRANCH  10  11
ATOM     11  C   UNL     1      10.741 -20.143  21.541  1.00  0.00     0.163 C 
ATOM     12  O   UNL     1      11.238 -21.262  21.243  1.00  0.00    -0.294 OA
BRANCH  11  13
ATOM     13  C   UNL     1      11.634 -18.952  21.632  1.00  0.00    -0.002 C 
ATOM     14  C   UNL     1      12.234 -18.588  22.801  1.00  0.00    -0.069 C 
ATOM     15  C   UNL     1      11.953 -19.314  24.097  1.00  0.00     0.039 C 
ATOM     16  C   UNL     1      13.157 -17.393  22.867  1.00  0.00     0.039 C 
BRANCH  13  17
ATOM     17  C   UNL     1      11.734 -18.086  20.388  1.00  0.00     0.066 CG0
ATOM     18  G   UNL     1      11.424 -18.783  19.075  1.00  0.00     0.000 G0
ENDBRANCH  13  17
ENDBRANCH  11  13
ENDBRANCH  10  11
ENDBRANCH   1  10
TORSDOF 0
ENDMDL
MODEL 7
REMARK VINA RESULT:    -3.699      1.731      3.776
REMARK INTER + INTRA:          -5.247
REMARK INTER:                  -5.595
REMARK INTRA:                   0.348
REMARK UNBOUND:                -0.034
REMARK SMILES CC1=CCC(=C(C)C)C(=O)CC(C)=CCC1
REMARK SMILES IDX 12 1 14 2 13 3 15 4 16 5 2 6 1 7 3 8 11 10 9 11 10 12 5 13
REMARK SMILES IDX 6 14 7 15 8 16 4 17
REMARK H PARENT
REMARK Flexibility Score: 60.00
ROOT
ATOM      1  C   UNL     1      12.641 -18.242  20.402  1.00  0.00    -0.070 C 
ATOM      2  C   UNL     1      12.001 -18.131  19.208  1.00  0.00    -0.027 C 
ATOM      3  C   UNL     1      13.946 -18.999  20.415  1.00  0.00     0.039 C 
ENDROOT
BRANCH   2   4
ATOM      4  C   UNL     1      10.628 -17.551  18.971  1.00  0.00     0.032 C 
BRANCH   4   5
ATOM      5  C   UNL     1       9.614 -18.572  18.435  1.00  0.00     0.034 C 
BRANCH   5   6
ATOM      6  C   UNL     1       8.448 -18.794  19.381  1.00  0.00    -0.077 C 
ATOM      7  C   UNL     1       7.091 -18.266  18.984  1.00  0.00     0.039 C 
ATOM      8  C   UNL     1       8.567 -19.353  20.613  1.00  0.00    -0.023 CG0
ATOM      9  G   UNL     1       9.777 -20.059  21.197  1.00  0.00     0.000 G0
ENDBRANCH   5   6
ENDBRANCH   4   5
ENDBRANCH   2   4
BRANCH   1  10
ATOM     10  C   UNL     1      12.202 -17.555  21.692  1.00  0.00     0.111 C 
BRANCH  10  11
ATOM     11  C   UNL     1      10.842 -17.971  22.187  1.00  0.00     0.163 C 
ATOM     12  O   UNL     1      10.004 -17.077  22.482  1.00  0.00    -0.294 OA
BRANCH  11  13
ATOM     13  C   UNL     1      10.470 -19.404  22.367  1.00  0.00    -0.002 C 
ATOM     14  C   UNL     1      10.839 -20.111  23.473  1.00  0.00    -0.069 C 
ATOM     15  C   UNL     1      11.729 -19.512  24.539  1.00  0.00     0.039 C 
ATOM     16  C   UNL     1      10.429 -21.555  23.650  1.00  0.00     0.039 C 
BRANCH  13  17
ATOM     17  C   UNL     1       9.777 -20.074  21.193  1.00  0.00     0.066 CG0
ATOM     18  G   UNL     1       8.571 -19.340  20.635  1.00  0.00     0.000 G0
ENDBRANCH  13  17
ENDBRANCH  11  13
ENDBRANCH  10  11
ENDBRANCH   1  10
TORSDOF 0
ENDMDL
MODEL 8
REMARK VINA RESULT:    -3.564      3.943      6.471
REMARK INTER + INTRA:          -5.057
REMARK INTER:                  -5.145
REMARK INTRA:                   0.088
REMARK UNBOUND:                -0.034
REMARK SMILES CC1=CCC(=C(C)C)C(=O)CC(C)=CCC1
REMARK SMILES IDX 12 1 14 2 13 3 15 4 16 5 2 6 1 7 3 8 11 10 9 11 10 12 5 13
REMARK SMILES IDX 6 14 7 15 8 16 4 17
REMARK H PARENT
REMARK Flexibility Score: 60.00
ROOT
ATOM      1  C   UNL     1       6.305 -25.071  24.195  1.00  0.00    -0.070 C 
ATOM      2  C   UNL     1       7.347 -25.376  23.377  1.00  0.00    -0.027 C 
ATOM      3  C   UNL     1       5.188 -26.082  24.291  1.00  0.00     0.039 C 
ENDROOT
BRANCH   2   4
ATOM      4  C   UNL     1       8.499 -24.472  23.010  1.00  0.00     0.032 C 
BRANCH   4   5
ATOM      5  C   UNL     1       8.062 -23.161  22.339  1.00  0.00     0.034 C 
BRANCH   5   6
ATOM      6  C   UNL     1       8.793 -21.949  22.887  1.00  0.00    -0.077 C 
ATOM      7  C   UNL     1      10.302 -21.941  22.844  1.00  0.00     0.039 C 
ATOM      8  C   UNL     1       8.178 -20.909  23.508  1.00  0.00    -0.023 CG0
ATOM      9  G   UNL     1       6.689 -20.622  23.580  1.00  0.00     0.000 G0
ENDBRANCH   5   6
ENDBRANCH   4   5
ENDBRANCH   2   4
BRANCH   1  10
ATOM     10  C   UNL     1       6.245 -23.853  25.111  1.00  0.00     0.111 C 
BRANCH  10  11
ATOM     11  C   UNL     1       5.488 -22.682  24.540  1.00  0.00     0.163 C 
ATOM     12  O   UNL     1       4.456 -22.904  23.851  1.00  0.00    -0.294 OA
BRANCH  11  13
ATOM     13  C   UNL     1       5.940 -21.275  24.739  1.00  0.00    -0.002 C 
ATOM     14  C   UNL     1       5.605 -20.561  25.851  1.00  0.00    -0.069 C 
ATOM     15  C   UNL     1       4.675 -21.119  26.904  1.00  0.00     0.039 C 
ATOM     16  C   UNL     1       6.096 -19.144  26.047  1.00  0.00     0.039 C 
BRANCH  13  17
ATOM     17  C   UNL     1       6.679 -20.632  23.578  1.00  0.00     0.066 CG0
ATOM     18  G   UNL     1       8.169 -20.911  23.512  1.00  0.00     0.000 G0
ENDBRANCH  13  17
ENDBRANCH  11  13
ENDBRANCH  10  11
ENDBRANCH   1  10
TORSDOF 0
ENDMDL
MODEL 9
REMARK VINA RESULT:    -3.544      4.191      6.747
REMARK INTER + INTRA:          -5.028
REMARK INTER:                  -5.262
REMARK INTRA:                   0.234
REMARK UNBOUND:                -0.034
REMARK SMILES CC1=CCC(=C(C)C)C(=O)CC(C)=CCC1
REMARK SMILES IDX 12 1 14 2 13 3 15 4 16 5 2 6 1 7 3 8 11 10 9 11 10 12 5 13
REMARK SMILES IDX 6 14 7 15 8 16 4 17
REMARK H PARENT
REMARK Flexibility Score: 60.00
ROOT
ATOM      1  C   UNL     1       5.784 -24.679  24.373  1.00  0.00    -0.070 C 
ATOM      2  C   UNL     1       6.645 -25.026  23.380  1.00  0.00    -0.027 C 
ATOM      3  C   UNL     1       4.315 -24.923  24.125  1.00  0.00     0.039 C 
ENDROOT
BRANCH   2   4
ATOM      4  C   UNL     1       8.129 -24.751  23.337  1.00  0.00     0.032 C 
BRANCH   4   5
ATOM      5  C   UNL     1       8.530 -23.708  22.284  1.00  0.00     0.034 C 
BRANCH   5   6
ATOM      6  C   UNL     1       8.919 -22.375  22.897  1.00  0.00    -0.077 C 
ATOM      7  C   UNL     1      10.381 -21.998  22.926  1.00  0.00     0.039 C 
ATOM      8  C   UNL     1       8.044 -21.539  23.513  1.00  0.00    -0.023 CG0
ATOM      9  G   UNL     1       6.529 -21.625  23.522  1.00  0.00     0.000 G0
ENDBRANCH   5   6
ENDBRANCH   4   5
ENDBRANCH   2   4
BRANCH   1  10
ATOM     10  C   UNL     1       6.201 -24.184  25.754  1.00  0.00     0.111 C 
BRANCH  10  11
ATOM     11  C   UNL     1       6.485 -22.707  25.826  1.00  0.00     0.163 C 
ATOM     12  O   UNL     1       7.252 -22.279  26.730  1.00  0.00    -0.294 OA
BRANCH  11  13
ATOM     13  C   UNL     1       5.865 -21.735  24.880  1.00  0.00    -0.002 C 
ATOM     14  C   UNL     1       4.706 -21.081  25.176  1.00  0.00    -0.069 C 
ATOM     15  C   UNL     1       3.928 -21.373  26.439  1.00  0.00     0.039 C 
ATOM     16  C   UNL     1       4.107 -20.079  24.215  1.00  0.00     0.039 C 
BRANCH  13  17
ATOM     17  C   UNL     1       6.517 -21.613  23.513  1.00  0.00     0.066 CG0
ATOM     18  G   UNL     1       8.033 -21.534  23.512  1.00  0.00     0.000 G0
ENDBRANCH  13  17
ENDBRANCH  11  13
ENDBRANCH  10  11
ENDBRANCH   1  10
TORSDOF 0
ENDMDL
