MODEL 1
REMARK VINA RESULT:    -3.619      0.000      0.000
REMARK INTER + INTRA:          -3.619
REMARK INTER:                  -3.619
REMARK INTRA:                   0.000
REMARK UNBOUND:                 0.000
REMARK SMILES CC(C)=C1CC[C@@H](C)CC1=O
REMARK SMILES IDX 8 1 7 2 6 3 5 4 4 5 2 6 1 7 3 8 10 9 11 10 9 11
REMARK H PARENT
REMARK Flexibility Score: inf
ROOT
ATOM      1  C   UNL     1       7.357 -32.862  18.136  1.00  0.00     0.008 C 
ATOM      2  C   UNL     1       7.683 -33.348  16.719  1.00  0.00    -0.006 C 
ATOM      3  C   UNL     1       7.973 -34.857  16.718  1.00  0.00     0.008 C 
ATOM      4  C   UNL     1       8.201 -35.381  15.294  1.00  0.00     0.039 C 
ATOM      5  C   UNL     1       9.256 -34.582  14.541  1.00  0.00    -0.006 C 
ATOM      6  C   UNL     1      10.058 -35.172  13.606  1.00  0.00    -0.070 C 
ATOM      7  C   UNL     1       9.920 -36.638  13.267  1.00  0.00     0.039 C 
ATOM      8  C   UNL     1      11.146 -34.403  12.892  1.00  0.00     0.039 C 
ATOM      9  C   UNL     1       9.277 -33.113  14.802  1.00  0.00     0.159 C 
ATOM     10  O   UNL     1       9.611 -32.292  13.905  1.00  0.00    -0.295 OA
ATOM     11  C   UNL     1       8.887 -32.583  16.152  1.00  0.00     0.084 C 
ENDROOT
TORSDOF 0
ENDMDL
MODEL 2
REMARK VINA RESULT:    -3.594      1.647      4.445
REMARK INTER + INTRA:          -3.594
REMARK INTER:                  -3.594
REMARK INTRA:                   0.000
REMARK UNBOUND:                 0.000
REMARK SMILES CC(C)=C1CC[C@@H](C)CC1=O
REMARK SMILES IDX 8 1 7 2 6 3 5 4 4 5 2 6 1 7 3 8 10 9 11 10 9 11
REMARK H PARENT
REMARK Flexibility Score: inf
ROOT
ATOM      1  C   UNL     1      10.820 -33.114  12.875  1.00  0.00     0.008 C 
ATOM      2  C   UNL     1       9.630 -33.362  13.809  1.00  0.00    -0.006 C 
ATOM      3  C   UNL     1       9.721 -32.462  15.051  1.00  0.00     0.008 C 
ATOM      4  C   UNL     1       8.486 -32.623  15.949  1.00  0.00     0.039 C 
ATOM      5  C   UNL     1       8.205 -34.077  16.300  1.00  0.00    -0.006 C 
ATOM      6  C   UNL     1       7.642 -34.422  17.495  1.00  0.00    -0.070 C 
ATOM      7  C   UNL     1       7.257 -33.373  18.512  1.00  0.00     0.039 C 
ATOM      8  C   UNL     1       7.410 -35.866  17.878  1.00  0.00     0.039 C 
ATOM      9  C   UNL     1       8.473 -35.075  15.222  1.00  0.00     0.159 C 
ATOM     10  O   UNL     1       7.784 -36.125  15.116  1.00  0.00    -0.295 OA
ATOM     11  C   UNL     1       9.577 -34.837  14.233  1.00  0.00     0.084 C 
ENDROOT
TORSDOF 0
ENDMDL
MODEL 3
REMARK VINA RESULT:    -3.536      2.089      2.483
REMARK INTER + INTRA:          -3.536
REMARK INTER:                  -3.536
REMARK INTRA:                   0.000
REMARK UNBOUND:                 0.000
REMARK SMILES CC(C)=C1CC[C@@H](C)CC1=O
REMARK SMILES IDX 8 1 7 2 6 3 5 4 4 5 2 6 1 7 3 8 10 9 11 10 9 11
REMARK H PARENT
REMARK Flexibility Score: inf
ROOT
ATOM      1  C   UNL     1       8.579 -32.128  18.468  1.00  0.00     0.008 C 
ATOM      2  C   UNL     1       7.733 -32.753  17.353  1.00  0.00    -0.006 C 
ATOM      3  C   UNL     1       7.374 -34.207  17.697  1.00  0.00     0.008 C 
ATOM      4  C   UNL     1       6.444 -34.818  16.640  1.00  0.00     0.039 C 
ATOM      5  C   UNL     1       6.989 -34.669  15.226  1.00  0.00    -0.006 C 
ATOM      6  C   UNL     1       6.735 -35.606  14.266  1.00  0.00    -0.070 C 
ATOM      7  C   UNL     1       5.886 -36.821  14.562  1.00  0.00     0.039 C 
ATOM      8  C   UNL     1       7.317 -35.499  12.875  1.00  0.00     0.039 C 
ATOM      9  C   UNL     1       7.710 -33.395  14.932  1.00  0.00     0.159 C 
ATOM     10  O   UNL     1       7.679 -32.875  13.784  1.00  0.00    -0.295 OA
ATOM     11  C   UNL     1       8.486 -32.702  16.014  1.00  0.00     0.084 C 
ENDROOT
TORSDOF 0
ENDMDL
MODEL 4
REMARK VINA RESULT:    -3.464      2.341      3.638
REMARK INTER + INTRA:          -3.464
REMARK INTER:                  -3.464
REMARK INTRA:                   0.000
REMARK UNBOUND:                 0.000
REMARK SMILES CC(C)=C1CC[C@@H](C)CC1=O
REMARK SMILES IDX 8 1 7 2 6 3 5 4 4 5 2 6 1 7 3 8 10 9 11 10 9 11
REMARK H PARENT
REMARK Flexibility Score: inf
ROOT
ATOM      1  C   UNL     1       6.014 -37.966  16.685  1.00  0.00     0.008 C 
ATOM      2  C   UNL     1       6.257 -36.513  16.263  1.00  0.00    -0.006 C 
ATOM      3  C   UNL     1       7.023 -36.456  14.932  1.00  0.00     0.008 C 
ATOM      4  C   UNL     1       7.187 -35.011  14.444  1.00  0.00     0.039 C 
ATOM      5  C   UNL     1       7.791 -34.101  15.505  1.00  0.00    -0.006 C 
ATOM      6  C   UNL     1       8.587 -33.044  15.163  1.00  0.00    -0.070 C 
ATOM      7  C   UNL     1       8.887 -32.724  13.718  1.00  0.00     0.039 C 
ATOM      8  C   UNL     1       9.237 -32.168  16.209  1.00  0.00     0.039 C 
ATOM      9  C   UNL     1       7.367 -34.364  16.912  1.00  0.00     0.159 C 
ATOM     10  O   UNL     1       7.271 -33.429  17.752  1.00  0.00    -0.295 OA
ATOM     11  C   UNL     1       7.040 -35.761  17.351  1.00  0.00     0.084 C 
ENDROOT
TORSDOF 0
ENDMDL
MODEL 5
REMARK VINA RESULT:    -3.411      2.507      3.387
REMARK INTER + INTRA:          -3.411
REMARK INTER:                  -3.411
REMARK INTRA:                   0.000
REMARK UNBOUND:                 0.000
REMARK SMILES CC(C)=C1CC[C@@H](C)CC1=O
REMARK SMILES IDX 8 1 7 2 6 3 5 4 4 5 2 6 1 7 3 8 10 9 11 10 9 11
REMARK H PARENT
REMARK Flexibility Score: inf
ROOT
ATOM      1  C   UNL     1       9.215 -31.432  19.164  1.00  0.00     0.008 C 
ATOM      2  C   UNL     1       8.940 -32.363  17.979  1.00  0.00    -0.006 C 
ATOM      3  C   UNL     1       9.451 -31.740  16.671  1.00  0.00     0.008 C 
ATOM      4  C   UNL     1       9.275 -32.702  15.488  1.00  0.00     0.039 C 
ATOM      5  C   UNL     1       7.851 -33.226  15.368  1.00  0.00    -0.006 C 
ATOM      6  C   UNL     1       7.306 -33.528  14.153  1.00  0.00    -0.070 C 
ATOM      7  C   UNL     1       8.101 -33.372  12.877  1.00  0.00     0.039 C 
ATOM      8  C   UNL     1       5.875 -33.996  14.016  1.00  0.00     0.039 C 
ATOM      9  C   UNL     1       7.141 -33.495  16.654  1.00  0.00     0.159 C 
ATOM     10  O   UNL     1       6.291 -34.421  16.752  1.00  0.00    -0.295 OA
ATOM     11  C   UNL     1       7.436 -32.660  17.865  1.00  0.00     0.084 C 
ENDROOT
TORSDOF 0
ENDMDL
MODEL 6
REMARK VINA RESULT:    -3.356      2.518      4.604
REMARK INTER + INTRA:          -3.356
REMARK INTER:                  -3.356
REMARK INTRA:                   0.000
REMARK UNBOUND:                 0.000
REMARK SMILES CC(C)=C1CC[C@@H](C)CC1=O
REMARK SMILES IDX 8 1 7 2 6 3 5 4 4 5 2 6 1 7 3 8 10 9 11 10 9 11
REMARK H PARENT
REMARK Flexibility Score: inf
ROOT
ATOM      1  C   UNL     1       7.028 -36.113  15.350  1.00  0.00     0.008 C 
ATOM      2  C   UNL     1       7.310 -34.707  15.891  1.00  0.00    -0.006 C 
ATOM      3  C   UNL     1       8.620 -34.155  15.308  1.00  0.00     0.008 C 
ATOM      4  C   UNL     1       8.867 -32.709  15.759  1.00  0.00     0.039 C 
ATOM      5  C   UNL     1       8.786 -32.548  17.271  1.00  0.00    -0.006 C 
ATOM      6  C   UNL     1       9.545 -31.620  17.926  1.00  0.00    -0.070 C 
ATOM      7  C   UNL     1      10.483 -30.703  17.176  1.00  0.00     0.039 C 
ATOM      8  C   UNL     1       9.516 -31.488  19.432  1.00  0.00     0.039 C 
ATOM      9  C   UNL     1       7.755 -33.375  17.965  1.00  0.00     0.159 C 
ATOM     10  O   UNL     1       7.173 -32.960  19.003  1.00  0.00    -0.295 OA
ATOM     11  C   UNL     1       7.387 -34.726  17.426  1.00  0.00     0.084 C 
ENDROOT
TORSDOF 0
ENDMDL
MODEL 7
REMARK VINA RESULT:    -3.296      1.836      4.161
REMARK INTER + INTRA:          -3.296
REMARK INTER:                  -3.296
REMARK INTRA:                   0.000
REMARK UNBOUND:                 0.000
REMARK SMILES CC(C)=C1CC[C@@H](C)CC1=O
REMARK SMILES IDX 8 1 7 2 6 3 5 4 4 5 2 6 1 7 3 8 10 9 11 10 9 11
REMARK H PARENT
REMARK Flexibility Score: inf
ROOT
ATOM      1  C   UNL     1       6.142 -38.108  13.928  1.00  0.00     0.008 C 
ATOM      2  C   UNL     1       6.931 -37.185  14.863  1.00  0.00    -0.006 C 
ATOM      3  C   UNL     1       5.989 -36.485  15.854  1.00  0.00     0.008 C 
ATOM      4  C   UNL     1       6.772 -35.634  16.863  1.00  0.00     0.039 C 
ATOM      5  C   UNL     1       7.736 -34.667  16.189  1.00  0.00    -0.006 C 
ATOM      6  C   UNL     1       8.031 -33.456  16.746  1.00  0.00    -0.070 C 
ATOM      7  C   UNL     1       7.427 -33.033  18.065  1.00  0.00     0.039 C 
ATOM      8  C   UNL     1       8.941 -32.464  16.059  1.00  0.00     0.039 C 
ATOM      9  C   UNL     1       8.415 -35.170  14.958  1.00  0.00     0.159 C 
ATOM     10  O   UNL     1       9.582 -34.801  14.657  1.00  0.00    -0.295 OA
ATOM     11  C   UNL     1       7.712 -36.139  14.053  1.00  0.00     0.084 C 
ENDROOT
TORSDOF 0
ENDMDL
MODEL 8
REMARK VINA RESULT:    -3.133      1.818      3.772
REMARK INTER + INTRA:          -3.133
REMARK INTER:                  -3.133
REMARK INTRA:                   0.000
REMARK UNBOUND:                 0.000
REMARK SMILES CC(C)=C1CC[C@@H](C)CC1=O
REMARK SMILES IDX 8 1 7 2 6 3 5 4 4 5 2 6 1 7 3 8 10 9 11 10 9 11
REMARK H PARENT
REMARK Flexibility Score: inf
ROOT
ATOM      1  C   UNL     1      10.769 -32.312  13.035  1.00  0.00     0.008 C 
ATOM      2  C   UNL     1      10.126 -33.404  13.898  1.00  0.00    -0.006 C 
ATOM      3  C   UNL     1       9.484 -34.484  13.013  1.00  0.00     0.008 C 
ATOM      4  C   UNL     1       8.923 -35.636  13.858  1.00  0.00     0.039 C 
ATOM      5  C   UNL     1       7.991 -35.153  14.960  1.00  0.00    -0.006 C 
ATOM      6  C   UNL     1       6.939 -35.914  15.384  1.00  0.00    -0.070 C 
ATOM      7  C   UNL     1       6.667 -37.275  14.788  1.00  0.00     0.039 C 
ATOM      8  C   UNL     1       5.974 -35.421  16.437  1.00  0.00     0.039 C 
ATOM      9  C   UNL     1       8.366 -33.866  15.618  1.00  0.00     0.159 C 
ATOM     10  O   UNL     1       8.108 -33.652  16.834  1.00  0.00    -0.295 OA
ATOM     11  C   UNL     1       9.070 -32.797  14.834  1.00  0.00     0.084 C 
ENDROOT
TORSDOF 0
ENDMDL
MODEL 9
REMARK VINA RESULT:    -0.907      2.460      3.362
REMARK INTER + INTRA:          -0.907
REMARK INTER:                  -0.907
REMARK INTRA:                   0.000
REMARK UNBOUND:                 0.000
REMARK SMILES CC(C)=C1CC[C@@H](C)CC1=O
REMARK SMILES IDX 8 1 7 2 6 3 5 4 4 5 2 6 1 7 3 8 10 9 11 10 9 11
REMARK H PARENT
REMARK Flexibility Score: inf
ROOT
ATOM      1  C   UNL     1       8.604 -31.832  18.308  1.00  0.00     0.008 C 
ATOM      2  C   UNL     1       8.560 -33.050  17.380  1.00  0.00    -0.006 C 
ATOM      3  C   UNL     1       8.444 -32.608  15.913  1.00  0.00     0.008 C 
ATOM      4  C   UNL     1       8.500 -33.811  14.961  1.00  0.00     0.039 C 
ATOM      5  C   UNL     1       7.493 -34.893  15.328  1.00  0.00    -0.006 C 
ATOM      6  C   UNL     1       6.917 -35.679  14.371  1.00  0.00    -0.070 C 
ATOM      7  C   UNL     1       7.269 -35.521  12.910  1.00  0.00     0.039 C 
ATOM      8  C   UNL     1       5.875 -36.718  14.716  1.00  0.00     0.039 C 
ATOM      9  C   UNL     1       7.269 -35.112  16.787  1.00  0.00     0.159 C 
ATOM     10  O   UNL     1       6.989 -36.254  17.243  1.00  0.00    -0.295 OA
ATOM     11  C   UNL     1       7.381 -33.964  17.747  1.00  0.00     0.084 C 
ENDROOT
TORSDOF 0
ENDMDL
