MODEL 1
REMARK VINA RESULT:    -4.102      0.000      0.000
REMARK INTER + INTRA:          -4.585
REMARK INTER:                  -4.462
REMARK INTRA:                  -0.123
REMARK UNBOUND:                -0.123
REMARK SMILES CC1=CC[C@@](O)(C(C)C)CC1
REMARK SMILES IDX 1 1 2 2 3 3 4 4 5 5 10 6 11 7 7 8 8 9 9 10 6 11
REMARK H PARENT 6 12
REMARK Flexibility Score: inf
ROOT
ATOM      1  C   UNL     1       5.118 -16.105  12.646  1.00  0.00     0.039 C 
ATOM      2  C   UNL     1       3.927 -15.792  11.781  1.00  0.00    -0.077 C 
ATOM      3  C   UNL     1       2.701 -15.776  12.335  1.00  0.00    -0.025 C 
ATOM      4  C   UNL     1       1.454 -15.423  11.565  1.00  0.00     0.062 C 
ATOM      5  C   UNL     1       1.581 -15.632  10.032  1.00  0.00     0.071 C 
ATOM      6  C   UNL     1       2.925 -14.989   9.588  1.00  0.00     0.040 C 
ATOM      7  C   UNL     1       4.125 -15.634  10.291  1.00  0.00     0.033 C 
ENDROOT
BRANCH   5   8
ATOM      8  C   UNL     1       0.357 -14.959   9.304  1.00  0.00     0.015 C 
ATOM      9  C   UNL     1      -0.376 -15.937   8.364  1.00  0.00     0.010 C 
ATOM     10  C   UNL     1       0.728 -13.691   8.507  1.00  0.00     0.010 C 
ENDBRANCH   5   8
BRANCH   5  11
ATOM     11  O   UNL     1       1.591 -17.021   9.783  1.00  0.00    -0.389 OA
ATOM     12  H   UNL     1       1.392 -17.169   8.824  1.00  0.00     0.211 HD
ENDBRANCH   5  11
TORSDOF 2
ENDMDL
MODEL 2
REMARK VINA RESULT:    -3.819      2.264      3.555
REMARK INTER + INTRA:          -4.277
REMARK INTER:                  -4.110
REMARK INTRA:                  -0.167
REMARK UNBOUND:                -0.123
REMARK SMILES CC1=CC[C@@](O)(C(C)C)CC1
REMARK SMILES IDX 1 1 2 2 3 3 4 4 5 5 10 6 11 7 7 8 8 9 9 10 6 11
REMARK H PARENT 6 12
REMARK Flexibility Score: inf
ROOT
ATOM      1  C   UNL     1       2.333 -16.280  11.272  1.00  0.00     0.039 C 
ATOM      2  C   UNL     1       2.125 -15.181  10.266  1.00  0.00    -0.077 C 
ATOM      3  C   UNL     1       3.197 -14.541   9.762  1.00  0.00    -0.025 C 
ATOM      4  C   UNL     1       3.095 -13.464   8.713  1.00  0.00     0.062 C 
ATOM      5  C   UNL     1       1.711 -12.762   8.665  1.00  0.00     0.071 C 
ATOM      6  C   UNL     1       0.626 -13.875   8.683  1.00  0.00     0.040 C 
ATOM      7  C   UNL     1       0.716 -14.738   9.947  1.00  0.00     0.033 C 
ENDROOT
BRANCH   5   8
ATOM      8  C   UNL     1       1.609 -11.884   7.360  1.00  0.00     0.015 C 
ATOM      9  C   UNL     1       0.204 -11.938   6.726  1.00  0.00     0.010 C 
ATOM     10  C   UNL     1       2.652 -12.247   6.283  1.00  0.00     0.010 C 
ENDBRANCH   5   8
BRANCH   5  11
ATOM     11  O   UNL     1       1.600 -11.944   9.810  1.00  0.00    -0.389 OA
ATOM     12  H   UNL     1       2.510 -11.658  10.079  1.00  0.00     0.211 HD
ENDBRANCH   5  11
TORSDOF 2
ENDMDL
MODEL 3
REMARK VINA RESULT:    -3.689      4.759      6.849
REMARK INTER + INTRA:          -4.136
REMARK INTER:                  -3.970
REMARK INTRA:                  -0.166
REMARK UNBOUND:                -0.123
REMARK SMILES CC1=CC[C@@](O)(C(C)C)CC1
REMARK SMILES IDX 1 1 2 2 3 3 4 4 5 5 10 6 11 7 7 8 8 9 9 10 6 11
REMARK H PARENT 6 12
REMARK Flexibility Score: inf
ROOT
ATOM      1  C   UNL     1       1.519 -15.028  13.110  1.00  0.00     0.039 C 
ATOM      2  C   UNL     1       1.327 -16.197  14.038  1.00  0.00    -0.077 C 
ATOM      3  C   UNL     1       1.729 -17.420  13.644  1.00  0.00    -0.025 C 
ATOM      4  C   UNL     1       1.628 -18.642  14.521  1.00  0.00     0.062 C 
ATOM      5  C   UNL     1       0.554 -18.528  15.636  1.00  0.00     0.071 C 
ATOM      6  C   UNL     1       0.744 -17.146  16.322  1.00  0.00     0.040 C 
ATOM      7  C   UNL     1       0.572 -15.989  15.330  1.00  0.00     0.033 C 
ENDROOT
BRANCH   5   8
ATOM      8  C   UNL     1       0.736 -19.707  16.666  1.00  0.00     0.015 C 
ATOM      9  C   UNL     1       0.429 -19.273  18.114  1.00  0.00     0.010 C 
ATOM     10  C   UNL     1       2.135 -20.355  16.629  1.00  0.00     0.010 C 
ENDBRANCH   5   8
BRANCH   5  11
ATOM     11  O   UNL     1      -0.715 -18.608  15.025  1.00  0.00    -0.389 OA
ATOM     12  H   UNL     1      -0.661 -19.253  14.275  1.00  0.00     0.211 HD
ENDBRANCH   5  11
TORSDOF 2
ENDMDL
MODEL 4
REMARK VINA RESULT:    -3.672      1.498      4.326
REMARK INTER + INTRA:          -4.117
REMARK INTER:                  -3.956
REMARK INTRA:                  -0.161
REMARK UNBOUND:                -0.123
REMARK SMILES CC1=CC[C@@](O)(C(C)C)CC1
REMARK SMILES IDX 1 1 2 2 3 3 4 4 5 5 10 6 11 7 7 8 8 9 9 10 6 11
REMARK H PARENT 6 12
REMARK Flexibility Score: inf
ROOT
ATOM      1  C   UNL     1      -0.578 -15.996   8.224  1.00  0.00     0.039 C 
ATOM      2  C   UNL     1       0.520 -15.609   9.177  1.00  0.00    -0.077 C 
ATOM      3  C   UNL     1       1.416 -16.540   9.556  1.00  0.00    -0.025 C 
ATOM      4  C   UNL     1       2.581 -16.239  10.465  1.00  0.00     0.062 C 
ATOM      5  C   UNL     1       2.374 -14.988  11.360  1.00  0.00     0.071 C 
ATOM      6  C   UNL     1       1.840 -13.848  10.447  1.00  0.00     0.040 C 
ATOM      7  C   UNL     1       0.511 -14.226   9.782  1.00  0.00     0.033 C 
ENDROOT
BRANCH   5   8
ATOM      8  C   UNL     1       3.741 -14.588  12.034  1.00  0.00     0.015 C 
ATOM      9  C   UNL     1       4.567 -13.625  11.158  1.00  0.00     0.010 C 
ATOM     10  C   UNL     1       4.624 -15.795  12.412  1.00  0.00     0.010 C 
ENDBRANCH   5   8
BRANCH   5  11
ATOM     11  O   UNL     1       1.421 -15.316  12.349  1.00  0.00    -0.389 OA
ATOM     12  H   UNL     1       1.857 -15.900  13.021  1.00  0.00     0.211 HD
ENDBRANCH   5  11
TORSDOF 2
ENDMDL
MODEL 5
REMARK VINA RESULT:    -3.668      1.872      4.587
REMARK INTER + INTRA:          -4.113
REMARK INTER:                  -3.955
REMARK INTRA:                  -0.158
REMARK UNBOUND:                -0.123
REMARK SMILES CC1=CC[C@@](O)(C(C)C)CC1
REMARK SMILES IDX 1 1 2 2 3 3 4 4 5 5 10 6 11 7 7 8 8 9 9 10 6 11
REMARK H PARENT 6 12
REMARK Flexibility Score: inf
ROOT
ATOM      1  C   UNL     1       0.098 -11.876   6.751  1.00  0.00     0.039 C 
ATOM      2  C   UNL     1       0.854 -12.752   7.713  1.00  0.00    -0.077 C 
ATOM      3  C   UNL     1       0.234 -13.818   8.254  1.00  0.00    -0.025 C 
ATOM      4  C   UNL     1       0.921 -14.784   9.186  1.00  0.00     0.062 C 
ATOM      5  C   UNL     1       2.159 -14.188   9.909  1.00  0.00     0.071 C 
ATOM      6  C   UNL     1       3.020 -13.466   8.834  1.00  0.00     0.040 C 
ATOM      7  C   UNL     1       2.241 -12.339   8.144  1.00  0.00     0.033 C 
ENDROOT
BRANCH   5   8
ATOM      8  C   UNL     1       2.969 -15.344  10.609  1.00  0.00     0.015 C 
ATOM      9  C   UNL     1       3.943 -16.047   9.640  1.00  0.00     0.010 C 
ATOM     10  C   UNL     1       2.078 -16.412  11.276  1.00  0.00     0.010 C 
ENDBRANCH   5   8
BRANCH   5  11
ATOM     11  O   UNL     1       1.695 -13.267  10.873  1.00  0.00    -0.389 OA
ATOM     12  H   UNL     1       2.108 -12.385  10.687  1.00  0.00     0.211 HD
ENDBRANCH   5  11
TORSDOF 2
ENDMDL
MODEL 6
REMARK VINA RESULT:    -3.647      5.343      6.638
REMARK INTER + INTRA:          -4.090
REMARK INTER:                  -3.920
REMARK INTRA:                  -0.169
REMARK UNBOUND:                -0.123
REMARK SMILES CC1=CC[C@@](O)(C(C)C)CC1
REMARK SMILES IDX 1 1 2 2 3 3 4 4 5 5 10 6 11 7 7 8 8 9 9 10 6 11
REMARK H PARENT 6 12
REMARK Flexibility Score: inf
ROOT
ATOM      1  C   UNL     1       3.325 -20.814  14.255  1.00  0.00     0.039 C 
ATOM      2  C   UNL     1       2.426 -19.758  14.838  1.00  0.00    -0.077 C 
ATOM      3  C   UNL     1       1.904 -19.945  16.065  1.00  0.00    -0.025 C 
ATOM      4  C   UNL     1       1.035 -18.924  16.755  1.00  0.00     0.062 C 
ATOM      5  C   UNL     1       0.335 -17.936  15.785  1.00  0.00     0.071 C 
ATOM      6  C   UNL     1       1.411 -17.429  14.784  1.00  0.00     0.040 C 
ATOM      7  C   UNL     1       2.029 -18.579  13.980  1.00  0.00     0.033 C 
ENDROOT
BRANCH   5   8
ATOM      8  C   UNL     1      -0.290 -16.744  16.605  1.00  0.00     0.015 C 
ATOM      9  C   UNL     1       0.181 -15.368  16.092  1.00  0.00     0.010 C 
ATOM     10  C   UNL     1      -0.022 -16.826  18.122  1.00  0.00     0.010 C 
ENDBRANCH   5   8
BRANCH   5  11
ATOM     11  O   UNL     1      -0.680 -18.642  15.105  1.00  0.00    -0.389 OA
ATOM     12  H   UNL     1      -0.329 -18.920  14.220  1.00  0.00     0.211 HD
ENDBRANCH   5  11
TORSDOF 2
ENDMDL
MODEL 7
REMARK VINA RESULT:    -3.633      1.549      4.233
REMARK INTER + INTRA:          -4.075
REMARK INTER:                  -3.908
REMARK INTRA:                  -0.167
REMARK UNBOUND:                -0.123
REMARK SMILES CC1=CC[C@@](O)(C(C)C)CC1
REMARK SMILES IDX 1 1 2 2 3 3 4 4 5 5 10 6 11 7 7 8 8 9 9 10 6 11
REMARK H PARENT 6 12
REMARK Flexibility Score: inf
ROOT
ATOM      1  C   UNL     1      -0.551 -16.017   8.265  1.00  0.00     0.039 C 
ATOM      2  C   UNL     1       0.532 -15.652   9.244  1.00  0.00    -0.077 C 
ATOM      3  C   UNL     1       0.575 -14.400   9.737  1.00  0.00    -0.025 C 
ATOM      4  C   UNL     1       1.588 -13.953  10.760  1.00  0.00     0.062 C 
ATOM      5  C   UNL     1       2.880 -14.814  10.785  1.00  0.00     0.071 C 
ATOM      6  C   UNL     1       2.441 -16.306  10.788  1.00  0.00     0.040 C 
ATOM      7  C   UNL     1       1.617 -16.660   9.545  1.00  0.00     0.033 C 
ENDROOT
BRANCH   5   8
ATOM      8  C   UNL     1       3.724 -14.463  12.068  1.00  0.00     0.015 C 
ATOM      9  C   UNL     1       4.383 -15.708  12.695  1.00  0.00     0.010 C 
ATOM     10  C   UNL     1       2.920 -13.726  13.159  1.00  0.00     0.010 C 
ENDBRANCH   5   8
BRANCH   5  11
ATOM     11  O   UNL     1       3.620 -14.518   9.620  1.00  0.00    -0.389 OA
ATOM     12  H   UNL     1       3.027 -14.636   8.835  1.00  0.00     0.211 HD
ENDBRANCH   5  11
TORSDOF 2
ENDMDL
MODEL 8
REMARK VINA RESULT:    -3.613      1.830      2.191
REMARK INTER + INTRA:          -4.053
REMARK INTER:                  -3.932
REMARK INTRA:                  -0.122
REMARK UNBOUND:                -0.123
REMARK SMILES CC1=CC[C@@](O)(C(C)C)CC1
REMARK SMILES IDX 1 1 2 2 3 3 4 4 5 5 10 6 11 7 7 8 8 9 9 10 6 11
REMARK H PARENT 6 12
REMARK Flexibility Score: inf
ROOT
ATOM      1  C   UNL     1       2.112 -17.142  12.928  1.00  0.00     0.039 C 
ATOM      2  C   UNL     1       1.989 -16.093  11.856  1.00  0.00    -0.077 C 
ATOM      3  C   UNL     1       1.344 -14.945  12.135  1.00  0.00    -0.025 C 
ATOM      4  C   UNL     1       1.213 -13.813  11.147  1.00  0.00     0.062 C 
ATOM      5  C   UNL     1       1.358 -14.252   9.665  1.00  0.00     0.071 C 
ATOM      6  C   UNL     1       2.612 -15.166   9.574  1.00  0.00     0.040 C 
ATOM      7  C   UNL     1       2.478 -16.409  10.462  1.00  0.00     0.033 C 
ENDROOT
BRANCH   5   8
ATOM      8  C   UNL     1       1.510 -12.979   8.750  1.00  0.00     0.015 C 
ATOM      9  C   UNL     1       0.433 -12.917   7.648  1.00  0.00     0.010 C 
ATOM     10  C   UNL     1       2.899 -12.848   8.092  1.00  0.00     0.010 C 
ENDBRANCH   5   8
BRANCH   5  11
ATOM     11  O   UNL     1       0.196 -14.970   9.311  1.00  0.00    -0.389 OA
ATOM     12  H   UNL     1      -0.296 -14.450   8.625  1.00  0.00     0.211 HD
ENDBRANCH   5  11
TORSDOF 2
ENDMDL
MODEL 9
REMARK VINA RESULT:    -3.489      1.726      4.410
REMARK INTER + INTRA:          -3.918
REMARK INTER:                  -3.769
REMARK INTRA:                  -0.149
REMARK UNBOUND:                -0.123
REMARK SMILES CC1=CC[C@@](O)(C(C)C)CC1
REMARK SMILES IDX 1 1 2 2 3 3 4 4 5 5 10 6 11 7 7 8 8 9 9 10 6 11
REMARK H PARENT 6 12
REMARK Flexibility Score: inf
ROOT
ATOM      1  C   UNL     1       0.253 -12.212   6.990  1.00  0.00     0.039 C 
ATOM      2  C   UNL     1       0.735 -12.962   8.201  1.00  0.00    -0.077 C 
ATOM      3  C   UNL     1       1.636 -12.382   9.016  1.00  0.00    -0.025 C 
ATOM      4  C   UNL     1       2.141 -13.030  10.280  1.00  0.00     0.062 C 
ATOM      5  C   UNL     1       2.007 -14.577  10.290  1.00  0.00     0.071 C 
ATOM      6  C   UNL     1       0.568 -14.920   9.813  1.00  0.00     0.040 C 
ATOM      7  C   UNL     1       0.297 -14.394   8.398  1.00  0.00     0.033 C 
ENDROOT
BRANCH   5   8
ATOM      8  C   UNL     1       2.272 -15.120  11.745  1.00  0.00     0.015 C 
ATOM      9  C   UNL     1       2.112 -16.651  11.837  1.00  0.00     0.010 C 
ATOM     10  C   UNL     1       1.387 -14.464  12.825  1.00  0.00     0.010 C 
ENDBRANCH   5   8
BRANCH   5  11
ATOM     11  O   UNL     1       2.964 -15.100   9.394  1.00  0.00    -0.389 OA
ATOM     12  H   UNL     1       2.679 -14.882   8.470  1.00  0.00     0.211 HD
ENDBRANCH   5  11
TORSDOF 2
ENDMDL
