MODEL 1
REMARK VINA RESULT:    -4.399      0.000      0.000
REMARK INTER + INTRA:          -5.052
REMARK INTER:                  -4.913
REMARK INTRA:                  -0.138
REMARK UNBOUND:                -0.138
REMARK SMILES CC=C(C)C=CC=C(C)C
REMARK SMILES IDX 5 1 6 2 3 3 1 4 2 5 4 6 7 7 8 8 9 9 10 10
REMARK H PARENT
REMARK Flexibility Score: inf
ROOT
ATOM      1  C   UNL     1      13.084  13.818  37.542  1.00  0.00     0.003 C 
ATOM      2  C   UNL     1      13.878  13.127  36.714  1.00  0.00     0.000 C 
ENDROOT
BRANCH   1   3
ATOM      3  C   UNL     1      11.594  13.738  37.504  1.00  0.00    -0.055 C 
ATOM      4  C   UNL     1      11.383  15.343  39.432  1.00  0.00     0.036 C 
ATOM      5  C   UNL     1      10.833  14.439  38.368  1.00  0.00    -0.027 C 
ATOM      6  C   UNL     1      10.908  12.879  36.470  1.00  0.00     0.044 C 
ENDBRANCH   1   3
BRANCH   2   7
ATOM      7  C   UNL     1      15.350  13.250  36.803  1.00  0.00    -0.001 C 
ATOM      8  C   UNL     1      16.041  14.315  36.351  1.00  0.00    -0.076 C 
ATOM      9  C   UNL     1      15.362  15.493  35.702  1.00  0.00     0.039 C 
ATOM     10  C   UNL     1      17.539  14.349  36.483  1.00  0.00     0.039 C 
ENDBRANCH   2   7
TORSDOF 2
ENDMDL
MODEL 2
REMARK VINA RESULT:    -4.164      1.889      2.215
REMARK INTER + INTRA:          -4.790
REMARK INTER:                  -4.444
REMARK INTRA:                  -0.346
REMARK UNBOUND:                -0.138
REMARK SMILES CC=C(C)C=CC=C(C)C
REMARK SMILES IDX 5 1 6 2 3 3 1 4 2 5 4 6 7 7 8 8 9 9 10 10
REMARK H PARENT
REMARK Flexibility Score: inf
ROOT
ATOM      1  C   UNL     1      12.881  14.410  37.794  1.00  0.00     0.003 C 
ATOM      2  C   UNL     1      13.375  15.315  36.940  1.00  0.00     0.000 C 
ENDROOT
BRANCH   1   3
ATOM      3  C   UNL     1      11.488  13.880  37.711  1.00  0.00    -0.055 C 
ATOM      4  C   UNL     1      10.751  15.300  39.654  1.00  0.00     0.036 C 
ATOM      5  C   UNL     1      10.529  14.295  38.563  1.00  0.00    -0.027 C 
ATOM      6  C   UNL     1      11.123  12.876  36.645  1.00  0.00     0.044 C 
ENDBRANCH   1   3
BRANCH   2   7
ATOM      7  C   UNL     1      14.765  15.802  37.076  1.00  0.00    -0.001 C 
ATOM      8  C   UNL     1      15.116  16.867  37.822  1.00  0.00    -0.076 C 
ATOM      9  C   UNL     1      14.104  17.670  38.596  1.00  0.00     0.039 C 
ATOM     10  C   UNL     1      16.558  17.289  37.899  1.00  0.00     0.039 C 
ENDBRANCH   2   7
TORSDOF 2
ENDMDL
MODEL 3
REMARK VINA RESULT:    -4.148     13.552     14.703
REMARK INTER + INTRA:          -4.771
REMARK INTER:                  -4.417
REMARK INTRA:                  -0.354
REMARK UNBOUND:                -0.138
REMARK SMILES CC=C(C)C=CC=C(C)C
REMARK SMILES IDX 5 1 6 2 3 3 1 4 2 5 4 6 7 7 8 8 9 9 10 10
REMARK H PARENT
REMARK Flexibility Score: inf
ROOT
ATOM      1  C   UNL     1       7.554  19.305  24.794  1.00  0.00     0.003 C 
ATOM      2  C   UNL     1       8.501  20.114  25.284  1.00  0.00     0.000 C 
ENDROOT
BRANCH   1   3
ATOM      3  C   UNL     1       6.725  19.644  23.600  1.00  0.00    -0.055 C 
ATOM      4  C   UNL     1       8.078  18.111  22.131  1.00  0.00     0.036 C 
ATOM      5  C   UNL     1       6.974  19.091  22.395  1.00  0.00    -0.027 C 
ATOM      6  C   UNL     1       5.568  20.604  23.729  1.00  0.00     0.044 C 
ENDBRANCH   1   3
BRANCH   2   7
ATOM      7  C   UNL     1       9.290  19.720  26.472  1.00  0.00    -0.001 C 
ATOM      8  C   UNL     1      10.561  19.276  26.414  1.00  0.00    -0.076 C 
ATOM      9  C   UNL     1      11.301  19.140  25.110  1.00  0.00     0.039 C 
ATOM     10  C   UNL     1      11.283  18.896  27.678  1.00  0.00     0.039 C 
ENDBRANCH   2   7
TORSDOF 2
ENDMDL
MODEL 4
REMARK VINA RESULT:    -4.096      1.431      2.177
REMARK INTER + INTRA:          -4.713
REMARK INTER:                  -4.423
REMARK INTRA:                  -0.290
REMARK UNBOUND:                -0.138
REMARK SMILES CC=C(C)C=CC=C(C)C
REMARK SMILES IDX 5 1 6 2 3 3 1 4 2 5 4 6 7 7 8 8 9 9 10 10
REMARK H PARENT
REMARK Flexibility Score: inf
ROOT
ATOM      1  C   UNL     1      12.072  14.710  38.702  1.00  0.00     0.003 C 
ATOM      2  C   UNL     1      12.368  14.170  37.513  1.00  0.00     0.000 C 
ENDROOT
BRANCH   1   3
ATOM      3  C   UNL     1      10.675  14.965  39.161  1.00  0.00    -0.055 C 
ATOM      4  C   UNL     1      10.606  17.180  37.966  1.00  0.00     0.036 C 
ATOM      5  C   UNL     1      10.020  16.092  38.816  1.00  0.00    -0.027 C 
ATOM      6  C   UNL     1       9.958  13.943  40.009  1.00  0.00     0.044 C 
ENDBRANCH   1   3
BRANCH   2   7
ATOM      7  C   UNL     1      13.775  13.942  37.117  1.00  0.00    -0.001 C 
ATOM      8  C   UNL     1      14.545  14.873  36.519  1.00  0.00    -0.076 C 
ATOM      9  C   UNL     1      14.029  16.251  36.197  1.00  0.00     0.039 C 
ATOM     10  C   UNL     1      15.967  14.548  36.151  1.00  0.00     0.039 C 
ENDBRANCH   2   7
TORSDOF 2
ENDMDL
MODEL 5
REMARK VINA RESULT:    -4.076     13.823     15.499
REMARK INTER + INTRA:          -4.691
REMARK INTER:                  -4.392
REMARK INTRA:                  -0.299
REMARK UNBOUND:                -0.138
REMARK SMILES CC=C(C)C=CC=C(C)C
REMARK SMILES IDX 5 1 6 2 3 3 1 4 2 5 4 6 7 7 8 8 9 9 10 10
REMARK H PARENT
REMARK Flexibility Score: inf
ROOT
ATOM      1  C   UNL     1       8.940  19.952  24.826  1.00  0.00     0.003 C 
ATOM      2  C   UNL     1       7.726  19.413  24.999  1.00  0.00     0.000 C 
ENDROOT
BRANCH   1   3
ATOM      3  C   UNL     1      10.094  19.677  25.731  1.00  0.00    -0.055 C 
ATOM      4  C   UNL     1      11.539  18.967  23.795  1.00  0.00     0.036 C 
ATOM      5  C   UNL     1      11.272  19.231  25.247  1.00  0.00    -0.027 C 
ATOM      6  C   UNL     1       9.968  19.917  27.215  1.00  0.00     0.044 C 
ENDBRANCH   1   3
BRANCH   2   7
ATOM      7  C   UNL     1       6.621  19.726  24.066  1.00  0.00    -0.001 C 
ATOM      8  C   UNL     1       6.341  18.999  22.967  1.00  0.00    -0.076 C 
ATOM      9  C   UNL     1       7.144  17.783  22.585  1.00  0.00     0.039 C 
ATOM     10  C   UNL     1       5.196  19.397  22.075  1.00  0.00     0.039 C 
ENDBRANCH   2   7
TORSDOF 2
ENDMDL
MODEL 6
REMARK VINA RESULT:    -4.066     17.054     18.356
REMARK INTER + INTRA:          -4.680
REMARK INTER:                  -4.362
REMARK INTRA:                  -0.318
REMARK UNBOUND:                -0.138
REMARK SMILES CC=C(C)C=CC=C(C)C
REMARK SMILES IDX 5 1 6 2 3 3 1 4 2 5 4 6 7 7 8 8 9 9 10 10
REMARK H PARENT
REMARK Flexibility Score: inf
ROOT
ATOM      1  C   UNL     1       3.720  19.715  21.980  1.00  0.00     0.003 C 
ATOM      2  C   UNL     1       4.430  18.794  22.644  1.00  0.00     0.000 C 
ENDROOT
BRANCH   1   3
ATOM      3  C   UNL     1       2.359  20.160  22.401  1.00  0.00    -0.055 C 
ATOM      4  C   UNL     1       1.327  19.253  20.292  1.00  0.00     0.036 C 
ATOM      5  C   UNL     1       1.279  19.941  21.623  1.00  0.00    -0.027 C 
ATOM      6  C   UNL     1       2.165  20.850  23.729  1.00  0.00     0.044 C 
ENDBRANCH   1   3
BRANCH   2   7
ATOM      7  C   UNL     1       5.775  18.395  22.175  1.00  0.00    -0.001 C 
ATOM      8  C   UNL     1       6.916  18.708  22.820  1.00  0.00    -0.076 C 
ATOM      9  C   UNL     1       6.920  19.506  24.097  1.00  0.00     0.039 C 
ATOM     10  C   UNL     1       8.240  18.259  22.265  1.00  0.00     0.039 C 
ENDBRANCH   2   7
TORSDOF 2
ENDMDL
MODEL 7
REMARK VINA RESULT:    -4.039      1.379      5.041
REMARK INTER + INTRA:          -4.649
REMARK INTER:                  -4.313
REMARK INTRA:                  -0.336
REMARK UNBOUND:                -0.138
REMARK SMILES CC=C(C)C=CC=C(C)C
REMARK SMILES IDX 5 1 6 2 3 3 1 4 2 5 4 6 7 7 8 8 9 9 10 10
REMARK H PARENT
REMARK Flexibility Score: inf
ROOT
ATOM      1  C   UNL     1      13.094  14.525  37.022  1.00  0.00     0.003 C 
ATOM      2  C   UNL     1      12.532  14.187  38.189  1.00  0.00     0.000 C 
ENDROOT
BRANCH   1   3
ATOM      3  C   UNL     1      14.531  14.278  36.703  1.00  0.00    -0.055 C 
ATOM      4  C   UNL     1      15.085  16.721  36.951  1.00  0.00     0.036 C 
ATOM      5  C   UNL     1      15.426  15.287  36.677  1.00  0.00    -0.027 C 
ATOM      6  C   UNL     1      15.015  12.876  36.424  1.00  0.00     0.044 C 
ENDBRANCH   1   3
BRANCH   2   7
ATOM      7  C   UNL     1      11.100  14.459  38.444  1.00  0.00    -0.001 C 
ATOM      8  C   UNL     1      10.658  15.407  39.293  1.00  0.00    -0.076 C 
ATOM      9  C   UNL     1      11.601  16.286  40.072  1.00  0.00     0.039 C 
ATOM     10  C   UNL     1       9.180  15.609  39.490  1.00  0.00     0.039 C 
ENDBRANCH   2   7
TORSDOF 2
ENDMDL
MODEL 8
REMARK VINA RESULT:    -4.009     16.978     18.715
REMARK INTER + INTRA:          -4.616
REMARK INTER:                  -4.311
REMARK INTRA:                  -0.306
REMARK UNBOUND:                -0.138
REMARK SMILES CC=C(C)C=CC=C(C)C
REMARK SMILES IDX 5 1 6 2 3 3 1 4 2 5 4 6 7 7 8 8 9 9 10 10
REMARK H PARENT
REMARK Flexibility Score: inf
ROOT
ATOM      1  C   UNL     1       5.451  19.215  22.557  1.00  0.00     0.003 C 
ATOM      2  C   UNL     1       4.773  20.107  21.825  1.00  0.00     0.000 C 
ENDROOT
BRANCH   1   3
ATOM      3  C   UNL     1       6.581  19.585  23.460  1.00  0.00    -0.055 C 
ATOM      4  C   UNL     1       8.153  18.031  22.254  1.00  0.00     0.036 C 
ATOM      5  C   UNL     1       7.806  19.040  23.308  1.00  0.00    -0.027 C 
ATOM      6  C   UNL     1       6.374  20.605  24.553  1.00  0.00     0.044 C 
ENDBRANCH   1   3
BRANCH   2   7
ATOM      7  C   UNL     1       3.661  19.676  20.949  1.00  0.00    -0.001 C 
ATOM      8  C   UNL     1       2.368  19.674  21.327  1.00  0.00    -0.076 C 
ATOM      9  C   UNL     1       1.935  20.118  22.699  1.00  0.00     0.039 C 
ATOM     10  C   UNL     1       1.305  19.216  20.366  1.00  0.00     0.039 C 
ENDBRANCH   2   7
TORSDOF 2
ENDMDL
MODEL 9
REMARK VINA RESULT:    -3.339      1.393      5.234
REMARK INTER + INTRA:          -3.868
REMARK INTER:                  -3.562
REMARK INTRA:                  -0.306
REMARK UNBOUND:                -0.138
REMARK SMILES CC=C(C)C=CC=C(C)C
REMARK SMILES IDX 5 1 6 2 3 3 1 4 2 5 4 6 7 7 8 8 9 9 10 10
REMARK H PARENT
REMARK Flexibility Score: inf
ROOT
ATOM      1  C   UNL     1      13.594  15.259  37.255  1.00  0.00     0.003 C 
ATOM      2  C   UNL     1      12.324  14.846  37.159  1.00  0.00     0.000 C 
ENDROOT
BRANCH   1   3
ATOM      3  C   UNL     1      14.326  15.923  36.136  1.00  0.00    -0.055 C 
ATOM      4  C   UNL     1      16.274  14.346  36.373  1.00  0.00     0.036 C 
ATOM      5  C   UNL     1      15.544  15.495  35.745  1.00  0.00    -0.027 C 
ATOM      6  C   UNL     1      13.697  17.082  35.403  1.00  0.00     0.044 C 
ENDBRANCH   1   3
BRANCH   2   7
ATOM      7  C   UNL     1      11.654  14.194  38.306  1.00  0.00    -0.001 C 
ATOM      8  C   UNL     1      10.611  14.731  38.968  1.00  0.00    -0.076 C 
ATOM      9  C   UNL     1      10.027  16.068  38.592  1.00  0.00     0.039 C 
ATOM     10  C   UNL     1       9.995  13.993  40.125  1.00  0.00     0.039 C 
ENDBRANCH   2   7
TORSDOF 2
ENDMDL
