MODEL 1
REMARK VINA RESULT:    -3.977      0.000      0.000
REMARK INTER + INTRA:          -4.368
REMARK INTER:                  -4.326
REMARK INTRA:                  -0.042
REMARK UNBOUND:                -0.042
REMARK SMILES COc1ccccc1O
REMARK SMILES IDX 3 1 4 2 5 3 6 4 7 5 8 6 2 7 1 8 9 9
REMARK H PARENT 9 10
REMARK Flexibility Score: inf
ROOT
ATOM      1  C   UNL     1      -6.189   8.272  -4.316  1.00  0.00     0.160 A 
ATOM      2  C   UNL     1      -4.827   7.926  -4.201  1.00  0.00     0.050 A 
ATOM      3  C   UNL     1      -4.458   6.653  -3.758  1.00  0.00     0.004 A 
ATOM      4  C   UNL     1      -5.438   5.715  -3.426  1.00  0.00     0.004 A 
ATOM      5  C   UNL     1      -6.790   6.049  -3.537  1.00  0.00     0.050 A 
ATOM      6  C   UNL     1      -7.168   7.324  -3.980  1.00  0.00     0.157 A 
ENDROOT
BRANCH   1   7
ATOM      7  O   UNL     1      -6.605   9.538  -4.756  1.00  0.00    -0.493 OA
ATOM      8  C   UNL     1      -6.323  10.076  -6.044  1.00  0.00     0.278 C 
ENDBRANCH   1   7
BRANCH   6   9
ATOM      9  O   UNL     1      -8.516   7.658  -4.091  1.00  0.00    -0.504 OA
ATOM     10  H   UNL     1      -8.829   8.399  -4.709  1.00  0.00     0.293 HD
ENDBRANCH   6   9
TORSDOF 2
ENDMDL
MODEL 2
REMARK VINA RESULT:    -3.961      1.188      2.343
REMARK INTER + INTRA:          -4.351
REMARK INTER:                  -4.321
REMARK INTRA:                  -0.030
REMARK UNBOUND:                -0.042
REMARK SMILES COc1ccccc1O
REMARK SMILES IDX 3 1 4 2 5 3 6 4 7 5 8 6 2 7 1 8 9 9
REMARK H PARENT 9 10
REMARK Flexibility Score: inf
ROOT
ATOM      1  C   UNL     1      -6.571   7.980  -4.300  1.00  0.00     0.160 A 
ATOM      2  C   UNL     1      -7.235   6.834  -3.815  1.00  0.00     0.050 A 
ATOM      3  C   UNL     1      -6.502   5.726  -3.379  1.00  0.00     0.004 A 
ATOM      4  C   UNL     1      -5.107   5.749  -3.422  1.00  0.00     0.004 A 
ATOM      5  C   UNL     1      -4.440   6.879  -3.901  1.00  0.00     0.050 A 
ATOM      6  C   UNL     1      -5.168   7.994  -4.340  1.00  0.00     0.157 A 
ENDROOT
BRANCH   1   7
ATOM      7  O   UNL     1      -7.266   9.113  -4.748  1.00  0.00    -0.493 OA
ATOM      8  C   UNL     1      -8.555   9.080  -5.354  1.00  0.00     0.278 C 
ENDBRANCH   1   7
BRANCH   6   9
ATOM      9  O   UNL     1      -4.505   9.122  -4.818  1.00  0.00    -0.504 OA
ATOM     10  H   UNL     1      -4.545   9.386  -5.796  1.00  0.00     0.293 HD
ENDBRANCH   6   9
TORSDOF 2
ENDMDL
MODEL 3
REMARK VINA RESULT:    -3.957      0.837      2.542
REMARK INTER + INTRA:          -4.346
REMARK INTER:                  -4.316
REMARK INTRA:                  -0.030
REMARK UNBOUND:                -0.042
REMARK SMILES COc1ccccc1O
REMARK SMILES IDX 3 1 4 2 5 3 6 4 7 5 8 6 2 7 1 8 9 9
REMARK H PARENT 9 10
REMARK Flexibility Score: inf
ROOT
ATOM      1  C   UNL     1      -7.096   7.391  -4.008  1.00  0.00     0.160 A 
ATOM      2  C   UNL     1      -6.777   6.104  -3.530  1.00  0.00     0.050 A 
ATOM      3  C   UNL     1      -5.442   5.698  -3.435  1.00  0.00     0.004 A 
ATOM      4  C   UNL     1      -4.417   6.566  -3.814  1.00  0.00     0.004 A 
ATOM      5  C   UNL     1      -4.723   7.843  -4.290  1.00  0.00     0.050 A 
ATOM      6  C   UNL     1      -6.058   8.258  -4.389  1.00  0.00     0.157 A 
ENDROOT
BRANCH   1   7
ATOM      7  O   UNL     1      -8.420   7.841  -4.121  1.00  0.00    -0.493 OA
ATOM      8  C   UNL     1      -9.146   8.478  -3.074  1.00  0.00     0.278 C 
ENDBRANCH   1   7
BRANCH   6   9
ATOM      9  O   UNL     1      -6.366   9.532  -4.863  1.00  0.00    -0.504 OA
ATOM     10  H   UNL     1      -7.203  10.020  -4.566  1.00  0.00     0.293 HD
ENDBRANCH   6   9
TORSDOF 2
ENDMDL
MODEL 4
REMARK VINA RESULT:    -3.896      1.256      2.178
REMARK INTER + INTRA:          -4.279
REMARK INTER:                  -4.237
REMARK INTRA:                  -0.042
REMARK UNBOUND:                -0.042
REMARK SMILES COc1ccccc1O
REMARK SMILES IDX 3 1 4 2 5 3 6 4 7 5 8 6 2 7 1 8 9 9
REMARK H PARENT 9 10
REMARK Flexibility Score: inf
ROOT
ATOM      1  C   UNL     1      -7.233   7.748  -4.092  1.00  0.00     0.160 A 
ATOM      2  C   UNL     1      -6.219   8.624  -4.530  1.00  0.00     0.050 A 
ATOM      3  C   UNL     1      -4.875   8.247  -4.442  1.00  0.00     0.004 A 
ATOM      4  C   UNL     1      -4.530   7.000  -3.919  1.00  0.00     0.004 A 
ATOM      5  C   UNL     1      -5.528   6.125  -3.483  1.00  0.00     0.050 A 
ATOM      6  C   UNL     1      -6.877   6.495  -3.567  1.00  0.00     0.157 A 
ENDROOT
BRANCH   1   7
ATOM      7  O   UNL     1      -8.594   8.084  -4.161  1.00  0.00    -0.493 OA
ATOM      8  C   UNL     1      -9.280   8.863  -3.187  1.00  0.00     0.278 C 
ENDBRANCH   1   7
BRANCH   6   9
ATOM      9  O   UNL     1      -7.874   5.624  -3.132  1.00  0.00    -0.504 OA
ATOM     10  H   UNL     1      -8.212   5.641  -2.177  1.00  0.00     0.293 HD
ENDBRANCH   6   9
TORSDOF 2
ENDMDL
MODEL 5
REMARK VINA RESULT:    -3.853      1.773      2.101
REMARK INTER + INTRA:          -4.233
REMARK INTER:                  -4.187
REMARK INTRA:                  -0.046
REMARK UNBOUND:                -0.042
REMARK SMILES COc1ccccc1O
REMARK SMILES IDX 3 1 4 2 5 3 6 4 7 5 8 6 2 7 1 8 9 9
REMARK H PARENT 9 10
REMARK Flexibility Score: inf
ROOT
ATOM      1  C   UNL     1      -6.472   8.272  -2.705  1.00  0.00     0.160 A 
ATOM      2  C   UNL     1      -5.111   7.908  -2.669  1.00  0.00     0.050 A 
ATOM      3  C   UNL     1      -4.713   6.627  -3.063  1.00  0.00     0.004 A 
ATOM      4  C   UNL     1      -5.664   5.700  -3.494  1.00  0.00     0.004 A 
ATOM      5  C   UNL     1      -7.015   6.051  -3.533  1.00  0.00     0.050 A 
ATOM      6  C   UNL     1      -7.422   7.334  -3.139  1.00  0.00     0.157 A 
ENDROOT
BRANCH   1   7
ATOM      7  O   UNL     1      -6.916   9.546  -2.319  1.00  0.00    -0.493 OA
ATOM      8  C   UNL     1      -7.011   9.991  -0.969  1.00  0.00     0.278 C 
ENDBRANCH   1   7
BRANCH   6   9
ATOM      9  O   UNL     1      -8.770   7.686  -3.177  1.00  0.00    -0.504 OA
ATOM     10  H   UNL     1      -9.197   8.058  -4.018  1.00  0.00     0.293 HD
ENDBRANCH   6   9
TORSDOF 2
ENDMDL
MODEL 6
REMARK VINA RESULT:    -3.702      2.258      3.616
REMARK INTER + INTRA:          -4.069
REMARK INTER:                  -4.033
REMARK INTRA:                  -0.036
REMARK UNBOUND:                -0.042
REMARK SMILES COc1ccccc1O
REMARK SMILES IDX 3 1 4 2 5 3 6 4 7 5 8 6 2 7 1 8 9 9
REMARK H PARENT 9 10
REMARK Flexibility Score: inf
ROOT
ATOM      1  C   UNL     1      -5.496   6.664  -3.437  1.00  0.00     0.160 A 
ATOM      2  C   UNL     1      -6.538   5.714  -3.438  1.00  0.00     0.050 A 
ATOM      3  C   UNL     1      -7.834   6.091  -3.072  1.00  0.00     0.004 A 
ATOM      4  C   UNL     1      -8.103   7.410  -2.705  1.00  0.00     0.004 A 
ATOM      5  C   UNL     1      -7.077   8.358  -2.701  1.00  0.00     0.050 A 
ATOM      6  C   UNL     1      -5.775   7.989  -3.065  1.00  0.00     0.157 A 
ENDROOT
BRANCH   1   7
ATOM      7  O   UNL     1      -4.181   6.331  -3.795  1.00  0.00    -0.493 OA
ATOM      8  C   UNL     1      -3.461   5.219  -3.272  1.00  0.00     0.278 C 
ENDBRANCH   1   7
BRANCH   6   9
ATOM      9  O   UNL     1      -4.750   8.933  -3.062  1.00  0.00    -0.504 OA
ATOM     10  H   UNL     1      -3.841   8.730  -3.463  1.00  0.00     0.293 HD
ENDBRANCH   6   9
TORSDOF 2
ENDMDL
MODEL 7
REMARK VINA RESULT:    -3.636     14.571     15.118
REMARK INTER + INTRA:          -3.997
REMARK INTER:                  -3.969
REMARK INTRA:                  -0.028
REMARK UNBOUND:                -0.042
REMARK SMILES COc1ccccc1O
REMARK SMILES IDX 3 1 4 2 5 3 6 4 7 5 8 6 2 7 1 8 9 9
REMARK H PARENT 9 10
REMARK Flexibility Score: inf
ROOT
ATOM      1  C   UNL     1      -5.062  -2.510   6.197  1.00  0.00     0.160 A 
ATOM      2  C   UNL     1      -4.993  -1.787   7.405  1.00  0.00     0.050 A 
ATOM      3  C   UNL     1      -3.781  -1.678   8.093  1.00  0.00     0.004 A 
ATOM      4  C   UNL     1      -2.630  -2.286   7.587  1.00  0.00     0.004 A 
ATOM      5  C   UNL     1      -2.689  -3.004   6.390  1.00  0.00     0.050 A 
ATOM      6  C   UNL     1      -3.900  -3.118   5.694  1.00  0.00     0.157 A 
ENDROOT
BRANCH   1   7
ATOM      7  O   UNL     1      -6.256  -2.646   5.473  1.00  0.00    -0.493 OA
ATOM      8  C   UNL     1      -7.558  -2.513   6.036  1.00  0.00     0.278 C 
ENDBRANCH   1   7
BRANCH   6   9
ATOM      9  O   UNL     1      -3.960  -3.835   4.500  1.00  0.00    -0.504 OA
ATOM     10  H   UNL     1      -4.809  -4.305   4.207  1.00  0.00     0.293 HD
ENDBRANCH   6   9
TORSDOF 2
ENDMDL
MODEL 8
REMARK VINA RESULT:    -3.569      2.222      3.188
REMARK INTER + INTRA:          -3.924
REMARK INTER:                  -3.896
REMARK INTRA:                  -0.028
REMARK UNBOUND:                -0.042
REMARK SMILES COc1ccccc1O
REMARK SMILES IDX 3 1 4 2 5 3 6 4 7 5 8 6 2 7 1 8 9 9
REMARK H PARENT 9 10
REMARK Flexibility Score: inf
ROOT
ATOM      1  C   UNL     1      -5.818   6.883  -3.183  1.00  0.00     0.160 A 
ATOM      2  C   UNL     1      -5.111   7.939  -2.572  1.00  0.00     0.050 A 
ATOM      3  C   UNL     1      -5.785   9.089  -2.151  1.00  0.00     0.004 A 
ATOM      4  C   UNL     1      -7.165   9.198  -2.333  1.00  0.00     0.004 A 
ATOM      5  C   UNL     1      -7.875   8.158  -2.938  1.00  0.00     0.050 A 
ATOM      6  C   UNL     1      -7.206   7.002  -3.363  1.00  0.00     0.157 A 
ENDROOT
BRANCH   1   7
ATOM      7  O   UNL     1      -5.183   5.712  -3.622  1.00  0.00    -0.493 OA
ATOM      8  C   UNL     1      -3.787   5.602  -3.883  1.00  0.00     0.278 C 
ENDBRANCH   1   7
BRANCH   6   9
ATOM      9  O   UNL     1      -7.912   5.963  -3.967  1.00  0.00    -0.504 OA
ATOM     10  H   UNL     1      -8.413   6.099  -4.837  1.00  0.00     0.293 HD
ENDBRANCH   6   9
TORSDOF 2
ENDMDL
MODEL 9
REMARK VINA RESULT:    -3.461     13.981     15.269
REMARK INTER + INTRA:          -3.806
REMARK INTER:                  -3.761
REMARK INTRA:                  -0.045
REMARK UNBOUND:                -0.042
REMARK SMILES COc1ccccc1O
REMARK SMILES IDX 3 1 4 2 5 3 6 4 7 5 8 6 2 7 1 8 9 9
REMARK H PARENT 9 10
REMARK Flexibility Score: inf
ROOT
ATOM      1  C   UNL     1       4.209   2.860   5.806  1.00  0.00     0.160 A 
ATOM      2  C   UNL     1       5.141   3.511   6.640  1.00  0.00     0.050 A 
ATOM      3  C   UNL     1       5.340   4.891   6.533  1.00  0.00     0.004 A 
ATOM      4  C   UNL     1       4.615   5.632   5.598  1.00  0.00     0.004 A 
ATOM      5  C   UNL     1       3.689   4.997   4.768  1.00  0.00     0.050 A 
ATOM      6  C   UNL     1       3.484   3.613   4.868  1.00  0.00     0.157 A 
ENDROOT
BRANCH   1   7
ATOM      7  O   UNL     1       3.977   1.478   5.878  1.00  0.00    -0.493 OA
ATOM      8  C   UNL     1       3.340   0.825   6.972  1.00  0.00     0.278 C 
ENDBRANCH   1   7
BRANCH   6   9
ATOM      9  O   UNL     1       2.561   2.977   4.041  1.00  0.00    -0.504 OA
ATOM     10  H   UNL     1       1.617   3.329   3.931  1.00  0.00     0.293 HD
ENDBRANCH   6   9
TORSDOF 2
ENDMDL
