MODEL 1
REMARK VINA RESULT:    -8.682      0.000      0.000
REMARK INTER + INTRA:         -13.120
REMARK INTER:                 -11.981
REMARK INTRA:                  -1.139
REMARK UNBOUND:                -1.139
REMARK SMILES O=C([O-])[C@@H]1O[C@@H](Oc2cc3oc(-c4ccccc4)cc(=O)c3c(O)c2O)[C@H](O)[C@@H](O)[C@H]1O
REMARK SMILES IDX 7 1 6 2 4 3 31 4 5 5 29 6 27 7 2 8 1 9 3 10 32 11 30 13
REMARK SMILES IDX 28 15 8 17 25 18 9 19 23 20 10 21 22 22 11 23 20 24 12 25
REMARK SMILES IDX 19 26 21 27 26 28 24 30 13 32 14 33 18 34 15 35 17 36 16 37
REMARK H PARENT 32 12 30 14 28 16 26 29 24 31
REMARK Flexibility Score: inf
ROOT
ATOM      1  O   UNL     1      59.081  -2.848   2.532  1.00  0.00    -0.458 OA
ENDROOT
BRANCH   1   2
ATOM      2  C   UNL     1      57.920  -2.712   3.356  1.00  0.00     0.339 C 
ATOM      3  C   UNL     1      57.017  -3.483   5.426  1.00  0.00     0.199 C 
ATOM      4  C   UNL     1      55.709  -2.814   4.909  1.00  0.00     0.180 C 
ATOM      5  O   UNL     1      58.110  -3.521   4.502  1.00  0.00    -0.328 OA
ATOM      6  C   UNL     1      55.414  -3.227   3.453  1.00  0.00     0.181 C 
ATOM      7  C   UNL     1      56.692  -3.255   2.581  1.00  0.00     0.214 C 
BRANCH   3   8
ATOM      8  C   UNL     1      57.465  -2.828   6.703  1.00  0.00     0.073 C 
ATOM      9  O   UNL     1      56.790  -2.961   7.762  1.00  0.00    -0.547 OA
ATOM     10  O   UNL     1      58.673  -2.142   6.739  1.00  0.00    -0.547 OA
ENDBRANCH   3   8
BRANCH   4  11
ATOM     11  O   UNL     1      54.618  -3.181   5.725  1.00  0.00    -0.387 OA
ATOM     12  H   UNL     1      54.975  -3.362   6.636  1.00  0.00     0.211 HD
ENDBRANCH   4  11
BRANCH   6  13
ATOM     13  O   UNL     1      54.787  -4.488   3.430  1.00  0.00    -0.387 OA
ATOM     14  H   UNL     1      55.398  -5.102   2.943  1.00  0.00     0.211 HD
ENDBRANCH   6  13
BRANCH   7  15
ATOM     15  O   UNL     1      56.473  -2.553   1.380  1.00  0.00    -0.384 OA
ATOM     16  H   UNL     1      55.494  -2.369   1.323  1.00  0.00     0.211 HD
ENDBRANCH   7  15
ENDBRANCH   1   2
BRANCH   1  17
ATOM     17  C   UNL     1      60.322  -2.167   2.594  1.00  0.00     0.172 A 
ATOM     18  C   UNL     1      61.475  -2.405   1.785  1.00  0.00     0.201 A 
ATOM     19  C   UNL     1      60.373  -1.138   3.542  1.00  0.00     0.098 A 
ATOM     20  C   UNL     1      62.602  -1.555   1.902  1.00  0.00     0.176 A 
ATOM     21  C   UNL     1      61.498  -0.329   3.692  1.00  0.00     0.146 A 
ATOM     22  C   UNL     1      62.623  -0.520   2.867  1.00  0.00     0.111 A 
ATOM     23  O   UNL     1      61.496   0.617   4.626  1.00  0.00    -0.456 OA
ATOM     24  C   UNL     1      63.740   0.317   3.080  1.00  0.00     0.197 A 
ATOM     25  C   UNL     1      62.529   1.427   4.855  1.00  0.00     0.138 A 
ATOM     26  C   UNL     1      63.693   1.291   4.079  1.00  0.00     0.100 A 
ATOM     27  O   UNL     1      64.793   0.197   2.398  1.00  0.00    -0.289 OA
BRANCH  18  28
ATOM     28  O   UNL     1      61.581  -3.466   0.885  1.00  0.00    -0.502 OA
ATOM     29  H   UNL     1      62.194  -4.257   1.009  1.00  0.00     0.293 HD
ENDBRANCH  18  28
BRANCH  20  30
ATOM     30  O   UNL     1      63.713  -1.755   1.074  1.00  0.00    -0.504 OA
ATOM     31  H   UNL     1      64.156  -1.002   0.564  1.00  0.00     0.293 HD
ENDBRANCH  20  30
BRANCH  25  32
ATOM     32  C   UNL     1      62.424   2.431   5.946  1.00  0.00     0.017 A 
ATOM     33  C   UNL     1      61.240   3.183   6.077  1.00  0.00     0.012 A 
ATOM     34  C   UNL     1      63.485   2.676   6.841  1.00  0.00     0.012 A 
ATOM     35  C   UNL     1      61.109   4.126   7.102  1.00  0.00     0.001 A 
ATOM     36  C   UNL     1      63.347   3.620   7.863  1.00  0.00     0.001 A 
ATOM     37  C   UNL     1      62.159   4.340   7.998  1.00  0.00     0.000 A 
ENDBRANCH  25  32
ENDBRANCH   1  17
TORSDOF 9
ENDMDL
MODEL 2
REMARK VINA RESULT:    -7.790      4.280      9.185
REMARK INTER + INTRA:         -11.888
REMARK INTER:                 -10.789
REMARK INTRA:                  -1.100
REMARK UNBOUND:                -1.139
REMARK SMILES O=C([O-])[C@@H]1O[C@@H](Oc2cc3oc(-c4ccccc4)cc(=O)c3c(O)c2O)[C@H](O)[C@@H](O)[C@H]1O
REMARK SMILES IDX 7 1 6 2 4 3 31 4 5 5 29 6 27 7 2 8 1 9 3 10 32 11 30 13
REMARK SMILES IDX 28 15 8 17 25 18 9 19 23 20 10 21 22 22 11 23 20 24 12 25
REMARK SMILES IDX 19 26 21 27 26 28 24 30 13 32 14 33 18 34 15 35 17 36 16 37
REMARK H PARENT 32 12 30 14 28 16 26 29 24 31
REMARK Flexibility Score: inf
ROOT
ATOM      1  O   UNL     1      64.077   3.115  -1.347  1.00  0.00    -0.458 OA
ENDROOT
BRANCH   1   2
ATOM      2  C   UNL     1      65.486   3.220  -1.573  1.00  0.00     0.339 C 
ATOM      3  C   UNL     1      67.513   2.006  -1.232  1.00  0.00     0.199 C 
ATOM      4  C   UNL     1      68.186   3.346  -1.651  1.00  0.00     0.180 C 
ATOM      5  O   UNL     1      66.090   2.041  -1.072  1.00  0.00    -0.328 OA
ATOM      6  C   UNL     1      67.571   4.538  -0.888  1.00  0.00     0.181 C 
ATOM      7  C   UNL     1      66.033   4.424  -0.765  1.00  0.00     0.214 C 
BRANCH   3   8
ATOM      8  C   UNL     1      67.879   0.917  -2.200  1.00  0.00     0.073 C 
ATOM      9  O   UNL     1      68.379   1.201  -3.324  1.00  0.00    -0.547 OA
ATOM     10  O   UNL     1      67.746  -0.414  -1.824  1.00  0.00    -0.547 OA
ENDBRANCH   3   8
BRANCH   4  11
ATOM     11  O   UNL     1      69.572   3.298  -1.394  1.00  0.00    -0.387 OA
ATOM     12  H   UNL     1      69.794   4.074  -0.811  1.00  0.00     0.211 HD
ENDBRANCH   4  11
BRANCH   6  13
ATOM     13  O   UNL     1      68.151   4.638   0.392  1.00  0.00    -0.387 OA
ATOM     14  H   UNL     1      68.520   5.557   0.468  1.00  0.00     0.211 HD
ENDBRANCH   6  13
BRANCH   7  15
ATOM     15  O   UNL     1      65.427   5.636  -1.148  1.00  0.00    -0.384 OA
ATOM     16  H   UNL     1      64.442   5.516  -1.048  1.00  0.00     0.211 HD
ENDBRANCH   7  15
ENDBRANCH   1   2
BRANCH   1  17
ATOM     17  C   UNL     1      63.364   2.290  -0.443  1.00  0.00     0.172 A 
ATOM     18  C   UNL     1      62.699   1.060  -0.741  1.00  0.00     0.201 A 
ATOM     19  C   UNL     1      63.356   2.746   0.880  1.00  0.00     0.098 A 
ATOM     20  C   UNL     1      62.125   0.300   0.306  1.00  0.00     0.176 A 
ATOM     21  C   UNL     1      62.751   2.024   1.907  1.00  0.00     0.146 A 
ATOM     22  C   UNL     1      62.137   0.787   1.635  1.00  0.00     0.111 A 
ATOM     23  O   UNL     1      62.757   2.521   3.140  1.00  0.00    -0.456 OA
ATOM     24  C   UNL     1      61.523   0.111   2.713  1.00  0.00     0.197 A 
ATOM     25  C   UNL     1      62.191   1.912   4.182  1.00  0.00     0.138 A 
ATOM     26  C   UNL     1      61.548   0.678   3.988  1.00  0.00     0.100 A 
ATOM     27  O   UNL     1      60.933  -0.991   2.549  1.00  0.00    -0.289 OA
BRANCH  18  28
ATOM     28  O   UNL     1      62.547   0.560  -2.035  1.00  0.00    -0.502 OA
ATOM     29  H   UNL     1      63.133   0.815  -2.815  1.00  0.00     0.293 HD
ENDBRANCH  18  28
BRANCH  20  30
ATOM     30  O   UNL     1      61.518  -0.929   0.023  1.00  0.00    -0.504 OA
ATOM     31  H   UNL     1      60.663  -1.005  -0.513  1.00  0.00     0.293 HD
ENDBRANCH  20  30
BRANCH  25  32
ATOM     32  C   UNL     1      62.235   2.576   5.510  1.00  0.00     0.017 A 
ATOM     33  C   UNL     1      63.376   2.417   6.321  1.00  0.00     0.012 A 
ATOM     34  C   UNL     1      61.157   3.340   6.000  1.00  0.00     0.012 A 
ATOM     35  C   UNL     1      63.449   3.041   7.571  1.00  0.00     0.001 A 
ATOM     36  C   UNL     1      61.237   3.961   7.251  1.00  0.00     0.001 A 
ATOM     37  C   UNL     1      62.384   3.816   8.033  1.00  0.00     0.000 A 
ENDBRANCH  25  32
ENDBRANCH   1  17
TORSDOF 9
ENDMDL
MODEL 3
REMARK VINA RESULT:    -7.739      4.349      9.123
REMARK INTER + INTRA:         -11.819
REMARK INTER:                 -10.480
REMARK INTRA:                  -1.339
REMARK UNBOUND:                -1.139
REMARK SMILES O=C([O-])[C@@H]1O[C@@H](Oc2cc3oc(-c4ccccc4)cc(=O)c3c(O)c2O)[C@H](O)[C@@H](O)[C@H]1O
REMARK SMILES IDX 7 1 6 2 4 3 31 4 5 5 29 6 27 7 2 8 1 9 3 10 32 11 30 13
REMARK SMILES IDX 28 15 8 17 25 18 9 19 23 20 10 21 22 22 11 23 20 24 12 25
REMARK SMILES IDX 19 26 21 27 26 28 24 30 13 32 14 33 18 34 15 35 17 36 16 37
REMARK H PARENT 32 12 30 14 28 16 26 29 24 31
REMARK Flexibility Score: inf
ROOT
ATOM      1  O   UNL     1      63.248   2.786  -1.097  1.00  0.00    -0.458 OA
ENDROOT
BRANCH   1   2
ATOM      2  C   UNL     1      64.258   3.682  -0.623  1.00  0.00     0.339 C 
ATOM      3  C   UNL     1      64.503   5.723   0.589  1.00  0.00     0.199 C 
ATOM      4  C   UNL     1      65.981   5.633   0.105  1.00  0.00     0.180 C 
ATOM      5  O   UNL     1      63.609   4.741   0.055  1.00  0.00    -0.328 OA
ATOM      6  C   UNL     1      66.053   5.331  -1.405  1.00  0.00     0.181 C 
ATOM      7  C   UNL     1      65.008   4.276  -1.842  1.00  0.00     0.214 C 
BRANCH   3   8
ATOM      8  C   UNL     1      64.446   5.687   2.090  1.00  0.00     0.073 C 
ATOM      9  O   UNL     1      65.034   6.571   2.774  1.00  0.00    -0.547 OA
ATOM     10  O   UNL     1      63.671   4.727   2.728  1.00  0.00    -0.547 OA
ENDBRANCH   3   8
BRANCH   4  11
ATOM     11  O   UNL     1      66.655   6.845   0.368  1.00  0.00    -0.387 OA
ATOM     12  H   UNL     1      65.998   7.583   0.243  1.00  0.00     0.211 HD
ENDBRANCH   4  11
BRANCH   6  13
ATOM     13  O   UNL     1      65.876   6.518  -2.141  1.00  0.00    -0.387 OA
ATOM     14  H   UNL     1      65.154   7.030  -1.689  1.00  0.00     0.211 HD
ENDBRANCH   6  13
BRANCH   7  15
ATOM     15  O   UNL     1      65.624   3.280  -2.622  1.00  0.00    -0.384 OA
ATOM     16  H   UNL     1      64.965   3.001  -3.317  1.00  0.00     0.211 HD
ENDBRANCH   7  15
ENDBRANCH   1   2
BRANCH   1  17
ATOM     17  C   UNL     1      63.111   1.389  -0.901  1.00  0.00     0.172 A 
ATOM     18  C   UNL     1      63.742   0.349  -1.651  1.00  0.00     0.201 A 
ATOM     19  C   UNL     1      62.283   1.030   0.169  1.00  0.00     0.098 A 
ATOM     20  C   UNL     1      63.584  -1.000  -1.252  1.00  0.00     0.176 A 
ATOM     21  C   UNL     1      62.088  -0.300   0.537  1.00  0.00     0.146 A 
ATOM     22  C   UNL     1      62.744  -1.331  -0.162  1.00  0.00     0.111 A 
ATOM     23  O   UNL     1      61.272  -0.579   1.549  1.00  0.00    -0.456 OA
ATOM     24  C   UNL     1      62.490  -2.659   0.245  1.00  0.00     0.197 A 
ATOM     25  C   UNL     1      61.010  -1.819   1.962  1.00  0.00     0.138 A 
ATOM     26  C   UNL     1      61.619  -2.903   1.307  1.00  0.00     0.100 A 
ATOM     27  O   UNL     1      63.022  -3.641  -0.343  1.00  0.00    -0.289 OA
BRANCH  18  28
ATOM     28  O   UNL     1      64.499   0.579  -2.801  1.00  0.00    -0.502 OA
ATOM     29  H   UNL     1      64.615  -0.089  -3.547  1.00  0.00     0.293 HD
ENDBRANCH  18  28
BRANCH  20  30
ATOM     30  O   UNL     1      64.243  -2.015  -1.954  1.00  0.00    -0.504 OA
ATOM     31  H   UNL     1      64.034  -2.996  -1.819  1.00  0.00     0.293 HD
ENDBRANCH  20  30
BRANCH  25  32
ATOM     32  C   UNL     1      60.058  -2.013   3.087  1.00  0.00     0.017 A 
ATOM     33  C   UNL     1      58.845  -2.690   2.851  1.00  0.00     0.012 A 
ATOM     34  C   UNL     1      60.317  -1.516   4.379  1.00  0.00     0.012 A 
ATOM     35  C   UNL     1      57.935  -2.897   3.893  1.00  0.00     0.001 A 
ATOM     36  C   UNL     1      59.403  -1.727   5.416  1.00  0.00     0.001 A 
ATOM     37  C   UNL     1      58.216  -2.422   5.176  1.00  0.00     0.000 A 
ENDBRANCH  25  32
ENDBRANCH   1  17
TORSDOF 9
ENDMDL
MODEL 4
REMARK VINA RESULT:    -7.657      3.930      8.236
REMARK INTER + INTRA:         -11.706
REMARK INTER:                 -10.612
REMARK INTRA:                  -1.094
REMARK UNBOUND:                -1.139
REMARK SMILES O=C([O-])[C@@H]1O[C@@H](Oc2cc3oc(-c4ccccc4)cc(=O)c3c(O)c2O)[C@H](O)[C@@H](O)[C@H]1O
REMARK SMILES IDX 7 1 6 2 4 3 31 4 5 5 29 6 27 7 2 8 1 9 3 10 32 11 30 13
REMARK SMILES IDX 28 15 8 17 25 18 9 19 23 20 10 21 22 22 11 23 20 24 12 25
REMARK SMILES IDX 19 26 21 27 26 28 24 30 13 32 14 33 18 34 15 35 17 36 16 37
REMARK H PARENT 32 12 30 14 28 16 26 29 24 31
REMARK Flexibility Score: inf
ROOT
ATOM      1  O   UNL     1      63.622   0.775  -1.080  1.00  0.00    -0.458 OA
ENDROOT
BRANCH   1   2
ATOM      2  C   UNL     1      64.529   1.875  -1.204  1.00  0.00     0.339 C 
ATOM      3  C   UNL     1      64.549   4.213  -1.682  1.00  0.00     0.199 C 
ATOM      4  C   UNL     1      66.091   4.010  -1.759  1.00  0.00     0.180 C 
ATOM      5  O   UNL     1      63.767   3.024  -1.527  1.00  0.00    -0.328 OA
ATOM      6  C   UNL     1      66.447   2.789  -2.632  1.00  0.00     0.181 C 
ATOM      7  C   UNL     1      65.498   1.592  -2.379  1.00  0.00     0.214 C 
BRANCH   3   8
ATOM      8  C   UNL     1      64.209   5.182  -0.585  1.00  0.00     0.073 C 
ATOM      9  O   UNL     1      63.610   4.787   0.455  1.00  0.00    -0.547 OA
ATOM     10  O   UNL     1      64.630   6.503  -0.676  1.00  0.00    -0.547 OA
ENDBRANCH   3   8
BRANCH   4  11
ATOM     11  O   UNL     1      66.709   5.159  -2.297  1.00  0.00    -0.387 OA
ATOM     12  H   UNL     1      67.626   4.896  -2.584  1.00  0.00     0.211 HD
ENDBRANCH   4  11
BRANCH   6  13
ATOM     13  O   UNL     1      66.418   3.147  -3.993  1.00  0.00    -0.387 OA
ATOM     14  H   UNL     1      65.461   3.201  -4.255  1.00  0.00     0.211 HD
ENDBRANCH   6  13
BRANCH   7  15
ATOM     15  O   UNL     1      66.247   0.417  -2.176  1.00  0.00    -0.384 OA
ATOM     16  H   UNL     1      65.867  -0.038  -1.375  1.00  0.00     0.211 HD
ENDBRANCH   7  15
ENDBRANCH   1   2
BRANCH   1  17
ATOM     17  C   UNL     1      62.932   0.293   0.060  1.00  0.00     0.172 A 
ATOM     18  C   UNL     1      62.193  -0.926   0.166  1.00  0.00     0.201 A 
ATOM     19  C   UNL     1      63.035   1.110   1.191  1.00  0.00     0.098 A 
ATOM     20  C   UNL     1      61.654  -1.313   1.416  1.00  0.00     0.176 A 
ATOM     21  C   UNL     1      62.466   0.754   2.413  1.00  0.00     0.146 A 
ATOM     22  C   UNL     1      61.777  -0.466   2.544  1.00  0.00     0.111 A 
ATOM     23  O   UNL     1      62.577   1.584   3.445  1.00  0.00    -0.456 OA
ATOM     24  C   UNL     1      61.206  -0.762   3.801  1.00  0.00     0.197 A 
ATOM     25  C   UNL     1      62.054   1.338   4.646  1.00  0.00     0.138 A 
ATOM     26  C   UNL     1      61.342   0.145   4.853  1.00  0.00     0.100 A 
ATOM     27  O   UNL     1      60.555  -1.825   3.995  1.00  0.00    -0.289 OA
BRANCH  18  28
ATOM     28  O   UNL     1      61.931  -1.766  -0.917  1.00  0.00    -0.502 OA
ATOM     29  H   UNL     1      62.386  -1.694  -1.814  1.00  0.00     0.293 HD
ENDBRANCH  18  28
BRANCH  20  30
ATOM     30  O   UNL     1      60.973  -2.530   1.534  1.00  0.00    -0.504 OA
ATOM     31  H   UNL     1      60.710  -2.925   2.428  1.00  0.00     0.293 HD
ENDBRANCH  20  30
BRANCH  25  32
ATOM     32  C   UNL     1      62.217   2.353   5.720  1.00  0.00     0.017 A 
ATOM     33  C   UNL     1      61.105   3.127   6.109  1.00  0.00     0.012 A 
ATOM     34  C   UNL     1      63.458   2.587   6.345  1.00  0.00     0.012 A 
ATOM     35  C   UNL     1      61.228   4.081   7.125  1.00  0.00     0.001 A 
ATOM     36  C   UNL     1      63.572   3.542   7.360  1.00  0.00     0.001 A 
ATOM     37  C   UNL     1      62.458   4.284   7.754  1.00  0.00     0.000 A 
ENDBRANCH  25  32
ENDBRANCH   1  17
TORSDOF 9
ENDMDL
MODEL 5
REMARK VINA RESULT:    -7.623      4.032      5.962
REMARK INTER + INTRA:         -11.658
REMARK INTER:                 -10.517
REMARK INTRA:                  -1.142
REMARK UNBOUND:                -1.139
REMARK SMILES O=C([O-])[C@@H]1O[C@@H](Oc2cc3oc(-c4ccccc4)cc(=O)c3c(O)c2O)[C@H](O)[C@@H](O)[C@H]1O
REMARK SMILES IDX 7 1 6 2 4 3 31 4 5 5 29 6 27 7 2 8 1 9 3 10 32 11 30 13
REMARK SMILES IDX 28 15 8 17 25 18 9 19 23 20 10 21 22 22 11 23 20 24 12 25
REMARK SMILES IDX 19 26 21 27 26 28 24 30 13 32 14 33 18 34 15 35 17 36 16 37
REMARK H PARENT 32 12 30 14 28 16 26 29 24 31
REMARK Flexibility Score: inf
ROOT
ATOM      1  O   UNL     1      62.109  -2.805   2.258  1.00  0.00    -0.458 OA
ENDROOT
BRANCH   1   2
ATOM      2  C   UNL     1      62.918  -3.729   1.524  1.00  0.00     0.339 C 
ATOM      3  C   UNL     1      64.700  -3.774  -0.064  1.00  0.00     0.199 C 
ATOM      4  C   UNL     1      64.351  -5.289  -0.156  1.00  0.00     0.180 C 
ATOM      5  O   UNL     1      63.818  -2.975   0.732  1.00  0.00    -0.328 OA
ATOM      6  C   UNL     1      62.832  -5.499  -0.323  1.00  0.00     0.181 C 
ATOM      7  C   UNL     1      62.007  -4.546   0.574  1.00  0.00     0.214 C 
BRANCH   3   8
ATOM      8  C   UNL     1      66.110  -3.596   0.422  1.00  0.00     0.073 C 
ATOM      9  O   UNL     1      67.070  -4.156  -0.177  1.00  0.00    -0.547 OA
ATOM     10  O   UNL     1      66.371  -2.740   1.486  1.00  0.00    -0.547 OA
ENDBRANCH   3   8
BRANCH   4  11
ATOM     11  O   UNL     1      65.023  -5.879  -1.247  1.00  0.00    -0.387 OA
ATOM     12  H   UNL     1      64.522  -5.634  -2.072  1.00  0.00     0.211 HD
ENDBRANCH   4  11
BRANCH   6  13
ATOM     13  O   UNL     1      62.470  -5.326  -1.672  1.00  0.00    -0.387 OA
ATOM     14  H   UNL     1      61.516  -5.594  -1.750  1.00  0.00     0.211 HD
ENDBRANCH   6  13
BRANCH   7  15
ATOM     15  O   UNL     1      61.026  -5.272   1.277  1.00  0.00    -0.384 OA
ATOM     16  H   UNL     1      61.438  -5.564   2.137  1.00  0.00     0.211 HD
ENDBRANCH   7  15
ENDBRANCH   1   2
BRANCH   1  17
ATOM     17  C   UNL     1      62.047  -1.392   2.179  1.00  0.00     0.172 A 
ATOM     18  C   UNL     1      61.799  -0.606   1.012  1.00  0.00     0.201 A 
ATOM     19  C   UNL     1      62.223  -0.733   3.401  1.00  0.00     0.098 A 
ATOM     20  C   UNL     1      61.660   0.798   1.128  1.00  0.00     0.176 A 
ATOM     21  C   UNL     1      62.132   0.654   3.511  1.00  0.00     0.146 A 
ATOM     22  C   UNL     1      61.840   1.436   2.379  1.00  0.00     0.111 A 
ATOM     23  O   UNL     1      62.332   1.224   4.696  1.00  0.00    -0.456 OA
ATOM     24  C   UNL     1      61.780   2.837   2.549  1.00  0.00     0.197 A 
ATOM     25  C   UNL     1      62.282   2.541   4.896  1.00  0.00     0.138 A 
ATOM     26  C   UNL     1      62.006   3.390   3.811  1.00  0.00     0.100 A 
ATOM     27  O   UNL     1      61.544   3.609   1.581  1.00  0.00    -0.289 OA
BRANCH  18  28
ATOM     28  O   UNL     1      61.716  -1.141  -0.274  1.00  0.00    -0.502 OA
ATOM     29  H   UNL     1      61.312  -0.661  -1.064  1.00  0.00     0.293 HD
ENDBRANCH  18  28
BRANCH  20  30
ATOM     30  O   UNL     1      61.367   1.565  -0.006  1.00  0.00    -0.504 OA
ATOM     31  H   UNL     1      61.359   1.176  -0.940  1.00  0.00     0.293 HD
ENDBRANCH  20  30
BRANCH  25  32
ATOM     32  C   UNL     1      62.551   3.069   6.259  1.00  0.00     0.017 A 
ATOM     33  C   UNL     1      61.591   3.895   6.878  1.00  0.00     0.012 A 
ATOM     34  C   UNL     1      63.750   2.792   6.945  1.00  0.00     0.012 A 
ATOM     35  C   UNL     1      61.813   4.396   8.165  1.00  0.00     0.001 A 
ATOM     36  C   UNL     1      63.965   3.297   8.231  1.00  0.00     0.001 A 
ATOM     37  C   UNL     1      62.995   4.093   8.843  1.00  0.00     0.000 A 
ENDBRANCH  25  32
ENDBRANCH   1  17
TORSDOF 9
ENDMDL
MODEL 6
REMARK VINA RESULT:    -7.617      4.384      9.521
REMARK INTER + INTRA:         -11.650
REMARK INTER:                 -10.335
REMARK INTRA:                  -1.315
REMARK UNBOUND:                -1.139
REMARK SMILES O=C([O-])[C@@H]1O[C@@H](Oc2cc3oc(-c4ccccc4)cc(=O)c3c(O)c2O)[C@H](O)[C@@H](O)[C@H]1O
REMARK SMILES IDX 7 1 6 2 4 3 31 4 5 5 29 6 27 7 2 8 1 9 3 10 32 11 30 13
REMARK SMILES IDX 28 15 8 17 25 18 9 19 23 20 10 21 22 22 11 23 20 24 12 25
REMARK SMILES IDX 19 26 21 27 26 28 24 30 13 32 14 33 18 34 15 35 17 36 16 37
REMARK H PARENT 32 12 30 14 28 16 26 29 24 31
REMARK Flexibility Score: inf
ROOT
ATOM      1  O   UNL     1      63.245   3.024  -0.855  1.00  0.00    -0.458 OA
ENDROOT
BRANCH   1   2
ATOM      2  C   UNL     1      64.436   3.815  -0.924  1.00  0.00     0.339 C 
ATOM      3  C   UNL     1      66.807   3.613  -0.745  1.00  0.00     0.199 C 
ATOM      4  C   UNL     1      66.768   5.170  -0.733  1.00  0.00     0.180 C 
ATOM      5  O   UNL     1      65.537   2.953  -0.704  1.00  0.00    -0.328 OA
ATOM      6  C   UNL     1      65.712   5.690   0.264  1.00  0.00     0.181 C 
ATOM      7  C   UNL     1      64.406   4.861   0.219  1.00  0.00     0.214 C 
BRANCH   3   8
ATOM      8  C   UNL     1      67.586   3.123  -1.933  1.00  0.00     0.073 C 
ATOM      9  O   UNL     1      68.846   3.195  -1.947  1.00  0.00    -0.547 OA
ATOM     10  O   UNL     1      66.921   2.509  -2.988  1.00  0.00    -0.547 OA
ENDBRANCH   3   8
BRANCH   4  11
ATOM     11  O   UNL     1      68.032   5.687  -0.381  1.00  0.00    -0.387 OA
ATOM     12  H   UNL     1      68.290   5.275   0.488  1.00  0.00     0.211 HD
ENDBRANCH   4  11
BRANCH   6  13
ATOM     13  O   UNL     1      66.242   5.686   1.568  1.00  0.00    -0.387 OA
ATOM     14  H   UNL     1      67.184   5.379   1.494  1.00  0.00     0.211 HD
ENDBRANCH   6  13
BRANCH   7  15
ATOM     15  O   UNL     1      63.294   5.719   0.122  1.00  0.00    -0.384 OA
ATOM     16  H   UNL     1      62.998   5.922   1.053  1.00  0.00     0.211 HD
ENDBRANCH   7  15
ENDBRANCH   1   2
BRANCH   1  17
ATOM     17  C   UNL     1      63.096   1.622  -0.724  1.00  0.00     0.172 A 
ATOM     18  C   UNL     1      63.696   0.613  -1.539  1.00  0.00     0.201 A 
ATOM     19  C   UNL     1      62.290   1.220   0.348  1.00  0.00     0.098 A 
ATOM     20  C   UNL     1      63.531  -0.752  -1.201  1.00  0.00     0.176 A 
ATOM     21  C   UNL     1      62.087  -0.124   0.655  1.00  0.00     0.146 A 
ATOM     22  C   UNL     1      62.713  -1.127  -0.109  1.00  0.00     0.111 A 
ATOM     23  O   UNL     1      61.292  -0.444   1.672  1.00  0.00    -0.456 OA
ATOM     24  C   UNL     1      62.453  -2.471   0.239  1.00  0.00     0.197 A 
ATOM     25  C   UNL     1      61.025  -1.699   2.031  1.00  0.00     0.138 A 
ATOM     26  C   UNL     1      61.604  -2.757   1.310  1.00  0.00     0.100 A 
ATOM     27  O   UNL     1      62.958  -3.429  -0.408  1.00  0.00    -0.289 OA
BRANCH  18  28
ATOM     28  O   UNL     1      64.428   0.889  -2.694  1.00  0.00    -0.502 OA
ATOM     29  H   UNL     1      64.097   1.466  -3.452  1.00  0.00     0.293 HD
ENDBRANCH  18  28
BRANCH  20  30
ATOM     30  O   UNL     1      64.160  -1.740  -1.968  1.00  0.00    -0.504 OA
ATOM     31  H   UNL     1      64.170  -2.715  -1.700  1.00  0.00     0.293 HD
ENDBRANCH  20  30
BRANCH  25  32
ATOM     32  C   UNL     1      60.098  -1.937   3.168  1.00  0.00     0.017 A 
ATOM     33  C   UNL     1      58.891  -2.627   2.937  1.00  0.00     0.012 A 
ATOM     34  C   UNL     1      60.373  -1.469   4.468  1.00  0.00     0.012 A 
ATOM     35  C   UNL     1      58.005  -2.876   3.991  1.00  0.00     0.001 A 
ATOM     36  C   UNL     1      59.483  -1.721   5.516  1.00  0.00     0.001 A 
ATOM     37  C   UNL     1      58.303  -2.429   5.280  1.00  0.00     0.000 A 
ENDBRANCH  25  32
ENDBRANCH   1  17
TORSDOF 9
ENDMDL
MODEL 7
REMARK VINA RESULT:    -7.531      2.565      8.027
REMARK INTER + INTRA:         -11.531
REMARK INTER:                 -10.494
REMARK INTRA:                  -1.037
REMARK UNBOUND:                -1.139
REMARK SMILES O=C([O-])[C@@H]1O[C@@H](Oc2cc3oc(-c4ccccc4)cc(=O)c3c(O)c2O)[C@H](O)[C@@H](O)[C@H]1O
REMARK SMILES IDX 7 1 6 2 4 3 31 4 5 5 29 6 27 7 2 8 1 9 3 10 32 11 30 13
REMARK SMILES IDX 28 15 8 17 25 18 9 19 23 20 10 21 22 22 11 23 20 24 12 25
REMARK SMILES IDX 19 26 21 27 26 28 24 30 13 32 14 33 18 34 15 35 17 36 16 37
REMARK H PARENT 32 12 30 14 28 16 26 29 24 31
REMARK Flexibility Score: inf
ROOT
ATOM      1  O   UNL     1      64.661   0.679   5.590  1.00  0.00    -0.458 OA
ENDROOT
BRANCH   1   2
ATOM      2  C   UNL     1      64.648   1.986   6.173  1.00  0.00     0.339 C 
ATOM      3  C   UNL     1      63.260   3.917   6.359  1.00  0.00     0.199 C 
ATOM      4  C   UNL     1      64.544   4.574   6.947  1.00  0.00     0.180 C 
ATOM      5  O   UNL     1      63.415   2.594   5.837  1.00  0.00    -0.328 OA
ATOM      6  C   UNL     1      65.772   4.283   6.060  1.00  0.00     0.181 C 
ATOM      7  C   UNL     1      65.788   2.824   5.543  1.00  0.00     0.214 C 
BRANCH   3   8
ATOM      8  C   UNL     1      62.159   3.925   7.382  1.00  0.00     0.073 C 
ATOM      9  O   UNL     1      60.994   3.549   7.071  1.00  0.00    -0.547 OA
ATOM     10  O   UNL     1      62.443   4.265   8.699  1.00  0.00    -0.547 OA
ENDBRANCH   3   8
BRANCH   4  11
ATOM     11  O   UNL     1      64.372   5.970   7.057  1.00  0.00    -0.387 OA
ATOM     12  H   UNL     1      65.270   6.388   6.960  1.00  0.00     0.211 HD
ENDBRANCH   4  11
BRANCH   6  13
ATOM     13  O   UNL     1      65.801   5.180   4.975  1.00  0.00    -0.387 OA
ATOM     14  H   UNL     1      65.578   6.077   5.338  1.00  0.00     0.211 HD
ENDBRANCH   6  13
BRANCH   7  15
ATOM     15  O   UNL     1      67.054   2.249   5.764  1.00  0.00    -0.384 OA
ATOM     16  H   UNL     1      67.608   2.931   6.235  1.00  0.00     0.211 HD
ENDBRANCH   7  15
ENDBRANCH   1   2
BRANCH   1  17
ATOM     17  C   UNL     1      63.792   0.107   4.628  1.00  0.00     0.172 A 
ATOM     18  C   UNL     1      64.049  -0.070   3.234  1.00  0.00     0.201 A 
ATOM     19  C   UNL     1      62.573  -0.347   5.144  1.00  0.00     0.098 A 
ATOM     20  C   UNL     1      63.112  -0.764   2.430  1.00  0.00     0.176 A 
ATOM     21  C   UNL     1      61.628  -0.990   4.346  1.00  0.00     0.146 A 
ATOM     22  C   UNL     1      61.889  -1.215   2.982  1.00  0.00     0.111 A 
ATOM     23  O   UNL     1      60.477  -1.378   4.889  1.00  0.00    -0.456 OA
ATOM     24  C   UNL     1      60.885  -1.853   2.221  1.00  0.00     0.197 A 
ATOM     25  C   UNL     1      59.508  -1.984   4.204  1.00  0.00     0.138 A 
ATOM     26  C   UNL     1      59.690  -2.235   2.833  1.00  0.00     0.100 A 
ATOM     27  O   UNL     1      61.032  -2.073   0.988  1.00  0.00    -0.289 OA
BRANCH  18  28
ATOM     28  O   UNL     1      65.177   0.436   2.587  1.00  0.00    -0.502 OA
ATOM     29  H   UNL     1      65.384   1.418   2.491  1.00  0.00     0.293 HD
ENDBRANCH  18  28
BRANCH  20  30
ATOM     30  O   UNL     1      63.385  -0.984   1.075  1.00  0.00    -0.504 OA
ATOM     31  H   UNL     1      62.717  -1.407   0.445  1.00  0.00     0.293 HD
ENDBRANCH  20  30
BRANCH  25  32
ATOM     32  C   UNL     1      58.252  -2.348   4.910  1.00  0.00     0.017 A 
ATOM     33  C   UNL     1      58.283  -2.560   6.303  1.00  0.00     0.012 A 
ATOM     34  C   UNL     1      57.032  -2.516   4.226  1.00  0.00     0.012 A 
ATOM     35  C   UNL     1      57.113  -2.892   6.994  1.00  0.00     0.001 A 
ATOM     36  C   UNL     1      55.867  -2.848   4.924  1.00  0.00     0.001 A 
ATOM     37  C   UNL     1      55.905  -3.030   6.307  1.00  0.00     0.000 A 
ENDBRANCH  25  32
ENDBRANCH   1  17
TORSDOF 9
ENDMDL
MODEL 8
REMARK VINA RESULT:    -7.507      1.693      3.022
REMARK INTER + INTRA:         -11.499
REMARK INTER:                 -10.156
REMARK INTRA:                  -1.342
REMARK UNBOUND:                -1.139
REMARK SMILES O=C([O-])[C@@H]1O[C@@H](Oc2cc3oc(-c4ccccc4)cc(=O)c3c(O)c2O)[C@H](O)[C@@H](O)[C@H]1O
REMARK SMILES IDX 7 1 6 2 4 3 31 4 5 5 29 6 27 7 2 8 1 9 3 10 32 11 30 13
REMARK SMILES IDX 28 15 8 17 25 18 9 19 23 20 10 21 22 22 11 23 20 24 12 25
REMARK SMILES IDX 19 26 21 27 26 28 24 30 13 32 14 33 18 34 15 35 17 36 16 37
REMARK H PARENT 32 12 30 14 28 16 26 29 24 31
REMARK Flexibility Score: inf
ROOT
ATOM      1  O   UNL     1      59.585  -2.280   5.209  1.00  0.00    -0.458 OA
ENDROOT
BRANCH   1   2
ATOM      2  C   UNL     1      58.239  -2.749   5.081  1.00  0.00     0.339 C 
ATOM      3  C   UNL     1      56.293  -2.447   3.733  1.00  0.00     0.199 C 
ATOM      4  C   UNL     1      55.601  -3.291   4.845  1.00  0.00     0.180 C 
ATOM      5  O   UNL     1      57.652  -2.073   3.984  1.00  0.00    -0.328 OA
ATOM      6  C   UNL     1      55.961  -2.761   6.248  1.00  0.00     0.181 C 
ATOM      7  C   UNL     1      57.453  -2.368   6.360  1.00  0.00     0.214 C 
BRANCH   3   8
ATOM      8  C   UNL     1      56.206  -3.158   2.413  1.00  0.00     0.073 C 
ATOM      9  O   UNL     1      57.185  -3.151   1.615  1.00  0.00    -0.547 OA
ATOM     10  O   UNL     1      55.073  -3.901   2.102  1.00  0.00    -0.547 OA
ENDBRANCH   3   8
BRANCH   4  11
ATOM     11  O   UNL     1      54.200  -3.257   4.682  1.00  0.00    -0.387 OA
ATOM     12  H   UNL     1      53.858  -4.175   4.859  1.00  0.00     0.211 HD
ENDBRANCH   4  11
BRANCH   6  13
ATOM     13  O   UNL     1      55.146  -1.658   6.567  1.00  0.00    -0.387 OA
ATOM     14  H   UNL     1      54.673  -1.400   5.732  1.00  0.00     0.211 HD
ENDBRANCH   6  13
BRANCH   7  15
ATOM     15  O   UNL     1      58.017  -2.938   7.517  1.00  0.00    -0.384 OA
ATOM     16  H   UNL     1      57.979  -2.246   8.234  1.00  0.00     0.211 HD
ENDBRANCH   7  15
ENDBRANCH   1   2
BRANCH   1  17
ATOM     17  C   UNL     1      60.364  -1.506   4.314  1.00  0.00     0.172 A 
ATOM     18  C   UNL     1      60.542  -1.731   2.914  1.00  0.00     0.201 A 
ATOM     19  C   UNL     1      60.986  -0.395   4.895  1.00  0.00     0.098 A 
ATOM     20  C   UNL     1      61.269  -0.794   2.140  1.00  0.00     0.176 A 
ATOM     21  C   UNL     1      61.740   0.505   4.144  1.00  0.00     0.146 A 
ATOM     22  C   UNL     1      61.883   0.323   2.755  1.00  0.00     0.111 A 
ATOM     23  O   UNL     1      62.326   1.529   4.757  1.00  0.00    -0.456 OA
ATOM     24  C   UNL     1      62.675   1.256   2.052  1.00  0.00     0.197 A 
ATOM     25  C   UNL     1      63.079   2.430   4.127  1.00  0.00     0.138 A 
ATOM     26  C   UNL     1      63.277   2.310   2.741  1.00  0.00     0.100 A 
ATOM     27  O   UNL     1      62.870   1.152   0.810  1.00  0.00    -0.289 OA
BRANCH  18  28
ATOM     28  O   UNL     1      60.063  -2.859   2.247  1.00  0.00    -0.502 OA
ATOM     29  H   UNL     1      59.172  -3.293   2.433  1.00  0.00     0.293 HD
ENDBRANCH  18  28
BRANCH  20  30
ATOM     30  O   UNL     1      61.401  -0.986   0.760  1.00  0.00    -0.504 OA
ATOM     31  H   UNL     1      60.607  -1.011   0.133  1.00  0.00     0.293 HD
ENDBRANCH  20  30
BRANCH  25  32
ATOM     32  C   UNL     1      63.708   3.518   4.920  1.00  0.00     0.017 A 
ATOM     33  C   UNL     1      63.505   3.558   6.314  1.00  0.00     0.012 A 
ATOM     34  C   UNL     1      64.480   4.531   4.318  1.00  0.00     0.012 A 
ATOM     35  C   UNL     1      64.095   4.564   7.087  1.00  0.00     0.001 A 
ATOM     36  C   UNL     1      65.067   5.534   5.098  1.00  0.00     0.001 A 
ATOM     37  C   UNL     1      64.880   5.547   6.480  1.00  0.00     0.000 A 
ENDBRANCH  25  32
ENDBRANCH   1  17
TORSDOF 9
ENDMDL
MODEL 9
REMARK VINA RESULT:    -7.338      4.561      6.674
REMARK INTER + INTRA:         -11.265
REMARK INTER:                 -10.041
REMARK INTRA:                  -1.224
REMARK UNBOUND:                -1.139
REMARK SMILES O=C([O-])[C@@H]1O[C@@H](Oc2cc3oc(-c4ccccc4)cc(=O)c3c(O)c2O)[C@H](O)[C@@H](O)[C@H]1O
REMARK SMILES IDX 7 1 6 2 4 3 31 4 5 5 29 6 27 7 2 8 1 9 3 10 32 11 30 13
REMARK SMILES IDX 28 15 8 17 25 18 9 19 23 20 10 21 22 22 11 23 20 24 12 25
REMARK SMILES IDX 19 26 21 27 26 28 24 30 13 32 14 33 18 34 15 35 17 36 16 37
REMARK H PARENT 32 12 30 14 28 16 26 29 24 31
REMARK Flexibility Score: inf
ROOT
ATOM      1  O   UNL     1      62.143  -1.221   0.315  1.00  0.00    -0.458 OA
ENDROOT
BRANCH   1   2
ATOM      2  C   UNL     1      63.029  -2.321   0.089  1.00  0.00     0.339 C 
ATOM      3  C   UNL     1      64.575  -3.152  -1.528  1.00  0.00     0.199 C 
ATOM      4  C   UNL     1      64.536  -4.439  -0.653  1.00  0.00     0.180 C 
ATOM      5  O   UNL     1      63.652  -2.119  -1.166  1.00  0.00    -0.328 OA
ATOM      6  C   UNL     1      63.084  -4.846  -0.330  1.00  0.00     0.181 C 
ATOM      7  C   UNL     1      62.196  -3.625   0.010  1.00  0.00     0.214 C 
BRANCH   3   8
ATOM      8  C   UNL     1      65.968  -2.588  -1.558  1.00  0.00     0.073 C 
ATOM      9  O   UNL     1      66.162  -1.350  -1.403  1.00  0.00    -0.547 OA
ATOM     10  O   UNL     1      67.057  -3.444  -1.671  1.00  0.00    -0.547 OA
ENDBRANCH   3   8
BRANCH   4  11
ATOM     11  O   UNL     1      65.177  -5.504  -1.322  1.00  0.00    -0.387 OA
ATOM     12  H   UNL     1      64.746  -5.596  -2.215  1.00  0.00     0.211 HD
ENDBRANCH   4  11
BRANCH   6  13
ATOM     13  O   UNL     1      62.532  -5.556  -1.414  1.00  0.00    -0.387 OA
ATOM     14  H   UNL     1      61.583  -5.270  -1.491  1.00  0.00     0.211 HD
ENDBRANCH   6  13
BRANCH   7  15
ATOM     15  O   UNL     1      61.478  -3.866   1.197  1.00  0.00    -0.384 OA
ATOM     16  H   UNL     1      60.980  -3.030   1.414  1.00  0.00     0.211 HD
ENDBRANCH   7  15
ENDBRANCH   1   2
BRANCH   1  17
ATOM     17  C   UNL     1      62.434   0.152   0.513  1.00  0.00     0.172 A 
ATOM     18  C   UNL     1      62.749   1.118  -0.492  1.00  0.00     0.201 A 
ATOM     19  C   UNL     1      62.366   0.574   1.845  1.00  0.00     0.098 A 
ATOM     20  C   UNL     1      62.906   2.478  -0.133  1.00  0.00     0.176 A 
ATOM     21  C   UNL     1      62.564   1.905   2.208  1.00  0.00     0.146 A 
ATOM     22  C   UNL     1      62.827   2.876   1.223  1.00  0.00     0.111 A 
ATOM     23  O   UNL     1      62.510   2.242   3.493  1.00  0.00    -0.456 OA
ATOM     24  C   UNL     1      63.039   4.204   1.654  1.00  0.00     0.197 A 
ATOM     25  C   UNL     1      62.703   3.484   3.938  1.00  0.00     0.138 A 
ATOM     26  C   UNL     1      62.980   4.507   3.016  1.00  0.00     0.100 A 
ATOM     27  O   UNL     1      63.300   5.128   0.837  1.00  0.00    -0.289 OA
BRANCH  18  28
ATOM     28  O   UNL     1      62.951   0.796  -1.835  1.00  0.00    -0.502 OA
ATOM     29  H   UNL     1      63.155   1.470  -2.556  1.00  0.00     0.293 HD
ENDBRANCH  18  28
BRANCH  20  30
ATOM     30  O   UNL     1      63.164   3.434  -1.122  1.00  0.00    -0.504 OA
ATOM     31  H   UNL     1      62.659   4.308  -1.182  1.00  0.00     0.293 HD
ENDBRANCH  20  30
BRANCH  25  32
ATOM     32  C   UNL     1      62.646   3.738   5.401  1.00  0.00     0.017 A 
ATOM     33  C   UNL     1      63.829   4.079   6.086  1.00  0.00     0.012 A 
ATOM     34  C   UNL     1      61.448   3.620   6.134  1.00  0.00     0.012 A 
ATOM     35  C   UNL     1      63.803   4.335   7.461  1.00  0.00     0.001 A 
ATOM     36  C   UNL     1      61.430   3.878   7.508  1.00  0.00     0.001 A 
ATOM     37  C   UNL     1      62.604   4.241   8.170  1.00  0.00     0.000 A 
ENDBRANCH  25  32
ENDBRANCH   1  17
TORSDOF 9
ENDMDL
