MODEL 1
REMARK VINA RESULT:    11.795      0.000      0.000
REMARK INTER + INTRA:          15.281
REMARK INTER:                  16.277
REMARK INTRA:                  -0.996
REMARK UNBOUND:                -0.996
REMARK SMILES CC[C@@H](CC[C@H](C)[C@@H]1CC[C@H]2[C@@H]3CC=C4C[C@@H](O)CC[C@@]4(C)[C@@H]3CC[C@]21C)C(C)C
REMARK SMILES IDX 5 1 4 2 3 3 2 4 1 5 28 6 29 7 30 8 6 9 7 10 8 11 9 12 26 13
REMARK SMILES IDX 10 14 11 15 25 16 27 17 12 18 24 19 23 20 13 21 21 22 14 23
REMARK SMILES IDX 15 24 20 25 22 26 16 27 19 28 17 29 18 30
REMARK H PARENT 18 31
REMARK Flexibility Score: inf
ROOT
ATOM      1  C   UNL     1      81.524  14.933   9.218  1.00  0.00     0.004 C 
ENDROOT
BRANCH   1   2
ATOM      2  C   UNL     1      81.308  13.914  10.360  1.00  0.00     0.004 C 
BRANCH   2   3
ATOM      3  C   UNL     1      82.035  14.184  11.714  1.00  0.00    -0.009 C 
BRANCH   3   4
ATOM      4  C   UNL     1      81.099  14.886  12.744  1.00  0.00     0.000 C 
ATOM      5  C   UNL     1      81.021  14.196  14.109  1.00  0.00     0.004 C 
ENDBRANCH   3   4
BRANCH   3   6
ATOM      6  C   UNL     1      83.383  14.963  11.487  1.00  0.00    -0.014 C 
ATOM      7  C   UNL     1      84.526  14.412  12.365  1.00  0.00     0.007 C 
ATOM      8  C   UNL     1      83.252  16.473  11.769  1.00  0.00     0.007 C 
ENDBRANCH   3   6
ENDBRANCH   2   3
ENDBRANCH   1   2
BRANCH   1   9
ATOM      9  C   UNL     1      80.328  15.758   8.640  1.00  0.00    -0.011 C 
ATOM     10  C   UNL     1      79.299  16.107   9.734  1.00  0.00     0.008 C 
BRANCH   9  11
ATOM     11  C   UNL     1      79.600  15.352   7.305  1.00  0.00    -0.002 C 
ATOM     12  C   UNL     1      78.912  13.998   7.232  1.00  0.00     0.005 C 
ATOM     13  C   UNL     1      80.286  15.547   5.925  1.00  0.00    -0.026 C 
ATOM     14  C   UNL     1      78.450  13.881   5.780  1.00  0.00     0.005 C 
ATOM     15  C   UNL     1      79.241  14.924   4.940  1.00  0.00    -0.001 C 
ATOM     16  C   UNL     1      80.554  17.050   5.642  1.00  0.00     0.007 C 
ATOM     17  C   UNL     1      81.612  14.756   5.778  1.00  0.00     0.012 C 
ATOM     18  C   UNL     1      78.304  15.981   4.262  1.00  0.00     0.000 C 
ATOM     19  C   UNL     1      80.522  17.349   4.146  1.00  0.00     0.005 C 
ATOM     20  C   UNL     1      79.090  17.173   3.574  1.00  0.00     0.003 C 
ATOM     21  C   UNL     1      77.282  15.280   3.319  1.00  0.00     0.031 C 
ATOM     22  C   UNL     1      79.010  17.186   1.995  1.00  0.00    -0.008 C 
ATOM     23  C   UNL     1      76.739  16.192   2.263  1.00  0.00    -0.027 C 
ATOM     24  C   UNL     1      77.512  17.093   1.629  1.00  0.00    -0.065 C 
ATOM     25  C   UNL     1      79.664  18.476   1.388  1.00  0.00     0.014 C 
ATOM     26  C   UNL     1      79.768  15.981   1.375  1.00  0.00     0.016 C 
ATOM     27  C   UNL     1      76.772  18.115   0.772  1.00  0.00     0.063 C 
ATOM     28  C   UNL     1      78.709  19.659   1.299  1.00  0.00     0.033 C 
ATOM     29  C   UNL     1      77.607  19.314   0.297  1.00  0.00     0.118 C 
BRANCH  29  30
ATOM     30  O   UNL     1      76.784  20.427   0.051  1.00  0.00    -0.393 OA
ATOM     31  H   UNL     1      77.020  21.132   0.713  1.00  0.00     0.210 HD
ENDBRANCH  29  30
ENDBRANCH   9  11
ENDBRANCH   1   9
TORSDOF 7
ENDMDL
MODEL 2
REMARK VINA RESULT:    13.443      2.992      8.349
REMARK INTER + INTRA:          17.554
REMARK INTER:                  18.915
REMARK INTRA:                  -1.361
REMARK UNBOUND:                -0.996
REMARK SMILES CC[C@@H](CC[C@H](C)[C@@H]1CC[C@H]2[C@@H]3CC=C4C[C@@H](O)CC[C@@]4(C)[C@@H]3CC[C@]21C)C(C)C
REMARK SMILES IDX 5 1 4 2 3 3 2 4 1 5 28 6 29 7 30 8 6 9 7 10 8 11 9 12 26 13
REMARK SMILES IDX 10 14 11 15 25 16 27 17 12 18 24 19 23 20 13 21 21 22 14 23
REMARK SMILES IDX 15 24 20 25 22 26 16 27 19 28 17 29 18 30
REMARK H PARENT 18 31
REMARK Flexibility Score: inf
ROOT
ATOM      1  C   UNL     1      78.794  19.671   1.194  1.00  0.00     0.004 C 
ENDROOT
BRANCH   1   2
ATOM      2  C   UNL     1      80.157  20.112   1.777  1.00  0.00     0.004 C 
BRANCH   2   3
ATOM      3  C   UNL     1      81.440  19.452   1.185  1.00  0.00    -0.009 C 
BRANCH   3   4
ATOM      4  C   UNL     1      82.376  18.900   2.303  1.00  0.00     0.000 C 
ATOM      5  C   UNL     1      81.657  18.481   3.589  1.00  0.00     0.004 C 
ENDBRANCH   3   4
BRANCH   3   6
ATOM      6  C   UNL     1      82.179  20.431   0.200  1.00  0.00    -0.014 C 
ATOM      7  C   UNL     1      83.660  20.048   0.003  1.00  0.00     0.007 C 
ATOM      8  C   UNL     1      82.126  21.899   0.671  1.00  0.00     0.007 C 
ENDBRANCH   3   6
ENDBRANCH   2   3
ENDBRANCH   1   2
BRANCH   1   9
ATOM      9  C   UNL     1      78.595  18.232   0.616  1.00  0.00    -0.011 C 
ATOM     10  C   UNL     1      77.168  18.035   0.065  1.00  0.00     0.008 C 
BRANCH   9  11
ATOM     11  C   UNL     1      79.071  16.947   1.389  1.00  0.00    -0.002 C 
ATOM     12  C   UNL     1      79.452  15.712   0.588  1.00  0.00     0.005 C 
ATOM     13  C   UNL     1      78.289  16.418   2.624  1.00  0.00    -0.026 C 
ATOM     14  C   UNL     1      79.715  14.638   1.642  1.00  0.00     0.005 C 
ATOM     15  C   UNL     1      79.067  15.106   2.976  1.00  0.00    -0.001 C 
ATOM     16  C   UNL     1      78.306  17.454   3.780  1.00  0.00     0.007 C 
ATOM     17  C   UNL     1      76.821  16.032   2.306  1.00  0.00     0.012 C 
ATOM     18  C   UNL     1      80.119  15.285   4.123  1.00  0.00     0.000 C 
ATOM     19  C   UNL     1      78.232  16.768   5.142  1.00  0.00     0.005 C 
ATOM     20  C   UNL     1      79.524  15.958   5.428  1.00  0.00     0.003 C 
ATOM     21  C   UNL     1      80.864  13.945   4.395  1.00  0.00     0.031 C 
ATOM     22  C   UNL     1      79.428  14.993   6.678  1.00  0.00    -0.008 C 
ATOM     23  C   UNL     1      81.461  13.875   5.766  1.00  0.00    -0.027 C 
ATOM     24  C   UNL     1      80.824  14.356   6.850  1.00  0.00    -0.065 C 
ATOM     25  C   UNL     1      78.989  15.760   7.973  1.00  0.00     0.014 C 
ATOM     26  C   UNL     1      78.374  13.875   6.456  1.00  0.00     0.016 C 
ATOM     27  C   UNL     1      81.659  14.445   8.123  1.00  0.00     0.063 C 
ATOM     28  C   UNL     1      80.151  16.388   8.733  1.00  0.00     0.033 C 
ATOM     29  C   UNL     1      81.040  15.263   9.268  1.00  0.00     0.118 C 
BRANCH  29  30
ATOM     30  O   UNL     1      82.041  15.773  10.113  1.00  0.00    -0.393 OA
ATOM     31  H   UNL     1      81.890  15.402  11.024  1.00  0.00     0.210 HD
ENDBRANCH  29  30
ENDBRANCH   9  11
ENDBRANCH   1   9
TORSDOF 7
ENDMDL
