MODEL 1
REMARK VINA RESULT:    -3.311      0.000      0.000
REMARK INTER + INTRA:          -4.333
REMARK INTER:                  -4.085
REMARK INTRA:                  -0.248
REMARK UNBOUND:                -0.248
REMARK SMILES C=CCc1ccc(OC)c(OC)c1
REMARK SMILES IDX 7 1 10 2 13 3 4 4 5 5 6 6 8 7 9 8 11 9 12 10 3 11 2 12 1 13
REMARK H PARENT
REMARK Flexibility Score: inf
ROOT
ATOM      1  C   UNL     1      -8.333  34.700 -11.377  1.00  0.00     0.160 A 
ATOM      2  C   UNL     1      -9.633  34.171 -11.357  1.00  0.00     0.160 A 
ATOM      3  C   UNL     1     -10.675  34.902 -10.751  1.00  0.00     0.054 A 
ATOM      4  C   UNL     1     -10.423  36.156 -10.173  1.00  0.00    -0.040 A 
ATOM      5  C   UNL     1      -9.121  36.671 -10.187  1.00  0.00     0.008 A 
ATOM      6  C   UNL     1      -8.084  35.953 -10.787  1.00  0.00     0.051 A 
ENDROOT
BRANCH   1   7
ATOM      7  O   UNL     1      -7.316  33.949 -11.988  1.00  0.00    -0.493 OA
ATOM      8  C   UNL     1      -6.028  34.455 -12.318  1.00  0.00     0.278 C 
ENDBRANCH   1   7
BRANCH   2   9
ATOM      9  O   UNL     1      -9.851  32.917 -11.949  1.00  0.00    -0.493 OA
ATOM     10  C   UNL     1      -9.769  31.673 -11.262  1.00  0.00     0.278 C 
ENDBRANCH   2   9
BRANCH   4  11
ATOM     11  C   UNL     1     -11.536  36.916  -9.502  1.00  0.00     0.062 C 
BRANCH  11  12
ATOM     12  C   UNL     1     -12.029  36.178  -8.289  1.00  0.00    -0.030 C 
ATOM     13  C   UNL     1     -11.833  36.649  -7.053  1.00  0.00     0.004 C 
ENDBRANCH  11  12
ENDBRANCH   4  11
TORSDOF 4
ENDMDL
MODEL 2
REMARK VINA RESULT:    -2.924      2.016      4.263
REMARK INTER + INTRA:          -3.855
REMARK INTER:                  -3.594
REMARK INTRA:                  -0.262
REMARK UNBOUND:                -0.248
REMARK SMILES C=CCc1ccc(OC)c(OC)c1
REMARK SMILES IDX 7 1 10 2 13 3 4 4 5 5 6 6 8 7 9 8 11 9 12 10 3 11 2 12 1 13
REMARK H PARENT
REMARK Flexibility Score: inf
ROOT
ATOM      1  C   UNL     1      -7.757  35.575 -11.626  1.00  0.00     0.160 A 
ATOM      2  C   UNL     1      -8.762  35.499 -10.648  1.00  0.00     0.160 A 
ATOM      3  C   UNL     1      -9.548  34.334 -10.545  1.00  0.00     0.054 A 
ATOM      4  C   UNL     1      -9.332  33.249 -11.408  1.00  0.00    -0.040 A 
ATOM      5  C   UNL     1      -8.335  33.337 -12.388  1.00  0.00     0.008 A 
ATOM      6  C   UNL     1      -7.550  34.488 -12.495  1.00  0.00     0.051 A 
ENDROOT
BRANCH   1   7
ATOM      7  O   UNL     1      -6.989  36.747 -11.704  1.00  0.00    -0.493 OA
ATOM      8  C   UNL     1      -6.206  37.125 -12.831  1.00  0.00     0.278 C 
ENDBRANCH   1   7
BRANCH   2   9
ATOM      9  O   UNL     1      -8.948  36.601  -9.798  1.00  0.00    -0.493 OA
ATOM     10  C   UNL     1     -10.217  37.125  -9.421  1.00  0.00     0.278 C 
ENDBRANCH   2   9
BRANCH   4  11
ATOM     11  C   UNL     1     -10.198  32.021 -11.310  1.00  0.00     0.062 C 
BRANCH  11  12
ATOM     12  C   UNL     1      -9.368  30.806 -11.002  1.00  0.00    -0.030 C 
ATOM     13  C   UNL     1      -9.639  30.015  -9.960  1.00  0.00     0.004 C 
ENDBRANCH  11  12
ENDBRANCH   4  11
TORSDOF 4
ENDMDL
MODEL 3
REMARK VINA RESULT:    -2.766      1.471      2.794
REMARK INTER + INTRA:          -3.661
REMARK INTER:                  -3.800
REMARK INTRA:                   0.139
REMARK UNBOUND:                -0.248
REMARK SMILES C=CCc1ccc(OC)c(OC)c1
REMARK SMILES IDX 7 1 10 2 13 3 4 4 5 5 6 6 8 7 9 8 11 9 12 10 3 11 2 12 1 13
REMARK H PARENT
REMARK Flexibility Score: inf
ROOT
ATOM      1  C   UNL     1      -8.316  34.256 -12.481  1.00  0.00     0.160 A 
ATOM      2  C   UNL     1      -8.666  35.577 -12.158  1.00  0.00     0.160 A 
ATOM      3  C   UNL     1      -9.891  35.835 -11.511  1.00  0.00     0.054 A 
ATOM      4  C   UNL     1     -10.760  34.784 -11.183  1.00  0.00    -0.040 A 
ATOM      5  C   UNL     1     -10.408  33.470 -11.519  1.00  0.00     0.008 A 
ATOM      6  C   UNL     1      -9.196  33.205 -12.159  1.00  0.00     0.051 A 
ENDROOT
BRANCH   1   7
ATOM      7  O   UNL     1      -7.089  34.028 -13.124  1.00  0.00    -0.493 OA
ATOM      8  C   UNL     1      -5.818  34.120 -12.491  1.00  0.00     0.278 C 
ENDBRANCH   1   7
BRANCH   2   9
ATOM      9  O   UNL     1      -7.771  36.604 -12.496  1.00  0.00    -0.493 OA
ATOM     10  C   UNL     1      -6.772  37.125 -11.625  1.00  0.00     0.278 C 
ENDBRANCH   2   9
BRANCH   4  11
ATOM     11  C   UNL     1     -12.080  35.074 -10.519  1.00  0.00     0.062 C 
BRANCH  11  12
ATOM     12  C   UNL     1     -11.986  36.303  -9.659  1.00  0.00    -0.030 C 
ATOM     13  C   UNL     1     -11.758  36.225  -8.344  1.00  0.00     0.004 C 
ENDBRANCH  11  12
ENDBRANCH   4  11
TORSDOF 4
ENDMDL
MODEL 4
REMARK VINA RESULT:    -2.717      1.013      2.771
REMARK INTER + INTRA:          -3.600
REMARK INTER:                  -3.273
REMARK INTRA:                  -0.327
REMARK UNBOUND:                -0.248
REMARK SMILES C=CCc1ccc(OC)c(OC)c1
REMARK SMILES IDX 7 1 10 2 13 3 4 4 5 5 6 6 8 7 9 8 11 9 12 10 3 11 2 12 1 13
REMARK H PARENT
REMARK Flexibility Score: inf
ROOT
ATOM      1  C   UNL     1      -9.927  33.179 -11.346  1.00  0.00     0.160 A 
ATOM      2  C   UNL     1      -9.009  34.206 -11.076  1.00  0.00     0.160 A 
ATOM      3  C   UNL     1      -9.479  35.484 -10.712  1.00  0.00     0.054 A 
ATOM      4  C   UNL     1     -10.856  35.735 -10.610  1.00  0.00    -0.040 A 
ATOM      5  C   UNL     1     -11.765  34.708 -10.892  1.00  0.00     0.008 A 
ATOM      6  C   UNL     1     -11.307  33.439 -11.253  1.00  0.00     0.051 A 
ENDROOT
BRANCH   1   7
ATOM      7  O   UNL     1      -9.430  31.916 -11.706  1.00  0.00    -0.493 OA
ATOM      8  C   UNL     1      -9.499  30.758 -10.882  1.00  0.00     0.278 C 
ENDBRANCH   1   7
BRANCH   2   9
ATOM      9  O   UNL     1      -7.639  33.919 -11.182  1.00  0.00    -0.493 OA
ATOM     10  C   UNL     1      -6.735  34.600 -12.045  1.00  0.00     0.278 C 
ENDBRANCH   2   9
BRANCH   4  11
ATOM     11  C   UNL     1     -11.348  37.111 -10.249  1.00  0.00     0.062 C 
BRANCH  11  12
ATOM     12  C   UNL     1     -12.119  37.080  -8.959  1.00  0.00    -0.030 C 
ATOM     13  C   UNL     1     -11.572  36.634  -7.824  1.00  0.00     0.004 C 
ENDBRANCH  11  12
ENDBRANCH   4  11
TORSDOF 4
ENDMDL
MODEL 5
REMARK VINA RESULT:    -1.862      2.568      4.878
REMARK INTER + INTRA:          -2.546
REMARK INTER:                  -2.270
REMARK INTRA:                  -0.276
REMARK UNBOUND:                -0.248
REMARK SMILES C=CCc1ccc(OC)c(OC)c1
REMARK SMILES IDX 7 1 10 2 13 3 4 4 5 5 6 6 8 7 9 8 11 9 12 10 3 11 2 12 1 13
REMARK H PARENT
REMARK Flexibility Score: inf
ROOT
ATOM      1  C   UNL     1     -10.312  35.341 -11.871  1.00  0.00     0.160 A 
ATOM      2  C   UNL     1      -9.063  34.920 -12.353  1.00  0.00     0.160 A 
ATOM      3  C   UNL     1      -8.672  33.575 -12.194  1.00  0.00     0.054 A 
ATOM      4  C   UNL     1      -9.523  32.654 -11.564  1.00  0.00    -0.040 A 
ATOM      5  C   UNL     1     -10.764  33.086 -11.077  1.00  0.00     0.008 A 
ATOM      6  C   UNL     1     -11.158  34.417 -11.231  1.00  0.00     0.051 A 
ENDROOT
BRANCH   1   7
ATOM      7  O   UNL     1     -10.675  36.687 -12.045  1.00  0.00    -0.493 OA
ATOM      8  C   UNL     1     -11.944  37.125 -12.517  1.00  0.00     0.278 C 
ENDBRANCH   1   7
BRANCH   2   9
ATOM      9  O   UNL     1      -8.238  35.865 -12.983  1.00  0.00    -0.493 OA
ATOM     10  C   UNL     1      -7.046  36.402 -12.418  1.00  0.00     0.278 C 
ENDBRANCH   2   9
BRANCH   4  11
ATOM     11  C   UNL     1      -9.084  31.227 -11.372  1.00  0.00     0.062 C 
BRANCH  11  12
ATOM     12  C   UNL     1      -9.872  30.569 -10.275  1.00  0.00    -0.030 C 
ATOM     13  C   UNL     1      -9.509  29.392  -9.757  1.00  0.00     0.004 C 
ENDBRANCH  11  12
ENDBRANCH   4  11
TORSDOF 4
ENDMDL
MODEL 6
REMARK VINA RESULT:    -1.705      1.939      4.348
REMARK INTER + INTRA:          -2.351
REMARK INTER:                  -2.440
REMARK INTRA:                   0.089
REMARK UNBOUND:                -0.248
REMARK SMILES C=CCc1ccc(OC)c(OC)c1
REMARK SMILES IDX 7 1 10 2 13 3 4 4 5 5 6 6 8 7 9 8 11 9 12 10 3 11 2 12 1 13
REMARK H PARENT
REMARK Flexibility Score: inf
ROOT
ATOM      1  C   UNL     1      -9.352  33.460 -11.441  1.00  0.00     0.160 A 
ATOM      2  C   UNL     1     -10.138  34.620 -11.519  1.00  0.00     0.160 A 
ATOM      3  C   UNL     1      -9.591  35.796 -12.072  1.00  0.00     0.054 A 
ATOM      4  C   UNL     1      -8.272  35.814 -12.548  1.00  0.00    -0.040 A 
ATOM      5  C   UNL     1      -7.492  34.654 -12.456  1.00  0.00     0.008 A 
ATOM      6  C   UNL     1      -8.026  33.485 -11.911  1.00  0.00     0.051 A 
ENDROOT
BRANCH   1   7
ATOM      7  O   UNL     1      -9.924  32.303 -10.886  1.00  0.00    -0.493 OA
ATOM      8  C   UNL     1      -9.564  30.974 -11.245  1.00  0.00     0.278 C 
ENDBRANCH   1   7
BRANCH   2   9
ATOM      9  O   UNL     1     -11.456  34.567 -11.038  1.00  0.00    -0.493 OA
ATOM     10  C   UNL     1     -12.125  35.645 -10.393  1.00  0.00     0.278 C 
ENDBRANCH   2   9
BRANCH   4  11
ATOM     11  C   UNL     1      -7.688  37.083 -13.109  1.00  0.00     0.062 C 
BRANCH  11  12
ATOM     12  C   UNL     1      -6.196  37.109 -12.928  1.00  0.00    -0.030 C 
ATOM     13  C   UNL     1      -5.633  37.017 -11.719  1.00  0.00     0.004 C 
ENDBRANCH  11  12
ENDBRANCH   4  11
TORSDOF 4
ENDMDL
MODEL 7
REMARK VINA RESULT:    -0.398      4.880      7.411
REMARK INTER + INTRA:          -0.738
REMARK INTER:                  -0.528
REMARK INTRA:                  -0.210
REMARK UNBOUND:                -0.248
REMARK SMILES C=CCc1ccc(OC)c(OC)c1
REMARK SMILES IDX 7 1 10 2 13 3 4 4 5 5 6 6 8 7 9 8 11 9 12 10 3 11 2 12 1 13
REMARK H PARENT
REMARK Flexibility Score: inf
ROOT
ATOM      1  C   UNL     1     -10.961  35.794  -3.163  1.00  0.00     0.160 A 
ATOM      2  C   UNL     1     -10.193  35.197  -4.175  1.00  0.00     0.160 A 
ATOM      3  C   UNL     1     -10.396  35.573  -5.518  1.00  0.00     0.054 A 
ATOM      4  C   UNL     1     -11.355  36.541  -5.850  1.00  0.00    -0.040 A 
ATOM      5  C   UNL     1     -12.125  37.124  -4.836  1.00  0.00     0.008 A 
ATOM      6  C   UNL     1     -11.929  36.758  -3.502  1.00  0.00     0.051 A 
ENDROOT
BRANCH   1   7
ATOM      7  O   UNL     1     -10.735  35.401  -1.834  1.00  0.00    -0.493 OA
ATOM      8  C   UNL     1     -10.653  36.296  -0.731  1.00  0.00     0.278 C 
ENDBRANCH   1   7
BRANCH   2   9
ATOM      9  O   UNL     1      -9.238  34.235  -3.808  1.00  0.00    -0.493 OA
ATOM     10  C   UNL     1      -7.905  34.532  -3.408  1.00  0.00     0.278 C 
ENDBRANCH   2   9
BRANCH   4  11
ATOM     11  C   UNL     1     -11.586  36.914  -7.291  1.00  0.00     0.062 C 
BRANCH  11  12
ATOM     12  C   UNL     1     -10.790  36.025  -8.206  1.00  0.00    -0.030 C 
ATOM     13  C   UNL     1     -10.872  36.132  -9.535  1.00  0.00     0.004 C 
ENDBRANCH  11  12
ENDBRANCH   4  11
TORSDOF 4
ENDMDL
