MODEL 1
REMARK VINA RESULT:    -5.590      0.000      0.000
REMARK INTER + INTRA:          -5.975
REMARK INTER:                  -5.916
REMARK INTRA:                  -0.059
REMARK UNBOUND:                -0.059
REMARK SMILES CC1=CC[C@H]2[C@H]3[C@@H]1[C@]2(C)CC[C@H]3C(C)C
REMARK SMILES IDX 1 1 2 2 3 3 4 4 5 5 6 6 7 7 8 8 10 9 11 10 12 11 9 12 13 13
REMARK SMILES IDX 14 14 15 15
REMARK H PARENT
REMARK Flexibility Score: inf
ROOT
ATOM      1  C   UNL     1      59.275  44.817  40.240  1.00  0.00     0.039 C 
ATOM      2  C   UNL     1      58.509  44.898  41.526  1.00  0.00    -0.073 C 
ATOM      3  C   UNL     1      59.038  45.499  42.625  1.00  0.00    -0.027 C 
ATOM      4  C   UNL     1      58.217  45.529  43.919  1.00  0.00     0.031 C 
ATOM      5  C   UNL     1      56.828  44.846  43.701  1.00  0.00     0.003 C 
ATOM      6  C   UNL     1      56.245  45.400  42.382  1.00  0.00     0.004 C 
ATOM      7  C   UNL     1      57.095  44.326  41.659  1.00  0.00     0.024 C 
ATOM      8  C   UNL     1      56.971  43.496  42.960  1.00  0.00    -0.022 C 
ATOM      9  C   UNL     1      55.608  42.749  43.005  1.00  0.00     0.008 C 
ATOM     10  C   UNL     1      54.457  43.552  42.343  1.00  0.00     0.005 C 
ATOM     11  C   UNL     1      54.719  45.095  42.260  1.00  0.00    -0.005 C 
ATOM     12  C   UNL     1      58.130  42.551  43.356  1.00  0.00     0.012 C 
ENDROOT
BRANCH  11  13
ATOM     13  C   UNL     1      53.837  45.889  43.280  1.00  0.00    -0.014 C 
ATOM     14  C   UNL     1      54.552  47.125  43.857  1.00  0.00     0.007 C 
ATOM     15  C   UNL     1      52.519  46.349  42.629  1.00  0.00     0.007 C 
ENDBRANCH  11  13
TORSDOF 1
ENDMDL
MODEL 2
REMARK VINA RESULT:    -5.463      1.272      2.504
REMARK INTER + INTRA:          -5.842
REMARK INTER:                  -5.582
REMARK INTRA:                  -0.260
REMARK UNBOUND:                -0.059
REMARK SMILES CC1=CC[C@H]2[C@H]3[C@@H]1[C@]2(C)CC[C@H]3C(C)C
REMARK SMILES IDX 1 1 2 2 3 3 4 4 5 5 6 6 7 7 8 8 10 9 11 10 12 11 9 12 13 13
REMARK SMILES IDX 14 14 15 15
REMARK H PARENT
REMARK Flexibility Score: inf
ROOT
ATOM      1  C   UNL     1      59.716  41.886  40.435  1.00  0.00     0.039 C 
ATOM      2  C   UNL     1      59.154  43.231  40.783  1.00  0.00    -0.073 C 
ATOM      3  C   UNL     1      59.447  44.332  40.041  1.00  0.00    -0.027 C 
ATOM      4  C   UNL     1      58.863  45.685  40.461  1.00  0.00     0.031 C 
ATOM      5  C   UNL     1      57.959  45.521  41.725  1.00  0.00     0.003 C 
ATOM      6  C   UNL     1      57.039  44.304  41.478  1.00  0.00     0.004 C 
ATOM      7  C   UNL     1      58.213  43.427  41.976  1.00  0.00     0.024 C 
ATOM      8  C   UNL     1      58.649  44.657  42.807  1.00  0.00    -0.022 C 
ATOM      9  C   UNL     1      57.827  44.747  44.125  1.00  0.00     0.008 C 
ATOM     10  C   UNL     1      56.367  44.250  43.960  1.00  0.00     0.005 C 
ATOM     11  C   UNL     1      55.844  44.280  42.482  1.00  0.00    -0.005 C 
ATOM     12  C   UNL     1      60.156  44.877  43.082  1.00  0.00     0.012 C 
ENDROOT
BRANCH  11  13
ATOM     13  C   UNL     1      54.809  45.431  42.255  1.00  0.00    -0.014 C 
ATOM     14  C   UNL     1      53.408  44.914  41.880  1.00  0.00     0.007 C 
ATOM     15  C   UNL     1      54.682  46.315  43.511  1.00  0.00     0.007 C 
ENDBRANCH  11  13
TORSDOF 1
ENDMDL
MODEL 3
REMARK VINA RESULT:    -5.075      1.457      3.231
REMARK INTER + INTRA:          -5.431
REMARK INTER:                  -5.588
REMARK INTRA:                   0.157
REMARK UNBOUND:                -0.059
REMARK SMILES CC1=CC[C@H]2[C@H]3[C@@H]1[C@]2(C)CC[C@H]3C(C)C
REMARK SMILES IDX 1 1 2 2 3 3 4 4 5 5 6 6 7 7 8 8 10 9 11 10 12 11 9 12 13 13
REMARK SMILES IDX 14 14 15 15
REMARK H PARENT
REMARK Flexibility Score: inf
ROOT
ATOM      1  C   UNL     1      61.579  44.340  43.352  1.00  0.00     0.039 C 
ATOM      2  C   UNL     1      60.276  44.052  42.669  1.00  0.00    -0.073 C 
ATOM      3  C   UNL     1      60.051  42.861  42.055  1.00  0.00    -0.027 C 
ATOM      4  C   UNL     1      58.708  42.632  41.351  1.00  0.00     0.031 C 
ATOM      5  C   UNL     1      57.786  43.884  41.516  1.00  0.00     0.003 C 
ATOM      6  C   UNL     1      57.840  44.303  43.002  1.00  0.00     0.004 C 
ATOM      7  C   UNL     1      59.135  45.073  42.646  1.00  0.00     0.024 C 
ATOM      8  C   UNL     1      58.553  45.195  41.217  1.00  0.00    -0.022 C 
ATOM      9  C   UNL     1      57.534  46.368  41.139  1.00  0.00     0.008 C 
ATOM     10  C   UNL     1      56.730  46.558  42.453  1.00  0.00     0.005 C 
ATOM     11  C   UNL     1      56.677  45.281  43.360  1.00  0.00    -0.005 C 
ATOM     12  C   UNL     1      59.524  45.228  40.014  1.00  0.00     0.012 C 
ENDROOT
BRANCH  11  13
ATOM     13  C   UNL     1      55.263  44.610  43.337  1.00  0.00    -0.014 C 
ATOM     14  C   UNL     1      54.290  45.295  42.360  1.00  0.00     0.007 C 
ATOM     15  C   UNL     1      55.366  43.121  42.958  1.00  0.00     0.007 C 
ENDBRANCH  11  13
TORSDOF 1
ENDMDL
MODEL 4
REMARK VINA RESULT:    -4.155     21.398     23.025
REMARK INTER + INTRA:          -4.457
REMARK INTER:                  -4.182
REMARK INTRA:                  -0.274
REMARK UNBOUND:                -0.059
REMARK SMILES CC1=CC[C@H]2[C@H]3[C@@H]1[C@]2(C)CC[C@H]3C(C)C
REMARK SMILES IDX 1 1 2 2 3 3 4 4 5 5 6 6 7 7 8 8 10 9 11 10 12 11 9 12 13 13
REMARK SMILES IDX 14 14 15 15
REMARK H PARENT
REMARK Flexibility Score: inf
ROOT
ATOM      1  C   UNL     1      50.411  30.136  27.579  1.00  0.00     0.039 C 
ATOM      2  C   UNL     1      51.706  30.477  26.906  1.00  0.00    -0.073 C 
ATOM      3  C   UNL     1      52.164  31.756  26.866  1.00  0.00    -0.027 C 
ATOM      4  C   UNL     1      53.483  32.048  26.141  1.00  0.00     0.031 C 
ATOM      5  C   UNL     1      54.102  30.726  25.581  1.00  0.00     0.003 C 
ATOM      6  C   UNL     1      54.035  29.673  26.709  1.00  0.00     0.004 C 
ATOM      7  C   UNL     1      52.581  29.404  26.251  1.00  0.00     0.024 C 
ATOM      8  C   UNL     1      53.042  29.870  24.849  1.00  0.00    -0.022 C 
ATOM      9  C   UNL     1      53.760  28.714  24.096  1.00  0.00     0.008 C 
ATOM     10  C   UNL     1      54.569  27.788  25.043  1.00  0.00     0.005 C 
ATOM     11  C   UNL     1      54.962  28.454  26.406  1.00  0.00    -0.005 C 
ATOM     12  C   UNL     1      52.024  30.580  23.925  1.00  0.00     0.012 C 
ENDROOT
BRANCH  11  13
ATOM     13  C   UNL     1      56.488  28.795  26.468  1.00  0.00    -0.014 C 
ATOM     14  C   UNL     1      56.856  29.684  27.670  1.00  0.00     0.007 C 
ATOM     15  C   UNL     1      57.338  27.512  26.533  1.00  0.00     0.007 C 
ENDBRANCH  11  13
TORSDOF 1
ENDMDL
MODEL 5
REMARK VINA RESULT:    -4.132     18.515     20.367
REMARK INTER + INTRA:          -4.433
REMARK INTER:                  -4.153
REMARK INTRA:                  -0.280
REMARK UNBOUND:                -0.059
REMARK SMILES CC1=CC[C@H]2[C@H]3[C@@H]1[C@]2(C)CC[C@H]3C(C)C
REMARK SMILES IDX 1 1 2 2 3 3 4 4 5 5 6 6 7 7 8 8 10 9 11 10 12 11 9 12 13 13
REMARK SMILES IDX 14 14 15 15
REMARK H PARENT
REMARK Flexibility Score: inf
ROOT
ATOM      1  C   UNL     1      47.875  30.468  31.138  1.00  0.00     0.039 C 
ATOM      2  C   UNL     1      48.835  31.443  30.527  1.00  0.00    -0.073 C 
ATOM      3  C   UNL     1      49.936  31.867  31.203  1.00  0.00    -0.027 C 
ATOM      4  C   UNL     1      50.869  32.884  30.536  1.00  0.00     0.031 C 
ATOM      5  C   UNL     1      50.357  33.235  29.101  1.00  0.00     0.003 C 
ATOM      6  C   UNL     1      50.006  31.904  28.399  1.00  0.00     0.004 C 
ATOM      7  C   UNL     1      48.634  31.993  29.111  1.00  0.00     0.024 C 
ATOM      8  C   UNL     1      48.838  33.527  29.097  1.00  0.00    -0.022 C 
ATOM      9  C   UNL     1      48.442  34.119  27.715  1.00  0.00     0.008 C 
ATOM     10  C   UNL     1      48.760  33.163  26.535  1.00  0.00     0.005 C 
ATOM     11  C   UNL     1      49.860  32.094  26.857  1.00  0.00    -0.005 C 
ATOM     12  C   UNL     1      48.241  34.370  30.249  1.00  0.00     0.012 C 
ENDROOT
BRANCH  11  13
ATOM     13  C   UNL     1      51.210  32.415  26.133  1.00  0.00    -0.014 C 
ATOM     14  C   UNL     1      52.369  31.513  26.598  1.00  0.00     0.007 C 
ATOM     15  C   UNL     1      51.065  32.272  24.606  1.00  0.00     0.007 C 
ENDBRANCH  11  13
TORSDOF 1
ENDMDL
MODEL 6
REMARK VINA RESULT:    -3.889     21.756     23.448
REMARK INTER + INTRA:          -4.175
REMARK INTER:                  -3.928
REMARK INTRA:                  -0.247
REMARK UNBOUND:                -0.059
REMARK SMILES CC1=CC[C@H]2[C@H]3[C@@H]1[C@]2(C)CC[C@H]3C(C)C
REMARK SMILES IDX 1 1 2 2 3 3 4 4 5 5 6 6 7 7 8 8 10 9 11 10 12 11 9 12 13 13
REMARK SMILES IDX 14 14 15 15
REMARK H PARENT
REMARK Flexibility Score: inf
ROOT
ATOM      1  C   UNL     1      50.692  28.252  23.890  1.00  0.00     0.039 C 
ATOM      2  C   UNL     1      51.493  28.428  25.144  1.00  0.00    -0.073 C 
ATOM      3  C   UNL     1      51.068  27.917  26.330  1.00  0.00    -0.027 C 
ATOM      4  C   UNL     1      51.918  28.150  27.584  1.00  0.00     0.031 C 
ATOM      5  C   UNL     1      53.210  28.954  27.226  1.00  0.00     0.003 C 
ATOM      6  C   UNL     1      53.821  28.305  25.965  1.00  0.00     0.004 C 
ATOM      7  C   UNL     1      52.833  29.171  25.147  1.00  0.00     0.024 C 
ATOM      8  C   UNL     1      52.888  30.171  26.327  1.00  0.00    -0.022 C 
ATOM      9  C   UNL     1      54.154  31.070  26.223  1.00  0.00     0.008 C 
ATOM     10  C   UNL     1      55.375  30.326  25.622  1.00  0.00     0.005 C 
ATOM     11  C   UNL     1      55.297  28.765  25.746  1.00  0.00    -0.005 C 
ATOM     12  C   UNL     1      51.635  31.020  26.647  1.00  0.00     0.012 C 
ENDROOT
BRANCH  11  13
ATOM     13  C   UNL     1      56.292  28.217  26.822  1.00  0.00    -0.014 C 
ATOM     14  C   UNL     1      57.440  27.391  26.213  1.00  0.00     0.007 C 
ATOM     15  C   UNL     1      56.904  29.367  27.645  1.00  0.00     0.007 C 
ENDBRANCH  11  13
TORSDOF 1
ENDMDL
MODEL 7
REMARK VINA RESULT:    -3.758     19.388     20.883
REMARK INTER + INTRA:          -4.036
REMARK INTER:                  -3.748
REMARK INTRA:                  -0.288
REMARK UNBOUND:                -0.059
REMARK SMILES CC1=CC[C@H]2[C@H]3[C@@H]1[C@]2(C)CC[C@H]3C(C)C
REMARK SMILES IDX 1 1 2 2 3 3 4 4 5 5 6 6 7 7 8 8 10 9 11 10 12 11 9 12 13 13
REMARK SMILES IDX 14 14 15 15
REMARK H PARENT
REMARK Flexibility Score: inf
ROOT
ATOM      1  C   UNL     1      54.250  31.078  26.159  1.00  0.00     0.039 C 
ATOM      2  C   UNL     1      52.773  30.988  26.400  1.00  0.00    -0.073 C 
ATOM      3  C   UNL     1      52.102  29.819  26.234  1.00  0.00    -0.027 C 
ATOM      4  C   UNL     1      50.587  29.794  26.472  1.00  0.00     0.031 C 
ATOM      5  C   UNL     1      50.082  31.204  26.920  1.00  0.00     0.003 C 
ATOM      6  C   UNL     1      51.047  31.712  28.014  1.00  0.00     0.004 C 
ATOM      7  C   UNL     1      51.958  32.200  26.861  1.00  0.00     0.024 C 
ATOM      8  C   UNL     1      50.662  32.324  26.023  1.00  0.00    -0.022 C 
ATOM      9  C   UNL     1      49.928  33.658  26.344  1.00  0.00     0.008 C 
ATOM     10  C   UNL     1      50.081  34.089  27.827  1.00  0.00     0.005 C 
ATOM     11  C   UNL     1      50.434  32.913  28.802  1.00  0.00    -0.005 C 
ATOM     12  C   UNL     1      50.734  32.090  24.496  1.00  0.00     0.012 C 
ENDROOT
BRANCH  11  13
ATOM     13  C   UNL     1      49.216  32.517  29.701  1.00  0.00    -0.014 C 
ATOM     14  C   UNL     1      49.626  31.705  30.943  1.00  0.00     0.007 C 
ATOM     15  C   UNL     1      48.446  33.767  30.168  1.00  0.00     0.007 C 
ENDBRANCH  11  13
TORSDOF 1
ENDMDL
MODEL 8
REMARK VINA RESULT:    -3.634     21.572     23.004
REMARK INTER + INTRA:          -3.905
REMARK INTER:                  -3.611
REMARK INTRA:                  -0.295
REMARK UNBOUND:                -0.059
REMARK SMILES CC1=CC[C@H]2[C@H]3[C@@H]1[C@]2(C)CC[C@H]3C(C)C
REMARK SMILES IDX 1 1 2 2 3 3 4 4 5 5 6 6 7 7 8 8 10 9 11 10 12 11 9 12 13 13
REMARK SMILES IDX 14 14 15 15
REMARK H PARENT
REMARK Flexibility Score: inf
ROOT
ATOM      1  C   UNL     1      57.250  30.249  28.371  1.00  0.00     0.039 C 
ATOM      2  C   UNL     1      56.518  29.548  27.267  1.00  0.00    -0.073 C 
ATOM      3  C   UNL     1      56.871  28.297  26.870  1.00  0.00    -0.027 C 
ATOM      4  C   UNL     1      56.101  27.641  25.717  1.00  0.00     0.031 C 
ATOM      5  C   UNL     1      54.964  28.588  25.212  1.00  0.00     0.003 C 
ATOM      6  C   UNL     1      54.222  29.122  26.458  1.00  0.00     0.004 C 
ATOM      7  C   UNL     1      55.331  30.198  26.548  1.00  0.00     0.024 C 
ATOM      8  C   UNL     1      55.477  30.035  25.017  1.00  0.00    -0.022 C 
ATOM      9  C   UNL     1      54.388  30.859  24.272  1.00  0.00     0.008 C 
ATOM     10  C   UNL     1      53.043  30.917  25.042  1.00  0.00     0.005 C 
ATOM     11  C   UNL     1      52.846  29.753  26.074  1.00  0.00    -0.005 C 
ATOM     12  C   UNL     1      56.867  30.248  24.371  1.00  0.00     0.012 C 
ENDROOT
BRANCH  11  13
ATOM     13  C   UNL     1      51.792  28.708  25.579  1.00  0.00    -0.014 C 
ATOM     14  C   UNL     1      51.576  27.555  26.575  1.00  0.00     0.007 C 
ATOM     15  C   UNL     1      50.433  29.381  25.310  1.00  0.00     0.007 C 
ENDBRANCH  11  13
TORSDOF 1
ENDMDL
