MODEL 1
REMARK VINA RESULT:    -4.905      0.000      0.000
REMARK INTER + INTRA:          -6.019
REMARK INTER:                  -5.908
REMARK INTRA:                  -0.110
REMARK UNBOUND:                -0.110
REMARK SMILES NC(=O)C[C@H]([NH3+])C(=O)[O-]
REMARK SMILES IDX 4 1 5 2 6 3 7 7 8 8 9 9 2 10 3 11 1 12
REMARK H PARENT 6 4 6 5 6 6 1 13 1 14
REMARK Flexibility Score: inf
ROOT
ATOM      1  C   UNL     1     -22.253  70.404   1.023  1.00  0.00     0.171 C 
ENDROOT
BRANCH   1   2
ATOM      2  C   UNL     1     -22.388  69.751  -0.367  1.00  0.00     0.237 C 
BRANCH   2   3
ATOM      3  N   UNL     1     -23.660  69.026  -0.471  1.00  0.00    -0.350 N 
ATOM      4  H   UNL     1     -23.615  68.147   0.095  1.00  0.00     0.345 HD
ATOM      5  H   UNL     1     -23.838  68.765  -1.468  1.00  0.00     0.345 HD
ATOM      6  H   UNL     1     -24.452  69.618  -0.125  1.00  0.00     0.345 HD
ENDBRANCH   2   3
BRANCH   2   7
ATOM      7  C   UNL     1     -21.237  68.815  -0.636  1.00  0.00     0.100 C 
ATOM      8  O   UNL     1     -20.323  68.675   0.220  1.00  0.00    -0.544 OA
ATOM      9  O   UNL     1     -21.181  68.095  -1.823  1.00  0.00    -0.544 OA
ENDBRANCH   2   7
ENDBRANCH   1   2
BRANCH   1  10
ATOM     10  C   UNL     1     -21.832  71.842   0.920  1.00  0.00     0.223 C 
ATOM     11  O   UNL     1     -21.256  72.254  -0.124  1.00  0.00    -0.275 OA
ATOM     12  N   UNL     1     -22.110  72.754   1.981  1.00  0.00    -0.369 N 
ATOM     13  H   UNL     1     -22.600  72.431   2.845  1.00  0.00     0.159 HD
ATOM     14  H   UNL     1     -21.829  73.757   1.903  1.00  0.00     0.159 HD
ENDBRANCH   1  10
TORSDOF 4
ENDMDL
MODEL 2
REMARK VINA RESULT:    -4.860      2.145      2.891
REMARK INTER + INTRA:          -5.965
REMARK INTER:                  -5.789
REMARK INTRA:                  -0.176
REMARK UNBOUND:                -0.110
REMARK SMILES NC(=O)C[C@H]([NH3+])C(=O)[O-]
REMARK SMILES IDX 4 1 5 2 6 3 7 7 8 8 9 9 2 10 3 11 1 12
REMARK H PARENT 6 4 6 5 6 6 1 13 1 14
REMARK Flexibility Score: inf
ROOT
ATOM      1  C   UNL     1     -21.397  70.212  -1.021  1.00  0.00     0.171 C 
ENDROOT
BRANCH   1   2
ATOM      2  C   UNL     1     -20.048  69.936  -0.329  1.00  0.00     0.237 C 
BRANCH   2   3
ATOM      3  N   UNL     1     -18.947  70.528  -1.097  1.00  0.00    -0.350 N 
ATOM      4  H   UNL     1     -19.332  71.118  -1.871  1.00  0.00     0.345 HD
ATOM      5  H   UNL     1     -18.364  69.771  -1.521  1.00  0.00     0.345 HD
ATOM      6  H   UNL     1     -18.344  71.121  -0.481  1.00  0.00     0.345 HD
ENDBRANCH   2   3
BRANCH   2   7
ATOM      7  C   UNL     1     -19.823  68.455  -0.161  1.00  0.00     0.100 C 
ATOM      8  O   UNL     1     -19.571  67.979   0.978  1.00  0.00    -0.544 OA
ATOM      9  O   UNL     1     -19.901  67.605  -1.257  1.00  0.00    -0.544 OA
ENDBRANCH   2   7
ENDBRANCH   1   2
BRANCH   1  10
ATOM     10  C   UNL     1     -22.556  69.929  -0.108  1.00  0.00     0.223 C 
ATOM     11  O   UNL     1     -22.665  70.556   0.980  1.00  0.00    -0.275 OA
ATOM     12  N   UNL     1     -23.554  68.980  -0.481  1.00  0.00    -0.369 N 
ATOM     13  H   UNL     1     -23.485  68.464  -1.387  1.00  0.00     0.159 HD
ATOM     14  H   UNL     1     -24.366  68.793   0.148  1.00  0.00     0.159 HD
ENDBRANCH   1  10
TORSDOF 4
ENDMDL
MODEL 3
REMARK VINA RESULT:    -4.853      2.713      4.566
REMARK INTER + INTRA:          -5.957
REMARK INTER:                  -5.841
REMARK INTRA:                  -0.116
REMARK UNBOUND:                -0.110
REMARK SMILES NC(=O)C[C@H]([NH3+])C(=O)[O-]
REMARK SMILES IDX 4 1 5 2 6 3 7 7 8 8 9 9 2 10 3 11 1 12
REMARK H PARENT 6 4 6 5 6 6 1 13 1 14
REMARK Flexibility Score: inf
ROOT
ATOM      1  C   UNL     1     -19.613  68.250  -0.808  1.00  0.00     0.171 C 
ENDROOT
BRANCH   1   2
ATOM      2  C   UNL     1     -20.082  69.702  -1.025  1.00  0.00     0.237 C 
BRANCH   2   3
ATOM      3  N   UNL     1     -18.928  70.595  -1.182  1.00  0.00    -0.350 N 
ATOM      4  H   UNL     1     -18.721  71.071  -0.274  1.00  0.00     0.345 HD
ATOM      5  H   UNL     1     -19.143  71.330  -1.895  1.00  0.00     0.345 HD
ATOM      6  H   UNL     1     -18.084  70.057  -1.489  1.00  0.00     0.345 HD
ENDBRANCH   2   3
BRANCH   2   7
ATOM      7  C   UNL     1     -20.941  70.166   0.123  1.00  0.00     0.100 C 
ATOM      8  O   UNL     1     -21.115  69.423   1.125  1.00  0.00    -0.544 OA
ATOM      9  O   UNL     1     -21.540  71.420   0.088  1.00  0.00    -0.544 OA
ENDBRANCH   2   7
ENDBRANCH   1   2
BRANCH   1  10
ATOM     10  C   UNL     1     -20.321  67.297  -1.729  1.00  0.00     0.223 C 
ATOM     11  O   UNL     1     -21.328  67.685  -2.380  1.00  0.00    -0.275 OA
ATOM     12  N   UNL     1     -19.838  65.965  -1.899  1.00  0.00    -0.369 N 
ATOM     13  H   UNL     1     -18.996  65.634  -1.378  1.00  0.00     0.159 HD
ATOM     14  H   UNL     1     -20.323  65.307  -2.549  1.00  0.00     0.159 HD
ENDBRANCH   1  10
TORSDOF 4
ENDMDL
MODEL 4
REMARK VINA RESULT:    -4.847      1.851      3.443
REMARK INTER + INTRA:          -5.949
REMARK INTER:                  -5.625
REMARK INTRA:                  -0.324
REMARK UNBOUND:                -0.110
REMARK SMILES NC(=O)C[C@H]([NH3+])C(=O)[O-]
REMARK SMILES IDX 4 1 5 2 6 3 7 7 8 8 9 9 2 10 3 11 1 12
REMARK H PARENT 6 4 6 5 6 6 1 13 1 14
REMARK Flexibility Score: inf
ROOT
ATOM      1  C   UNL     1     -21.033  69.240   1.073  1.00  0.00     0.171 C 
ENDROOT
BRANCH   1   2
ATOM      2  C   UNL     1     -22.264  70.156   0.933  1.00  0.00     0.237 C 
BRANCH   2   3
ATOM      3  N   UNL     1     -23.058  69.772  -0.240  1.00  0.00    -0.350 N 
ATOM      4  H   UNL     1     -22.685  70.250  -1.093  1.00  0.00     0.345 HD
ATOM      5  H   UNL     1     -24.053  70.069  -0.107  1.00  0.00     0.345 HD
ATOM      6  H   UNL     1     -23.027  68.736  -0.384  1.00  0.00     0.345 HD
ENDBRANCH   2   3
BRANCH   2   7
ATOM      7  C   UNL     1     -21.850  71.602   0.825  1.00  0.00     0.100 C 
ATOM      8  O   UNL     1     -22.122  72.408   1.754  1.00  0.00    -0.544 OA
ATOM      9  O   UNL     1     -21.157  72.052  -0.292  1.00  0.00    -0.544 OA
ENDBRANCH   2   7
ENDBRANCH   1   2
BRANCH   1  10
ATOM     10  C   UNL     1     -20.354  69.019  -0.248  1.00  0.00     0.223 C 
ATOM     11  O   UNL     1     -20.873  68.247  -1.098  1.00  0.00    -0.275 OA
ATOM     12  N   UNL     1     -19.143  69.706  -0.562  1.00  0.00    -0.369 N 
ATOM     13  H   UNL     1     -18.710  70.361   0.127  1.00  0.00     0.159 HD
ATOM     14  H   UNL     1     -18.679  69.562  -1.486  1.00  0.00     0.159 HD
ENDBRANCH   1  10
TORSDOF 4
ENDMDL
MODEL 5
REMARK VINA RESULT:    -4.820      2.098      3.256
REMARK INTER + INTRA:          -5.916
REMARK INTER:                  -5.719
REMARK INTRA:                  -0.198
REMARK UNBOUND:                -0.110
REMARK SMILES NC(=O)C[C@H]([NH3+])C(=O)[O-]
REMARK SMILES IDX 4 1 5 2 6 3 7 7 8 8 9 9 2 10 3 11 1 12
REMARK H PARENT 6 4 6 5 6 6 1 13 1 14
REMARK Flexibility Score: inf
ROOT
ATOM      1  C   UNL     1     -21.215  69.575  -1.345  1.00  0.00     0.171 C 
ENDROOT
BRANCH   1   2
ATOM      2  C   UNL     1     -22.059  69.114  -0.140  1.00  0.00     0.237 C 
BRANCH   2   3
ATOM      3  N   UNL     1     -23.484  69.097  -0.490  1.00  0.00    -0.350 N 
ATOM      4  H   UNL     1     -23.704  68.233  -1.039  1.00  0.00     0.345 HD
ATOM      5  H   UNL     1     -23.714  69.928  -1.083  1.00  0.00     0.345 HD
ATOM      6  H   UNL     1     -24.077  69.117   0.372  1.00  0.00     0.345 HD
ENDBRANCH   2   3
BRANCH   2   7
ATOM      7  C   UNL     1     -21.831  70.009   1.051  1.00  0.00     0.100 C 
ATOM      8  O   UNL     1     -21.472  69.516   2.153  1.00  0.00    -0.544 OA
ATOM      9  O   UNL     1     -22.004  71.384   0.939  1.00  0.00    -0.544 OA
ENDBRANCH   2   7
ENDBRANCH   1   2
BRANCH   1  10
ATOM     10  C   UNL     1     -19.743  69.473  -1.061  1.00  0.00     0.223 C 
ATOM     11  O   UNL     1     -19.229  68.348  -0.815  1.00  0.00    -0.275 OA
ATOM     12  N   UNL     1     -18.918  70.636  -1.102  1.00  0.00    -0.369 N 
ATOM     13  H   UNL     1     -19.327  71.571  -1.319  1.00  0.00     0.159 HD
ATOM     14  H   UNL     1     -17.892  70.561  -0.917  1.00  0.00     0.159 HD
ENDBRANCH   1  10
TORSDOF 4
ENDMDL
MODEL 6
REMARK VINA RESULT:    -4.719      2.118      2.433
REMARK INTER + INTRA:          -5.795
REMARK INTER:                  -5.553
REMARK INTRA:                  -0.242
REMARK UNBOUND:                -0.110
REMARK SMILES NC(=O)C[C@H]([NH3+])C(=O)[O-]
REMARK SMILES IDX 4 1 5 2 6 3 7 7 8 8 9 9 2 10 3 11 1 12
REMARK H PARENT 6 4 6 5 6 6 1 13 1 14
REMARK Flexibility Score: inf
ROOT
ATOM      1  C   UNL     1     -21.242  70.805  -0.560  1.00  0.00     0.171 C 
ENDROOT
BRANCH   1   2
ATOM      2  C   UNL     1     -20.130  69.755  -0.370  1.00  0.00     0.237 C 
BRANCH   2   3
ATOM      3  N   UNL     1     -18.852  70.263  -0.884  1.00  0.00    -0.350 N 
ATOM      4  H   UNL     1     -18.069  69.652  -0.555  1.00  0.00     0.345 HD
ATOM      5  H   UNL     1     -18.685  71.231  -0.524  1.00  0.00     0.345 HD
ATOM      6  H   UNL     1     -18.856  70.283  -1.930  1.00  0.00     0.345 HD
ENDBRANCH   2   3
BRANCH   2   7
ATOM      7  C   UNL     1     -20.486  68.463  -1.059  1.00  0.00     0.100 C 
ATOM      8  O   UNL     1     -19.627  67.550  -1.175  1.00  0.00    -0.544 OA
ATOM      9  O   UNL     1     -21.767  68.266  -1.563  1.00  0.00    -0.544 OA
ENDBRANCH   2   7
ENDBRANCH   1   2
BRANCH   1  10
ATOM     10  C   UNL     1     -22.136  70.889   0.644  1.00  0.00     0.223 C 
ATOM     11  O   UNL     1     -22.086  71.901   1.393  1.00  0.00    -0.275 OA
ATOM     12  N   UNL     1     -23.066  69.844   0.926  1.00  0.00    -0.369 N 
ATOM     13  H   UNL     1     -23.130  69.007   0.305  1.00  0.00     0.159 HD
ATOM     14  H   UNL     1     -23.697  69.910   1.756  1.00  0.00     0.159 HD
ENDBRANCH   1  10
TORSDOF 4
ENDMDL
MODEL 7
REMARK VINA RESULT:    -4.403      2.334      3.714
REMARK INTER + INTRA:          -5.415
REMARK INTER:                  -5.329
REMARK INTRA:                  -0.085
REMARK UNBOUND:                -0.110
REMARK SMILES NC(=O)C[C@H]([NH3+])C(=O)[O-]
REMARK SMILES IDX 4 1 5 2 6 3 7 7 8 8 9 9 2 10 3 11 1 12
REMARK H PARENT 6 4 6 5 6 6 1 13 1 14
REMARK Flexibility Score: inf
ROOT
ATOM      1  C   UNL     1     -19.894  70.012  -0.520  1.00  0.00     0.171 C 
ENDROOT
BRANCH   1   2
ATOM      2  C   UNL     1     -21.348  70.513  -0.413  1.00  0.00     0.237 C 
BRANCH   2   3
ATOM      3  N   UNL     1     -21.375  71.924  -0.010  1.00  0.00    -0.350 N 
ATOM      4  H   UNL     1     -20.397  72.285   0.085  1.00  0.00     0.345 HD
ATOM      5  H   UNL     1     -21.850  72.018   0.917  1.00  0.00     0.345 HD
ATOM      6  H   UNL     1     -21.887  72.501  -0.718  1.00  0.00     0.345 HD
ENDBRANCH   2   3
BRANCH   2   7
ATOM      7  C   UNL     1     -22.133  69.680   0.567  1.00  0.00     0.100 C 
ATOM      8  O   UNL     1     -23.139  69.028   0.180  1.00  0.00    -0.544 OA
ATOM      9  O   UNL     1     -21.749  69.619   1.902  1.00  0.00    -0.544 OA
ENDBRANCH   2   7
ENDBRANCH   1   2
BRANCH   1  10
ATOM     10  C   UNL     1     -19.823  68.512  -0.489  1.00  0.00     0.223 C 
ATOM     11  O   UNL     1     -20.111  67.849  -1.521  1.00  0.00    -0.275 OA
ATOM     12  N   UNL     1     -19.395  67.834   0.692  1.00  0.00    -0.369 N 
ATOM     13  H   UNL     1     -19.138  68.371   1.550  1.00  0.00     0.159 HD
ATOM     14  H   UNL     1     -19.333  66.792   0.708  1.00  0.00     0.159 HD
ENDBRANCH   1  10
TORSDOF 4
ENDMDL
MODEL 8
REMARK VINA RESULT:    -4.380      1.916      2.217
REMARK INTER + INTRA:          -5.387
REMARK INTER:                  -5.330
REMARK INTRA:                  -0.056
REMARK UNBOUND:                -0.110
REMARK SMILES NC(=O)C[C@H]([NH3+])C(=O)[O-]
REMARK SMILES IDX 4 1 5 2 6 3 7 7 8 8 9 9 2 10 3 11 1 12
REMARK H PARENT 6 4 6 5 6 6 1 13 1 14
REMARK Flexibility Score: inf
ROOT
ATOM      1  C   UNL     1     -22.302  69.275  -0.376  1.00  0.00     0.171 C 
ENDROOT
BRANCH   1   2
ATOM      2  C   UNL     1     -21.044  69.074  -1.244  1.00  0.00     0.237 C 
BRANCH   2   3
ATOM      3  N   UNL     1     -21.160  67.845  -2.038  1.00  0.00    -0.350 N 
ATOM      4  H   UNL     1     -20.992  68.059  -3.048  1.00  0.00     0.345 HD
ATOM      5  H   UNL     1     -22.125  67.452  -1.942  1.00  0.00     0.345 HD
ATOM      6  H   UNL     1     -20.466  67.131  -1.717  1.00  0.00     0.345 HD
ENDBRANCH   2   3
BRANCH   2   7
ATOM      7  C   UNL     1     -19.804  69.022  -0.389  1.00  0.00     0.100 C 
ATOM      8  O   UNL     1     -19.617  68.054   0.396  1.00  0.00    -0.544 OA
ATOM      9  O   UNL     1     -18.854  70.034  -0.468  1.00  0.00    -0.544 OA
ENDBRANCH   2   7
ENDBRANCH   1   2
BRANCH   1  10
ATOM     10  C   UNL     1     -22.043  70.219   0.764  1.00  0.00     0.223 C 
ATOM     11  O   UNL     1     -22.068  71.463   0.566  1.00  0.00    -0.275 OA
ATOM     12  N   UNL     1     -21.804  69.715   2.077  1.00  0.00    -0.369 N 
ATOM     13  H   UNL     1     -21.796  68.687   2.260  1.00  0.00     0.159 HD
ATOM     14  H   UNL     1     -21.637  70.373   2.872  1.00  0.00     0.159 HD
ENDBRANCH   1  10
TORSDOF 4
ENDMDL
MODEL 9
REMARK VINA RESULT:    -3.947     11.963     12.228
REMARK INTER + INTRA:          -4.865
REMARK INTER:                  -4.590
REMARK INTRA:                  -0.275
REMARK UNBOUND:                -0.110
REMARK SMILES NC(=O)C[C@H]([NH3+])C(=O)[O-]
REMARK SMILES IDX 4 1 5 2 6 3 7 7 8 8 9 9 2 10 3 11 1 12
REMARK H PARENT 6 4 6 5 6 6 1 13 1 14
REMARK Flexibility Score: inf
ROOT
ATOM      1  C   UNL     1     -10.024  73.996   3.546  1.00  0.00     0.171 C 
ENDROOT
BRANCH   1   2
ATOM      2  C   UNL     1     -10.036  72.854   2.511  1.00  0.00     0.237 C 
BRANCH   2   3
ATOM      3  N   UNL     1     -11.067  73.095   1.494  1.00  0.00    -0.350 N 
ATOM      4  H   UNL     1     -12.015  73.057   1.935  1.00  0.00     0.345 HD
ATOM      5  H   UNL     1     -11.018  72.353   0.758  1.00  0.00     0.345 HD
ATOM      6  H   UNL     1     -10.932  74.032   1.046  1.00  0.00     0.345 HD
ENDBRANCH   2   3
BRANCH   2   7
ATOM      7  C   UNL     1     -10.270  71.524   3.179  1.00  0.00     0.100 C 
ATOM      8  O   UNL     1     -10.672  71.478   4.372  1.00  0.00    -0.544 OA
ATOM      9  O   UNL     1     -10.054  70.341   2.483  1.00  0.00    -0.544 OA
ENDBRANCH   2   7
ENDBRANCH   1   2
BRANCH   1  10
ATOM     10  C   UNL     1     -10.414  75.308   2.928  1.00  0.00     0.223 C 
ATOM     11  O   UNL     1      -9.879  75.676   1.848  1.00  0.00    -0.275 OA
ATOM     12  N   UNL     1     -11.413  76.125   3.537  1.00  0.00    -0.369 N 
ATOM     13  H   UNL     1     -11.876  75.826   4.424  1.00  0.00     0.159 HD
ATOM     14  H   UNL     1     -11.693  77.031   3.099  1.00  0.00     0.159 HD
ENDBRANCH   1  10
TORSDOF 4
ENDMDL
