MODEL 1
REMARK VINA RESULT:    -4.455      0.000      0.000
REMARK INTER + INTRA:         -10.408
REMARK INTER:                  -8.361
REMARK INTRA:                  -2.047
REMARK UNBOUND:                -2.047
REMARK SMILES CCCCCCCCC=CCCCCCCCC(=O)[O-]
REMARK SMILES IDX 10 1 9 2 11 3 12 4 13 5 14 6 15 7 16 8 17 9 18 10 19 11
REMARK SMILES IDX 20 12 8 13 7 14 6 15 5 16 4 17 3 18 2 19 1 20
REMARK H PARENT
REMARK Flexibility Score: inf
ROOT
ATOM      1  C   UNL     1      -8.500  23.374  22.098  1.00  0.00    -0.031 C 
ATOM      2  C   UNL     1      -8.779  24.386  22.934  1.00  0.00    -0.031 C 
ENDROOT
BRANCH   1   3
ATOM      3  C   UNL     1      -9.233  22.064  22.174  1.00  0.00     0.027 C 
BRANCH   3   4
ATOM      4  C   UNL     1     -10.583  22.143  21.450  1.00  0.00     0.004 C 
BRANCH   4   5
ATOM      5  C   UNL     1     -10.661  21.114  20.316  1.00  0.00     0.000 C 
BRANCH   5   6
ATOM      6  C   UNL     1     -10.744  21.808  18.949  1.00  0.00     0.000 C 
BRANCH   6   7
ATOM      7  C   UNL     1     -10.947  23.330  19.058  1.00  0.00     0.000 C 
BRANCH   7   8
ATOM      8  C   UNL     1      -9.725  24.178  18.664  1.00  0.00     0.006 C 
BRANCH   8   9
ATOM      9  C   UNL     1     -10.070  25.655  18.434  1.00  0.00     0.053 C 
BRANCH   9  10
ATOM     10  C   UNL     1      -9.856  26.443  19.688  1.00  0.00     0.041 C 
ATOM     11  O   UNL     1      -8.843  27.179  19.809  1.00  0.00    -0.550 OA
ATOM     12  O   UNL     1     -10.803  26.402  20.704  1.00  0.00    -0.550 OA
ENDBRANCH   9  10
ENDBRANCH   8   9
ENDBRANCH   7   8
ENDBRANCH   6   7
ENDBRANCH   5   6
ENDBRANCH   4   5
ENDBRANCH   3   4
ENDBRANCH   1   3
BRANCH   2  13
ATOM     13  C   UNL     1      -8.031  25.689  22.869  1.00  0.00     0.027 C 
BRANCH  13  14
ATOM     14  C   UNL     1      -7.663  26.183  24.276  1.00  0.00     0.004 C 
BRANCH  14  15
ATOM     15  C   UNL     1      -8.483  25.501  25.387  1.00  0.00     0.000 C 
BRANCH  15  16
ATOM     16  C   UNL     1      -9.619  26.353  25.981  1.00  0.00     0.000 C 
BRANCH  16  17
ATOM     17  C   UNL     1      -9.646  27.787  25.429  1.00  0.00    -0.000 C 
BRANCH  17  18
ATOM     18  C   UNL     1     -10.960  28.119  24.702  1.00  0.00    -0.000 C 
BRANCH  18  19
ATOM     19  C   UNL     1     -10.814  29.220  23.631  1.00  0.00    -0.003 C 
ATOM     20  C   UNL     1      -9.470  29.148  22.904  1.00  0.00     0.004 C 
ENDBRANCH  18  19
ENDBRANCH  17  18
ENDBRANCH  16  17
ENDBRANCH  15  16
ENDBRANCH  14  15
ENDBRANCH  13  14
ENDBRANCH   2  13
TORSDOF 15
ENDMDL
MODEL 2
REMARK VINA RESULT:    -4.446      2.482      6.153
REMARK INTER + INTRA:         -10.391
REMARK INTER:                  -8.148
REMARK INTRA:                  -2.243
REMARK UNBOUND:                -2.047
REMARK SMILES CCCCCCCCC=CCCCCCCCC(=O)[O-]
REMARK SMILES IDX 10 1 9 2 11 3 12 4 13 5 14 6 15 7 16 8 17 9 18 10 19 11
REMARK SMILES IDX 20 12 8 13 7 14 6 15 5 16 4 17 3 18 2 19 1 20
REMARK H PARENT
REMARK Flexibility Score: inf
ROOT
ATOM      1  C   UNL     1      -9.296  22.852  21.988  1.00  0.00    -0.031 C 
ATOM      2  C   UNL     1     -10.548  22.652  21.549  1.00  0.00    -0.031 C 
ENDROOT
BRANCH   1   3
ATOM      3  C   UNL     1      -8.924  24.077  22.777  1.00  0.00     0.027 C 
BRANCH   3   4
ATOM      4  C   UNL     1      -7.767  24.832  22.113  1.00  0.00     0.004 C 
BRANCH   4   5
ATOM      5  C   UNL     1      -7.278  25.982  23.000  1.00  0.00     0.000 C 
BRANCH   5   6
ATOM      6  C   UNL     1      -7.886  25.889  24.407  1.00  0.00     0.000 C 
BRANCH   6   7
ATOM      7  C   UNL     1      -8.141  27.267  25.044  1.00  0.00     0.000 C 
BRANCH   7   8
ATOM      8  C   UNL     1      -9.497  27.905  24.691  1.00  0.00     0.006 C 
BRANCH   8   9
ATOM      9  C   UNL     1     -10.691  27.022  25.076  1.00  0.00     0.053 C 
BRANCH   9  10
ATOM     10  C   UNL     1     -10.764  26.861  26.561  1.00  0.00     0.041 C 
ATOM     11  O   UNL     1     -11.030  27.849  27.294  1.00  0.00    -0.550 OA
ATOM     12  O   UNL     1     -10.588  25.608  27.135  1.00  0.00    -0.550 OA
ENDBRANCH   9  10
ENDBRANCH   8   9
ENDBRANCH   7   8
ENDBRANCH   6   7
ENDBRANCH   5   6
ENDBRANCH   4   5
ENDBRANCH   3   4
ENDBRANCH   1   3
BRANCH   2  13
ATOM     13  C   UNL     1     -10.915  21.437  20.744  1.00  0.00     0.027 C 
BRANCH  13  14
ATOM     14  C   UNL     1     -11.037  21.781  19.252  1.00  0.00     0.004 C 
BRANCH  14  15
ATOM     15  C   UNL     1     -10.154  22.970  18.835  1.00  0.00     0.000 C 
BRANCH  15  16
ATOM     16  C   UNL     1     -10.854  24.038  17.974  1.00  0.00     0.000 C 
BRANCH  16  17
ATOM     17  C   UNL     1     -11.061  25.368  18.716  1.00  0.00    -0.000 C 
BRANCH  17  18
ATOM     18  C   UNL     1      -9.772  25.886  19.375  1.00  0.00    -0.000 C 
BRANCH  18  19
ATOM     19  C   UNL     1      -9.993  27.107  20.293  1.00  0.00    -0.003 C 
ATOM     20  C   UNL     1     -10.934  26.795  21.457  1.00  0.00     0.004 C 
ENDBRANCH  18  19
ENDBRANCH  17  18
ENDBRANCH  16  17
ENDBRANCH  15  16
ENDBRANCH  14  15
ENDBRANCH  13  14
ENDBRANCH   2  13
TORSDOF 15
ENDMDL
MODEL 3
REMARK VINA RESULT:    -4.428      1.365      6.073
REMARK INTER + INTRA:         -10.358
REMARK INTER:                  -7.947
REMARK INTRA:                  -2.410
REMARK UNBOUND:                -2.047
REMARK SMILES CCCCCCCCC=CCCCCCCCC(=O)[O-]
REMARK SMILES IDX 10 1 9 2 11 3 12 4 13 5 14 6 15 7 16 8 17 9 18 10 19 11
REMARK SMILES IDX 20 12 8 13 7 14 6 15 5 16 4 17 3 18 2 19 1 20
REMARK H PARENT
REMARK Flexibility Score: inf
ROOT
ATOM      1  C   UNL     1      -7.607  26.275  21.962  1.00  0.00    -0.031 C 
ATOM      2  C   UNL     1      -8.773  25.851  21.450  1.00  0.00    -0.031 C 
ENDROOT
BRANCH   1   3
ATOM      3  C   UNL     1      -7.301  26.153  23.429  1.00  0.00     0.027 C 
BRANCH   3   4
ATOM      4  C   UNL     1      -8.337  25.273  24.139  1.00  0.00     0.004 C 
BRANCH   4   5
ATOM      5  C   UNL     1      -8.578  25.755  25.574  1.00  0.00     0.000 C 
BRANCH   5   6
ATOM      6  C   UNL     1      -9.177  27.168  25.588  1.00  0.00     0.000 C 
BRANCH   6   7
ATOM      7  C   UNL     1     -10.697  27.178  25.345  1.00  0.00     0.000 C 
BRANCH   7   8
ATOM      8  C   UNL     1     -11.124  27.537  23.911  1.00  0.00     0.006 C 
BRANCH   8   9
ATOM      9  C   UNL     1     -11.007  29.037  23.609  1.00  0.00     0.053 C 
BRANCH   9  10
ATOM     10  C   UNL     1     -10.002  29.275  22.527  1.00  0.00     0.041 C 
ATOM     11  O   UNL     1      -8.823  29.605  22.818  1.00  0.00    -0.550 OA
ATOM     12  O   UNL     1     -10.355  29.084  21.196  1.00  0.00    -0.550 OA
ENDBRANCH   9  10
ENDBRANCH   8   9
ENDBRANCH   7   8
ENDBRANCH   6   7
ENDBRANCH   5   6
ENDBRANCH   4   5
ENDBRANCH   3   4
ENDBRANCH   1   3
BRANCH   2  13
ATOM     13  C   UNL     1      -9.086  25.991  19.986  1.00  0.00     0.027 C 
BRANCH  13  14
ATOM     14  C   UNL     1     -10.602  26.023  19.747  1.00  0.00     0.004 C 
BRANCH  14  15
ATOM     15  C   UNL     1     -11.110  24.817  18.937  1.00  0.00     0.000 C 
BRANCH  15  16
ATOM     16  C   UNL     1     -10.202  23.574  18.973  1.00  0.00     0.000 C 
BRANCH  16  17
ATOM     17  C   UNL     1     -10.987  22.260  19.112  1.00  0.00    -0.000 C 
BRANCH  17  18
ATOM     18  C   UNL     1     -10.660  21.507  20.413  1.00  0.00    -0.000 C 
BRANCH  18  19
ATOM     19  C   UNL     1     -10.372  22.436  21.611  1.00  0.00    -0.003 C 
ATOM     20  C   UNL     1      -8.970  22.229  22.183  1.00  0.00     0.004 C 
ENDBRANCH  18  19
ENDBRANCH  17  18
ENDBRANCH  16  17
ENDBRANCH  15  16
ENDBRANCH  14  15
ENDBRANCH  13  14
ENDBRANCH   2  13
TORSDOF 15
ENDMDL
MODEL 4
REMARK VINA RESULT:    -4.169      1.506      3.268
REMARK INTER + INTRA:          -9.872
REMARK INTER:                  -7.255
REMARK INTRA:                  -2.617
REMARK UNBOUND:                -2.047
REMARK SMILES CCCCCCCCC=CCCCCCCCC(=O)[O-]
REMARK SMILES IDX 10 1 9 2 11 3 12 4 13 5 14 6 15 7 16 8 17 9 18 10 19 11
REMARK SMILES IDX 20 12 8 13 7 14 6 15 5 16 4 17 3 18 2 19 1 20
REMARK H PARENT
REMARK Flexibility Score: inf
ROOT
ATOM      1  C   UNL     1      -8.530  26.127  21.311  1.00  0.00    -0.031 C 
ATOM      2  C   UNL     1      -9.809  26.515  21.431  1.00  0.00    -0.031 C 
ENDROOT
BRANCH   1   3
ATOM      3  C   UNL     1      -7.955  25.031  22.165  1.00  0.00     0.027 C 
BRANCH   3   4
ATOM      4  C   UNL     1      -9.052  24.076  22.650  1.00  0.00     0.004 C 
BRANCH   4   5
ATOM      5  C   UNL     1      -8.634  22.614  22.457  1.00  0.00     0.000 C 
BRANCH   5   6
ATOM      6  C   UNL     1      -9.636  21.868  21.563  1.00  0.00     0.000 C 
BRANCH   6   7
ATOM      7  C   UNL     1     -10.746  22.782  21.014  1.00  0.00     0.000 C 
BRANCH   7   8
ATOM      8  C   UNL     1     -10.899  22.770  19.483  1.00  0.00     0.006 C 
BRANCH   8   9
ATOM      9  C   UNL     1     -11.123  24.168  18.893  1.00  0.00     0.053 C 
BRANCH   9  10
ATOM     10  C   UNL     1      -9.892  24.639  18.185  1.00  0.00     0.041 C 
ATOM     11  O   UNL     1      -8.768  24.155  18.478  1.00  0.00    -0.550 OA
ATOM     12  O   UNL     1      -9.992  25.579  17.166  1.00  0.00    -0.550 OA
ENDBRANCH   9  10
ENDBRANCH   8   9
ENDBRANCH   7   8
ENDBRANCH   6   7
ENDBRANCH   5   6
ENDBRANCH   4   5
ENDBRANCH   3   4
ENDBRANCH   1   3
BRANCH   2  13
ATOM     13  C   UNL     1     -10.377  27.625  20.590  1.00  0.00     0.027 C 
BRANCH  13  14
ATOM     14  C   UNL     1     -10.957  28.741  21.471  1.00  0.00     0.004 C 
BRANCH  14  15
ATOM     15  C   UNL     1     -10.897  28.414  22.974  1.00  0.00     0.000 C 
BRANCH  15  16
ATOM     16  C   UNL     1      -9.786  29.137  23.759  1.00  0.00     0.000 C 
BRANCH  16  17
ATOM     17  C   UNL     1      -9.477  28.473  25.111  1.00  0.00    -0.000 C 
BRANCH  17  18
ATOM     18  C   UNL     1      -8.419  27.363  24.999  1.00  0.00    -0.000 C 
BRANCH  18  19
ATOM     19  C   UNL     1      -8.871  26.014  25.598  1.00  0.00    -0.003 C 
ATOM     20  C   UNL     1     -10.332  26.040  26.050  1.00  0.00     0.004 C 
ENDBRANCH  18  19
ENDBRANCH  17  18
ENDBRANCH  16  17
ENDBRANCH  15  16
ENDBRANCH  14  15
ENDBRANCH  13  14
ENDBRANCH   2  13
TORSDOF 15
ENDMDL
MODEL 5
REMARK VINA RESULT:    -4.144      1.668      5.829
REMARK INTER + INTRA:          -9.825
REMARK INTER:                  -8.095
REMARK INTRA:                  -1.730
REMARK UNBOUND:                -2.047
REMARK SMILES CCCCCCCCC=CCCCCCCCC(=O)[O-]
REMARK SMILES IDX 10 1 9 2 11 3 12 4 13 5 14 6 15 7 16 8 17 9 18 10 19 11
REMARK SMILES IDX 20 12 8 13 7 14 6 15 5 16 4 17 3 18 2 19 1 20
REMARK H PARENT
REMARK Flexibility Score: inf
ROOT
ATOM      1  C   UNL     1      -8.832  22.970  21.979  1.00  0.00    -0.031 C 
ATOM      2  C   UNL     1     -10.080  22.560  21.702  1.00  0.00    -0.031 C 
ENDROOT
BRANCH   1   3
ATOM      3  C   UNL     1      -8.573  24.216  22.781  1.00  0.00     0.027 C 
BRANCH   3   4
ATOM      4  C   UNL     1      -7.389  25.005  22.209  1.00  0.00     0.004 C 
BRANCH   4   5
ATOM      5  C   UNL     1      -7.072  26.228  23.078  1.00  0.00     0.000 C 
BRANCH   5   6
ATOM      6  C   UNL     1      -7.620  26.050  24.501  1.00  0.00     0.000 C 
BRANCH   6   7
ATOM      7  C   UNL     1      -8.313  27.314  25.040  1.00  0.00     0.000 C 
BRANCH   7   8
ATOM      8  C   UNL     1      -9.851  27.280  24.997  1.00  0.00     0.006 C 
BRANCH   8   9
ATOM      9  C   UNL     1     -10.442  28.250  23.965  1.00  0.00     0.053 C 
BRANCH   9  10
ATOM     10  C   UNL     1      -9.380  29.162  23.438  1.00  0.00     0.041 C 
ATOM     11  O   UNL     1      -8.999  29.068  22.243  1.00  0.00    -0.550 OA
ATOM     12  O   UNL     1      -8.846  30.152  24.254  1.00  0.00    -0.550 OA
ENDBRANCH   9  10
ENDBRANCH   8   9
ENDBRANCH   7   8
ENDBRANCH   6   7
ENDBRANCH   5   6
ENDBRANCH   4   5
ENDBRANCH   3   4
ENDBRANCH   1   3
BRANCH   2  13
ATOM     13  C   UNL     1     -10.338  21.326  20.883  1.00  0.00     0.027 C 
BRANCH  13  14
ATOM     14  C   UNL     1     -11.010  21.680  19.549  1.00  0.00     0.004 C 
BRANCH  14  15
ATOM     15  C   UNL     1     -10.237  22.746  18.751  1.00  0.00     0.000 C 
BRANCH  15  16
ATOM     16  C   UNL     1     -11.112  23.742  17.966  1.00  0.00     0.000 C 
BRANCH  16  17
ATOM     17  C   UNL     1     -10.724  25.208  18.215  1.00  0.00    -0.000 C 
BRANCH  17  18
ATOM     18  C   UNL     1      -9.965  25.406  19.538  1.00  0.00    -0.000 C 
BRANCH  18  19
ATOM     19  C   UNL     1     -10.814  26.061  20.647  1.00  0.00    -0.003 C 
ATOM     20  C   UNL     1     -11.114  27.532  20.356  1.00  0.00     0.004 C 
ENDBRANCH  18  19
ENDBRANCH  17  18
ENDBRANCH  16  17
ENDBRANCH  15  16
ENDBRANCH  14  15
ENDBRANCH  13  14
ENDBRANCH   2  13
TORSDOF 15
ENDMDL
MODEL 6
REMARK VINA RESULT:    -4.074      1.907      6.414
REMARK INTER + INTRA:          -9.694
REMARK INTER:                  -8.102
REMARK INTRA:                  -1.591
REMARK UNBOUND:                -2.047
REMARK SMILES CCCCCCCCC=CCCCCCCCC(=O)[O-]
REMARK SMILES IDX 10 1 9 2 11 3 12 4 13 5 14 6 15 7 16 8 17 9 18 10 19 11
REMARK SMILES IDX 20 12 8 13 7 14 6 15 5 16 4 17 3 18 2 19 1 20
REMARK H PARENT
REMARK Flexibility Score: inf
ROOT
ATOM      1  C   UNL     1      -8.152  24.720  21.941  1.00  0.00    -0.031 C 
ATOM      2  C   UNL     1      -8.725  23.843  22.779  1.00  0.00    -0.031 C 
ENDROOT
BRANCH   1   3
ATOM      3  C   UNL     1      -7.887  26.142  22.349  1.00  0.00     0.027 C 
BRANCH   3   4
ATOM      4  C   UNL     1      -8.656  27.125  21.458  1.00  0.00     0.004 C 
BRANCH   4   5
ATOM      5  C   UNL     1      -9.649  27.954  22.281  1.00  0.00     0.000 C 
BRANCH   5   6
ATOM      6  C   UNL     1      -8.931  28.721  23.401  1.00  0.00     0.000 C 
BRANCH   6   7
ATOM      7  C   UNL     1      -9.901  29.456  24.343  1.00  0.00     0.000 C 
BRANCH   7   8
ATOM      8  C   UNL     1     -10.736  28.543  25.258  1.00  0.00     0.006 C 
BRANCH   8   9
ATOM      9  C   UNL     1      -9.915  27.403  25.876  1.00  0.00     0.053 C 
BRANCH   9  10
ATOM     10  C   UNL     1     -10.683  26.120  25.825  1.00  0.00     0.041 C 
ATOM     11  O   UNL     1     -11.005  25.617  24.718  1.00  0.00    -0.550 OA
ATOM     12  O   UNL     1     -10.999  25.453  27.003  1.00  0.00    -0.550 OA
ENDBRANCH   9  10
ENDBRANCH   8   9
ENDBRANCH   7   8
ENDBRANCH   6   7
ENDBRANCH   5   6
ENDBRANCH   4   5
ENDBRANCH   3   4
ENDBRANCH   1   3
BRANCH   2  13
ATOM     13  C   UNL     1      -9.006  22.426  22.364  1.00  0.00     0.027 C 
BRANCH  13  14
ATOM     14  C   UNL     1     -10.325  22.333  21.582  1.00  0.00     0.004 C 
BRANCH  14  15
ATOM     15  C   UNL     1     -10.346  21.171  20.572  1.00  0.00     0.000 C 
BRANCH  15  16
ATOM     16  C   UNL     1     -10.907  21.521  19.181  1.00  0.00     0.000 C 
BRANCH  16  17
ATOM     17  C   UNL     1     -11.111  23.031  18.978  1.00  0.00    -0.000 C 
BRANCH  17  18
ATOM     18  C   UNL     1      -9.793  23.779  18.721  1.00  0.00    -0.000 C 
BRANCH  18  19
ATOM     19  C   UNL     1      -9.989  25.215  18.191  1.00  0.00    -0.003 C 
ATOM     20  C   UNL     1     -10.868  26.059  19.113  1.00  0.00     0.004 C 
ENDBRANCH  18  19
ENDBRANCH  17  18
ENDBRANCH  16  17
ENDBRANCH  15  16
ENDBRANCH  14  15
ENDBRANCH  13  14
ENDBRANCH   2  13
TORSDOF 15
ENDMDL
MODEL 7
REMARK VINA RESULT:    -4.008      1.666      3.189
REMARK INTER + INTRA:          -9.570
REMARK INTER:                  -7.968
REMARK INTRA:                  -1.602
REMARK UNBOUND:                -2.047
REMARK SMILES CCCCCCCCC=CCCCCCCCC(=O)[O-]
REMARK SMILES IDX 10 1 9 2 11 3 12 4 13 5 14 6 15 7 16 8 17 9 18 10 19 11
REMARK SMILES IDX 20 12 8 13 7 14 6 15 5 16 4 17 3 18 2 19 1 20
REMARK H PARENT
REMARK Flexibility Score: inf
ROOT
ATOM      1  C   UNL     1      -8.118  26.513  22.010  1.00  0.00    -0.031 C 
ATOM      2  C   UNL     1      -8.385  25.774  23.097  1.00  0.00    -0.031 C 
ENDROOT
BRANCH   1   3
ATOM      3  C   UNL     1      -8.468  26.036  20.628  1.00  0.00     0.027 C 
BRANCH   3   4
ATOM      4  C   UNL     1      -9.985  25.902  20.457  1.00  0.00     0.004 C 
BRANCH   4   5
ATOM      5  C   UNL     1     -10.348  25.566  19.005  1.00  0.00     0.000 C 
BRANCH   5   6
ATOM      6  C   UNL     1     -10.080  24.086  18.699  1.00  0.00     0.000 C 
BRANCH   6   7
ATOM      7  C   UNL     1     -11.100  23.141  19.359  1.00  0.00     0.000 C 
BRANCH   7   8
ATOM      8  C   UNL     1     -10.687  21.659  19.391  1.00  0.00     0.006 C 
BRANCH   8   9
ATOM      9  C   UNL     1     -10.487  21.123  20.815  1.00  0.00     0.053 C 
BRANCH   9  10
ATOM     10  C   UNL     1     -10.164  22.243  21.753  1.00  0.00     0.041 C 
ATOM     11  O   UNL     1     -11.087  22.855  22.352  1.00  0.00    -0.550 OA
ATOM     12  O   UNL     1      -8.840  22.579  22.005  1.00  0.00    -0.550 OA
ENDBRANCH   9  10
ENDBRANCH   8   9
ENDBRANCH   7   8
ENDBRANCH   6   7
ENDBRANCH   5   6
ENDBRANCH   4   5
ENDBRANCH   3   4
ENDBRANCH   1   3
BRANCH   2  13
ATOM     13  C   UNL     1      -8.018  26.243  24.478  1.00  0.00     0.027 C 
BRANCH  13  14
ATOM     14  C   UNL     1      -8.978  25.666  25.529  1.00  0.00     0.004 C 
BRANCH  14  15
ATOM     15  C   UNL     1      -9.837  26.745  26.214  1.00  0.00     0.000 C 
BRANCH  15  16
ATOM     16  C   UNL     1     -10.963  27.336  25.346  1.00  0.00     0.000 C 
BRANCH  16  17
ATOM     17  C   UNL     1     -11.080  28.863  25.471  1.00  0.00    -0.000 C 
BRANCH  17  18
ATOM     18  C   UNL     1     -11.121  29.570  24.106  1.00  0.00    -0.000 C 
BRANCH  18  19
ATOM     19  C   UNL     1      -9.839  29.377  23.269  1.00  0.00    -0.003 C 
ATOM     20  C   UNL     1      -8.589  29.871  23.999  1.00  0.00     0.004 C 
ENDBRANCH  18  19
ENDBRANCH  17  18
ENDBRANCH  16  17
ENDBRANCH  15  16
ENDBRANCH  14  15
ENDBRANCH  13  14
ENDBRANCH   2  13
TORSDOF 15
ENDMDL
MODEL 8
REMARK VINA RESULT:    -3.820      1.920      6.357
REMARK INTER + INTRA:          -9.216
REMARK INTER:                  -7.362
REMARK INTRA:                  -1.854
REMARK UNBOUND:                -2.047
REMARK SMILES CCCCCCCCC=CCCCCCCCC(=O)[O-]
REMARK SMILES IDX 10 1 9 2 11 3 12 4 13 5 14 6 15 7 16 8 17 9 18 10 19 11
REMARK SMILES IDX 20 12 8 13 7 14 6 15 5 16 4 17 3 18 2 19 1 20
REMARK H PARENT
REMARK Flexibility Score: inf
ROOT
ATOM      1  C   UNL     1      -9.241  25.970  19.998  1.00  0.00    -0.031 C 
ATOM      2  C   UNL     1     -10.153  25.571  19.098  1.00  0.00    -0.031 C 
ENDROOT
BRANCH   1   3
ATOM      3  C   UNL     1      -9.405  27.249  20.772  1.00  0.00     0.027 C 
BRANCH   3   4
ATOM      4  C   UNL     1     -10.859  27.732  20.740  1.00  0.00     0.004 C 
BRANCH   4   5
ATOM      5  C   UNL     1     -11.030  29.020  21.555  1.00  0.00     0.000 C 
BRANCH   5   6
ATOM      6  C   UNL     1     -10.125  29.011  22.795  1.00  0.00     0.000 C 
BRANCH   6   7
ATOM      7  C   UNL     1     -10.813  28.417  24.037  1.00  0.00     0.000 C 
BRANCH   7   8
ATOM      8  C   UNL     1     -10.742  26.884  24.148  1.00  0.00     0.006 C 
BRANCH   8   9
ATOM      9  C   UNL     1      -9.784  26.408  25.248  1.00  0.00     0.053 C 
BRANCH   9  10
ATOM     10  C   UNL     1      -8.373  26.758  24.898  1.00  0.00     0.041 C 
ATOM     11  O   UNL     1      -7.665  25.956  24.235  1.00  0.00    -0.550 OA
ATOM     12  O   UNL     1      -7.853  27.995  25.263  1.00  0.00    -0.550 OA
ENDBRANCH   9  10
ENDBRANCH   8   9
ENDBRANCH   7   8
ENDBRANCH   6   7
ENDBRANCH   5   6
ENDBRANCH   4   5
ENDBRANCH   3   4
ENDBRANCH   1   3
BRANCH   2  13
ATOM     13  C   UNL     1      -9.979  24.302  18.311  1.00  0.00     0.027 C 
BRANCH  13  14
ATOM     14  C   UNL     1     -11.122  23.317  18.595  1.00  0.00     0.004 C 
BRANCH  14  15
ATOM     15  C   UNL     1     -10.640  21.862  18.742  1.00  0.00     0.000 C 
BRANCH  15  16
ATOM     16  C   UNL     1     -11.113  21.141  20.018  1.00  0.00     0.000 C 
BRANCH  16  17
ATOM     17  C   UNL     1     -10.286  21.512  21.260  1.00  0.00    -0.000 C 
BRANCH  17  18
ATOM     18  C   UNL     1     -10.912  22.661  22.068  1.00  0.00    -0.000 C 
BRANCH  18  19
ATOM     19  C   UNL     1      -9.896  23.739  22.501  1.00  0.00    -0.003 C 
ATOM     20  C   UNL     1      -8.479  23.426  22.023  1.00  0.00     0.004 C 
ENDBRANCH  18  19
ENDBRANCH  17  18
ENDBRANCH  16  17
ENDBRANCH  15  16
ENDBRANCH  14  15
ENDBRANCH  13  14
ENDBRANCH   2  13
TORSDOF 15
ENDMDL
MODEL 9
REMARK VINA RESULT:    -3.818      2.005      6.318
REMARK INTER + INTRA:          -9.214
REMARK INTER:                  -7.715
REMARK INTRA:                  -1.499
REMARK UNBOUND:                -2.047
REMARK SMILES CCCCCCCCC=CCCCCCCCC(=O)[O-]
REMARK SMILES IDX 10 1 9 2 11 3 12 4 13 5 14 6 15 7 16 8 17 9 18 10 19 11
REMARK SMILES IDX 20 12 8 13 7 14 6 15 5 16 4 17 3 18 2 19 1 20
REMARK H PARENT
REMARK Flexibility Score: inf
ROOT
ATOM      1  C   UNL     1      -9.034  25.031  22.158  1.00  0.00    -0.031 C 
ATOM      2  C   UNL     1      -8.954  23.765  22.595  1.00  0.00    -0.031 C 
ENDROOT
BRANCH   1   3
ATOM      3  C   UNL     1      -7.922  26.016  22.391  1.00  0.00     0.027 C 
BRANCH   3   4
ATOM      4  C   UNL     1      -7.319  25.850  23.790  1.00  0.00     0.004 C 
BRANCH   4   5
ATOM      5  C   UNL     1      -8.088  26.681  24.824  1.00  0.00     0.000 C 
BRANCH   5   6
ATOM      6  C   UNL     1      -9.089  25.810  25.597  1.00  0.00     0.000 C 
BRANCH   6   7
ATOM      7  C   UNL     1     -10.554  26.206  25.339  1.00  0.00     0.000 C 
BRANCH   7   8
ATOM      8  C   UNL     1     -10.745  27.539  24.594  1.00  0.00     0.006 C 
BRANCH   8   9
ATOM      9  C   UNL     1     -10.697  28.758  25.526  1.00  0.00     0.053 C 
BRANCH   9  10
ATOM     10  C   UNL     1     -10.200  29.960  24.788  1.00  0.00     0.041 C 
ATOM     11  O   UNL     1     -10.681  31.097  25.030  1.00  0.00    -0.550 OA
ATOM     12  O   UNL     1      -9.167  29.832  23.866  1.00  0.00    -0.550 OA
ENDBRANCH   9  10
ENDBRANCH   8   9
ENDBRANCH   7   8
ENDBRANCH   6   7
ENDBRANCH   5   6
ENDBRANCH   4   5
ENDBRANCH   3   4
ENDBRANCH   1   3
BRANCH   2  13
ATOM     13  C   UNL     1     -10.074  22.786  22.379  1.00  0.00     0.027 C 
BRANCH  13  14
ATOM     14  C   UNL     1      -9.692  21.733  21.328  1.00  0.00     0.004 C 
BRANCH  14  15
ATOM     15  C   UNL     1     -10.887  21.276  20.472  1.00  0.00     0.000 C 
BRANCH  15  16
ATOM     16  C   UNL     1     -10.947  21.875  19.055  1.00  0.00     0.000 C 
BRANCH  16  17
ATOM     17  C   UNL     1     -10.278  23.256  18.958  1.00  0.00    -0.000 C 
BRANCH  17  18
ATOM     18  C   UNL     1     -10.691  24.028  17.694  1.00  0.00    -0.000 C 
BRANCH  18  19
ATOM     19  C   UNL     1     -11.125  25.483  17.972  1.00  0.00    -0.003 C 
ATOM     20  C   UNL     1     -10.719  25.954  19.368  1.00  0.00     0.004 C 
ENDBRANCH  18  19
ENDBRANCH  17  18
ENDBRANCH  16  17
ENDBRANCH  15  16
ENDBRANCH  14  15
ENDBRANCH  13  14
ENDBRANCH   2  13
TORSDOF 15
ENDMDL
