MODEL 1
REMARK VINA RESULT:    -4.203      0.000      0.000
REMARK INTER + INTRA:          -7.469
REMARK INTER:                  -6.414
REMARK INTRA:                  -1.055
REMARK UNBOUND:                -1.055
REMARK SMILES CCCCCCCCCCC(=O)[O-]
REMARK SMILES IDX 7 1 8 2 9 3 10 4 11 5 12 6 13 7 6 8 5 9 4 10 3 11 2 12 1 13
REMARK H PARENT
REMARK Flexibility Score: inf
ROOT
ATOM      1  C   UNL     1     -10.283  -6.316  -7.774  1.00  0.00     0.000 C 
ENDROOT
BRANCH   1   2
ATOM      2  C   UNL     1      -9.249  -6.067  -6.663  1.00  0.00     0.000 C 
BRANCH   2   3
ATOM      3  C   UNL     1      -9.625  -6.736  -5.329  1.00  0.00     0.006 C 
BRANCH   3   4
ATOM      4  C   UNL     1     -10.310  -8.106  -5.486  1.00  0.00     0.053 C 
BRANCH   4   5
ATOM      5  C   UNL     1      -9.409  -9.245  -5.120  1.00  0.00     0.041 C 
ATOM      6  O   UNL     1      -8.199  -9.032  -4.844  1.00  0.00    -0.550 OA
ATOM      7  O   UNL     1      -9.893 -10.548  -5.119  1.00  0.00    -0.550 OA
ENDBRANCH   4   5
ENDBRANCH   3   4
ENDBRANCH   2   3
ENDBRANCH   1   2
BRANCH   1   8
ATOM      8  C   UNL     1     -10.413  -5.124  -8.736  1.00  0.00     0.000 C 
BRANCH   8   9
ATOM      9  C   UNL     1     -10.841  -3.832  -8.024  1.00  0.00    -0.000 C 
BRANCH   9  10
ATOM     10  C   UNL     1     -12.275  -3.947  -7.494  1.00  0.00    -0.000 C 
BRANCH  10  11
ATOM     11  C   UNL     1     -12.289  -4.039  -5.961  1.00  0.00    -0.000 C 
BRANCH  11  12
ATOM     12  C   UNL     1     -12.980  -5.315  -5.453  1.00  0.00    -0.003 C 
ATOM     13  C   UNL     1     -13.019  -5.399  -3.927  1.00  0.00     0.004 C 
ENDBRANCH  11  12
ENDBRANCH  10  11
ENDBRANCH   9  10
ENDBRANCH   8   9
ENDBRANCH   1   8
TORSDOF 9
ENDMDL
MODEL 2
REMARK VINA RESULT:    -4.184      2.714      5.441
REMARK INTER + INTRA:          -7.440
REMARK INTER:                  -6.912
REMARK INTRA:                  -0.528
REMARK UNBOUND:                -1.055
REMARK SMILES CCCCCCCCCCC(=O)[O-]
REMARK SMILES IDX 7 1 8 2 9 3 10 4 11 5 12 6 13 7 6 8 5 9 4 10 3 11 2 12 1 13
REMARK H PARENT
REMARK Flexibility Score: inf
ROOT
ATOM      1  C   UNL     1     -10.472  -6.161  -7.477  1.00  0.00     0.000 C 
ENDROOT
BRANCH   1   2
ATOM      2  C   UNL     1     -10.468  -4.656  -7.793  1.00  0.00     0.000 C 
BRANCH   2   3
ATOM      3  C   UNL     1     -11.514  -3.869  -6.983  1.00  0.00     0.006 C 
BRANCH   3   4
ATOM      4  C   UNL     1     -12.566  -4.753  -6.291  1.00  0.00     0.053 C 
BRANCH   4   5
ATOM      5  C   UNL     1     -12.339  -4.870  -4.814  1.00  0.00     0.041 C 
ATOM      6  O   UNL     1     -11.220  -4.571  -4.320  1.00  0.00    -0.550 OA
ATOM      7  O   UNL     1     -13.350  -5.342  -3.986  1.00  0.00    -0.550 OA
ENDBRANCH   4   5
ENDBRANCH   3   4
ENDBRANCH   2   3
ENDBRANCH   1   2
BRANCH   1   8
ATOM      8  C   UNL     1      -9.359  -6.559  -6.493  1.00  0.00     0.000 C 
BRANCH   8   9
ATOM      9  C   UNL     1      -9.817  -7.618  -5.479  1.00  0.00    -0.000 C 
BRANCH   9  10
ATOM     10  C   UNL     1      -8.616  -8.237  -4.753  1.00  0.00    -0.000 C 
BRANCH  10  11
ATOM     11  C   UNL     1      -8.459  -9.722  -5.115  1.00  0.00    -0.000 C 
BRANCH  11  12
ATOM     12  C   UNL     1      -6.999 -10.196  -5.043  1.00  0.00    -0.003 C 
ATOM     13  C   UNL     1      -6.309 -10.196  -6.407  1.00  0.00     0.004 C 
ENDBRANCH  11  12
ENDBRANCH  10  11
ENDBRANCH   9  10
ENDBRANCH   8   9
ENDBRANCH   1   8
TORSDOF 9
ENDMDL
MODEL 3
REMARK VINA RESULT:    -4.149      1.681      2.378
REMARK INTER + INTRA:          -7.386
REMARK INTER:                  -6.837
REMARK INTRA:                  -0.549
REMARK UNBOUND:                -1.055
REMARK SMILES CCCCCCCCCCC(=O)[O-]
REMARK SMILES IDX 7 1 8 2 9 3 10 4 11 5 12 6 13 7 6 8 5 9 4 10 3 11 2 12 1 13
REMARK H PARENT
REMARK Flexibility Score: inf
ROOT
ATOM      1  C   UNL     1      -9.970  -7.312  -5.768  1.00  0.00     0.000 C 
ENDROOT
BRANCH   1   2
ATOM      2  C   UNL     1      -8.863  -7.820  -4.828  1.00  0.00     0.000 C 
BRANCH   2   3
ATOM      3  C   UNL     1      -8.730  -9.354  -4.829  1.00  0.00     0.006 C 
BRANCH   3   4
ATOM      4  C   UNL     1      -7.310  -9.860  -5.137  1.00  0.00     0.053 C 
BRANCH   4   5
ATOM      5  C   UNL     1      -7.300 -10.974  -6.138  1.00  0.00     0.041 C 
ATOM      6  O   UNL     1      -6.357 -11.074  -6.967  1.00  0.00    -0.550 OA
ATOM      7  O   UNL     1      -8.350 -11.884  -6.183  1.00  0.00    -0.550 OA
ENDBRANCH   4   5
ENDBRANCH   3   4
ENDBRANCH   2   3
ENDBRANCH   1   2
BRANCH   1   8
ATOM      8  C   UNL     1      -9.476  -6.208  -6.717  1.00  0.00     0.000 C 
BRANCH   8   9
ATOM      9  C   UNL     1     -10.555  -5.754  -7.711  1.00  0.00    -0.000 C 
BRANCH   9  10
ATOM     10  C   UNL     1     -10.674  -4.225  -7.731  1.00  0.00    -0.000 C 
BRANCH  10  11
ATOM     11  C   UNL     1     -11.541  -3.726  -6.565  1.00  0.00    -0.000 C 
BRANCH  11  12
ATOM     12  C   UNL     1     -12.728  -4.656  -6.272  1.00  0.00    -0.003 C 
ATOM     13  C   UNL     1     -12.761  -5.134  -4.820  1.00  0.00     0.004 C 
ENDBRANCH  11  12
ENDBRANCH  10  11
ENDBRANCH   9  10
ENDBRANCH   8   9
ENDBRANCH   1   8
TORSDOF 9
ENDMDL
MODEL 4
REMARK VINA RESULT:    -4.119      1.258      2.948
REMARK INTER + INTRA:          -7.341
REMARK INTER:                  -6.520
REMARK INTRA:                  -0.821
REMARK UNBOUND:                -1.055
REMARK SMILES CCCCCCCCCCC(=O)[O-]
REMARK SMILES IDX 7 1 8 2 9 3 10 4 11 5 12 6 13 7 6 8 5 9 4 10 3 11 2 12 1 13
REMARK H PARENT
REMARK Flexibility Score: inf
ROOT
ATOM      1  C   UNL     1     -11.205  -7.841  -5.900  1.00  0.00     0.000 C 
ENDROOT
BRANCH   1   2
ATOM      2  C   UNL     1      -9.842  -7.198  -5.593  1.00  0.00     0.000 C 
BRANCH   2   3
ATOM      3  C   UNL     1      -8.829  -8.192  -4.995  1.00  0.00     0.006 C 
BRANCH   3   4
ATOM      4  C   UNL     1      -9.277  -9.662  -5.066  1.00  0.00     0.053 C 
BRANCH   4   5
ATOM      5  C   UNL     1      -8.143 -10.596  -5.361  1.00  0.00     0.041 C 
ATOM      6  O   UNL     1      -8.339 -11.633  -6.049  1.00  0.00    -0.550 OA
ATOM      7  O   UNL     1      -6.877 -10.342  -4.849  1.00  0.00    -0.550 OA
ENDBRANCH   4   5
ENDBRANCH   3   4
ENDBRANCH   2   3
ENDBRANCH   1   2
BRANCH   1   8
ATOM      8  C   UNL     1     -12.385  -6.956  -5.464  1.00  0.00     0.000 C 
BRANCH   8   9
ATOM      9  C   UNL     1     -11.973  -5.495  -5.225  1.00  0.00    -0.000 C 
BRANCH   9  10
ATOM     10  C   UNL     1     -12.538  -4.581  -6.319  1.00  0.00    -0.000 C 
BRANCH  10  11
ATOM     11  C   UNL     1     -11.431  -3.715  -6.939  1.00  0.00    -0.000 C 
BRANCH  11  12
ATOM     12  C   UNL     1     -11.239  -3.989  -8.439  1.00  0.00    -0.003 C 
ATOM     13  C   UNL     1     -10.577  -5.339  -8.715  1.00  0.00     0.004 C 
ENDBRANCH  11  12
ENDBRANCH  10  11
ENDBRANCH   9  10
ENDBRANCH   8   9
ENDBRANCH   1   8
TORSDOF 9
ENDMDL
MODEL 5
REMARK VINA RESULT:    -4.109      1.992      3.750
REMARK INTER + INTRA:          -7.325
REMARK INTER:                  -6.997
REMARK INTRA:                  -0.328
REMARK UNBOUND:                -1.055
REMARK SMILES CCCCCCCCCCC(=O)[O-]
REMARK SMILES IDX 7 1 8 2 9 3 10 4 11 5 12 6 13 7 6 8 5 9 4 10 3 11 2 12 1 13
REMARK H PARENT
REMARK Flexibility Score: inf
ROOT
ATOM      1  C   UNL     1     -10.327  -7.818  -5.504  1.00  0.00     0.000 C 
ENDROOT
BRANCH   1   2
ATOM      2  C   UNL     1      -8.889  -8.104  -5.040  1.00  0.00     0.000 C 
BRANCH   2   3
ATOM      3  C   UNL     1      -8.556  -9.607  -5.001  1.00  0.00     0.006 C 
BRANCH   3   4
ATOM      4  C   UNL     1      -7.102  -9.937  -5.383  1.00  0.00     0.053 C 
BRANCH   4   5
ATOM      5  C   UNL     1      -7.000 -11.125  -6.288  1.00  0.00     0.041 C 
ATOM      6  O   UNL     1      -8.005 -11.859  -6.487  1.00  0.00    -0.550 OA
ATOM      7  O   UNL     1      -5.788 -11.448  -6.887  1.00  0.00    -0.550 OA
ENDBRANCH   4   5
ENDBRANCH   3   4
ENDBRANCH   2   3
ENDBRANCH   1   2
BRANCH   1   8
ATOM      8  C   UNL     1     -10.550  -6.338  -5.855  1.00  0.00     0.000 C 
BRANCH   8   9
ATOM      9  C   UNL     1      -9.616  -5.846  -6.971  1.00  0.00    -0.000 C 
BRANCH   9  10
ATOM     10  C   UNL     1     -10.407  -5.522  -8.244  1.00  0.00    -0.000 C 
BRANCH  10  11
ATOM     11  C   UNL     1     -10.938  -4.081  -8.210  1.00  0.00    -0.000 C 
BRANCH  11  12
ATOM     12  C   UNL     1     -11.351  -3.571  -9.599  1.00  0.00    -0.003 C 
ATOM     13  C   UNL     1     -11.082  -4.588 -10.707  1.00  0.00     0.004 C 
ENDBRANCH  11  12
ENDBRANCH  10  11
ENDBRANCH   9  10
ENDBRANCH   8   9
ENDBRANCH   1   8
TORSDOF 9
ENDMDL
MODEL 6
REMARK VINA RESULT:    -4.106      1.171      3.062
REMARK INTER + INTRA:          -7.321
REMARK INTER:                  -6.620
REMARK INTRA:                  -0.701
REMARK UNBOUND:                -1.055
REMARK SMILES CCCCCCCCCCC(=O)[O-]
REMARK SMILES IDX 7 1 8 2 9 3 10 4 11 5 12 6 13 7 6 8 5 9 4 10 3 11 2 12 1 13
REMARK H PARENT
REMARK Flexibility Score: inf
ROOT
ATOM      1  C   UNL     1     -11.994  -5.933  -5.340  1.00  0.00     0.000 C 
ENDROOT
BRANCH   1   2
ATOM      2  C   UNL     1     -10.469  -5.843  -5.163  1.00  0.00     0.000 C 
BRANCH   2   3
ATOM      3  C   UNL     1      -9.724  -7.064  -5.733  1.00  0.00     0.006 C 
BRANCH   3   4
ATOM      4  C   UNL     1      -8.888  -7.831  -4.693  1.00  0.00     0.053 C 
BRANCH   4   5
ATOM      5  C   UNL     1      -8.723  -9.278  -5.041  1.00  0.00     0.041 C 
ATOM      6  O   UNL     1      -7.573  -9.760  -5.223  1.00  0.00    -0.550 OA
ATOM      7  O   UNL     1      -9.839 -10.091  -5.202  1.00  0.00    -0.550 OA
ENDBRANCH   4   5
ENDBRANCH   3   4
ENDBRANCH   2   3
ENDBRANCH   1   2
BRANCH   1   8
ATOM      8  C   UNL     1     -12.541  -4.853  -6.288  1.00  0.00     0.000 C 
BRANCH   8   9
ATOM      9  C   UNL     1     -11.499  -3.776  -6.624  1.00  0.00    -0.000 C 
BRANCH   9  10
ATOM     10  C   UNL     1     -11.290  -3.668  -8.139  1.00  0.00    -0.000 C 
BRANCH  10  11
ATOM     11  C   UNL     1     -10.477  -4.859  -8.669  1.00  0.00    -0.000 C 
BRANCH  11  12
ATOM     12  C   UNL     1     -11.157  -5.553  -9.860  1.00  0.00    -0.003 C 
ATOM     13  C   UNL     1     -11.157  -4.696 -11.125  1.00  0.00     0.004 C 
ENDBRANCH  11  12
ENDBRANCH  10  11
ENDBRANCH   9  10
ENDBRANCH   8   9
ENDBRANCH   1   8
TORSDOF 9
ENDMDL
MODEL 7
REMARK VINA RESULT:    -4.085      3.677      6.709
REMARK INTER + INTRA:          -7.288
REMARK INTER:                  -6.956
REMARK INTRA:                  -0.332
REMARK UNBOUND:                -1.055
REMARK SMILES CCCCCCCCCCC(=O)[O-]
REMARK SMILES IDX 7 1 8 2 9 3 10 4 11 5 12 6 13 7 6 8 5 9 4 10 3 11 2 12 1 13
REMARK H PARENT
REMARK Flexibility Score: inf
ROOT
ATOM      1  C   UNL     1      -9.783  -7.260  -5.483  1.00  0.00     0.000 C 
ENDROOT
BRANCH   1   2
ATOM      2  C   UNL     1      -9.217  -6.278  -6.523  1.00  0.00     0.000 C 
BRANCH   2   3
ATOM      3  C   UNL     1     -10.303  -5.410  -7.185  1.00  0.00     0.006 C 
BRANCH   3   4
ATOM      4  C   UNL     1     -10.562  -5.749  -8.664  1.00  0.00     0.053 C 
BRANCH   4   5
ATOM      5  C   UNL     1     -10.827  -4.532  -9.495  1.00  0.00     0.041 C 
ATOM      6  O   UNL     1     -11.261  -3.479  -8.958  1.00  0.00    -0.550 OA
ATOM      7  O   UNL     1     -10.629  -4.567 -10.871  1.00  0.00    -0.550 OA
ENDBRANCH   4   5
ENDBRANCH   3   4
ENDBRANCH   2   3
ENDBRANCH   1   2
BRANCH   1   8
ATOM      8  C   UNL     1      -8.774  -8.353  -5.095  1.00  0.00     0.000 C 
BRANCH   8   9
ATOM      9  C   UNL     1      -9.399  -9.757  -5.077  1.00  0.00    -0.000 C 
BRANCH   9  10
ATOM     10  C   UNL     1      -8.377 -10.817  -5.505  1.00  0.00    -0.000 C 
BRANCH  10  11
ATOM     11  C   UNL     1      -6.944 -10.355  -5.199  1.00  0.00    -0.000 C 
BRANCH  11  12
ATOM     12  C   UNL     1      -6.038 -10.384  -6.440  1.00  0.00    -0.003 C 
ATOM     13  C   UNL     1      -4.608 -10.819  -6.119  1.00  0.00     0.004 C 
ENDBRANCH  11  12
ENDBRANCH  10  11
ENDBRANCH   9  10
ENDBRANCH   8   9
ENDBRANCH   1   8
TORSDOF 9
ENDMDL
MODEL 8
REMARK VINA RESULT:    -4.033      2.886      5.363
REMARK INTER + INTRA:          -7.210
REMARK INTER:                  -6.556
REMARK INTRA:                  -0.654
REMARK UNBOUND:                -1.055
REMARK SMILES CCCCCCCCCCC(=O)[O-]
REMARK SMILES IDX 7 1 8 2 9 3 10 4 11 5 12 6 13 7 6 8 5 9 4 10 3 11 2 12 1 13
REMARK H PARENT
REMARK Flexibility Score: inf
ROOT
ATOM      1  C   UNL     1     -12.539  -5.050  -6.144  1.00  0.00     0.000 C 
ENDROOT
BRANCH   1   2
ATOM      2  C   UNL     1     -11.888  -3.669  -6.337  1.00  0.00     0.000 C 
BRANCH   2   3
ATOM      3  C   UNL     1     -10.834  -3.652  -7.458  1.00  0.00     0.006 C 
BRANCH   3   4
ATOM      4  C   UNL     1     -11.428  -3.699  -8.878  1.00  0.00     0.053 C 
BRANCH   4   5
ATOM      5  C   UNL     1     -10.915  -4.857  -9.678  1.00  0.00     0.041 C 
ATOM      6  O   UNL     1     -10.969  -4.832 -10.936  1.00  0.00    -0.550 OA
ATOM      7  O   UNL     1     -10.409  -5.981  -9.036  1.00  0.00    -0.550 OA
ENDBRANCH   4   5
ENDBRANCH   3   4
ENDBRANCH   2   3
ENDBRANCH   1   2
BRANCH   1   8
ATOM      8  C   UNL     1     -11.790  -5.916  -5.118  1.00  0.00     0.000 C 
BRANCH   8   9
ATOM      9  C   UNL     1     -11.101  -7.131  -5.759  1.00  0.00    -0.000 C 
BRANCH   9  10
ATOM     10  C   UNL     1      -9.581  -6.934  -5.810  1.00  0.00    -0.000 C 
BRANCH  10  11
ATOM     11  C   UNL     1      -8.880  -7.794  -4.747  1.00  0.00    -0.000 C 
BRANCH  11  12
ATOM     12  C   UNL     1      -8.886  -9.289  -5.100  1.00  0.00    -0.003 C 
ATOM     13  C   UNL     1      -7.486  -9.903  -5.102  1.00  0.00     0.004 C 
ENDBRANCH  11  12
ENDBRANCH  10  11
ENDBRANCH   9  10
ENDBRANCH   8   9
ENDBRANCH   1   8
TORSDOF 9
ENDMDL
MODEL 9
REMARK VINA RESULT:    -3.920      3.027      5.695
REMARK INTER + INTRA:          -7.038
REMARK INTER:                  -6.394
REMARK INTRA:                  -0.644
REMARK UNBOUND:                -1.055
REMARK SMILES CCCCCCCCCCC(=O)[O-]
REMARK SMILES IDX 7 1 8 2 9 3 10 4 11 5 12 6 13 7 6 8 5 9 4 10 3 11 2 12 1 13
REMARK H PARENT
REMARK Flexibility Score: inf
ROOT
ATOM      1  C   UNL     1     -12.016  -6.360  -5.144  1.00  0.00     0.000 C 
ENDROOT
BRANCH   1   2
ATOM      2  C   UNL     1     -11.560  -4.904  -5.342  1.00  0.00     0.000 C 
BRANCH   2   3
ATOM      3  C   UNL     1     -12.084  -4.282  -6.650  1.00  0.00     0.006 C 
BRANCH   3   4
ATOM      4  C   UNL     1     -10.979  -3.725  -7.565  1.00  0.00     0.053 C 
BRANCH   4   5
ATOM      5  C   UNL     1     -10.943  -4.403  -8.901  1.00  0.00     0.041 C 
ATOM      6  O   UNL     1     -11.125  -3.738  -9.955  1.00  0.00    -0.550 OA
ATOM      7  O   UNL     1     -10.743  -5.776  -8.983  1.00  0.00    -0.550 OA
ENDBRANCH   4   5
ENDBRANCH   3   4
ENDBRANCH   2   3
ENDBRANCH   1   2
BRANCH   1   8
ATOM      8  C   UNL     1     -11.110  -7.365  -5.874  1.00  0.00     0.000 C 
BRANCH   8   9
ATOM      9  C   UNL     1      -9.625  -6.973  -5.819  1.00  0.00    -0.000 C 
BRANCH   9  10
ATOM     10  C   UNL     1      -8.883  -7.784  -4.749  1.00  0.00    -0.000 C 
BRANCH  10  11
ATOM     11  C   UNL     1      -8.865  -9.278  -5.106  1.00  0.00    -0.000 C 
BRANCH  11  12
ATOM     12  C   UNL     1      -7.445  -9.867  -5.110  1.00  0.00    -0.003 C 
ATOM     13  C   UNL     1      -7.316 -11.095  -6.010  1.00  0.00     0.004 C 
ENDBRANCH  11  12
ENDBRANCH  10  11
ENDBRANCH   9  10
ENDBRANCH   8   9
ENDBRANCH   1   8
TORSDOF 9
ENDMDL
