MODEL 1
REMARK VINA RESULT:    -7.897      0.000      0.000
REMARK INTER + INTRA:          -9.820
REMARK INTER:                  -9.513
REMARK INTRA:                  -0.308
REMARK UNBOUND:                -0.308
REMARK SMILES Oc1cc(O)c2c(c1)O[C@@H](c1ccc(O)c(O)c1)[C@H](O)C2
REMARK SMILES IDX 21 1 19 2 10 3 9 4 7 5 8 6 2 7 3 8 4 9 6 10 20 11 11 13
REMARK SMILES IDX 18 14 12 15 16 16 13 17 14 18 17 19 15 21 5 23 1 25
REMARK H PARENT 20 12 17 20 15 22 5 24 1 26
REMARK Flexibility Score: inf
ROOT
ATOM      1  C   UNL     1      -0.523  31.541   2.793  1.00  0.00     0.079 C 
ATOM      2  C   UNL     1       0.010  30.187   2.285  1.00  0.00     0.164 C 
ATOM      3  C   UNL     1       1.298  30.396   1.464  1.00  0.00     0.232 C 
ATOM      4  O   UNL     1       2.265  31.086   2.254  1.00  0.00    -0.482 OA
ATOM      5  C   UNL     1       1.916  32.116   3.133  1.00  0.00     0.131 A 
ATOM      6  C   UNL     1       2.931  32.870   3.729  1.00  0.00     0.093 A 
ATOM      7  C   UNL     1       2.615  33.915   4.599  1.00  0.00     0.122 A 
ATOM      8  C   UNL     1       1.275  34.216   4.867  1.00  0.00     0.092 A 
ATOM      9  C   UNL     1       0.245  33.472   4.279  1.00  0.00     0.126 A 
ATOM     10  C   UNL     1       0.561  32.384   3.431  1.00  0.00     0.039 A 
ENDROOT
BRANCH   2  11
ATOM     11  O   UNL     1      -0.974  29.517   1.536  1.00  0.00    -0.389 OA
ATOM     12  H   UNL     1      -1.646  30.191   1.252  1.00  0.00     0.211 HD
ENDBRANCH   2  11
BRANCH   3  13
ATOM     13  C   UNL     1       1.868  29.076   0.998  1.00  0.00    -0.001 A 
ATOM     14  C   UNL     1       2.315  28.918  -0.325  1.00  0.00     0.057 A 
ATOM     15  C   UNL     1       2.005  28.008   1.899  1.00  0.00     0.012 A 
ATOM     16  C   UNL     1       2.871  27.706  -0.751  1.00  0.00     0.157 A 
ATOM     17  C   UNL     1       2.559  26.796   1.479  1.00  0.00     0.050 A 
ATOM     18  C   UNL     1       2.992  26.637   0.155  1.00  0.00     0.157 A 
BRANCH  16  19
ATOM     19  O   UNL     1       3.297  27.582  -2.072  1.00  0.00    -0.504 OA
ATOM     20  H   UNL     1       3.003  28.227  -2.795  1.00  0.00     0.293 HD
ENDBRANCH  16  19
BRANCH  18  21
ATOM     21  O   UNL     1       3.542  25.427  -0.262  1.00  0.00    -0.504 OA
ATOM     22  H   UNL     1       4.300  25.392  -0.932  1.00  0.00     0.293 HD
ENDBRANCH  18  21
ENDBRANCH   3  13
BRANCH   9  23
ATOM     23  O   UNL     1      -1.073  33.848   4.549  1.00  0.00    -0.507 OA
ATOM     24  H   UNL     1      -1.358  34.287   5.415  1.00  0.00     0.293 HD
ENDBRANCH   9  23
BRANCH   7  25
ATOM     25  O   UNL     1       3.640  34.655   5.186  1.00  0.00    -0.508 OA
ATOM     26  H   UNL     1       3.704  34.767   6.190  1.00  0.00     0.293 HD
ENDBRANCH   7  25
TORSDOF 6
ENDMDL
MODEL 2
REMARK VINA RESULT:    -7.808      2.012      6.816
REMARK INTER + INTRA:          -9.713
REMARK INTER:                  -9.384
REMARK INTRA:                  -0.330
REMARK UNBOUND:                -0.308
REMARK SMILES Oc1cc(O)c2c(c1)O[C@@H](c1ccc(O)c(O)c1)[C@H](O)C2
REMARK SMILES IDX 21 1 19 2 10 3 9 4 7 5 8 6 2 7 3 8 4 9 6 10 20 11 11 13
REMARK SMILES IDX 18 14 12 15 16 16 13 17 14 18 17 19 15 21 5 23 1 25
REMARK H PARENT 20 12 17 20 15 22 5 24 1 26
REMARK Flexibility Score: inf
ROOT
ATOM      1  C   UNL     1       2.164  26.985   1.427  1.00  0.00     0.079 C 
ATOM      2  C   UNL     1       1.192  28.074   1.923  1.00  0.00     0.164 C 
ATOM      3  C   UNL     1       1.958  29.155   2.710  1.00  0.00     0.232 C 
ATOM      4  O   UNL     1       2.994  29.699   1.893  1.00  0.00    -0.482 OA
ATOM      5  C   UNL     1       3.753  28.910   1.022  1.00  0.00     0.131 A 
ATOM      6  C   UNL     1       4.870  29.474   0.398  1.00  0.00     0.093 A 
ATOM      7  C   UNL     1       5.656  28.708  -0.464  1.00  0.00     0.122 A 
ATOM      8  C   UNL     1       5.331  27.368  -0.698  1.00  0.00     0.092 A 
ATOM      9  C   UNL     1       4.216  26.786  -0.082  1.00  0.00     0.126 A 
ATOM     10  C   UNL     1       3.391  27.570   0.760  1.00  0.00     0.039 A 
ENDROOT
BRANCH   2  11
ATOM     11  O   UNL     1       0.165  27.503   2.698  1.00  0.00    -0.389 OA
ATOM     12  H   UNL     1      -0.215  28.222   3.269  1.00  0.00     0.211 HD
ENDBRANCH   2  11
BRANCH   3  13
ATOM     13  C   UNL     1       1.033  30.260   3.162  1.00  0.00    -0.001 A 
ATOM     14  C   UNL     1       1.057  30.713   4.493  1.00  0.00     0.057 A 
ATOM     15  C   UNL     1       0.172  30.882   2.243  1.00  0.00     0.012 A 
ATOM     16  C   UNL     1       0.221  31.756   4.906  1.00  0.00     0.157 A 
ATOM     17  C   UNL     1      -0.664  31.924   2.652  1.00  0.00     0.050 A 
ATOM     18  C   UNL     1      -0.647  32.365   3.982  1.00  0.00     0.157 A 
BRANCH  16  19
ATOM     19  O   UNL     1       0.266  32.175   6.235  1.00  0.00    -0.504 OA
ATOM     20  H   UNL     1      -0.124  33.059   6.535  1.00  0.00     0.293 HD
ENDBRANCH  16  19
BRANCH  18  21
ATOM     21  O   UNL     1      -1.483  33.403   4.388  1.00  0.00    -0.504 OA
ATOM     22  H   UNL     1      -1.336  33.891   5.263  1.00  0.00     0.293 HD
ENDBRANCH  18  21
ENDBRANCH   3  13
BRANCH   9  23
ATOM     23  O   UNL     1       3.968  25.432  -0.318  1.00  0.00    -0.507 OA
ATOM     24  H   UNL     1       3.598  25.079  -1.191  1.00  0.00     0.293 HD
ENDBRANCH   9  23
BRANCH   7  25
ATOM     25  O   UNL     1       6.765  29.287  -1.079  1.00  0.00    -0.508 OA
ATOM     26  H   UNL     1       6.798  29.436  -2.081  1.00  0.00     0.293 HD
ENDBRANCH   7  25
TORSDOF 6
ENDMDL
MODEL 3
REMARK VINA RESULT:    -7.701      5.067      6.634
REMARK INTER + INTRA:          -9.584
REMARK INTER:                  -9.435
REMARK INTRA:                  -0.149
REMARK UNBOUND:                -0.308
REMARK SMILES Oc1cc(O)c2c(c1)O[C@@H](c1ccc(O)c(O)c1)[C@H](O)C2
REMARK SMILES IDX 21 1 19 2 10 3 9 4 7 5 8 6 2 7 3 8 4 9 6 10 20 11 11 13
REMARK SMILES IDX 18 14 12 15 16 16 13 17 14 18 17 19 15 21 5 23 1 25
REMARK H PARENT 20 12 17 20 15 22 5 24 1 26
REMARK Flexibility Score: inf
ROOT
ATOM      1  C   UNL     1       4.442  28.012  -0.690  1.00  0.00     0.079 C 
ATOM      2  C   UNL     1       5.885  27.524  -0.920  1.00  0.00     0.164 C 
ATOM      3  C   UNL     1       6.843  28.727  -1.031  1.00  0.00     0.232 C 
ATOM      4  O   UNL     1       6.735  29.537   0.139  1.00  0.00    -0.482 OA
ATOM      5  C   UNL     1       5.511  29.774   0.774  1.00  0.00     0.131 A 
ATOM      6  C   UNL     1       5.454  30.725   1.798  1.00  0.00     0.093 A 
ATOM      7  C   UNL     1       4.245  30.996   2.441  1.00  0.00     0.122 A 
ATOM      8  C   UNL     1       3.083  30.320   2.052  1.00  0.00     0.092 A 
ATOM      9  C   UNL     1       3.121  29.365   1.029  1.00  0.00     0.126 A 
ATOM     10  C   UNL     1       4.353  29.055   0.404  1.00  0.00     0.039 A 
ENDROOT
BRANCH   2  11
ATOM     11  O   UNL     1       5.954  26.705  -2.061  1.00  0.00    -0.389 OA
ATOM     12  H   UNL     1       6.813  26.900  -2.520  1.00  0.00     0.211 HD
ENDBRANCH   2  11
BRANCH   3  13
ATOM     13  C   UNL     1       8.273  28.272  -1.204  1.00  0.00    -0.001 A 
ATOM     14  C   UNL     1       8.771  27.951  -2.479  1.00  0.00     0.057 A 
ATOM     15  C   UNL     1       9.136  28.212  -0.098  1.00  0.00     0.012 A 
ATOM     16  C   UNL     1      10.104  27.557  -2.645  1.00  0.00     0.157 A 
ATOM     17  C   UNL     1      10.467  27.819  -0.259  1.00  0.00     0.050 A 
ATOM     18  C   UNL     1      10.957  27.488  -1.530  1.00  0.00     0.157 A 
BRANCH  16  19
ATOM     19  O   UNL     1      10.563  27.239  -3.923  1.00  0.00    -0.504 OA
ATOM     20  H   UNL     1      10.349  27.813  -4.729  1.00  0.00     0.293 HD
ENDBRANCH  16  19
BRANCH  18  21
ATOM     21  O   UNL     1      12.284  27.095  -1.688  1.00  0.00    -0.504 OA
ATOM     22  H   UNL     1      12.527  26.183  -2.055  1.00  0.00     0.293 HD
ENDBRANCH  18  21
ENDBRANCH   3  13
BRANCH   9  23
ATOM     23  O   UNL     1       1.922  28.756   0.655  1.00  0.00    -0.507 OA
ATOM     24  H   UNL     1       1.208  29.223   0.111  1.00  0.00     0.293 HD
ENDBRANCH   9  23
BRANCH   7  25
ATOM     25  O   UNL     1       4.206  31.945   3.460  1.00  0.00    -0.508 OA
ATOM     26  H   UNL     1       3.670  32.800   3.368  1.00  0.00     0.293 HD
ENDBRANCH   7  25
TORSDOF 6
ENDMDL
MODEL 4
REMARK VINA RESULT:    -7.655      1.924      3.453
REMARK INTER + INTRA:          -9.529
REMARK INTER:                  -9.254
REMARK INTRA:                  -0.276
REMARK UNBOUND:                -0.308
REMARK SMILES Oc1cc(O)c2c(c1)O[C@@H](c1ccc(O)c(O)c1)[C@H](O)C2
REMARK SMILES IDX 21 1 19 2 10 3 9 4 7 5 8 6 2 7 3 8 4 9 6 10 20 11 11 13
REMARK SMILES IDX 18 14 12 15 16 16 13 17 14 18 17 19 15 21 5 23 1 25
REMARK H PARENT 20 12 17 20 15 22 5 24 1 26
REMARK Flexibility Score: inf
ROOT
ATOM      1  C   UNL     1       3.550  31.908   2.654  1.00  0.00     0.079 C 
ATOM      2  C   UNL     1       3.549  31.361   1.214  1.00  0.00     0.164 C 
ATOM      3  C   UNL     1       2.421  30.325   1.038  1.00  0.00     0.232 C 
ATOM      4  O   UNL     1       1.168  30.915   1.384  1.00  0.00    -0.482 OA
ATOM      5  C   UNL     1       1.031  31.807   2.453  1.00  0.00     0.131 A 
ATOM      6  C   UNL     1      -0.252  32.196   2.849  1.00  0.00     0.093 A 
ATOM      7  C   UNL     1      -0.423  33.073   3.921  1.00  0.00     0.122 A 
ATOM      8  C   UNL     1       0.695  33.556   4.610  1.00  0.00     0.092 A 
ATOM      9  C   UNL     1       1.987  33.178   4.228  1.00  0.00     0.126 A 
ATOM     10  C   UNL     1       2.168  32.324   3.114  1.00  0.00     0.039 A 
ENDROOT
BRANCH   2  11
ATOM     11  O   UNL     1       4.804  30.814   0.892  1.00  0.00    -0.389 OA
ATOM     12  H   UNL     1       4.687  29.833   0.789  1.00  0.00     0.211 HD
ENDBRANCH   2  11
BRANCH   3  13
ATOM     13  C   UNL     1       2.367  29.812  -0.382  1.00  0.00    -0.001 A 
ATOM     14  C   UNL     1       1.714  30.550  -1.384  1.00  0.00     0.057 A 
ATOM     15  C   UNL     1       3.014  28.614  -0.726  1.00  0.00     0.012 A 
ATOM     16  C   UNL     1       1.688  30.090  -2.706  1.00  0.00     0.157 A 
ATOM     17  C   UNL     1       2.990  28.151  -2.044  1.00  0.00     0.050 A 
ATOM     18  C   UNL     1       2.327  28.883  -3.039  1.00  0.00     0.157 A 
BRANCH  16  19
ATOM     19  O   UNL     1       1.025  30.845  -3.673  1.00  0.00    -0.504 OA
ATOM     20  H   UNL     1       0.816  31.826  -3.540  1.00  0.00     0.293 HD
ENDBRANCH  16  19
BRANCH  18  21
ATOM     21  O   UNL     1       2.304  28.419  -4.352  1.00  0.00    -0.504 OA
ATOM     22  H   UNL     1       1.669  27.686  -4.644  1.00  0.00     0.293 HD
ENDBRANCH  18  21
ENDBRANCH   3  13
BRANCH   9  23
ATOM     23  O   UNL     1       3.061  33.657   4.981  1.00  0.00    -0.507 OA
ATOM     24  H   UNL     1       3.447  33.163   5.776  1.00  0.00     0.293 HD
ENDBRANCH   9  23
BRANCH   7  25
ATOM     25  O   UNL     1      -1.709  33.452   4.301  1.00  0.00    -0.508 OA
ATOM     26  H   UNL     1      -2.509  32.854   4.131  1.00  0.00     0.293 HD
ENDBRANCH   7  25
TORSDOF 6
ENDMDL
MODEL 5
REMARK VINA RESULT:    -7.652      1.300      7.091
REMARK INTER + INTRA:          -9.526
REMARK INTER:                  -9.261
REMARK INTRA:                  -0.265
REMARK UNBOUND:                -0.308
REMARK SMILES Oc1cc(O)c2c(c1)O[C@@H](c1ccc(O)c(O)c1)[C@H](O)C2
REMARK SMILES IDX 21 1 19 2 10 3 9 4 7 5 8 6 2 7 3 8 4 9 6 10 20 11 11 13
REMARK SMILES IDX 18 14 12 15 16 16 13 17 14 18 17 19 15 21 5 23 1 25
REMARK H PARENT 20 12 17 20 15 22 5 24 1 26
REMARK Flexibility Score: inf
ROOT
ATOM      1  C   UNL     1       2.379  29.848  -0.228  1.00  0.00     0.079 C 
ATOM      2  C   UNL     1       2.228  31.004   0.779  1.00  0.00     0.164 C 
ATOM      3  C   UNL     1       1.071  30.713   1.755  1.00  0.00     0.232 C 
ATOM      4  O   UNL     1       1.296  29.464   2.408  1.00  0.00    -0.482 OA
ATOM      5  C   UNL     1       1.840  28.360   1.744  1.00  0.00     0.131 A 
ATOM      6  C   UNL     1       1.856  27.121   2.392  1.00  0.00     0.093 A 
ATOM      7  C   UNL     1       2.378  25.997   1.751  1.00  0.00     0.122 A 
ATOM      8  C   UNL     1       2.880  26.109   0.449  1.00  0.00     0.092 A 
ATOM      9  C   UNL     1       2.872  27.341  -0.216  1.00  0.00     0.126 A 
ATOM     10  C   UNL     1       2.384  28.492   0.446  1.00  0.00     0.039 A 
ENDROOT
BRANCH   2  11
ATOM     11  O   UNL     1       2.038  32.225   0.106  1.00  0.00    -0.389 OA
ATOM     12  H   UNL     1       2.696  32.264  -0.637  1.00  0.00     0.211 HD
ENDBRANCH   2  11
BRANCH   3  13
ATOM     13  C   UNL     1       0.937  31.810   2.786  1.00  0.00    -0.001 A 
ATOM     14  C   UNL     1      -0.332  32.261   3.188  1.00  0.00     0.057 A 
ATOM     15  C   UNL     1       2.081  32.355   3.390  1.00  0.00     0.012 A 
ATOM     16  C   UNL     1      -0.458  33.257   4.164  1.00  0.00     0.157 A 
ATOM     17  C   UNL     1       1.959  33.349   4.365  1.00  0.00     0.050 A 
ATOM     18  C   UNL     1       0.693  33.806   4.755  1.00  0.00     0.157 A 
BRANCH  16  19
ATOM     19  O   UNL     1      -1.732  33.685   4.534  1.00  0.00    -0.504 OA
ATOM     20  H   UNL     1      -2.376  34.097   3.870  1.00  0.00     0.293 HD
ENDBRANCH  16  19
BRANCH  18  21
ATOM     21  O   UNL     1       0.575  34.798   5.726  1.00  0.00    -0.504 OA
ATOM     22  H   UNL     1       0.141  34.614   6.622  1.00  0.00     0.293 HD
ENDBRANCH  18  21
ENDBRANCH   3  13
BRANCH   9  23
ATOM     23  O   UNL     1       3.344  27.380  -1.529  1.00  0.00    -0.507 OA
ATOM     24  H   UNL     1       3.782  28.196  -1.938  1.00  0.00     0.293 HD
ENDBRANCH   9  23
BRANCH   7  25
ATOM     25  O   UNL     1       2.388  24.771   2.412  1.00  0.00    -0.508 OA
ATOM     26  H   UNL     1       1.535  24.355   2.769  1.00  0.00     0.293 HD
ENDBRANCH   7  25
TORSDOF 6
ENDMDL
MODEL 6
REMARK VINA RESULT:    -7.596      1.856      3.345
REMARK INTER + INTRA:          -9.457
REMARK INTER:                  -9.314
REMARK INTRA:                  -0.144
REMARK UNBOUND:                -0.308
REMARK SMILES Oc1cc(O)c2c(c1)O[C@@H](c1ccc(O)c(O)c1)[C@H](O)C2
REMARK SMILES IDX 21 1 19 2 10 3 9 4 7 5 8 6 2 7 3 8 4 9 6 10 20 11 11 13
REMARK SMILES IDX 18 14 12 15 16 16 13 17 14 18 17 19 15 21 5 23 1 25
REMARK H PARENT 20 12 17 20 15 22 5 24 1 26
REMARK Flexibility Score: inf
ROOT
ATOM      1  C   UNL     1       2.367  30.921   4.381  1.00  0.00     0.079 C 
ATOM      2  C   UNL     1       3.273  30.249   3.331  1.00  0.00     0.164 C 
ATOM      3  C   UNL     1       2.487  29.170   2.561  1.00  0.00     0.232 C 
ATOM      4  O   UNL     1       1.326  29.751   1.968  1.00  0.00    -0.482 OA
ATOM      5  C   UNL     1       0.565  30.729   2.617  1.00  0.00     0.131 A 
ATOM      6  C   UNL     1      -0.658  31.114   2.061  1.00  0.00     0.093 A 
ATOM      7  C   UNL     1      -1.448  32.075   2.692  1.00  0.00     0.122 A 
ATOM      8  C   UNL     1      -1.019  32.649   3.894  1.00  0.00     0.092 A 
ATOM      9  C   UNL     1       0.203  32.277   4.466  1.00  0.00     0.126 A 
ATOM     10  C   UNL     1       1.028  31.334   3.807  1.00  0.00     0.039 A 
ENDROOT
BRANCH   2  11
ATOM     11  O   UNL     1       4.422  29.713   3.940  1.00  0.00    -0.389 OA
ATOM     12  H   UNL     1       4.379  28.725   3.847  1.00  0.00     0.211 HD
ENDBRANCH   2  11
BRANCH   3  13
ATOM     13  C   UNL     1       3.341  28.533   1.489  1.00  0.00    -0.001 A 
ATOM     14  C   UNL     1       3.107  27.208   1.082  1.00  0.00     0.057 A 
ATOM     15  C   UNL     1       4.347  29.277   0.852  1.00  0.00     0.012 A 
ATOM     16  C   UNL     1       3.878  26.626   0.069  1.00  0.00     0.157 A 
ATOM     17  C   UNL     1       5.119  28.700  -0.160  1.00  0.00     0.050 A 
ATOM     18  C   UNL     1       4.892  27.375  -0.554  1.00  0.00     0.157 A 
BRANCH  16  19
ATOM     19  O   UNL     1       3.623  25.307  -0.304  1.00  0.00    -0.504 OA
ATOM     20  H   UNL     1       2.825  24.793   0.048  1.00  0.00     0.293 HD
ENDBRANCH  16  19
BRANCH  18  21
ATOM     21  O   UNL     1       5.664  26.801  -1.562  1.00  0.00    -0.504 OA
ATOM     22  H   UNL     1       5.684  25.800  -1.710  1.00  0.00     0.293 HD
ENDBRANCH  18  21
ENDBRANCH   3  13
BRANCH   9  23
ATOM     23  O   UNL     1       0.557  32.851   5.689  1.00  0.00    -0.507 OA
ATOM     24  H   UNL     1       0.834  33.819   5.789  1.00  0.00     0.293 HD
ENDBRANCH   9  23
BRANCH   7  25
ATOM     25  O   UNL     1      -2.664  32.448   2.122  1.00  0.00    -0.508 OA
ATOM     26  H   UNL     1      -3.507  32.532   2.679  1.00  0.00     0.293 HD
ENDBRANCH   7  25
TORSDOF 6
ENDMDL
MODEL 7
REMARK VINA RESULT:    -7.530      2.978      8.373
REMARK INTER + INTRA:          -9.378
REMARK INTER:                  -9.233
REMARK INTRA:                  -0.145
REMARK UNBOUND:                -0.308
REMARK SMILES Oc1cc(O)c2c(c1)O[C@@H](c1ccc(O)c(O)c1)[C@H](O)C2
REMARK SMILES IDX 21 1 19 2 10 3 9 4 7 5 8 6 2 7 3 8 4 9 6 10 20 11 11 13
REMARK SMILES IDX 18 14 12 15 16 16 13 17 14 18 17 19 15 21 5 23 1 25
REMARK H PARENT 20 12 17 20 15 22 5 24 1 26
REMARK Flexibility Score: inf
ROOT
ATOM      1  C   UNL     1       1.018  32.875   4.564  1.00  0.00     0.079 C 
ATOM      2  C   UNL     1       1.242  34.376   4.836  1.00  0.00     0.164 C 
ATOM      3  C   UNL     1       2.740  34.658   5.066  1.00  0.00     0.232 C 
ATOM      4  O   UNL     1       3.493  34.202   3.943  1.00  0.00    -0.482 OA
ATOM      5  C   UNL     1       3.182  33.020   3.264  1.00  0.00     0.131 A 
ATOM      6  C   UNL     1       4.072  32.540   2.298  1.00  0.00     0.093 A 
ATOM      7  C   UNL     1       3.797  31.356   1.613  1.00  0.00     0.122 A 
ATOM      8  C   UNL     1       2.630  30.639   1.902  1.00  0.00     0.092 A 
ATOM      9  C   UNL     1       1.728  31.103   2.866  1.00  0.00     0.126 A 
ATOM     10  C   UNL     1       1.980  32.326   3.532  1.00  0.00     0.039 A 
ENDROOT
BRANCH   2  11
ATOM     11  O   UNL     1       0.464  34.802   5.927  1.00  0.00    -0.389 OA
ATOM     12  H   UNL     1       0.818  34.357   6.741  1.00  0.00     0.211 HD
ENDBRANCH   2  11
BRANCH   3  13
ATOM     13  C   UNL     1       2.990  36.132   5.283  1.00  0.00    -0.001 A 
ATOM     14  C   UNL     1       2.838  36.703   6.559  1.00  0.00     0.057 A 
ATOM     15  C   UNL     1       3.428  36.938   4.221  1.00  0.00     0.012 A 
ATOM     16  C   UNL     1       3.098  38.062   6.768  1.00  0.00     0.157 A 
ATOM     17  C   UNL     1       3.689  38.296   4.424  1.00  0.00     0.050 A 
ATOM     18  C   UNL     1       3.524  38.865   5.694  1.00  0.00     0.157 A 
BRANCH  16  19
ATOM     19  O   UNL     1       2.929  38.596   8.044  1.00  0.00    -0.504 OA
ATOM     20  H   UNL     1       3.225  39.536   8.278  1.00  0.00     0.293 HD
ENDBRANCH  16  19
BRANCH  18  21
ATOM     21  O   UNL     1       3.783  40.219   5.895  1.00  0.00    -0.504 OA
ATOM     22  H   UNL     1       4.636  40.536   6.340  1.00  0.00     0.293 HD
ENDBRANCH  18  21
ENDBRANCH   3  13
BRANCH   9  23
ATOM     23  O   UNL     1       0.604  30.322   3.142  1.00  0.00    -0.507 OA
ATOM     24  H   UNL     1       0.659  29.373   3.488  1.00  0.00     0.293 HD
ENDBRANCH   9  23
BRANCH   7  25
ATOM     25  O   UNL     1       4.695  30.893   0.652  1.00  0.00    -0.508 OA
ATOM     26  H   UNL     1       5.214  30.033   0.783  1.00  0.00     0.293 HD
ENDBRANCH   7  25
TORSDOF 6
ENDMDL
MODEL 8
REMARK VINA RESULT:    -7.463      1.791      7.114
REMARK INTER + INTRA:          -9.297
REMARK INTER:                  -8.945
REMARK INTRA:                  -0.352
REMARK UNBOUND:                -0.308
REMARK SMILES Oc1cc(O)c2c(c1)O[C@@H](c1ccc(O)c(O)c1)[C@H](O)C2
REMARK SMILES IDX 21 1 19 2 10 3 9 4 7 5 8 6 2 7 3 8 4 9 6 10 20 11 11 13
REMARK SMILES IDX 18 14 12 15 16 16 13 17 14 18 17 19 15 21 5 23 1 25
REMARK H PARENT 20 12 17 20 15 22 5 24 1 26
REMARK Flexibility Score: inf
ROOT
ATOM      1  C   UNL     1       3.431  29.115   1.037  1.00  0.00     0.079 C 
ATOM      2  C   UNL     1       2.818  29.985   2.151  1.00  0.00     0.164 C 
ATOM      3  C   UNL     1       2.784  31.463   1.715  1.00  0.00     0.232 C 
ATOM      4  O   UNL     1       2.065  31.585   0.488  1.00  0.00    -0.482 OA
ATOM      5  C   UNL     1       2.166  30.638  -0.536  1.00  0.00     0.131 A 
ATOM      6  C   UNL     1       1.585  30.917  -1.776  1.00  0.00     0.093 A 
ATOM      7  C   UNL     1       1.681  29.999  -2.823  1.00  0.00     0.122 A 
ATOM      8  C   UNL     1       2.373  28.798  -2.633  1.00  0.00     0.092 A 
ATOM      9  C   UNL     1       2.962  28.501  -1.398  1.00  0.00     0.126 A 
ATOM     10  C   UNL     1       2.829  29.408  -0.321  1.00  0.00     0.039 A 
ENDROOT
BRANCH   2  11
ATOM     11  O   UNL     1       3.529  29.820   3.354  1.00  0.00    -0.389 OA
ATOM     12  H   UNL     1       4.466  29.590   3.121  1.00  0.00     0.211 HD
ENDBRANCH   2  11
BRANCH   3  13
ATOM     13  C   UNL     1       2.139  32.329   2.771  1.00  0.00    -0.001 A 
ATOM     14  C   UNL     1       0.757  32.246   3.018  1.00  0.00     0.057 A 
ATOM     15  C   UNL     1       2.923  33.192   3.554  1.00  0.00     0.012 A 
ATOM     16  C   UNL     1       0.163  33.027   4.016  1.00  0.00     0.157 A 
ATOM     17  C   UNL     1       2.333  33.974   4.551  1.00  0.00     0.050 A 
ATOM     18  C   UNL     1       0.954  33.897   4.786  1.00  0.00     0.157 A 
BRANCH  16  19
ATOM     19  O   UNL     1      -1.211  32.923   4.229  1.00  0.00    -0.504 OA
ATOM     20  H   UNL     1      -1.815  33.736   4.254  1.00  0.00     0.293 HD
ENDBRANCH  16  19
BRANCH  18  21
ATOM     21  O   UNL     1       0.368  34.679   5.780  1.00  0.00    -0.504 OA
ATOM     22  H   UNL     1      -0.198  35.487   5.554  1.00  0.00     0.293 HD
ENDBRANCH  18  21
ENDBRANCH   3  13
BRANCH   9  23
ATOM     23  O   UNL     1       3.677  27.307  -1.283  1.00  0.00    -0.507 OA
ATOM     24  H   UNL     1       4.568  27.147  -1.734  1.00  0.00     0.293 HD
ENDBRANCH   9  23
BRANCH   7  25
ATOM     25  O   UNL     1       1.094  30.294  -4.052  1.00  0.00    -0.508 OA
ATOM     26  H   UNL     1       1.470  29.930  -4.919  1.00  0.00     0.293 HD
ENDBRANCH   7  25
TORSDOF 6
ENDMDL
MODEL 9
REMARK VINA RESULT:    -7.364      3.755      4.850
REMARK INTER + INTRA:          -9.179
REMARK INTER:                  -8.818
REMARK INTRA:                  -0.361
REMARK UNBOUND:                -0.308
REMARK SMILES Oc1cc(O)c2c(c1)O[C@@H](c1ccc(O)c(O)c1)[C@H](O)C2
REMARK SMILES IDX 21 1 19 2 10 3 9 4 7 5 8 6 2 7 3 8 4 9 6 10 20 11 11 13
REMARK SMILES IDX 18 14 12 15 16 16 13 17 14 18 17 19 15 21 5 23 1 25
REMARK H PARENT 20 12 17 20 15 22 5 24 1 26
REMARK Flexibility Score: inf
ROOT
ATOM      1  C   UNL     1       4.836  32.781   0.894  1.00  0.00     0.079 C 
ATOM      2  C   UNL     1       4.078  31.469   1.178  1.00  0.00     0.164 C 
ATOM      3  C   UNL     1       4.992  30.257   0.915  1.00  0.00     0.232 C 
ATOM      4  O   UNL     1       6.177  30.368   1.702  1.00  0.00    -0.482 OA
ATOM      5  C   UNL     1       6.818  31.592   1.922  1.00  0.00     0.131 A 
ATOM      6  C   UNL     1       8.071  31.599   2.541  1.00  0.00     0.093 A 
ATOM      7  C   UNL     1       8.742  32.802   2.761  1.00  0.00     0.122 A 
ATOM      8  C   UNL     1       8.163  34.008   2.349  1.00  0.00     0.092 A 
ATOM      9  C   UNL     1       6.909  34.021   1.727  1.00  0.00     0.126 A 
ATOM     10  C   UNL     1       6.205  32.808   1.542  1.00  0.00     0.039 A 
ENDROOT
BRANCH   2  11
ATOM     11  O   UNL     1       2.901  31.403   0.411  1.00  0.00    -0.389 OA
ATOM     12  H   UNL     1       2.369  30.633   0.743  1.00  0.00     0.211 HD
ENDBRANCH   2  11
BRANCH   3  13
ATOM     13  C   UNL     1       4.286  28.961   1.237  1.00  0.00    -0.001 A 
ATOM     14  C   UNL     1       4.198  27.937   0.278  1.00  0.00     0.057 A 
ATOM     15  C   UNL     1       3.754  28.745   2.518  1.00  0.00     0.012 A 
ATOM     16  C   UNL     1       3.570  26.724   0.584  1.00  0.00     0.157 A 
ATOM     17  C   UNL     1       3.126  27.536   2.829  1.00  0.00     0.050 A 
ATOM     18  C   UNL     1       3.028  26.523   1.866  1.00  0.00     0.157 A 
BRANCH  16  19
ATOM     19  O   UNL     1       3.495  25.734  -0.394  1.00  0.00    -0.504 OA
ATOM     20  H   UNL     1       4.317  25.380  -0.866  1.00  0.00     0.293 HD
ENDBRANCH  16  19
BRANCH  18  21
ATOM     21  O   UNL     1       2.400  25.318   2.177  1.00  0.00    -0.504 OA
ATOM     22  H   UNL     1       1.412  25.276   2.395  1.00  0.00     0.293 HD
ENDBRANCH  18  21
ENDBRANCH   3  13
BRANCH   9  23
ATOM     23  O   UNL     1       6.403  35.250   1.298  1.00  0.00    -0.507 OA
ATOM     24  H   UNL     1       6.827  35.799   0.561  1.00  0.00     0.293 HD
ENDBRANCH   9  23
BRANCH   7  25
ATOM     25  O   UNL     1       9.990  32.790   3.381  1.00  0.00    -0.508 OA
ATOM     26  H   UNL     1      10.080  32.802   4.391  1.00  0.00     0.293 HD
ENDBRANCH   7  25
TORSDOF 6
ENDMDL
