MODEL 1
REMARK VINA RESULT:    -4.062      0.000      0.000
REMARK INTER + INTRA:          -9.699
REMARK INTER:                  -7.624
REMARK INTRA:                  -2.075
REMARK UNBOUND:                -2.075
REMARK SMILES O=C([O-])CCCCCCCCCCCCCCC(=O)[O-]
REMARK SMILES IDX 10 1 9 2 8 3 7 4 6 5 5 6 4 7 2 8 1 9 3 10 11 11 12 12 13 13
REMARK SMILES IDX 14 14 15 15 16 16 17 17 18 18 19 19 20 20
REMARK H PARENT
REMARK Flexibility Score: inf
ROOT
ATOM      1  C   UNL     1       0.372  17.394  27.467  1.00  0.00     0.000 C 
ENDROOT
BRANCH   1   2
ATOM      2  C   UNL     1       1.708  16.638  27.481  1.00  0.00     0.000 C 
BRANCH   2   3
ATOM      3  C   UNL     1       2.050  16.152  28.895  1.00  0.00     0.000 C 
BRANCH   3   4
ATOM      4  C   UNL     1       2.581  14.711  28.868  1.00  0.00     0.000 C 
BRANCH   4   5
ATOM      5  C   UNL     1       1.478  13.667  29.096  1.00  0.00     0.000 C 
BRANCH   5   6
ATOM      6  C   UNL     1       0.519  14.057  30.233  1.00  0.00     0.006 C 
BRANCH   6   7
ATOM      7  C   UNL     1      -0.952  13.853  29.845  1.00  0.00     0.053 C 
BRANCH   7   8
ATOM      8  C   UNL     1      -1.532  12.630  30.488  1.00  0.00     0.041 C 
ATOM      9  O   UNL     1      -2.131  12.716  31.592  1.00  0.00    -0.550 OA
ATOM     10  O   UNL     1      -1.436  11.399  29.851  1.00  0.00    -0.550 OA
ENDBRANCH   7   8
ENDBRANCH   6   7
ENDBRANCH   5   6
ENDBRANCH   4   5
ENDBRANCH   3   4
ENDBRANCH   2   3
ENDBRANCH   1   2
BRANCH   1  11
ATOM     11  C   UNL     1      -0.338  17.377  28.833  1.00  0.00     0.000 C 
BRANCH  11  12
ATOM     12  C   UNL     1      -1.323  18.539  29.069  1.00  0.00     0.000 C 
BRANCH  12  13
ATOM     13  C   UNL     1      -0.768  19.710  29.904  1.00  0.00     0.000 C 
BRANCH  13  14
ATOM     14  C   UNL     1       0.591  19.443  30.576  1.00  0.00     0.000 C 
BRANCH  14  15
ATOM     15  C   UNL     1       1.728  20.284  29.979  1.00  0.00     0.000 C 
BRANCH  15  16
ATOM     16  C   UNL     1       3.044  19.494  29.959  1.00  0.00     0.006 C 
BRANCH  16  17
ATOM     17  C   UNL     1       3.726  19.535  28.585  1.00  0.00     0.053 C 
BRANCH  17  18
ATOM     18  C   UNL     1       5.140  19.047  28.652  1.00  0.00     0.041 C 
ATOM     19  O   UNL     1       6.090  19.866  28.764  1.00  0.00    -0.550 OA
ATOM     20  O   UNL     1       5.411  17.688  28.556  1.00  0.00    -0.550 OA
ENDBRANCH  17  18
ENDBRANCH  16  17
ENDBRANCH  15  16
ENDBRANCH  14  15
ENDBRANCH  13  14
ENDBRANCH  12  13
ENDBRANCH  11  12
ENDBRANCH   1  11
TORSDOF 15
ENDMDL
MODEL 2
REMARK VINA RESULT:    -4.034      1.718      3.043
REMARK INTER + INTRA:          -9.646
REMARK INTER:                  -7.012
REMARK INTRA:                  -2.634
REMARK UNBOUND:                -2.075
REMARK SMILES O=C([O-])CCCCCCCCCCCCCCC(=O)[O-]
REMARK SMILES IDX 10 1 9 2 8 3 7 4 6 5 5 6 4 7 2 8 1 9 3 10 11 11 12 12 13 13
REMARK SMILES IDX 14 14 15 15 16 16 17 17 18 18 19 19 20 20
REMARK H PARENT
REMARK Flexibility Score: inf
ROOT
ATOM      1  C   UNL     1       0.674  19.280  30.154  1.00  0.00     0.000 C 
ENDROOT
BRANCH   1   2
ATOM      2  C   UNL     1       1.038  18.466  31.404  1.00  0.00     0.000 C 
BRANCH   2   3
ATOM      3  C   UNL     1       2.521  18.073  31.390  1.00  0.00     0.000 C 
BRANCH   3   4
ATOM      4  C   UNL     1       2.690  16.556  31.569  1.00  0.00     0.000 C 
BRANCH   4   5
ATOM      5  C   UNL     1       1.401  15.775  31.272  1.00  0.00     0.000 C 
BRANCH   5   6
ATOM      6  C   UNL     1       1.674  14.325  30.838  1.00  0.00     0.006 C 
BRANCH   6   7
ATOM      7  C   UNL     1       0.532  13.751  29.987  1.00  0.00     0.053 C 
BRANCH   7   8
ATOM      8  C   UNL     1       1.033  12.767  28.975  1.00  0.00     0.041 C 
ATOM      9  O   UNL     1       2.168  12.917  28.452  1.00  0.00    -0.550 OA
ATOM     10  O   UNL     1       0.257  11.666  28.633  1.00  0.00    -0.550 OA
ENDBRANCH   7   8
ENDBRANCH   6   7
ENDBRANCH   5   6
ENDBRANCH   4   5
ENDBRANCH   3   4
ENDBRANCH   2   3
ENDBRANCH   1   2
BRANCH   1  11
ATOM     11  C   UNL     1      -0.630  18.801  29.489  1.00  0.00     0.000 C 
BRANCH  11  12
ATOM     12  C   UNL     1      -0.494  17.525  28.636  1.00  0.00     0.000 C 
BRANCH  12  13
ATOM     13  C   UNL     1       0.631  17.557  27.582  1.00  0.00     0.000 C 
BRANCH  13  14
ATOM     14  C   UNL     1       1.591  16.354  27.619  1.00  0.00     0.000 C 
BRANCH  14  15
ATOM     15  C   UNL     1       3.069  16.768  27.585  1.00  0.00     0.000 C 
BRANCH  15  16
ATOM     16  C   UNL     1       3.219  18.283  27.780  1.00  0.00     0.006 C 
BRANCH  16  17
ATOM     17  C   UNL     1       4.543  18.653  28.461  1.00  0.00     0.053 C 
BRANCH  17  18
ATOM     18  C   UNL     1       4.658  20.130  28.684  1.00  0.00     0.041 C 
ATOM     19  O   UNL     1       5.547  20.794  28.089  1.00  0.00    -0.550 OA
ATOM     20  O   UNL     1       3.804  20.767  29.576  1.00  0.00    -0.550 OA
ENDBRANCH  17  18
ENDBRANCH  16  17
ENDBRANCH  15  16
ENDBRANCH  14  15
ENDBRANCH  13  14
ENDBRANCH  12  13
ENDBRANCH  11  12
ENDBRANCH   1  11
TORSDOF 15
ENDMDL
MODEL 3
REMARK VINA RESULT:    -3.979      2.048      5.932
REMARK INTER + INTRA:          -9.543
REMARK INTER:                  -7.562
REMARK INTRA:                  -1.981
REMARK UNBOUND:                -2.075
REMARK SMILES O=C([O-])CCCCCCCCCCCCCCC(=O)[O-]
REMARK SMILES IDX 10 1 9 2 8 3 7 4 6 5 5 6 4 7 2 8 1 9 3 10 11 11 12 12 13 13
REMARK SMILES IDX 14 14 15 15 16 16 17 17 18 18 19 19 20 20
REMARK H PARENT
REMARK Flexibility Score: inf
ROOT
ATOM      1  C   UNL     1       0.587  19.627  30.457  1.00  0.00     0.000 C 
ENDROOT
BRANCH   1   2
ATOM      2  C   UNL     1       1.522  20.728  29.936  1.00  0.00     0.000 C 
BRANCH   2   3
ATOM      3  C   UNL     1       2.983  20.263  29.957  1.00  0.00     0.000 C 
BRANCH   3   4
ATOM      4  C   UNL     1       3.089  18.765  29.631  1.00  0.00     0.000 C 
BRANCH   4   5
ATOM      5  C   UNL     1       3.266  18.495  28.129  1.00  0.00     0.000 C 
BRANCH   5   6
ATOM      6  C   UNL     1       3.961  17.151  27.848  1.00  0.00     0.006 C 
BRANCH   6   7
ATOM      7  C   UNL     1       3.054  16.181  27.078  1.00  0.00     0.053 C 
BRANCH   7   8
ATOM      8  C   UNL     1       3.665  14.817  26.970  1.00  0.00     0.041 C 
ATOM      9  O   UNL     1       4.014  14.366  25.847  1.00  0.00    -0.550 OA
ATOM     10  O   UNL     1       3.876  14.057  28.113  1.00  0.00    -0.550 OA
ENDBRANCH   7   8
ENDBRANCH   6   7
ENDBRANCH   5   6
ENDBRANCH   4   5
ENDBRANCH   3   4
ENDBRANCH   2   3
ENDBRANCH   1   2
BRANCH   1  11
ATOM     11  C   UNL     1      -0.848  19.755  29.913  1.00  0.00     0.000 C 
BRANCH  11  12
ATOM     12  C   UNL     1      -1.361  18.524  29.140  1.00  0.00     0.000 C 
BRANCH  12  13
ATOM     13  C   UNL     1      -0.265  17.628  28.529  1.00  0.00     0.000 C 
BRANCH  13  14
ATOM     14  C   UNL     1      -0.234  16.184  29.063  1.00  0.00     0.000 C 
BRANCH  14  15
ATOM     15  C   UNL     1       0.859  15.961  30.118  1.00  0.00     0.000 C 
BRANCH  15  16
ATOM     16  C   UNL     1       1.148  14.465  30.301  1.00  0.00     0.006 C 
BRANCH  16  17
ATOM     17  C   UNL     1       0.170  13.800  31.279  1.00  0.00     0.053 C 
BRANCH  17  18
ATOM     18  C   UNL     1      -0.490  12.599  30.674  1.00  0.00     0.041 C 
ATOM     19  O   UNL     1      -1.463  12.738  29.888  1.00  0.00    -0.550 OA
ATOM     20  O   UNL     1      -0.050  11.324  31.006  1.00  0.00    -0.550 OA
ENDBRANCH  17  18
ENDBRANCH  16  17
ENDBRANCH  15  16
ENDBRANCH  14  15
ENDBRANCH  13  14
ENDBRANCH  12  13
ENDBRANCH  11  12
ENDBRANCH   1  11
TORSDOF 15
ENDMDL
MODEL 4
REMARK VINA RESULT:    -3.955      2.178      3.740
REMARK INTER + INTRA:          -9.498
REMARK INTER:                  -7.483
REMARK INTRA:                  -2.015
REMARK UNBOUND:                -2.075
REMARK SMILES O=C([O-])CCCCCCCCCCCCCCC(=O)[O-]
REMARK SMILES IDX 10 1 9 2 8 3 7 4 6 5 5 6 4 7 2 8 1 9 3 10 11 11 12 12 13 13
REMARK SMILES IDX 14 14 15 15 16 16 17 17 18 18 19 19 20 20
REMARK H PARENT
REMARK Flexibility Score: inf
ROOT
ATOM      1  C   UNL     1      -0.331  20.102  30.070  1.00  0.00     0.000 C 
ENDROOT
BRANCH   1   2
ATOM      2  C   UNL     1      -1.199  18.971  29.501  1.00  0.00     0.000 C 
BRANCH   2   3
ATOM      3  C   UNL     1      -0.389  18.083  28.548  1.00  0.00     0.000 C 
BRANCH   3   4
ATOM      4  C   UNL     1      -0.539  16.599  28.917  1.00  0.00     0.000 C 
BRANCH   4   5
ATOM      5  C   UNL     1       0.767  15.982  29.441  1.00  0.00     0.000 C 
BRANCH   5   6
ATOM      6  C   UNL     1       0.523  14.826  30.425  1.00  0.00     0.006 C 
BRANCH   6   7
ATOM      7  C   UNL     1       1.160  13.514  29.946  1.00  0.00     0.053 C 
BRANCH   7   8
ATOM      8  C   UNL     1       0.164  12.632  29.256  1.00  0.00     0.041 C 
ATOM      9  O   UNL     1      -1.066  12.756  29.494  1.00  0.00    -0.550 OA
ATOM     10  O   UNL     1       0.595  11.692  28.329  1.00  0.00    -0.550 OA
ENDBRANCH   7   8
ENDBRANCH   6   7
ENDBRANCH   5   6
ENDBRANCH   4   5
ENDBRANCH   3   4
ENDBRANCH   2   3
ENDBRANCH   1   2
BRANCH   1  11
ATOM     11  C   UNL     1       0.957  19.588  30.738  1.00  0.00     0.000 C 
BRANCH  11  12
ATOM     12  C   UNL     1       2.263  20.186  30.178  1.00  0.00     0.000 C 
BRANCH  12  13
ATOM     13  C   UNL     1       3.231  19.169  29.541  1.00  0.00     0.000 C 
BRANCH  13  14
ATOM     14  C   UNL     1       3.323  19.233  28.006  1.00  0.00     0.000 C 
BRANCH  14  15
ATOM     15  C   UNL     1       3.075  17.875  27.335  1.00  0.00     0.000 C 
BRANCH  15  16
ATOM     16  C   UNL     1       4.109  16.838  27.796  1.00  0.00     0.006 C 
BRANCH  16  17
ATOM     17  C   UNL     1       4.314  15.723  26.763  1.00  0.00     0.053 C 
BRANCH  17  18
ATOM     18  C   UNL     1       3.678  14.438  27.198  1.00  0.00     0.041 C 
ATOM     19  O   UNL     1       4.283  13.665  27.985  1.00  0.00    -0.550 OA
ATOM     20  O   UNL     1       2.428  14.081  26.706  1.00  0.00    -0.550 OA
ENDBRANCH  17  18
ENDBRANCH  16  17
ENDBRANCH  15  16
ENDBRANCH  14  15
ENDBRANCH  13  14
ENDBRANCH  12  13
ENDBRANCH  11  12
ENDBRANCH   1  11
TORSDOF 15
ENDMDL
MODEL 5
REMARK VINA RESULT:    -3.937      2.163      3.229
REMARK INTER + INTRA:          -9.465
REMARK INTER:                  -7.773
REMARK INTRA:                  -1.692
REMARK UNBOUND:                -2.075
REMARK SMILES O=C([O-])CCCCCCCCCCCCCCC(=O)[O-]
REMARK SMILES IDX 10 1 9 2 8 3 7 4 6 5 5 6 4 7 2 8 1 9 3 10 11 11 12 12 13 13
REMARK SMILES IDX 14 14 15 15 16 16 17 17 18 18 19 19 20 20
REMARK H PARENT
REMARK Flexibility Score: inf
ROOT
ATOM      1  C   UNL     1       0.351  18.269  29.967  1.00  0.00     0.000 C 
ENDROOT
BRANCH   1   2
ATOM      2  C   UNL     1      -0.538  17.774  28.818  1.00  0.00     0.000 C 
BRANCH   2   3
ATOM      3  C   UNL     1      -0.828  16.274  28.954  1.00  0.00     0.000 C 
BRANCH   3   4
ATOM      4  C   UNL     1       0.395  15.525  29.506  1.00  0.00     0.000 C 
BRANCH   4   5
ATOM      5  C   UNL     1       0.011  14.347  30.413  1.00  0.00     0.000 C 
BRANCH   5   6
ATOM      6  C   UNL     1      -1.144  13.509  29.838  1.00  0.00     0.006 C 
BRANCH   6   7
ATOM      7  C   UNL     1      -0.848  12.004  29.889  1.00  0.00     0.053 C 
BRANCH   7   8
ATOM      8  C   UNL     1       0.504  11.684  29.328  1.00  0.00     0.041 C 
ATOM      9  O   UNL     1       1.401  11.201  30.069  1.00  0.00    -0.550 OA
ATOM     10  O   UNL     1       0.764  11.892  27.980  1.00  0.00    -0.550 OA
ENDBRANCH   7   8
ENDBRANCH   6   7
ENDBRANCH   5   6
ENDBRANCH   4   5
ENDBRANCH   3   4
ENDBRANCH   2   3
ENDBRANCH   1   2
BRANCH   1  11
ATOM     11  C   UNL     1       0.205  19.780  30.227  1.00  0.00     0.000 C 
BRANCH  11  12
ATOM     12  C   UNL     1       1.534  20.545  30.376  1.00  0.00     0.000 C 
BRANCH  12  13
ATOM     13  C   UNL     1       2.805  19.707  30.131  1.00  0.00     0.000 C 
BRANCH  13  14
ATOM     14  C   UNL     1       3.623  20.115  28.892  1.00  0.00     0.000 C 
BRANCH  14  15
ATOM     15  C   UNL     1       3.469  19.130  27.724  1.00  0.00     0.000 C 
BRANCH  15  16
ATOM     16  C   UNL     1       3.452  17.680  28.227  1.00  0.00     0.006 C 
BRANCH  16  17
ATOM     17  C   UNL     1       2.746  16.734  27.248  1.00  0.00     0.053 C 
BRANCH  17  18
ATOM     18  C   UNL     1       3.592  15.543  26.917  1.00  0.00     0.041 C 
ATOM     19  O   UNL     1       4.365  15.570  25.924  1.00  0.00    -0.550 OA
ATOM     20  O   UNL     1       3.502  14.391  27.688  1.00  0.00    -0.550 OA
ENDBRANCH  17  18
ENDBRANCH  16  17
ENDBRANCH  15  16
ENDBRANCH  14  15
ENDBRANCH  13  14
ENDBRANCH  12  13
ENDBRANCH  11  12
ENDBRANCH   1  11
TORSDOF 15
ENDMDL
MODEL 6
REMARK VINA RESULT:    -3.905      2.236      3.018
REMARK INTER + INTRA:          -9.405
REMARK INTER:                  -8.033
REMARK INTRA:                  -1.371
REMARK UNBOUND:                -2.075
REMARK SMILES O=C([O-])CCCCCCCCCCCCCCC(=O)[O-]
REMARK SMILES IDX 10 1 9 2 8 3 7 4 6 5 5 6 4 7 2 8 1 9 3 10 11 11 12 12 13 13
REMARK SMILES IDX 14 14 15 15 16 16 17 17 18 18 19 19 20 20
REMARK H PARENT
REMARK Flexibility Score: inf
ROOT
ATOM      1  C   UNL     1      -0.940  18.578  29.196  1.00  0.00     0.000 C 
ENDROOT
BRANCH   1   2
ATOM      2  C   UNL     1      -0.299  17.623  28.180  1.00  0.00     0.000 C 
BRANCH   2   3
ATOM      3  C   UNL     1       0.968  16.978  28.754  1.00  0.00     0.000 C 
BRANCH   3   4
ATOM      4  C   UNL     1       0.870  16.837  30.281  1.00  0.00     0.000 C 
BRANCH   4   5
ATOM      5  C   UNL     1       0.880  15.373  30.745  1.00  0.00     0.000 C 
BRANCH   5   6
ATOM      6  C   UNL     1       0.549  14.390  29.609  1.00  0.00     0.006 C 
BRANCH   6   7
ATOM      7  C   UNL     1      -0.785  13.667  29.840  1.00  0.00     0.053 C 
BRANCH   7   8
ATOM      8  C   UNL     1      -0.644  12.182  29.697  1.00  0.00     0.041 C 
ATOM      9  O   UNL     1      -1.528  11.413  30.158  1.00  0.00    -0.550 OA
ATOM     10  O   UNL     1       0.450  11.649  29.027  1.00  0.00    -0.550 OA
ENDBRANCH   7   8
ENDBRANCH   6   7
ENDBRANCH   5   6
ENDBRANCH   4   5
ENDBRANCH   3   4
ENDBRANCH   2   3
ENDBRANCH   1   2
BRANCH   1  11
ATOM     11  C   UNL     1      -2.476  18.616  29.095  1.00  0.00     0.000 C 
BRANCH  11  12
ATOM     12  C   UNL     1      -3.121  19.958  29.492  1.00  0.00     0.000 C 
BRANCH  12  13
ATOM     13  C   UNL     1      -2.241  20.876  30.365  1.00  0.00     0.000 C 
BRANCH  13  14
ATOM     14  C   UNL     1      -2.392  22.382  30.082  1.00  0.00     0.000 C 
BRANCH  14  15
ATOM     15  C   UNL     1      -1.124  23.181  30.411  1.00  0.00     0.000 C 
BRANCH  15  16
ATOM     16  C   UNL     1      -0.054  22.278  31.042  1.00  0.00     0.006 C 
BRANCH  16  17
ATOM     17  C   UNL     1       1.145  22.059  30.110  1.00  0.00     0.053 C 
BRANCH  17  18
ATOM     18  C   UNL     1       1.749  20.701  30.293  1.00  0.00     0.041 C 
ATOM     19  O   UNL     1       1.589  20.075  31.374  1.00  0.00    -0.550 OA
ATOM     20  O   UNL     1       2.518  20.141  29.280  1.00  0.00    -0.550 OA
ENDBRANCH  17  18
ENDBRANCH  16  17
ENDBRANCH  15  16
ENDBRANCH  14  15
ENDBRANCH  13  14
ENDBRANCH  12  13
ENDBRANCH  11  12
ENDBRANCH   1  11
TORSDOF 15
ENDMDL
MODEL 7
REMARK VINA RESULT:    -3.883      1.977      3.510
REMARK INTER + INTRA:          -9.363
REMARK INTER:                  -7.135
REMARK INTRA:                  -2.229
REMARK UNBOUND:                -2.075
REMARK SMILES O=C([O-])CCCCCCCCCCCCCCC(=O)[O-]
REMARK SMILES IDX 10 1 9 2 8 3 7 4 6 5 5 6 4 7 2 8 1 9 3 10 11 11 12 12 13 13
REMARK SMILES IDX 14 14 15 15 16 16 17 17 18 18 19 19 20 20
REMARK H PARENT
REMARK Flexibility Score: inf
ROOT
ATOM      1  C   UNL     1       1.357  19.723  30.013  1.00  0.00     0.000 C 
ENDROOT
BRANCH   1   2
ATOM      2  C   UNL     1       2.264  19.330  31.188  1.00  0.00     0.000 C 
BRANCH   2   3
ATOM      3  C   UNL     1       2.842  17.923  30.989  1.00  0.00     0.000 C 
BRANCH   3   4
ATOM      4  C   UNL     1       1.958  16.864  31.665  1.00  0.00     0.000 C 
BRANCH   4   5
ATOM      5  C   UNL     1       2.021  15.500  30.961  1.00  0.00     0.000 C 
BRANCH   5   6
ATOM      6  C   UNL     1       0.696  14.723  31.057  1.00  0.00     0.006 C 
BRANCH   6   7
ATOM      7  C   UNL     1       0.535  13.711  29.914  1.00  0.00     0.053 C 
BRANCH   7   8
ATOM      8  C   UNL     1      -0.894  13.299  29.734  1.00  0.00     0.041 C 
ATOM      9  O   UNL     1      -1.224  12.088  29.839  1.00  0.00    -0.550 OA
ATOM     10  O   UNL     1      -1.867  14.257  29.479  1.00  0.00    -0.550 OA
ENDBRANCH   7   8
ENDBRANCH   6   7
ENDBRANCH   5   6
ENDBRANCH   4   5
ENDBRANCH   3   4
ENDBRANCH   2   3
ENDBRANCH   1   2
BRANCH   1  11
ATOM     11  C   UNL     1      -0.123  19.380  30.261  1.00  0.00     0.000 C 
BRANCH  11  12
ATOM     12  C   UNL     1      -0.854  18.748  29.060  1.00  0.00     0.000 C 
BRANCH  12  13
ATOM     13  C   UNL     1      -0.341  17.357  28.638  1.00  0.00     0.000 C 
BRANCH  13  14
ATOM     14  C   UNL     1       0.483  17.335  27.338  1.00  0.00     0.000 C 
BRANCH  14  15
ATOM     15  C   UNL     1       1.971  17.043  27.580  1.00  0.00     0.000 C 
BRANCH  15  16
ATOM     16  C   UNL     1       2.315  15.596  27.199  1.00  0.00     0.006 C 
BRANCH  16  17
ATOM     17  C   UNL     1       3.781  15.442  26.771  1.00  0.00     0.053 C 
BRANCH  17  18
ATOM     18  C   UNL     1       4.510  14.458  27.634  1.00  0.00     0.041 C 
ATOM     19  O   UNL     1       3.880  13.545  28.229  1.00  0.00    -0.550 OA
ATOM     20  O   UNL     1       5.884  14.570  27.806  1.00  0.00    -0.550 OA
ENDBRANCH  17  18
ENDBRANCH  16  17
ENDBRANCH  15  16
ENDBRANCH  14  15
ENDBRANCH  13  14
ENDBRANCH  12  13
ENDBRANCH  11  12
ENDBRANCH   1  11
TORSDOF 15
ENDMDL
MODEL 8
REMARK VINA RESULT:    -3.854      1.472      6.863
REMARK INTER + INTRA:          -9.309
REMARK INTER:                  -6.904
REMARK INTRA:                  -2.404
REMARK UNBOUND:                -2.075
REMARK SMILES O=C([O-])CCCCCCCCCCCCCCC(=O)[O-]
REMARK SMILES IDX 10 1 9 2 8 3 7 4 6 5 5 6 4 7 2 8 1 9 3 10 11 11 12 12 13 13
REMARK SMILES IDX 14 14 15 15 16 16 17 17 18 18 19 19 20 20
REMARK H PARENT
REMARK Flexibility Score: inf
ROOT
ATOM      1  C   UNL     1       0.689  17.569  27.429  1.00  0.00     0.000 C 
ENDROOT
BRANCH   1   2
ATOM      2  C   UNL     1      -0.468  17.217  28.374  1.00  0.00     0.000 C 
BRANCH   2   3
ATOM      3  C   UNL     1      -0.782  18.385  29.318  1.00  0.00     0.000 C 
BRANCH   3   4
ATOM      4  C   UNL     1       0.492  18.889  30.013  1.00  0.00     0.000 C 
BRANCH   4   5
ATOM      5  C   UNL     1       0.423  20.381  30.372  1.00  0.00     0.000 C 
BRANCH   5   6
ATOM      6  C   UNL     1       1.735  21.124  30.069  1.00  0.00     0.006 C 
BRANCH   6   7
ATOM      7  C   UNL     1       2.769  20.218  29.384  1.00  0.00     0.053 C 
BRANCH   7   8
ATOM      8  C   UNL     1       4.125  20.354  30.005  1.00  0.00     0.041 C 
ATOM      9  O   UNL     1       4.506  19.536  30.883  1.00  0.00    -0.550 OA
ATOM     10  O   UNL     1       4.980  21.367  29.592  1.00  0.00    -0.550 OA
ENDBRANCH   7   8
ENDBRANCH   6   7
ENDBRANCH   5   6
ENDBRANCH   4   5
ENDBRANCH   3   4
ENDBRANCH   2   3
ENDBRANCH   1   2
BRANCH   1  11
ATOM     11  C   UNL     1       1.777  16.481  27.384  1.00  0.00     0.000 C 
BRANCH  11  12
ATOM     12  C   UNL     1       3.124  16.882  28.017  1.00  0.00     0.000 C 
BRANCH  12  13
ATOM     13  C   UNL     1       3.318  16.439  29.481  1.00  0.00     0.000 C 
BRANCH  13  14
ATOM     14  C   UNL     1       2.532  15.180  29.889  1.00  0.00     0.000 C 
BRANCH  14  15
ATOM     15  C   UNL     1       1.603  15.419  31.088  1.00  0.00     0.000 C 
BRANCH  15  16
ATOM     16  C   UNL     1       0.342  14.551  30.987  1.00  0.00     0.006 C 
BRANCH  16  17
ATOM     17  C   UNL     1       0.210  13.875  29.616  1.00  0.00     0.053 C 
BRANCH  17  18
ATOM     18  C   UNL     1       0.196  12.381  29.732  1.00  0.00     0.041 C 
ATOM     19  O   UNL     1      -0.321  11.827  30.737  1.00  0.00    -0.550 OA
ATOM     20  O   UNL     1       0.787  11.603  28.744  1.00  0.00    -0.550 OA
ENDBRANCH  17  18
ENDBRANCH  16  17
ENDBRANCH  15  16
ENDBRANCH  14  15
ENDBRANCH  13  14
ENDBRANCH  12  13
ENDBRANCH  11  12
ENDBRANCH   1  11
TORSDOF 15
ENDMDL
MODEL 9
REMARK VINA RESULT:    -3.845      4.169      7.960
REMARK INTER + INTRA:          -9.293
REMARK INTER:                  -7.614
REMARK INTRA:                  -1.679
REMARK UNBOUND:                -2.075
REMARK SMILES O=C([O-])CCCCCCCCCCCCCCC(=O)[O-]
REMARK SMILES IDX 10 1 9 2 8 3 7 4 6 5 5 6 4 7 2 8 1 9 3 10 11 11 12 12 13 13
REMARK SMILES IDX 14 14 15 15 16 16 17 17 18 18 19 19 20 20
REMARK H PARENT
REMARK Flexibility Score: inf
ROOT
ATOM      1  C   UNL     1       3.551  17.409  27.511  1.00  0.00     0.000 C 
ENDROOT
BRANCH   1   2
ATOM      2  C   UNL     1       3.402  18.874  27.947  1.00  0.00     0.000 C 
BRANCH   2   3
ATOM      3  C   UNL     1       4.281  19.175  29.167  1.00  0.00     0.000 C 
BRANCH   3   4
ATOM      4  C   UNL     1       4.390  20.689  29.406  1.00  0.00     0.000 C 
BRANCH   4   5
ATOM      5  C   UNL     1       5.842  21.190  29.394  1.00  0.00     0.000 C 
BRANCH   5   6
ATOM      6  C   UNL     1       6.404  21.343  27.970  1.00  0.00     0.006 C 
BRANCH   6   7
ATOM      7  C   UNL     1       7.788  20.697  27.822  1.00  0.00     0.053 C 
BRANCH   7   8
ATOM      8  C   UNL     1       8.858  21.721  27.596  1.00  0.00     0.041 C 
ATOM      9  O   UNL     1       9.847  21.454  26.864  1.00  0.00    -0.550 OA
ATOM     10  O   UNL     1       8.747  22.980  28.171  1.00  0.00    -0.550 OA
ENDBRANCH   7   8
ENDBRANCH   6   7
ENDBRANCH   5   6
ENDBRANCH   4   5
ENDBRANCH   3   4
ENDBRANCH   2   3
ENDBRANCH   1   2
BRANCH   1  11
ATOM     11  C   UNL     1       2.238  16.614  27.630  1.00  0.00     0.000 C 
BRANCH  11  12
ATOM     12  C   UNL     1       0.955  17.467  27.587  1.00  0.00     0.000 C 
BRANCH  12  13
ATOM     13  C   UNL     1       0.140  17.494  28.897  1.00  0.00     0.000 C 
BRANCH  13  14
ATOM     14  C   UNL     1       0.980  17.417  30.185  1.00  0.00     0.000 C 
BRANCH  14  15
ATOM     15  C   UNL     1       0.966  18.728  30.984  1.00  0.00     0.000 C 
BRANCH  15  16
ATOM     16  C   UNL     1       0.254  19.840  30.203  1.00  0.00     0.006 C 
BRANCH  16  17
ATOM     17  C   UNL     1       0.926  21.206  30.393  1.00  0.00     0.053 C 
BRANCH  17  18
ATOM     18  C   UNL     1      -0.047  22.333  30.226  1.00  0.00     0.041 C 
ATOM     19  O   UNL     1      -1.259  22.175  30.529  1.00  0.00    -0.550 OA
ATOM     20  O   UNL     1       0.379  23.547  29.703  1.00  0.00    -0.550 OA
ENDBRANCH  17  18
ENDBRANCH  16  17
ENDBRANCH  15  16
ENDBRANCH  14  15
ENDBRANCH  13  14
ENDBRANCH  12  13
ENDBRANCH  11  12
ENDBRANCH   1  11
TORSDOF 15
ENDMDL
