MODEL 1
REMARK VINA RESULT:     3.499      0.000      0.000
REMARK INTER + INTRA:           8.419
REMARK INTER:                   9.227
REMARK INTRA:                  -0.807
REMARK UNBOUND:                -0.807
REMARK SMILES CCCCCCCCCCCCCCCCCCCCCCCCCCCCCC(=O)[O-]
REMARK SMILES IDX 16 1 17 2 18 3 19 4 20 5 21 6 22 7 23 8 24 9 25 10 26 11
REMARK SMILES IDX 27 12 28 13 29 14 30 15 31 16 32 17 15 18 14 19 13 20 12 21
REMARK SMILES IDX 11 22 10 23 9 24 8 25 7 26 6 27 5 28 4 29 3 30 2 31 1 32
REMARK H PARENT
REMARK Flexibility Score: inf
ROOT
ATOM      1  C   UNL     1       2.445   3.670  -1.862  1.00  0.00     0.000 C 
ENDROOT
BRANCH   1   2
ATOM      2  C   UNL     1       1.933   2.219  -1.911  1.00  0.00     0.000 C 
BRANCH   2   3
ATOM      3  C   UNL     1       2.898   1.231  -1.234  1.00  0.00     0.000 C 
BRANCH   3   4
ATOM      4  C   UNL     1       3.116   1.546   0.256  1.00  0.00     0.000 C 
BRANCH   4   5
ATOM      5  C   UNL     1       4.607   1.593   0.637  1.00  0.00     0.000 C 
BRANCH   5   6
ATOM      6  C   UNL     1       4.905   1.279   2.116  1.00  0.00     0.000 C 
BRANCH   6   7
ATOM      7  C   UNL     1       4.023   0.181   2.742  1.00  0.00     0.000 C 
BRANCH   7   8
ATOM      8  C   UNL     1       2.585   0.643   3.055  1.00  0.00     0.000 C 
BRANCH   8   9
ATOM      9  C   UNL     1       1.570   0.118   2.026  1.00  0.00     0.000 C 
BRANCH   9  10
ATOM     10  C   UNL     1       1.681  -1.404   1.861  1.00  0.00     0.000 C 
BRANCH  10  11
ATOM     11  C   UNL     1       0.303  -2.098   1.925  1.00  0.00     0.000 C 
BRANCH  11  12
ATOM     12  C   UNL     1       0.042  -2.834   3.250  1.00  0.00     0.000 C 
BRANCH  12  13
ATOM     13  C   UNL     1      -1.244  -2.367   3.952  1.00  0.00     0.006 C 
BRANCH  13  14
ATOM     14  C   UNL     1      -1.258  -0.850   4.186  1.00  0.00     0.053 C 
BRANCH  14  15
ATOM     15  C   UNL     1      -1.639  -0.506   5.594  1.00  0.00     0.041 C 
ATOM     16  O   UNL     1      -1.047  -1.055   6.563  1.00  0.00    -0.550 OA
ATOM     17  O   UNL     1      -2.636   0.430   5.836  1.00  0.00    -0.550 OA
ENDBRANCH  14  15
ENDBRANCH  13  14
ENDBRANCH  12  13
ENDBRANCH  11  12
ENDBRANCH  10  11
ENDBRANCH   9  10
ENDBRANCH   8   9
ENDBRANCH   7   8
ENDBRANCH   6   7
ENDBRANCH   5   6
ENDBRANCH   4   5
ENDBRANCH   3   4
ENDBRANCH   2   3
ENDBRANCH   1   2
BRANCH   1  18
ATOM     18  C   UNL     1       1.719   4.597  -2.854  1.00  0.00     0.000 C 
BRANCH  18  19
ATOM     19  C   UNL     1       0.437   5.257  -2.314  1.00  0.00     0.000 C 
BRANCH  19  20
ATOM     20  C   UNL     1       0.020   6.506  -3.112  1.00  0.00     0.000 C 
BRANCH  20  21
ATOM     21  C   UNL     1      -0.595   7.604  -2.219  1.00  0.00     0.000 C 
BRANCH  21  22
ATOM     22  C   UNL     1      -0.803   8.949  -2.937  1.00  0.00     0.000 C 
BRANCH  22  23
ATOM     23  C   UNL     1      -0.922   8.802  -4.461  1.00  0.00     0.000 C 
BRANCH  23  24
ATOM     24  C   UNL     1      -1.375  10.120  -5.104  1.00  0.00    -0.000 C 
BRANCH  24  25
ATOM     25  C   UNL     1      -1.899   9.928  -6.536  1.00  0.00    -0.000 C 
BRANCH  25  26
ATOM     26  C   UNL     1      -0.813   9.418  -7.500  1.00  0.00    -0.000 C 
BRANCH  26  27
ATOM     27  C   UNL     1      -1.367   9.112  -8.906  1.00  0.00    -0.000 C 
BRANCH  27  28
ATOM     28  C   UNL     1      -0.279   8.857  -9.971  1.00  0.00    -0.000 C 
BRANCH  28  29
ATOM     29  C   UNL     1       1.159   8.836  -9.412  1.00  0.00    -0.000 C 
BRANCH  29  30
ATOM     30  C   UNL     1       1.835   7.452  -9.502  1.00  0.00    -0.000 C 
BRANCH  30  31
ATOM     31  C   UNL     1       0.883   6.277  -9.214  1.00  0.00    -0.003 C 
ATOM     32  C   UNL     1       0.713   6.007  -7.718  1.00  0.00     0.004 C 
ENDBRANCH  30  31
ENDBRANCH  29  30
ENDBRANCH  28  29
ENDBRANCH  27  28
ENDBRANCH  26  27
ENDBRANCH  25  26
ENDBRANCH  24  25
ENDBRANCH  23  24
ENDBRANCH  22  23
ENDBRANCH  21  22
ENDBRANCH  20  21
ENDBRANCH  19  20
ENDBRANCH  18  19
ENDBRANCH   1  18
TORSDOF 28
ENDMDL
MODEL 2
REMARK VINA RESULT:     3.983      1.663      2.717
REMARK INTER + INTRA:           9.695
REMARK INTER:                   9.318
REMARK INTRA:                   0.377
REMARK UNBOUND:                -0.807
REMARK SMILES CCCCCCCCCCCCCCCCCCCCCCCCCCCCCC(=O)[O-]
REMARK SMILES IDX 16 1 17 2 18 3 19 4 20 5 21 6 22 7 23 8 24 9 25 10 26 11
REMARK SMILES IDX 27 12 28 13 29 14 30 15 31 16 32 17 15 18 14 19 13 20 12 21
REMARK SMILES IDX 11 22 10 23 9 24 8 25 7 26 6 27 5 28 4 29 3 30 2 31 1 32
REMARK H PARENT
REMARK Flexibility Score: inf
ROOT
ATOM      1  C   UNL     1       1.785   2.747  -1.696  1.00  0.00     0.000 C 
ENDROOT
BRANCH   1   2
ATOM      2  C   UNL     1       2.931   2.560  -0.686  1.00  0.00     0.000 C 
BRANCH   2   3
ATOM      3  C   UNL     1       2.934   1.160  -0.050  1.00  0.00     0.000 C 
BRANCH   3   4
ATOM      4  C   UNL     1       3.879   1.062   1.159  1.00  0.00     0.000 C 
BRANCH   4   5
ATOM      5  C   UNL     1       3.131   0.764   2.471  1.00  0.00     0.000 C 
BRANCH   5   6
ATOM      6  C   UNL     1       1.911  -0.165   2.322  1.00  0.00     0.000 C 
BRANCH   6   7
ATOM      7  C   UNL     1       2.123  -1.609   2.819  1.00  0.00     0.000 C 
BRANCH   7   8
ATOM      8  C   UNL     1       0.976  -2.570   2.441  1.00  0.00     0.000 C 
BRANCH   8   9
ATOM      9  C   UNL     1      -0.354  -1.831   2.227  1.00  0.00     0.000 C 
BRANCH   9  10
ATOM     10  C   UNL     1      -1.202  -1.830   3.507  1.00  0.00     0.000 C 
BRANCH  10  11
ATOM     11  C   UNL     1      -1.279  -0.429   4.152  1.00  0.00     0.000 C 
BRANCH  11  12
ATOM     12  C   UNL     1      -1.824  -0.441   5.591  1.00  0.00     0.000 C 
BRANCH  12  13
ATOM     13  C   UNL     1      -1.117  -1.467   6.492  1.00  0.00     0.006 C 
BRANCH  13  14
ATOM     14  C   UNL     1      -1.876  -1.707   7.804  1.00  0.00     0.053 C 
BRANCH  14  15
ATOM     15  C   UNL     1      -0.974  -2.222   8.884  1.00  0.00     0.041 C 
ATOM     16  O   UNL     1      -1.297  -3.244   9.546  1.00  0.00    -0.550 OA
ATOM     17  O   UNL     1       0.231  -1.582   9.148  1.00  0.00    -0.550 OA
ENDBRANCH  14  15
ENDBRANCH  13  14
ENDBRANCH  12  13
ENDBRANCH  11  12
ENDBRANCH  10  11
ENDBRANCH   9  10
ENDBRANCH   8   9
ENDBRANCH   7   8
ENDBRANCH   6   7
ENDBRANCH   5   6
ENDBRANCH   4   5
ENDBRANCH   3   4
ENDBRANCH   2   3
ENDBRANCH   1   2
BRANCH   1  18
ATOM     18  C   UNL     1       2.184   3.613  -2.905  1.00  0.00     0.000 C 
BRANCH  18  19
ATOM     19  C   UNL     1       1.503   4.992  -2.974  1.00  0.00     0.000 C 
BRANCH  19  20
ATOM     20  C   UNL     1       0.144   4.958  -3.698  1.00  0.00     0.000 C 
BRANCH  20  21
ATOM     21  C   UNL     1      -0.059   6.163  -4.640  1.00  0.00     0.000 C 
BRANCH  21  22
ATOM     22  C   UNL     1       0.221   5.851  -6.120  1.00  0.00     0.000 C 
BRANCH  22  23
ATOM     23  C   UNL     1       0.358   7.113  -6.982  1.00  0.00     0.000 C 
BRANCH  23  24
ATOM     24  C   UNL     1      -0.550   8.235  -6.459  1.00  0.00    -0.000 C 
BRANCH  24  25
ATOM     25  C   UNL     1      -1.543   8.733  -7.521  1.00  0.00    -0.000 C 
BRANCH  25  26
ATOM     26  C   UNL     1      -0.880   9.642  -8.571  1.00  0.00    -0.000 C 
BRANCH  26  27
ATOM     27  C   UNL     1       0.338   8.976  -9.243  1.00  0.00    -0.000 C 
BRANCH  27  28
ATOM     28  C   UNL     1       1.268   9.963  -9.980  1.00  0.00    -0.000 C 
BRANCH  28  29
ATOM     29  C   UNL     1       2.759   9.564  -9.954  1.00  0.00    -0.000 C 
BRANCH  29  30
ATOM     30  C   UNL     1       2.994   8.045 -10.091  1.00  0.00    -0.000 C 
BRANCH  30  31
ATOM     31  C   UNL     1       1.699   7.213 -10.060  1.00  0.00    -0.003 C 
ATOM     32  C   UNL     1       1.956   5.730  -9.788  1.00  0.00     0.004 C 
ENDBRANCH  30  31
ENDBRANCH  29  30
ENDBRANCH  28  29
ENDBRANCH  27  28
ENDBRANCH  26  27
ENDBRANCH  25  26
ENDBRANCH  24  25
ENDBRANCH  23  24
ENDBRANCH  22  23
ENDBRANCH  21  22
ENDBRANCH  20  21
ENDBRANCH  19  20
ENDBRANCH  18  19
ENDBRANCH   1  18
TORSDOF 28
ENDMDL
MODEL 3
REMARK VINA RESULT:     4.002      1.720      3.121
REMARK INTER + INTRA:           9.745
REMARK INTER:                  11.166
REMARK INTRA:                  -1.422
REMARK UNBOUND:                -0.807
REMARK SMILES CCCCCCCCCCCCCCCCCCCCCCCCCCCCCC(=O)[O-]
REMARK SMILES IDX 16 1 17 2 18 3 19 4 20 5 21 6 22 7 23 8 24 9 25 10 26 11
REMARK SMILES IDX 27 12 28 13 29 14 30 15 31 16 32 17 15 18 14 19 13 20 12 21
REMARK SMILES IDX 11 22 10 23 9 24 8 25 7 26 6 27 5 28 4 29 3 30 2 31 1 32
REMARK H PARENT
REMARK Flexibility Score: inf
ROOT
ATOM      1  C   UNL     1       2.632   2.963  -0.751  1.00  0.00     0.000 C 
ENDROOT
BRANCH   1   2
ATOM      2  C   UNL     1       2.900   1.499  -0.358  1.00  0.00     0.000 C 
BRANCH   2   3
ATOM      3  C   UNL     1       1.968   0.513  -1.081  1.00  0.00     0.000 C 
BRANCH   3   4
ATOM      4  C   UNL     1       1.685  -0.750  -0.251  1.00  0.00     0.000 C 
BRANCH   4   5
ATOM      5  C   UNL     1       1.785  -0.496   1.264  1.00  0.00     0.000 C 
BRANCH   5   6
ATOM      6  C   UNL     1       1.168  -1.599   2.146  1.00  0.00     0.000 C 
BRANCH   6   7
ATOM      7  C   UNL     1      -0.308  -1.926   1.848  1.00  0.00     0.000 C 
BRANCH   7   8
ATOM      8  C   UNL     1      -1.083  -2.468   3.067  1.00  0.00     0.000 C 
BRANCH   8   9
ATOM      9  C   UNL     1      -0.412  -2.089   4.397  1.00  0.00     0.000 C 
BRANCH   9  10
ATOM     10  C   UNL     1      -1.441  -1.992   5.532  1.00  0.00     0.000 C 
BRANCH  10  11
ATOM     11  C   UNL     1      -1.739  -0.530   5.926  1.00  0.00     0.000 C 
BRANCH  11  12
ATOM     12  C   UNL     1      -2.360   0.302   4.791  1.00  0.00     0.000 C 
BRANCH  12  13
ATOM     13  C   UNL     1      -1.348   1.239   4.111  1.00  0.00     0.006 C 
BRANCH  13  14
ATOM     14  C   UNL     1       0.097   0.934   4.530  1.00  0.00     0.053 C 
BRANCH  14  15
ATOM     15  C   UNL     1       1.082   1.807   3.813  1.00  0.00     0.041 C 
ATOM     16  O   UNL     1       0.713   2.906   3.321  1.00  0.00    -0.550 OA
ATOM     17  O   UNL     1       2.410   1.412   3.703  1.00  0.00    -0.550 OA
ENDBRANCH  14  15
ENDBRANCH  13  14
ENDBRANCH  12  13
ENDBRANCH  11  12
ENDBRANCH  10  11
ENDBRANCH   9  10
ENDBRANCH   8   9
ENDBRANCH   7   8
ENDBRANCH   6   7
ENDBRANCH   5   6
ENDBRANCH   4   5
ENDBRANCH   3   4
ENDBRANCH   2   3
ENDBRANCH   1   2
BRANCH   1  18
ATOM     18  C   UNL     1       1.912   3.099  -2.105  1.00  0.00     0.000 C 
BRANCH  18  19
ATOM     19  C   UNL     1       1.754   4.541  -2.620  1.00  0.00     0.000 C 
BRANCH  19  20
ATOM     20  C   UNL     1       0.476   5.229  -2.103  1.00  0.00     0.000 C 
BRANCH  20  21
ATOM     21  C   UNL     1       0.002   6.371  -3.026  1.00  0.00     0.000 C 
BRANCH  21  22
ATOM     22  C   UNL     1      -0.685   7.530  -2.282  1.00  0.00     0.000 C 
BRANCH  22  23
ATOM     23  C   UNL     1      -0.487   8.886  -2.973  1.00  0.00     0.000 C 
BRANCH  23  24
ATOM     24  C   UNL     1      -0.633   8.750  -4.495  1.00  0.00    -0.000 C 
BRANCH  24  25
ATOM     25  C   UNL     1      -1.230  10.009  -5.145  1.00  0.00    -0.000 C 
BRANCH  25  26
ATOM     26  C   UNL     1      -0.882  10.125  -6.640  1.00  0.00    -0.000 C 
BRANCH  26  27
ATOM     27  C   UNL     1      -2.084   9.805  -7.552  1.00  0.00    -0.000 C 
BRANCH  27  28
ATOM     28  C   UNL     1      -1.774   9.906  -9.061  1.00  0.00    -0.000 C 
BRANCH  28  29
ATOM     29  C   UNL     1      -1.043   8.676  -9.640  1.00  0.00    -0.000 C 
BRANCH  29  30
ATOM     30  C   UNL     1       0.493   8.760  -9.520  1.00  0.00    -0.000 C 
BRANCH  30  31
ATOM     31  C   UNL     1       1.058   8.049  -8.276  1.00  0.00    -0.003 C 
ATOM     32  C   UNL     1       0.413   6.684  -8.033  1.00  0.00     0.004 C 
ENDBRANCH  30  31
ENDBRANCH  29  30
ENDBRANCH  28  29
ENDBRANCH  27  28
ENDBRANCH  26  27
ENDBRANCH  25  26
ENDBRANCH  24  25
ENDBRANCH  23  24
ENDBRANCH  22  23
ENDBRANCH  21  22
ENDBRANCH  20  21
ENDBRANCH  19  20
ENDBRANCH  18  19
ENDBRANCH   1  18
TORSDOF 28
ENDMDL
MODEL 4
REMARK VINA RESULT:     4.169      4.047     13.057
REMARK INTER + INTRA:          10.185
REMARK INTER:                  11.712
REMARK INTRA:                  -1.528
REMARK UNBOUND:                -0.807
REMARK SMILES CCCCCCCCCCCCCCCCCCCCCCCCCCCCCC(=O)[O-]
REMARK SMILES IDX 16 1 17 2 18 3 19 4 20 5 21 6 22 7 23 8 24 9 25 10 26 11
REMARK SMILES IDX 27 12 28 13 29 14 30 15 31 16 32 17 15 18 14 19 13 20 12 21
REMARK SMILES IDX 11 22 10 23 9 24 8 25 7 26 6 27 5 28 4 29 3 30 2 31 1 32
REMARK H PARENT
REMARK Flexibility Score: inf
ROOT
ATOM      1  C   UNL     1       2.028   3.258  -1.955  1.00  0.00     0.000 C 
ENDROOT
BRANCH   1   2
ATOM      2  C   UNL     1       1.006   3.931  -2.887  1.00  0.00     0.000 C 
BRANCH   2   3
ATOM      3  C   UNL     1       1.128   5.465  -2.888  1.00  0.00     0.000 C 
BRANCH   3   4
ATOM      4  C   UNL     1      -0.240   6.166  -2.912  1.00  0.00     0.000 C 
BRANCH   4   5
ATOM      5  C   UNL     1      -0.184   7.592  -2.334  1.00  0.00     0.000 C 
BRANCH   5   6
ATOM      6  C   UNL     1      -1.008   8.637  -3.112  1.00  0.00     0.000 C 
BRANCH   6   7
ATOM      7  C   UNL     1      -0.488   8.960  -4.526  1.00  0.00     0.000 C 
BRANCH   7   8
ATOM      8  C   UNL     1      -1.233  10.125  -5.211  1.00  0.00     0.000 C 
BRANCH   8   9
ATOM      9  C   UNL     1      -2.074   9.653  -6.408  1.00  0.00     0.000 C 
BRANCH   9  10
ATOM     10  C   UNL     1      -1.465  10.125  -7.736  1.00  0.00     0.000 C 
BRANCH  10  11
ATOM     11  C   UNL     1      -1.665   9.094  -8.867  1.00  0.00     0.000 C 
BRANCH  11  12
ATOM     12  C   UNL     1      -0.750   9.325 -10.083  1.00  0.00     0.000 C 
BRANCH  12  13
ATOM     13  C   UNL     1       0.510   8.444 -10.061  1.00  0.00     0.006 C 
BRANCH  13  14
ATOM     14  C   UNL     1       1.013   8.186  -8.634  1.00  0.00     0.053 C 
BRANCH  14  15
ATOM     15  C   UNL     1       1.252   6.729  -8.382  1.00  0.00     0.041 C 
ATOM     16  O   UNL     1       2.179   6.125  -8.984  1.00  0.00    -0.550 OA
ATOM     17  O   UNL     1       0.460   6.041  -7.470  1.00  0.00    -0.550 OA
ENDBRANCH  14  15
ENDBRANCH  13  14
ENDBRANCH  12  13
ENDBRANCH  11  12
ENDBRANCH  10  11
ENDBRANCH   9  10
ENDBRANCH   8   9
ENDBRANCH   7   8
ENDBRANCH   6   7
ENDBRANCH   5   6
ENDBRANCH   4   5
ENDBRANCH   3   4
ENDBRANCH   2   3
ENDBRANCH   1   2
BRANCH   1  18
ATOM     18  C   UNL     1       1.776   1.750  -1.774  1.00  0.00     0.000 C 
BRANCH  18  19
ATOM     19  C   UNL     1       2.888   0.985  -1.035  1.00  0.00     0.000 C 
BRANCH  19  20
ATOM     20  C   UNL     1       2.458   0.498   0.362  1.00  0.00     0.000 C 
BRANCH  20  21
ATOM     21  C   UNL     1       2.956   1.422   1.493  1.00  0.00     0.000 C 
BRANCH  21  22
ATOM     22  C   UNL     1       3.466   0.670   2.734  1.00  0.00     0.000 C 
BRANCH  22  23
ATOM     23  C   UNL     1       2.718   1.056   4.017  1.00  0.00     0.000 C 
BRANCH  23  24
ATOM     24  C   UNL     1       1.359   1.689   3.688  1.00  0.00    -0.000 C 
BRANCH  24  25
ATOM     25  C   UNL     1       0.250   1.243   4.655  1.00  0.00    -0.000 C 
BRANCH  25  26
ATOM     26  C   UNL     1      -1.045   0.844   3.925  1.00  0.00    -0.000 C 
BRANCH  26  27
ATOM     27  C   UNL     1      -2.004   0.036   4.823  1.00  0.00    -0.000 C 
BRANCH  27  28
ATOM     28  C   UNL     1      -1.350  -1.181   5.509  1.00  0.00    -0.000 C 
BRANCH  28  29
ATOM     29  C   UNL     1      -0.629  -2.142   4.539  1.00  0.00    -0.000 C 
BRANCH  29  30
ATOM     30  C   UNL     1      -1.017  -1.928   3.060  1.00  0.00    -0.000 C 
BRANCH  30  31
ATOM     31  C   UNL     1       0.107  -2.278   2.068  1.00  0.00    -0.003 C 
ATOM     32  C   UNL     1       1.481  -2.354   2.735  1.00  0.00     0.004 C 
ENDBRANCH  30  31
ENDBRANCH  29  30
ENDBRANCH  28  29
ENDBRANCH  27  28
ENDBRANCH  26  27
ENDBRANCH  25  26
ENDBRANCH  24  25
ENDBRANCH  23  24
ENDBRANCH  22  23
ENDBRANCH  21  22
ENDBRANCH  20  21
ENDBRANCH  19  20
ENDBRANCH  18  19
ENDBRANCH   1  18
TORSDOF 28
ENDMDL
MODEL 5
REMARK VINA RESULT:     4.203      1.751      3.075
REMARK INTER + INTRA:          10.275
REMARK INTER:                  11.769
REMARK INTRA:                  -1.494
REMARK UNBOUND:                -0.807
REMARK SMILES CCCCCCCCCCCCCCCCCCCCCCCCCCCCCC(=O)[O-]
REMARK SMILES IDX 16 1 17 2 18 3 19 4 20 5 21 6 22 7 23 8 24 9 25 10 26 11
REMARK SMILES IDX 27 12 28 13 29 14 30 15 31 16 32 17 15 18 14 19 13 20 12 21
REMARK SMILES IDX 11 22 10 23 9 24 8 25 7 26 6 27 5 28 4 29 3 30 2 31 1 32
REMARK H PARENT
REMARK Flexibility Score: inf
ROOT
ATOM      1  C   UNL     1       2.238   1.699  -1.548  1.00  0.00     0.000 C 
ENDROOT
BRANCH   1   2
ATOM      2  C   UNL     1       3.177   1.089  -0.493  1.00  0.00     0.000 C 
BRANCH   2   3
ATOM      3  C   UNL     1       2.768   1.455   0.943  1.00  0.00     0.000 C 
BRANCH   3   4
ATOM      4  C   UNL     1       3.633   0.751   2.002  1.00  0.00     0.000 C 
BRANCH   4   5
ATOM      5  C   UNL     1       2.943   0.676   3.376  1.00  0.00     0.000 C 
BRANCH   5   6
ATOM      6  C   UNL     1       1.699   1.574   3.524  1.00  0.00     0.000 C 
BRANCH   6   7
ATOM      7  C   UNL     1       0.553   0.973   4.360  1.00  0.00     0.000 C 
BRANCH   7   8
ATOM      8  C   UNL     1      -0.852   1.285   3.803  1.00  0.00     0.000 C 
BRANCH   8   9
ATOM      9  C   UNL     1      -1.941   0.419   4.456  1.00  0.00     0.000 C 
BRANCH   9  10
ATOM     10  C   UNL     1      -1.550   0.017   5.885  1.00  0.00     0.000 C 
BRANCH  10  11
ATOM     11  C   UNL     1      -1.165  -1.474   5.986  1.00  0.00     0.000 C 
BRANCH  11  12
ATOM     12  C   UNL     1      -1.697  -2.331   4.825  1.00  0.00     0.000 C 
BRANCH  12  13
ATOM     13  C   UNL     1      -0.578  -2.890   3.930  1.00  0.00     0.006 C 
BRANCH  13  14
ATOM     14  C   UNL     1      -0.503  -2.169   2.577  1.00  0.00     0.053 C 
BRANCH  14  15
ATOM     15  C   UNL     1       0.911  -2.020   2.102  1.00  0.00     0.041 C 
ATOM     16  O   UNL     1       1.198  -1.158   1.229  1.00  0.00    -0.550 OA
ATOM     17  O   UNL     1       1.912  -2.821   2.637  1.00  0.00    -0.550 OA
ENDBRANCH  14  15
ENDBRANCH  13  14
ENDBRANCH  12  13
ENDBRANCH  11  12
ENDBRANCH  10  11
ENDBRANCH   9  10
ENDBRANCH   8   9
ENDBRANCH   7   8
ENDBRANCH   6   7
ENDBRANCH   5   6
ENDBRANCH   4   5
ENDBRANCH   3   4
ENDBRANCH   2   3
ENDBRANCH   1   2
BRANCH   1  18
ATOM     18  C   UNL     1       2.543   3.180  -1.841  1.00  0.00     0.000 C 
BRANCH  18  19
ATOM     19  C   UNL     1       1.324   4.119  -1.802  1.00  0.00     0.000 C 
BRANCH  19  20
ATOM     20  C   UNL     1       1.363   5.204  -2.895  1.00  0.00     0.000 C 
BRANCH  20  21
ATOM     21  C   UNL     1       0.008   5.920  -3.071  1.00  0.00     0.000 C 
BRANCH  21  22
ATOM     22  C   UNL     1      -0.266   7.005  -2.015  1.00  0.00     0.000 C 
BRANCH  22  23
ATOM     23  C   UNL     1      -0.641   8.359  -2.632  1.00  0.00     0.000 C 
BRANCH  23  24
ATOM     24  C   UNL     1      -0.474   8.330  -4.157  1.00  0.00    -0.000 C 
BRANCH  24  25
ATOM     25  C   UNL     1      -1.007   9.605  -4.833  1.00  0.00    -0.000 C 
BRANCH  25  26
ATOM     26  C   UNL     1      -0.383   9.843  -6.219  1.00  0.00    -0.000 C 
BRANCH  26  27
ATOM     27  C   UNL     1      -0.807   8.777  -7.250  1.00  0.00    -0.000 C 
BRANCH  27  28
ATOM     28  C   UNL     1      -0.735   9.254  -8.716  1.00  0.00    -0.000 C 
BRANCH  28  29
ATOM     29  C   UNL     1      -0.682   8.109  -9.750  1.00  0.00    -0.000 C 
BRANCH  29  30
ATOM     30  C   UNL     1       0.182   6.911  -9.300  1.00  0.00    -0.000 C 
BRANCH  30  31
ATOM     31  C   UNL     1       1.677   7.067  -9.630  1.00  0.00    -0.003 C 
ATOM     32  C   UNL     1       2.031   8.470 -10.123  1.00  0.00     0.004 C 
ENDBRANCH  30  31
ENDBRANCH  29  30
ENDBRANCH  28  29
ENDBRANCH  27  28
ENDBRANCH  26  27
ENDBRANCH  25  26
ENDBRANCH  24  25
ENDBRANCH  23  24
ENDBRANCH  22  23
ENDBRANCH  21  22
ENDBRANCH  20  21
ENDBRANCH  19  20
ENDBRANCH  18  19
ENDBRANCH   1  18
TORSDOF 28
ENDMDL
MODEL 6
REMARK VINA RESULT:     4.304      1.985      3.959
REMARK INTER + INTRA:          10.542
REMARK INTER:                  11.328
REMARK INTRA:                  -0.786
REMARK UNBOUND:                -0.807
REMARK SMILES CCCCCCCCCCCCCCCCCCCCCCCCCCCCCC(=O)[O-]
REMARK SMILES IDX 16 1 17 2 18 3 19 4 20 5 21 6 22 7 23 8 24 9 25 10 26 11
REMARK SMILES IDX 27 12 28 13 29 14 30 15 31 16 32 17 15 18 14 19 13 20 12 21
REMARK SMILES IDX 11 22 10 23 9 24 8 25 7 26 6 27 5 28 4 29 3 30 2 31 1 32
REMARK H PARENT
REMARK Flexibility Score: inf
ROOT
ATOM      1  C   UNL     1       2.793   1.842  -1.860  1.00  0.00     0.000 C 
ENDROOT
BRANCH   1   2
ATOM      2  C   UNL     1       3.105   0.794  -0.777  1.00  0.00     0.000 C 
BRANCH   2   3
ATOM      3  C   UNL     1       1.901  -0.111  -0.468  1.00  0.00     0.000 C 
BRANCH   3   4
ATOM      4  C   UNL     1       2.119  -0.977   0.784  1.00  0.00     0.000 C 
BRANCH   4   5
ATOM      5  C   UNL     1       0.934  -0.907   1.765  1.00  0.00     0.000 C 
BRANCH   5   6
ATOM      6  C   UNL     1       0.410  -2.275   2.243  1.00  0.00     0.000 C 
BRANCH   6   7
ATOM      7  C   UNL     1      -0.887  -2.225   3.074  1.00  0.00     0.000 C 
BRANCH   7   8
ATOM      8  C   UNL     1      -0.710  -2.701   4.531  1.00  0.00     0.000 C 
BRANCH   8   9
ATOM      9  C   UNL     1      -1.877  -2.264   5.431  1.00  0.00     0.000 C 
BRANCH   9  10
ATOM     10  C   UNL     1      -1.631  -0.868   6.020  1.00  0.00     0.000 C 
BRANCH  10  11
ATOM     11  C   UNL     1      -2.411   0.229   5.265  1.00  0.00     0.000 C 
BRANCH  11  12
ATOM     12  C   UNL     1      -1.522   1.133   4.394  1.00  0.00     0.000 C 
BRANCH  12  13
ATOM     13  C   UNL     1      -0.079   0.615   4.272  1.00  0.00     0.006 C 
BRANCH  13  14
ATOM     14  C   UNL     1       0.827   1.596   3.513  1.00  0.00     0.053 C 
BRANCH  14  15
ATOM     15  C   UNL     1       2.240   1.547   4.009  1.00  0.00     0.041 C 
ATOM     16  O   UNL     1       3.176   1.233   3.225  1.00  0.00    -0.550 OA
ATOM     17  O   UNL     1       2.525   1.862   5.332  1.00  0.00    -0.550 OA
ENDBRANCH  14  15
ENDBRANCH  13  14
ENDBRANCH  12  13
ENDBRANCH  11  12
ENDBRANCH  10  11
ENDBRANCH   9  10
ENDBRANCH   8   9
ENDBRANCH   7   8
ENDBRANCH   6   7
ENDBRANCH   5   6
ENDBRANCH   4   5
ENDBRANCH   3   4
ENDBRANCH   2   3
ENDBRANCH   1   2
BRANCH   1  18
ATOM     18  C   UNL     1       1.929   3.004  -1.340  1.00  0.00     0.000 C 
BRANCH  18  19
ATOM     19  C   UNL     1       2.018   4.304  -2.160  1.00  0.00     0.000 C 
BRANCH  19  20
ATOM     20  C   UNL     1       0.789   4.537  -3.058  1.00  0.00     0.000 C 
BRANCH  20  21
ATOM     21  C   UNL     1       0.280   5.992  -3.004  1.00  0.00     0.000 C 
BRANCH  21  22
ATOM     22  C   UNL     1      -0.370   6.475  -4.312  1.00  0.00     0.000 C 
BRANCH  22  23
ATOM     23  C   UNL     1      -0.039   5.577  -5.512  1.00  0.00     0.000 C 
BRANCH  23  24
ATOM     24  C   UNL     1       0.103   6.408  -6.795  1.00  0.00    -0.000 C 
BRANCH  24  25
ATOM     25  C   UNL     1       0.941   5.697  -7.869  1.00  0.00    -0.000 C 
BRANCH  25  26
ATOM     26  C   UNL     1       0.899   6.420  -9.227  1.00  0.00    -0.000 C 
BRANCH  26  27
ATOM     27  C   UNL     1       1.906   7.585  -9.307  1.00  0.00    -0.000 C 
BRANCH  27  28
ATOM     28  C   UNL     1       1.395   8.806 -10.101  1.00  0.00    -0.000 C 
BRANCH  28  29
ATOM     29  C   UNL     1       0.865   9.957  -9.218  1.00  0.00    -0.000 C 
BRANCH  29  30
ATOM     30  C   UNL     1      -0.015   9.478  -8.045  1.00  0.00    -0.000 C 
BRANCH  30  31
ATOM     31  C   UNL     1      -1.519   9.725  -8.256  1.00  0.00    -0.003 C 
ATOM     32  C   UNL     1      -1.971   9.434  -9.687  1.00  0.00     0.004 C 
ENDBRANCH  30  31
ENDBRANCH  29  30
ENDBRANCH  28  29
ENDBRANCH  27  28
ENDBRANCH  26  27
ENDBRANCH  25  26
ENDBRANCH  24  25
ENDBRANCH  23  24
ENDBRANCH  22  23
ENDBRANCH  21  22
ENDBRANCH  20  21
ENDBRANCH  19  20
ENDBRANCH  18  19
ENDBRANCH   1  18
TORSDOF 28
ENDMDL
MODEL 7
REMARK VINA RESULT:     4.335      1.072      2.784
REMARK INTER + INTRA:          10.625
REMARK INTER:                  12.314
REMARK INTRA:                  -1.689
REMARK UNBOUND:                -0.807
REMARK SMILES CCCCCCCCCCCCCCCCCCCCCCCCCCCCCC(=O)[O-]
REMARK SMILES IDX 16 1 17 2 18 3 19 4 20 5 21 6 22 7 23 8 24 9 25 10 26 11
REMARK SMILES IDX 27 12 28 13 29 14 30 15 31 16 32 17 15 18 14 19 13 20 12 21
REMARK SMILES IDX 11 22 10 23 9 24 8 25 7 26 6 27 5 28 4 29 3 30 2 31 1 32
REMARK H PARENT
REMARK Flexibility Score: inf
ROOT
ATOM      1  C   UNL     1       2.226   2.272  -1.891  1.00  0.00     0.000 C 
ENDROOT
BRANCH   1   2
ATOM      2  C   UNL     1       2.559   1.614  -0.539  1.00  0.00     0.000 C 
BRANCH   2   3
ATOM      3  C   UNL     1       3.979   1.025  -0.504  1.00  0.00     0.000 C 
BRANCH   3   4
ATOM      4  C   UNL     1       4.832   1.608   0.636  1.00  0.00     0.000 C 
BRANCH   4   5
ATOM      5  C   UNL     1       4.687   0.815   1.948  1.00  0.00     0.000 C 
BRANCH   5   6
ATOM      6  C   UNL     1       3.444   1.173   2.785  1.00  0.00     0.000 C 
BRANCH   6   7
ATOM      7  C   UNL     1       2.579  -0.026   3.218  1.00  0.00     0.000 C 
BRANCH   7   8
ATOM      8  C   UNL     1       2.217  -0.981   2.061  1.00  0.00     0.000 C 
BRANCH   8   9
ATOM      9  C   UNL     1       0.715  -0.956   1.736  1.00  0.00     0.000 C 
BRANCH   9  10
ATOM     10  C   UNL     1       0.054  -2.305   2.056  1.00  0.00     0.000 C 
BRANCH  10  11
ATOM     11  C   UNL     1       0.057  -2.611   3.569  1.00  0.00     0.000 C 
BRANCH  11  12
ATOM     12  C   UNL     1      -1.235  -2.187   4.288  1.00  0.00     0.000 C 
BRANCH  12  13
ATOM     13  C   UNL     1      -1.482  -0.671   4.234  1.00  0.00     0.006 C 
BRANCH  13  14
ATOM     14  C   UNL     1      -1.505  -0.036   5.631  1.00  0.00     0.053 C 
BRANCH  14  15
ATOM     15  C   UNL     1      -1.570  -1.072   6.713  1.00  0.00     0.041 C 
ATOM     16  O   UNL     1      -0.510  -1.555   7.192  1.00  0.00    -0.550 OA
ATOM     17  O   UNL     1      -2.802  -1.492   7.200  1.00  0.00    -0.550 OA
ENDBRANCH  14  15
ENDBRANCH  13  14
ENDBRANCH  12  13
ENDBRANCH  11  12
ENDBRANCH  10  11
ENDBRANCH   9  10
ENDBRANCH   8   9
ENDBRANCH   7   8
ENDBRANCH   6   7
ENDBRANCH   5   6
ENDBRANCH   4   5
ENDBRANCH   3   4
ENDBRANCH   2   3
ENDBRANCH   1   2
BRANCH   1  18
ATOM     18  C   UNL     1       2.248   3.810  -1.833  1.00  0.00     0.000 C 
BRANCH  18  19
ATOM     19  C   UNL     1       1.800   4.519  -3.123  1.00  0.00     0.000 C 
BRANCH  19  20
ATOM     20  C   UNL     1       0.370   5.085  -3.034  1.00  0.00     0.000 C 
BRANCH  20  21
ATOM     21  C   UNL     1      -0.295   5.241  -4.418  1.00  0.00     0.000 C 
BRANCH  21  22
ATOM     22  C   UNL     1       0.589   5.951  -5.458  1.00  0.00     0.000 C 
BRANCH  22  23
ATOM     23  C   UNL     1      -0.005   5.914  -6.873  1.00  0.00     0.000 C 
BRANCH  23  24
ATOM     24  C   UNL     1       1.105   5.924  -7.933  1.00  0.00    -0.000 C 
BRANCH  24  25
ATOM     25  C   UNL     1       0.605   6.399  -9.307  1.00  0.00    -0.000 C 
BRANCH  25  26
ATOM     26  C   UNL     1       1.345   7.653  -9.804  1.00  0.00    -0.000 C 
BRANCH  26  27
ATOM     27  C   UNL     1       1.006   8.907  -8.973  1.00  0.00    -0.000 C 
BRANCH  27  28
ATOM     28  C   UNL     1      -0.202   9.707  -9.502  1.00  0.00    -0.000 C 
BRANCH  28  29
ATOM     29  C   UNL     1      -1.573   9.133  -9.083  1.00  0.00    -0.000 C 
BRANCH  29  30
ATOM     30  C   UNL     1      -1.965   9.475  -7.630  1.00  0.00    -0.000 C 
BRANCH  30  31
ATOM     31  C   UNL     1      -0.829  10.123  -6.817  1.00  0.00    -0.003 C 
ATOM     32  C   UNL     1      -0.797   9.646  -5.365  1.00  0.00     0.004 C 
ENDBRANCH  30  31
ENDBRANCH  29  30
ENDBRANCH  28  29
ENDBRANCH  27  28
ENDBRANCH  26  27
ENDBRANCH  25  26
ENDBRANCH  24  25
ENDBRANCH  23  24
ENDBRANCH  22  23
ENDBRANCH  21  22
ENDBRANCH  20  21
ENDBRANCH  19  20
ENDBRANCH  18  19
ENDBRANCH   1  18
TORSDOF 28
ENDMDL
MODEL 8
REMARK VINA RESULT:     4.509      1.433      3.623
REMARK INTER + INTRA:          11.082
REMARK INTER:                  13.087
REMARK INTRA:                  -2.006
REMARK UNBOUND:                -0.807
REMARK SMILES CCCCCCCCCCCCCCCCCCCCCCCCCCCCCC(=O)[O-]
REMARK SMILES IDX 16 1 17 2 18 3 19 4 20 5 21 6 22 7 23 8 24 9 25 10 26 11
REMARK SMILES IDX 27 12 28 13 29 14 30 15 31 16 32 17 15 18 14 19 13 20 12 21
REMARK SMILES IDX 11 22 10 23 9 24 8 25 7 26 6 27 5 28 4 29 3 30 2 31 1 32
REMARK H PARENT
REMARK Flexibility Score: inf
ROOT
ATOM      1  C   UNL     1       1.300   3.156  -2.145  1.00  0.00     0.000 C 
ENDROOT
BRANCH   1   2
ATOM      2  C   UNL     1       2.446   2.820  -1.174  1.00  0.00     0.000 C 
BRANCH   2   3
ATOM      3  C   UNL     1       2.263   1.450  -0.498  1.00  0.00     0.000 C 
BRANCH   3   4
ATOM      4  C   UNL     1       3.426   1.095   0.443  1.00  0.00     0.000 C 
BRANCH   4   5
ATOM      5  C   UNL     1       2.946   0.676   1.844  1.00  0.00     0.000 C 
BRANCH   5   6
ATOM      6  C   UNL     1       1.723  -0.260   1.855  1.00  0.00     0.000 C 
BRANCH   6   7
ATOM      7  C   UNL     1       2.042  -1.753   2.067  1.00  0.00     0.000 C 
BRANCH   7   8
ATOM      8  C   UNL     1       0.794  -2.627   2.309  1.00  0.00     0.000 C 
BRANCH   8   9
ATOM      9  C   UNL     1      -0.495  -1.792   2.377  1.00  0.00     0.000 C 
BRANCH   9  10
ATOM     10  C   UNL     1      -1.117  -1.842   3.780  1.00  0.00     0.000 C 
BRANCH  10  11
ATOM     11  C   UNL     1      -1.130  -0.456   4.460  1.00  0.00     0.000 C 
BRANCH  11  12
ATOM     12  C   UNL     1      -2.189  -0.321   5.568  1.00  0.00     0.000 C 
BRANCH  12  13
ATOM     13  C   UNL     1      -2.083  -1.424   6.635  1.00  0.00     0.006 C 
BRANCH  13  14
ATOM     14  C   UNL     1      -0.660  -1.554   7.196  1.00  0.00     0.053 C 
BRANCH  14  15
ATOM     15  C   UNL     1      -0.665  -1.949   8.641  1.00  0.00     0.041 C 
ATOM     16  O   UNL     1       0.325  -1.683   9.375  1.00  0.00    -0.550 OA
ATOM     17  O   UNL     1      -1.768  -2.599   9.181  1.00  0.00    -0.550 OA
ENDBRANCH  14  15
ENDBRANCH  13  14
ENDBRANCH  12  13
ENDBRANCH  11  12
ENDBRANCH  10  11
ENDBRANCH   9  10
ENDBRANCH   8   9
ENDBRANCH   7   8
ENDBRANCH   6   7
ENDBRANCH   5   6
ENDBRANCH   4   5
ENDBRANCH   3   4
ENDBRANCH   2   3
ENDBRANCH   1   2
BRANCH   1  18
ATOM     18  C   UNL     1       1.764   3.985  -3.357  1.00  0.00     0.000 C 
BRANCH  18  19
ATOM     19  C   UNL     1       0.963   5.275  -3.613  1.00  0.00     0.000 C 
BRANCH  19  20
ATOM     20  C   UNL     1      -0.049   5.137  -4.766  1.00  0.00     0.000 C 
BRANCH  20  21
ATOM     21  C   UNL     1       0.234   6.114  -5.925  1.00  0.00     0.000 C 
BRANCH  21  22
ATOM     22  C   UNL     1       0.194   5.460  -7.317  1.00  0.00     0.000 C 
BRANCH  22  23
ATOM     23  C   UNL     1       1.332   5.931  -8.232  1.00  0.00     0.000 C 
BRANCH  23  24
ATOM     24  C   UNL     1       1.397   7.464  -8.279  1.00  0.00    -0.000 C 
BRANCH  24  25
ATOM     25  C   UNL     1       1.212   8.019  -9.701  1.00  0.00    -0.000 C 
BRANCH  25  26
ATOM     26  C   UNL     1      -0.092   8.821  -9.857  1.00  0.00    -0.000 C 
BRANCH  26  27
ATOM     27  C   UNL     1      -0.457   9.611  -8.584  1.00  0.00    -0.000 C 
BRANCH  27  28
ATOM     28  C   UNL     1      -1.960   9.588  -8.236  1.00  0.00    -0.000 C 
BRANCH  28  29
ATOM     29  C   UNL     1      -2.273   9.934  -6.764  1.00  0.00    -0.000 C 
BRANCH  29  30
ATOM     30  C   UNL     1      -1.026   9.944  -5.855  1.00  0.00    -0.000 C 
BRANCH  30  31
ATOM     31  C   UNL     1      -1.350  10.125  -4.361  1.00  0.00    -0.003 C 
ATOM     32  C   UNL     1      -1.018   8.885  -3.530  1.00  0.00     0.004 C 
ENDBRANCH  30  31
ENDBRANCH  29  30
ENDBRANCH  28  29
ENDBRANCH  27  28
ENDBRANCH  26  27
ENDBRANCH  25  26
ENDBRANCH  24  25
ENDBRANCH  23  24
ENDBRANCH  22  23
ENDBRANCH  21  22
ENDBRANCH  20  21
ENDBRANCH  19  20
ENDBRANCH  18  19
ENDBRANCH   1  18
TORSDOF 28
ENDMDL
