MODEL 1
REMARK VINA RESULT:    -4.058      0.000      0.000
REMARK INTER + INTRA:          -4.541
REMARK INTER:                  -4.414
REMARK INTRA:                  -0.127
REMARK UNBOUND:                -0.127
REMARK SMILES Cc1ccc(C(C)C)cc1O
REMARK SMILES IDX 1 1 2 2 10 3 9 4 5 5 4 6 3 7 11 8 6 10 7 11 8 12
REMARK H PARENT 11 9
REMARK Flexibility Score: inf
ROOT
ATOM      1  C   UNL     1      15.910   0.963  -2.764  1.00  0.00     0.048 C 
ATOM      2  C   UNL     1      14.879   2.016  -2.464  1.00  0.00    -0.009 A 
ATOM      3  C   UNL     1      15.131   3.042  -1.527  1.00  0.00     0.118 A 
ATOM      4  C   UNL     1      14.151   4.008  -1.270  1.00  0.00     0.050 A 
ATOM      5  C   UNL     1      12.912   3.973  -1.931  1.00  0.00    -0.042 A 
ATOM      6  C   UNL     1      12.668   2.949  -2.862  1.00  0.00     0.004 A 
ATOM      7  C   UNL     1      13.640   1.982  -3.125  1.00  0.00     0.007 A 
ENDROOT
BRANCH   3   8
ATOM      8  O   UNL     1      16.343   3.131  -0.837  1.00  0.00    -0.508 OA
ATOM      9  H   UNL     1      16.591   2.512  -0.076  1.00  0.00     0.293 HD
ENDBRANCH   3   8
BRANCH   5  10
ATOM     10  C   UNL     1      11.863   5.029  -1.636  1.00  0.00     0.013 C 
ATOM     11  C   UNL     1      11.711   5.252  -0.127  1.00  0.00     0.012 C 
ATOM     12  C   UNL     1      10.519   4.669  -2.280  1.00  0.00     0.012 C 
ENDBRANCH   5  10
TORSDOF 2
ENDMDL
MODEL 2
REMARK VINA RESULT:    -3.643      2.173      4.754
REMARK INTER + INTRA:          -4.089
REMARK INTER:                  -3.966
REMARK INTRA:                  -0.124
REMARK UNBOUND:                -0.127
REMARK SMILES Cc1ccc(C(C)C)cc1O
REMARK SMILES IDX 1 1 2 2 10 3 9 4 5 5 4 6 3 7 11 8 6 10 7 11 8 12
REMARK H PARENT 11 9
REMARK Flexibility Score: inf
ROOT
ATOM      1  C   UNL     1      10.023   5.423  -1.386  1.00  0.00     0.048 C 
ATOM      2  C   UNL     1      11.331   4.743  -1.684  1.00  0.00    -0.009 A 
ATOM      3  C   UNL     1      11.390   3.600  -2.512  1.00  0.00     0.118 A 
ATOM      4  C   UNL     1      12.623   2.990  -2.770  1.00  0.00     0.050 A 
ATOM      5  C   UNL     1      13.810   3.497  -2.217  1.00  0.00    -0.042 A 
ATOM      6  C   UNL     1      13.744   4.635  -1.394  1.00  0.00     0.004 A 
ATOM      7  C   UNL     1      12.518   5.251  -1.132  1.00  0.00     0.007 A 
ENDROOT
BRANCH   3   8
ATOM      8  O   UNL     1      10.245   3.048  -3.091  1.00  0.00    -0.508 OA
ATOM      9  H   UNL     1       9.896   2.128  -2.854  1.00  0.00     0.293 HD
ENDBRANCH   3   8
BRANCH   5  10
ATOM     10  C   UNL     1      15.136   2.820  -2.510  1.00  0.00     0.013 C 
ATOM     11  C   UNL     1      14.923   1.432  -3.125  1.00  0.00     0.012 C 
ATOM     12  C   UNL     1      16.006   2.739  -1.250  1.00  0.00     0.012 C 
ENDBRANCH   5  10
TORSDOF 2
ENDMDL
MODEL 3
REMARK VINA RESULT:    -3.520      4.353      6.526
REMARK INTER + INTRA:          -3.956
REMARK INTER:                  -3.842
REMARK INTRA:                  -0.114
REMARK UNBOUND:                -0.127
REMARK SMILES Cc1ccc(C(C)C)cc1O
REMARK SMILES IDX 1 1 2 2 10 3 9 4 5 5 4 6 3 7 11 8 6 10 7 11 8 12
REMARK H PARENT 11 9
REMARK Flexibility Score: inf
ROOT
ATOM      1  C   UNL     1      22.740   0.754  -3.029  1.00  0.00     0.048 C 
ATOM      2  C   UNL     1      21.260   1.017  -2.972  1.00  0.00    -0.009 A 
ATOM      3  C   UNL     1      20.326  -0.041  -3.021  1.00  0.00     0.118 A 
ATOM      4  C   UNL     1      18.955   0.237  -2.966  1.00  0.00     0.050 A 
ATOM      5  C   UNL     1      18.489   1.558  -2.862  1.00  0.00    -0.042 A 
ATOM      6  C   UNL     1      19.425   2.606  -2.813  1.00  0.00     0.004 A 
ATOM      7  C   UNL     1      20.794   2.338  -2.867  1.00  0.00     0.007 A 
ENDROOT
BRANCH   3   8
ATOM      8  O   UNL     1      20.726  -1.376  -3.125  1.00  0.00    -0.508 OA
ATOM      9  H   UNL     1      20.126  -2.105  -3.487  1.00  0.00     0.293 HD
ENDBRANCH   3   8
BRANCH   5  10
ATOM     10  C   UNL     1      16.999   1.836  -2.804  1.00  0.00     0.013 C 
ATOM     11  C   UNL     1      16.598   2.419  -1.444  1.00  0.00     0.012 C 
ATOM     12  C   UNL     1      16.188   0.575  -3.125  1.00  0.00     0.012 C 
ENDBRANCH   5  10
TORSDOF 2
ENDMDL
MODEL 4
REMARK VINA RESULT:    -3.383     16.362     17.487
REMARK INTER + INTRA:          -3.806
REMARK INTER:                  -3.705
REMARK INTRA:                  -0.101
REMARK UNBOUND:                -0.127
REMARK SMILES Cc1ccc(C(C)C)cc1O
REMARK SMILES IDX 1 1 2 2 10 3 9 4 5 5 4 6 3 7 11 8 6 10 7 11 8 12
REMARK H PARENT 11 9
REMARK Flexibility Score: inf
ROOT
ATOM      1  C   UNL     1      21.695  16.730  -2.899  1.00  0.00     0.048 C 
ATOM      2  C   UNL     1      22.469  16.994  -1.637  1.00  0.00    -0.009 A 
ATOM      3  C   UNL     1      23.720  16.382  -1.403  1.00  0.00     0.118 A 
ATOM      4  C   UNL     1      24.416  16.649  -0.218  1.00  0.00     0.050 A 
ATOM      5  C   UNL     1      23.887  17.520   0.749  1.00  0.00    -0.042 A 
ATOM      6  C   UNL     1      22.641  18.125   0.510  1.00  0.00     0.004 A 
ATOM      7  C   UNL     1      21.941  17.865  -0.670  1.00  0.00     0.007 A 
ENDROOT
BRANCH   3   8
ATOM      8  O   UNL     1      24.298  15.507  -2.326  1.00  0.00    -0.508 OA
ATOM      9  H   UNL     1      24.594  14.569  -2.087  1.00  0.00     0.293 HD
ENDBRANCH   3   8
BRANCH   5  10
ATOM     10  C   UNL     1      24.658  17.794   2.027  1.00  0.00     0.013 C 
ATOM     11  C   UNL     1      26.138  18.066   1.733  1.00  0.00     0.012 C 
ATOM     12  C   UNL     1      24.496  16.644   3.028  1.00  0.00     0.012 C 
ENDBRANCH   5  10
TORSDOF 2
ENDMDL
MODEL 5
REMARK VINA RESULT:    -3.367      2.946      4.764
REMARK INTER + INTRA:          -3.789
REMARK INTER:                  -3.663
REMARK INTRA:                  -0.125
REMARK UNBOUND:                -0.127
REMARK SMILES Cc1ccc(C(C)C)cc1O
REMARK SMILES IDX 1 1 2 2 10 3 9 4 5 5 4 6 3 7 11 8 6 10 7 11 8 12
REMARK H PARENT 11 9
REMARK Flexibility Score: inf
ROOT
ATOM      1  C   UNL     1      13.024   4.250  -1.211  1.00  0.00     0.048 C 
ATOM      2  C   UNL     1      11.728   4.950  -1.517  1.00  0.00    -0.009 A 
ATOM      3  C   UNL     1      10.709   4.314  -2.260  1.00  0.00     0.118 A 
ATOM      4  C   UNL     1       9.515   4.993  -2.528  1.00  0.00     0.050 A 
ATOM      5  C   UNL     1       9.311   6.305  -2.069  1.00  0.00    -0.042 A 
ATOM      6  C   UNL     1      10.330   6.932  -1.330  1.00  0.00     0.004 A 
ATOM      7  C   UNL     1      11.524   6.261  -1.058  1.00  0.00     0.007 A 
ENDROOT
BRANCH   3   8
ATOM      8  O   UNL     1      10.852   3.011  -2.744  1.00  0.00    -0.508 OA
ATOM      9  H   UNL     1      11.220   2.252  -2.185  1.00  0.00     0.293 HD
ENDBRANCH   3   8
BRANCH   5  10
ATOM     10  C   UNL     1       8.009   7.022  -2.371  1.00  0.00     0.013 C 
ATOM     11  C   UNL     1       7.639   7.995  -1.246  1.00  0.00     0.012 C 
ATOM     12  C   UNL     1       6.875   6.023  -2.632  1.00  0.00     0.012 C 
ENDBRANCH   5  10
TORSDOF 2
ENDMDL
MODEL 6
REMARK VINA RESULT:    -3.212      4.587      6.907
REMARK INTER + INTRA:          -3.621
REMARK INTER:                  -3.496
REMARK INTRA:                  -0.125
REMARK UNBOUND:                -0.127
REMARK SMILES Cc1ccc(C(C)C)cc1O
REMARK SMILES IDX 1 1 2 2 10 3 9 4 5 5 4 6 3 7 11 8 6 10 7 11 8 12
REMARK H PARENT 11 9
REMARK Flexibility Score: inf
ROOT
ATOM      1  C   UNL     1       9.916  10.939  -2.288  1.00  0.00     0.048 C 
ATOM      2  C   UNL     1      10.086   9.475  -1.987  1.00  0.00    -0.009 A 
ATOM      3  C   UNL     1       8.991   8.677  -1.589  1.00  0.00     0.118 A 
ATOM      4  C   UNL     1       9.183   7.318  -1.316  1.00  0.00     0.050 A 
ATOM      5  C   UNL     1      10.453   6.730  -1.432  1.00  0.00    -0.042 A 
ATOM      6  C   UNL     1      11.538   7.530  -1.830  1.00  0.00     0.004 A 
ATOM      7  C   UNL     1      11.356   8.887  -2.104  1.00  0.00     0.007 A 
ENDROOT
BRANCH   3   8
ATOM      8  O   UNL     1       7.704   9.204  -1.455  1.00  0.00    -0.508 OA
ATOM      9  H   UNL     1       6.903   8.836  -1.952  1.00  0.00     0.293 HD
ENDBRANCH   3   8
BRANCH   5  10
ATOM     10  C   UNL     1      10.638   5.254  -1.132  1.00  0.00     0.013 C 
ATOM     11  C   UNL     1      11.994   4.991  -0.466  1.00  0.00     0.012 C 
ATOM     12  C   UNL     1      10.471   4.407  -2.399  1.00  0.00     0.012 C 
ENDBRANCH   5  10
TORSDOF 2
ENDMDL
MODEL 7
REMARK VINA RESULT:    -3.173     10.750     12.320
REMARK INTER + INTRA:          -3.578
REMARK INTER:                  -3.457
REMARK INTRA:                  -0.120
REMARK UNBOUND:                -0.127
REMARK SMILES Cc1ccc(C(C)C)cc1O
REMARK SMILES IDX 1 1 2 2 10 3 9 4 5 5 4 6 3 7 11 8 6 10 7 11 8 12
REMARK H PARENT 11 9
REMARK Flexibility Score: inf
ROOT
ATOM      1  C   UNL     1      13.160  12.487  -2.755  1.00  0.00     0.048 C 
ATOM      2  C   UNL     1      13.269  13.782  -1.997  1.00  0.00    -0.009 A 
ATOM      3  C   UNL     1      14.442  14.567  -2.054  1.00  0.00     0.118 A 
ATOM      4  C   UNL     1      14.512  15.767  -1.337  1.00  0.00     0.050 A 
ATOM      5  C   UNL     1      13.430  16.207  -0.556  1.00  0.00    -0.042 A 
ATOM      6  C   UNL     1      12.267  15.420  -0.504  1.00  0.00     0.004 A 
ATOM      7  C   UNL     1      12.188  14.222  -1.217  1.00  0.00     0.007 A 
ENDROOT
BRANCH   3   8
ATOM      8  O   UNL     1      15.551  14.183  -2.812  1.00  0.00    -0.508 OA
ATOM      9  H   UNL     1      15.477  13.638  -3.660  1.00  0.00     0.293 HD
ENDBRANCH   3   8
BRANCH   5  10
ATOM     10  C   UNL     1      13.529  17.511   0.213  1.00  0.00     0.013 C 
ATOM     11  C   UNL     1      14.928  18.125   0.085  1.00  0.00     0.012 C 
ATOM     12  C   UNL     1      13.145  17.315   1.685  1.00  0.00     0.012 C 
ENDBRANCH   5  10
TORSDOF 2
ENDMDL
MODEL 8
REMARK VINA RESULT:    -3.169     10.806     12.410
REMARK INTER + INTRA:          -3.574
REMARK INTER:                  -3.447
REMARK INTRA:                  -0.127
REMARK UNBOUND:                -0.127
REMARK SMILES Cc1ccc(C(C)C)cc1O
REMARK SMILES IDX 1 1 2 2 10 3 9 4 5 5 4 6 3 7 11 8 6 10 7 11 8 12
REMARK H PARENT 11 9
REMARK Flexibility Score: inf
ROOT
ATOM      1  C   UNL     1      13.168  12.517  -2.758  1.00  0.00     0.048 C 
ATOM      2  C   UNL     1      13.240  13.803  -1.981  1.00  0.00    -0.009 A 
ATOM      3  C   UNL     1      12.145  14.258  -1.215  1.00  0.00     0.118 A 
ATOM      4  C   UNL     1      12.244  15.459  -0.503  1.00  0.00     0.050 A 
ATOM      5  C   UNL     1      13.421  16.225  -0.538  1.00  0.00    -0.042 A 
ATOM      6  C   UNL     1      14.507  15.765  -1.302  1.00  0.00     0.004 A 
ATOM      7  C   UNL     1      14.417  14.568  -2.015  1.00  0.00     0.007 A 
ENDROOT
BRANCH   3   8
ATOM      8  O   UNL     1      10.947  13.542  -1.140  1.00  0.00    -0.508 OA
ATOM      9  H   UNL     1      10.039  13.987  -1.117  1.00  0.00     0.293 HD
ENDBRANCH   3   8
BRANCH   5  10
ATOM     10  C   UNL     1      13.506  17.524   0.241  1.00  0.00     0.013 C 
ATOM     11  C   UNL     1      14.915  18.123   0.165  1.00  0.00     0.012 C 
ATOM     12  C   UNL     1      13.068  17.325   1.697  1.00  0.00     0.012 C 
ENDBRANCH   5  10
TORSDOF 2
ENDMDL
