MODEL 1
REMARK VINA RESULT:    -1.977      0.000      0.000
REMARK INTER + INTRA:          -3.204
REMARK INTER:                  -3.017
REMARK INTRA:                  -0.186
REMARK UNBOUND:                -0.186
REMARK SMILES O=C([O-])CCCCCCCCC(=O)[O-]
REMARK SMILES IDX 7 1 6 2 5 3 4 4 2 5 1 6 3 7 8 8 9 9 10 10 11 11 12 12 13 13
REMARK SMILES IDX 14 14
REMARK H PARENT
REMARK Flexibility Score: inf
ROOT
ATOM      1  C   UNL     1      90.440  18.038 121.125  1.00  0.00     0.000 C 
ENDROOT
BRANCH   1   2
ATOM      2  C   UNL     1      91.790  18.114 120.395  1.00  0.00     0.000 C 
BRANCH   2   3
ATOM      3  C   UNL     1      92.807  17.086 120.922  1.00  0.00     0.006 C 
BRANCH   3   4
ATOM      4  C   UNL     1      93.352  16.187 119.803  1.00  0.00     0.053 C 
BRANCH   4   5
ATOM      5  C   UNL     1      94.445  15.287 120.293  1.00  0.00     0.041 C 
ATOM      6  O   UNL     1      94.193  14.090 120.593  1.00  0.00    -0.550 OA
ATOM      7  O   UNL     1      95.735  15.778 120.447  1.00  0.00    -0.550 OA
ENDBRANCH   4   5
ENDBRANCH   3   4
ENDBRANCH   2   3
ENDBRANCH   1   2
BRANCH   1   8
ATOM      8  C   UNL     1      89.247  18.297 120.192  1.00  0.00     0.000 C 
BRANCH   8   9
ATOM      9  C   UNL     1      87.944  18.428 120.991  1.00  0.00     0.000 C 
BRANCH   9  10
ATOM     10  C   UNL     1      86.720  18.275 120.080  1.00  0.00     0.006 C 
BRANCH  10  11
ATOM     11  C   UNL     1      85.424  18.518 120.857  1.00  0.00     0.053 C 
BRANCH  11  12
ATOM     12  C   UNL     1      84.449  17.410 120.608  1.00  0.00     0.041 C 
ATOM     13  O   UNL     1      84.800  16.211 120.762  1.00  0.00    -0.550 OA
ATOM     14  O   UNL     1      83.138  17.704 120.253  1.00  0.00    -0.550 OA
ENDBRANCH  11  12
ENDBRANCH  10  11
ENDBRANCH   9  10
ENDBRANCH   8   9
ENDBRANCH   1   8
TORSDOF 9
ENDMDL
MODEL 2
REMARK VINA RESULT:    -0.767      2.177      3.322
REMARK INTER + INTRA:          -1.357
REMARK INTER:                  -0.921
REMARK INTRA:                  -0.436
REMARK UNBOUND:                -0.186
REMARK SMILES O=C([O-])CCCCCCCCC(=O)[O-]
REMARK SMILES IDX 7 1 6 2 5 3 4 4 2 5 1 6 3 7 8 8 9 9 10 10 11 11 12 12 13 13
REMARK SMILES IDX 14 14
REMARK H PARENT
REMARK Flexibility Score: inf
ROOT
ATOM      1  C   UNL     1      92.305  16.509 119.138  1.00  0.00     0.000 C 
ENDROOT
BRANCH   1   2
ATOM      2  C   UNL     1      93.212  16.178 120.334  1.00  0.00     0.000 C 
BRANCH   2   3
ATOM      3  C   UNL     1      94.614  15.712 119.904  1.00  0.00     0.006 C 
BRANCH   3   4
ATOM      4  C   UNL     1      95.706  16.203 120.864  1.00  0.00     0.053 C 
BRANCH   4   5
ATOM      5  C   UNL     1      96.760  16.994 120.153  1.00  0.00     0.041 C 
ATOM      6  O   UNL     1      97.762  17.424 120.782  1.00  0.00    -0.550 OA
ATOM      7  O   UNL     1      96.621  17.283 118.801  1.00  0.00    -0.550 OA
ENDBRANCH   4   5
ENDBRANCH   3   4
ENDBRANCH   2   3
ENDBRANCH   1   2
BRANCH   1   8
ATOM      8  C   UNL     1      91.705  17.921 119.221  1.00  0.00     0.000 C 
BRANCH   8   9
ATOM      9  C   UNL     1      91.494  18.343 120.680  1.00  0.00     0.000 C 
BRANCH   9  10
ATOM     10  C   UNL     1      90.048  18.090 121.124  1.00  0.00     0.006 C 
BRANCH  10  11
ATOM     11  C   UNL     1      89.068  18.348 119.976  1.00  0.00     0.053 C 
BRANCH  11  12
ATOM     12  C   UNL     1      87.697  18.621 120.511  1.00  0.00     0.041 C 
ATOM     13  O   UNL     1      86.806  17.733 120.452  1.00  0.00    -0.550 OA
ATOM     14  O   UNL     1      87.417  19.839 121.117  1.00  0.00    -0.550 OA
ENDBRANCH  11  12
ENDBRANCH  10  11
ENDBRANCH   9  10
ENDBRANCH   8   9
ENDBRANCH   1   8
TORSDOF 9
ENDMDL
