MODEL 1
REMARK VINA RESULT:    -4.491      0.000      0.000
REMARK INTER + INTRA:          -4.622
REMARK INTER:                  -4.622
REMARK INTRA:                   0.000
REMARK UNBOUND:                 0.000
REMARK SMILES O=c1ccc2ccc(O)cc2o1
REMARK SMILES IDX 6 1 7 2 8 3 10 4 11 5 5 6 4 7 3 8 2 9 1 10 12 11 9 12
REMARK H PARENT 9 13
REMARK Flexibility Score: inf
ROOT
ATOM      1  C   UNL     1      18.342 -48.004   7.184  1.00  0.00     0.016 A 
ATOM      2  C   UNL     1      19.111 -48.844   6.373  1.00  0.00     0.047 A 
ATOM      3  C   UNL     1      20.184 -48.326   5.633  1.00  0.00     0.119 A 
ATOM      4  C   UNL     1      20.489 -46.962   5.708  1.00  0.00     0.094 A 
ATOM      5  C   UNL     1      19.725 -46.113   6.516  1.00  0.00     0.142 A 
ATOM      6  C   UNL     1      18.644 -46.637   7.260  1.00  0.00     0.018 A 
ATOM      7  C   UNL     1      17.900 -45.764   8.058  1.00  0.00     0.019 A 
ATOM      8  C   UNL     1      18.243 -44.413   8.099  1.00  0.00     0.094 A 
ATOM      9  C   UNL     1      19.326 -43.965   7.336  1.00  0.00     0.336 A 
ATOM     10  O   UNL     1      19.651 -42.749   7.359  1.00  0.00    -0.246 OA
ATOM     11  O   UNL     1      20.018 -44.816   6.583  1.00  0.00    -0.423 OA
ENDROOT
BRANCH   3  12
ATOM     12  O   UNL     1      20.954 -49.159   4.824  1.00  0.00    -0.508 OA
ATOM     13  H   UNL     1      21.742 -48.803   4.296  1.00  0.00     0.293 HD
ENDBRANCH   3  12
TORSDOF 1
ENDMDL
MODEL 2
REMARK VINA RESULT:    -4.473      3.052      4.536
REMARK INTER + INTRA:          -4.604
REMARK INTER:                  -4.604
REMARK INTRA:                   0.000
REMARK UNBOUND:                 0.000
REMARK SMILES O=c1ccc2ccc(O)cc2o1
REMARK SMILES IDX 6 1 7 2 8 3 10 4 11 5 5 6 4 7 3 8 2 9 1 10 12 11 9 12
REMARK H PARENT 9 13
REMARK Flexibility Score: inf
ROOT
ATOM      1  C   UNL     1      21.267 -45.785   7.231  1.00  0.00     0.016 A 
ATOM      2  C   UNL     1      19.879 -45.694   7.089  1.00  0.00     0.047 A 
ATOM      3  C   UNL     1      19.223 -44.475   7.320  1.00  0.00     0.119 A 
ATOM      4  C   UNL     1      19.959 -43.346   7.693  1.00  0.00     0.094 A 
ATOM      5  C   UNL     1      21.349 -43.428   7.839  1.00  0.00     0.142 A 
ATOM      6  C   UNL     1      22.008 -44.655   7.606  1.00  0.00     0.018 A 
ATOM      7  C   UNL     1      23.396 -44.706   7.759  1.00  0.00     0.019 A 
ATOM      8  C   UNL     1      24.086 -43.553   8.134  1.00  0.00     0.094 A 
ATOM      9  C   UNL     1      23.368 -42.372   8.347  1.00  0.00     0.336 A 
ATOM     10  O   UNL     1      23.972 -41.321   8.686  1.00  0.00    -0.246 OA
ATOM     11  O   UNL     1      22.046 -42.350   8.195  1.00  0.00    -0.423 OA
ENDROOT
BRANCH   3  12
ATOM     12  O   UNL     1      17.840 -44.378   7.179  1.00  0.00    -0.508 OA
ATOM     13  H   UNL     1      17.268 -45.193   6.992  1.00  0.00     0.293 HD
ENDBRANCH   3  12
TORSDOF 1
ENDMDL
MODEL 3
REMARK VINA RESULT:    -4.470      2.716      3.375
REMARK INTER + INTRA:          -4.600
REMARK INTER:                  -4.600
REMARK INTRA:                   0.000
REMARK UNBOUND:                 0.000
REMARK SMILES O=c1ccc2ccc(O)cc2o1
REMARK SMILES IDX 6 1 7 2 8 3 10 4 11 5 5 6 4 7 3 8 2 9 1 10 12 11 9 12
REMARK H PARENT 9 13
REMARK Flexibility Score: inf
ROOT
ATOM      1  C   UNL     1      17.812 -44.750   7.732  1.00  0.00     0.016 A 
ATOM      2  C   UNL     1      17.308 -46.024   8.009  1.00  0.00     0.047 A 
ATOM      3  C   UNL     1      18.144 -47.015   8.547  1.00  0.00     0.119 A 
ATOM      4  C   UNL     1      19.489 -46.726   8.807  1.00  0.00     0.094 A 
ATOM      5  C   UNL     1      20.002 -45.454   8.532  1.00  0.00     0.142 A 
ATOM      6  C   UNL     1      19.158 -44.458   7.991  1.00  0.00     0.018 A 
ATOM      7  C   UNL     1      19.700 -43.197   7.728  1.00  0.00     0.019 A 
ATOM      8  C   UNL     1      21.046 -42.959   8.004  1.00  0.00     0.094 A 
ATOM      9  C   UNL     1      21.822 -43.992   8.540  1.00  0.00     0.336 A 
ATOM     10  O   UNL     1      23.038 -43.796   8.796  1.00  0.00    -0.246 OA
ATOM     11  O   UNL     1      21.282 -45.184   8.781  1.00  0.00    -0.423 OA
ENDROOT
BRANCH   3  12
ATOM     12  O   UNL     1      17.648 -48.286   8.825  1.00  0.00    -0.508 OA
ATOM     13  H   UNL     1      17.635 -48.654   9.769  1.00  0.00     0.293 HD
ENDBRANCH   3  12
TORSDOF 1
ENDMDL
MODEL 4
REMARK VINA RESULT:    -4.468      2.541      3.539
REMARK INTER + INTRA:          -4.599
REMARK INTER:                  -4.599
REMARK INTRA:                   0.000
REMARK UNBOUND:                 0.000
REMARK SMILES O=c1ccc2ccc(O)cc2o1
REMARK SMILES IDX 6 1 7 2 8 3 10 4 11 5 5 6 4 7 3 8 2 9 1 10 12 11 9 12
REMARK H PARENT 9 13
REMARK Flexibility Score: inf
ROOT
ATOM      1  C   UNL     1      18.879 -44.000   7.941  1.00  0.00     0.016 A 
ATOM      2  C   UNL     1      18.544 -45.172   7.255  1.00  0.00     0.047 A 
ATOM      3  C   UNL     1      19.549 -45.979   6.700  1.00  0.00     0.119 A 
ATOM      4  C   UNL     1      20.893 -45.611   6.835  1.00  0.00     0.094 A 
ATOM      5  C   UNL     1      21.238 -44.440   7.520  1.00  0.00     0.142 A 
ATOM      6  C   UNL     1      20.224 -43.629   8.077  1.00  0.00     0.018 A 
ATOM      7  C   UNL     1      20.599 -42.466   8.755  1.00  0.00     0.019 A 
ATOM      8  C   UNL     1      21.951 -42.142   8.862  1.00  0.00     0.094 A 
ATOM      9  C   UNL     1      22.900 -42.992   8.286  1.00  0.00     0.336 A 
ATOM     10  O   UNL     1      24.125 -42.717   8.372  1.00  0.00    -0.246 OA
ATOM     11  O   UNL     1      22.517 -44.094   7.645  1.00  0.00    -0.423 OA
ENDROOT
BRANCH   3  12
ATOM     12  O   UNL     1      19.222 -47.147   6.016  1.00  0.00    -0.508 OA
ATOM     13  H   UNL     1      19.137 -47.163   5.007  1.00  0.00     0.293 HD
ENDBRANCH   3  12
TORSDOF 1
ENDMDL
MODEL 5
REMARK VINA RESULT:    -4.388      0.891      4.223
REMARK INTER + INTRA:          -4.516
REMARK INTER:                  -4.516
REMARK INTRA:                   0.000
REMARK UNBOUND:                 0.000
REMARK SMILES O=c1ccc2ccc(O)cc2o1
REMARK SMILES IDX 6 1 7 2 8 3 10 4 11 5 5 6 4 7 3 8 2 9 1 10 12 11 9 12
REMARK H PARENT 9 13
REMARK Flexibility Score: inf
ROOT
ATOM      1  C   UNL     1      17.694 -46.124   7.948  1.00  0.00     0.016 A 
ATOM      2  C   UNL     1      17.933 -44.759   7.767  1.00  0.00     0.047 A 
ATOM      3  C   UNL     1      19.015 -44.326   6.986  1.00  0.00     0.119 A 
ATOM      4  C   UNL     1      19.860 -45.265   6.383  1.00  0.00     0.094 A 
ATOM      5  C   UNL     1      19.629 -46.634   6.558  1.00  0.00     0.142 A 
ATOM      6  C   UNL     1      18.539 -47.068   7.346  1.00  0.00     0.018 A 
ATOM      7  C   UNL     1      18.334 -48.441   7.501  1.00  0.00     0.019 A 
ATOM      8  C   UNL     1      19.204 -49.338   6.881  1.00  0.00     0.094 A 
ATOM      9  C   UNL     1      20.262 -48.837   6.116  1.00  0.00     0.336 A 
ATOM     10  O   UNL     1      21.058 -49.629   5.548  1.00  0.00    -0.246 OA
ATOM     11  O   UNL     1      20.436 -47.524   5.983  1.00  0.00    -0.423 OA
ENDROOT
BRANCH   3  12
ATOM     12  O   UNL     1      19.258 -42.966   6.803  1.00  0.00    -0.508 OA
ATOM     13  H   UNL     1      19.271 -42.321   7.584  1.00  0.00     0.293 HD
ENDBRANCH   3  12
TORSDOF 1
ENDMDL
MODEL 6
REMARK VINA RESULT:    -4.378      2.703      4.625
REMARK INTER + INTRA:          -4.506
REMARK INTER:                  -4.506
REMARK INTRA:                   0.000
REMARK UNBOUND:                 0.000
REMARK SMILES O=c1ccc2ccc(O)cc2o1
REMARK SMILES IDX 6 1 7 2 8 3 10 4 11 5 5 6 4 7 3 8 2 9 1 10 12 11 9 12
REMARK H PARENT 9 13
REMARK Flexibility Score: inf
ROOT
ATOM      1  C   UNL     1      20.376 -42.818   7.577  1.00  0.00     0.016 A 
ATOM      2  C   UNL     1      21.679 -42.552   8.009  1.00  0.00     0.047 A 
ATOM      3  C   UNL     1      22.413 -43.532   8.693  1.00  0.00     0.119 A 
ATOM      4  C   UNL     1      21.839 -44.784   8.945  1.00  0.00     0.094 A 
ATOM      5  C   UNL     1      20.535 -45.060   8.517  1.00  0.00     0.142 A 
ATOM      6  C   UNL     1      19.798 -44.071   7.829  1.00  0.00     0.018 A 
ATOM      7  C   UNL     1      18.500 -44.376   7.414  1.00  0.00     0.019 A 
ATOM      8  C   UNL     1      17.972 -45.638   7.689  1.00  0.00     0.094 A 
ATOM      9  C   UNL     1      18.759 -46.567   8.375  1.00  0.00     0.336 A 
ATOM     10  O   UNL     1      18.301 -47.711   8.632  1.00  0.00    -0.246 OA
ATOM     11  O   UNL     1      19.994 -46.252   8.759  1.00  0.00    -0.423 OA
ENDROOT
BRANCH   3  12
ATOM     12  O   UNL     1      23.712 -43.273   9.125  1.00  0.00    -0.508 OA
ATOM     13  H   UNL     1      24.425 -43.992   9.121  1.00  0.00     0.293 HD
ENDBRANCH   3  12
TORSDOF 1
ENDMDL
MODEL 7
REMARK VINA RESULT:    -4.371      3.237      5.293
REMARK INTER + INTRA:          -4.498
REMARK INTER:                  -4.498
REMARK INTRA:                   0.000
REMARK UNBOUND:                 0.000
REMARK SMILES O=c1ccc2ccc(O)cc2o1
REMARK SMILES IDX 6 1 7 2 8 3 10 4 11 5 5 6 4 7 3 8 2 9 1 10 12 11 9 12
REMARK H PARENT 9 13
REMARK Flexibility Score: inf
ROOT
ATOM      1  C   UNL     1      23.346 -44.470   7.671  1.00  0.00     0.016 A 
ATOM      2  C   UNL     1      24.058 -43.340   8.086  1.00  0.00     0.047 A 
ATOM      3  C   UNL     1      23.386 -42.252   8.663  1.00  0.00     0.119 A 
ATOM      4  C   UNL     1      21.997 -42.296   8.824  1.00  0.00     0.094 A 
ATOM      5  C   UNL     1      21.275 -43.422   8.411  1.00  0.00     0.142 A 
ATOM      6  C   UNL     1      21.954 -44.516   7.830  1.00  0.00     0.018 A 
ATOM      7  C   UNL     1      21.206 -45.626   7.428  1.00  0.00     0.019 A 
ATOM      8  C   UNL     1      19.823 -45.622   7.609  1.00  0.00     0.094 A 
ATOM      9  C   UNL     1      19.218 -44.503   8.191  1.00  0.00     0.336 A 
ATOM     10  O   UNL     1      17.972 -44.481   8.363  1.00  0.00    -0.246 OA
ATOM     11  O   UNL     1      19.953 -43.459   8.565  1.00  0.00    -0.423 OA
ENDROOT
BRANCH   3  12
ATOM     12  O   UNL     1      24.091 -41.124   9.079  1.00  0.00    -0.508 OA
ATOM     13  H   UNL     1      24.670 -40.596   8.438  1.00  0.00     0.293 HD
ENDBRANCH   3  12
TORSDOF 1
ENDMDL
MODEL 8
REMARK VINA RESULT:    -4.293      2.879      3.672
REMARK INTER + INTRA:          -4.418
REMARK INTER:                  -4.418
REMARK INTRA:                   0.000
REMARK UNBOUND:                 0.000
REMARK SMILES O=c1ccc2ccc(O)cc2o1
REMARK SMILES IDX 6 1 7 2 8 3 10 4 11 5 5 6 4 7 3 8 2 9 1 10 12 11 9 12
REMARK H PARENT 9 13
REMARK Flexibility Score: inf
ROOT
ATOM      1  C   UNL     1      19.175 -46.861   8.708  1.00  0.00     0.016 A 
ATOM      2  C   UNL     1      17.821 -46.781   8.368  1.00  0.00     0.047 A 
ATOM      3  C   UNL     1      17.244 -45.543   8.046  1.00  0.00     0.119 A 
ATOM      4  C   UNL     1      18.027 -44.383   8.063  1.00  0.00     0.094 A 
ATOM      5  C   UNL     1      19.383 -44.453   8.402  1.00  0.00     0.142 A 
ATOM      6  C   UNL     1      19.961 -45.701   8.727  1.00  0.00     0.018 A 
ATOM      7  C   UNL     1      21.318 -45.739   9.061  1.00  0.00     0.019 A 
ATOM      8  C   UNL     1      22.056 -44.555   9.065  1.00  0.00     0.094 A 
ATOM      9  C   UNL     1      21.417 -43.357   8.732  1.00  0.00     0.336 A 
ATOM     10  O   UNL     1      22.065 -42.279   8.730  1.00  0.00    -0.246 OA
ATOM     11  O   UNL     1      20.123 -43.347   8.418  1.00  0.00    -0.423 OA
ENDROOT
BRANCH   3  12
ATOM     12  O   UNL     1      15.896 -45.457   7.706  1.00  0.00    -0.508 OA
ATOM     13  H   UNL     1      15.223 -46.141   8.032  1.00  0.00     0.293 HD
ENDBRANCH   3  12
TORSDOF 1
ENDMDL
