MODEL 1
REMARK VINA RESULT:    -4.549      0.000      0.000
REMARK INTER + INTRA:          -7.175
REMARK INTER:                  -6.943
REMARK INTRA:                  -0.232
REMARK UNBOUND:                -0.232
REMARK SMILES CC1=CCC[C@H](C)C(=O)C[C@@H](C(C)C)C(=O)C1
REMARK SMILES IDX 8 1 9 2 6 3 7 4 5 5 4 6 3 7 2 8 1 9 10 11 11 12 15 13 16 14
REMARK SMILES IDX 17 15 12 17 13 18 14 19
REMARK H PARENT
REMARK Flexibility Score: 70.00
ROOT
ATOM      1  C   UNL     1      -5.170   0.252   0.658  1.00  0.00     0.136 C 
ATOM      2  O   UNL     1      -6.335   0.361   1.017  1.00  0.00    -0.299 OA
ENDROOT
BRANCH   1   3
ATOM      3  C   UNL     1      -4.053   0.473   1.659  1.00  0.00     0.053 C 
ATOM      4  C   UNL     1      -4.496   1.506   2.701  1.00  0.00     0.016 C 
BRANCH   3   5
ATOM      5  C   UNL     1      -3.636  -0.841   2.353  1.00  0.00     0.015 C 
BRANCH   5   6
ATOM      6  C   UNL     1      -2.117  -1.082   2.403  1.00  0.00     0.028 C 
BRANCH   6   7
ATOM      7  C   UNL     1      -1.350  -0.358   1.322  1.00  0.00    -0.028 C 
ATOM      8  C   UNL     1      -1.128  -0.760   0.043  1.00  0.00    -0.070 CG0
ATOM      9  C   UNL     1      -0.237   0.124  -0.799  1.00  0.00     0.039 C 
ATOM     10  G   UNL     1      -1.769  -1.968  -0.633  1.00  0.00     0.000 G0
ENDBRANCH   6   7
ENDBRANCH   5   6
ENDBRANCH   3   5
ENDBRANCH   1   3
BRANCH   1  11
ATOM     11  C   UNL     1      -4.877  -0.066  -0.787  1.00  0.00     0.087 C 
BRANCH  11  12
ATOM     12  C   UNL     1      -4.388  -1.525  -0.987  1.00  0.00     0.066 C 
BRANCH  12  13
ATOM     13  C   UNL     1      -2.958  -1.655  -1.515  1.00  0.00     0.140 C 
ATOM     14  O   UNL     1      -2.751  -1.409  -2.696  1.00  0.00    -0.299 OA
BRANCH  13  15
ATOM     15  C   UNL     1      -1.773  -1.975  -0.635  1.00  0.00     0.106 CG0
ATOM     16  G   UNL     1      -1.118  -0.770   0.033  1.00  0.00     0.000 G0
ENDBRANCH  13  15
ENDBRANCH  12  13
BRANCH  12  17
ATOM     17  C   UNL     1      -5.409  -2.354  -1.827  1.00  0.00    -0.006 C 
ATOM     18  C   UNL     1      -6.759  -2.498  -1.105  1.00  0.00     0.008 C 
ATOM     19  C   UNL     1      -4.886  -3.739  -2.243  1.00  0.00     0.008 C 
ENDBRANCH  12  17
ENDBRANCH  11  12
ENDBRANCH   1  11
TORSDOF 1
ENDMDL
MODEL 2
REMARK VINA RESULT:    -4.472      1.763      3.840
REMARK INTER + INTRA:          -7.056
REMARK INTER:                  -6.854
REMARK INTRA:                  -0.202
REMARK UNBOUND:                -0.232
REMARK SMILES CC1=CCC[C@H](C)C(=O)C[C@@H](C(C)C)C(=O)C1
REMARK SMILES IDX 8 1 9 2 6 3 7 4 5 5 4 6 3 7 2 8 1 9 10 11 11 12 15 13 16 14
REMARK SMILES IDX 17 15 12 17 13 18 14 19
REMARK H PARENT
REMARK Flexibility Score: 70.00
ROOT
ATOM      1  C   UNL     1      -3.024  -1.530  -1.902  1.00  0.00     0.136 C 
ATOM      2  O   UNL     1      -3.385  -0.493  -2.440  1.00  0.00    -0.299 OA
ENDROOT
BRANCH   1   3
ATOM      3  C   UNL     1      -1.675  -2.127  -2.253  1.00  0.00     0.053 C 
ATOM      4  C   UNL     1      -1.123  -1.442  -3.507  1.00  0.00     0.016 C 
BRANCH   3   5
ATOM      5  C   UNL     1      -0.671  -2.000  -1.088  1.00  0.00     0.015 C 
BRANCH   5   6
ATOM      6  C   UNL     1      -0.744  -0.666  -0.324  1.00  0.00     0.028 C 
BRANCH   6   7
ATOM      7  C   UNL     1      -0.478  -0.799   1.157  1.00  0.00    -0.028 C 
ATOM      8  C   UNL     1      -1.326  -0.540   2.187  1.00  0.00    -0.070 CG0
ATOM      9  C   UNL     1      -0.758  -0.666   3.581  1.00  0.00     0.039 C 
ATOM     10  G   UNL     1      -2.813  -0.226   2.054  1.00  0.00     0.000 G0
ENDBRANCH   6   7
ENDBRANCH   5   6
ENDBRANCH   3   5
ENDBRANCH   1   3
BRANCH   1  11
ATOM     11  C   UNL     1      -3.951  -2.208  -0.925  1.00  0.00     0.087 C 
BRANCH  11  12
ATOM     12  C   UNL     1      -4.458  -1.243   0.181  1.00  0.00     0.066 C 
BRANCH  12  13
ATOM     13  C   UNL     1      -3.702  -1.334   1.507  1.00  0.00     0.140 C 
ATOM     14  O   UNL     1      -3.733  -2.392   2.122  1.00  0.00    -0.299 OA
BRANCH  13  15
ATOM     15  C   UNL     1      -2.838  -0.220   2.049  1.00  0.00     0.106 CG0
ATOM     16  G   UNL     1      -1.354  -0.551   2.171  1.00  0.00     0.000 G0
ENDBRANCH  13  15
ENDBRANCH  12  13
BRANCH  12  17
ATOM     17  C   UNL     1      -6.003  -1.360   0.369  1.00  0.00    -0.006 C 
ATOM     18  C   UNL     1      -6.665  -2.110  -0.798  1.00  0.00     0.008 C 
ATOM     19  C   UNL     1      -6.702  -0.008   0.588  1.00  0.00     0.008 C 
ENDBRANCH  12  17
ENDBRANCH  11  12
ENDBRANCH   1  11
TORSDOF 1
ENDMDL
MODEL 3
REMARK VINA RESULT:    -4.300      1.655      4.026
REMARK INTER + INTRA:          -6.794
REMARK INTER:                  -6.655
REMARK INTRA:                  -0.139
REMARK UNBOUND:                -0.232
REMARK SMILES CC1=CCC[C@H](C)C(=O)C[C@@H](C(C)C)C(=O)C1
REMARK SMILES IDX 8 1 9 2 6 3 7 4 5 5 4 6 3 7 2 8 1 9 10 11 11 12 15 13 16 14
REMARK SMILES IDX 17 15 12 17 13 18 14 19
REMARK H PARENT
REMARK Flexibility Score: 70.00
ROOT
ATOM      1  C   UNL     1      -4.854  -2.201  -0.820  1.00  0.00     0.136 C 
ATOM      2  O   UNL     1      -5.918  -1.819  -1.287  1.00  0.00    -0.299 OA
ENDROOT
BRANCH   1   3
ATOM      3  C   UNL     1      -3.808  -2.807  -1.735  1.00  0.00     0.053 C 
ATOM      4  C   UNL     1      -4.448  -3.913  -2.581  1.00  0.00     0.016 C 
BRANCH   3   5
ATOM      5  C   UNL     1      -3.157  -1.745  -2.645  1.00  0.00     0.015 C 
BRANCH   5   6
ATOM      6  C   UNL     1      -2.116  -0.854  -1.944  1.00  0.00     0.028 C 
BRANCH   6   7
ATOM      7  C   UNL     1      -1.200  -1.610  -1.010  1.00  0.00    -0.028 C 
ATOM      8  C   UNL     1      -0.878  -1.306   0.274  1.00  0.00    -0.070 CG0
ATOM      9  C   UNL     1       0.147  -2.191   0.944  1.00  0.00     0.039 C 
ATOM     10  G   UNL     1      -1.527  -0.212   1.116  1.00  0.00     0.000 G0
ENDBRANCH   6   7
ENDBRANCH   5   6
ENDBRANCH   3   5
ENDBRANCH   1   3
BRANCH   1  11
ATOM     11  C   UNL     1      -4.626  -2.089   0.667  1.00  0.00     0.087 C 
BRANCH  11  12
ATOM     12  C   UNL     1      -4.173  -0.667   1.094  1.00  0.00     0.066 C 
BRANCH  12  13
ATOM     13  C   UNL     1      -2.823  -0.612   1.810  1.00  0.00     0.140 C 
ATOM     14  O   UNL     1      -2.767  -0.988   2.973  1.00  0.00    -0.299 OA
BRANCH  13  15
ATOM     15  C   UNL     1      -1.536  -0.213   1.127  1.00  0.00     0.106 CG0
ATOM     16  G   UNL     1      -0.888  -1.302   0.278  1.00  0.00     0.000 G0
ENDBRANCH  13  15
ENDBRANCH  12  13
BRANCH  12  17
ATOM     17  C   UNL     1      -5.296   0.070   1.888  1.00  0.00    -0.006 C 
ATOM     18  C   UNL     1      -6.595   0.178   1.072  1.00  0.00     0.008 C 
ATOM     19  C   UNL     1      -4.881   1.460   2.398  1.00  0.00     0.008 C 
ENDBRANCH  12  17
ENDBRANCH  11  12
ENDBRANCH   1  11
TORSDOF 1
ENDMDL
MODEL 4
REMARK VINA RESULT:    -3.972      1.853      4.010
REMARK INTER + INTRA:          -6.294
REMARK INTER:                  -6.291
REMARK INTRA:                  -0.003
REMARK UNBOUND:                -0.232
REMARK SMILES CC1=CCC[C@H](C)C(=O)C[C@@H](C(C)C)C(=O)C1
REMARK SMILES IDX 8 1 9 2 6 3 7 4 5 5 4 6 3 7 2 8 1 9 10 11 11 12 15 13 16 14
REMARK SMILES IDX 17 15 12 17 13 18 14 19
REMARK H PARENT
REMARK Flexibility Score: 70.00
ROOT
ATOM      1  C   UNL     1      -4.776  -2.451  -0.070  1.00  0.00     0.136 C 
ATOM      2  O   UNL     1      -5.986  -2.312   0.049  1.00  0.00    -0.299 OA
ENDROOT
BRANCH   1   3
ATOM      3  C   UNL     1      -4.182  -2.704  -1.442  1.00  0.00     0.053 C 
ATOM      4  C   UNL     1      -5.249  -3.315  -2.357  1.00  0.00     0.016 C 
BRANCH   3   5
ATOM      5  C   UNL     1      -3.614  -1.414  -2.069  1.00  0.00     0.015 C 
BRANCH   5   6
ATOM      6  C   UNL     1      -2.256  -1.588  -2.770  1.00  0.00     0.028 C 
BRANCH   6   7
ATOM      7  C   UNL     1      -1.172  -0.685  -2.229  1.00  0.00    -0.028 C 
ATOM      8  C   UNL     1      -0.494  -0.802  -1.057  1.00  0.00    -0.070 CG0
ATOM      9  C   UNL     1       0.475   0.308  -0.723  1.00  0.00     0.039 C 
ATOM     10  G   UNL     1      -0.563  -1.992  -0.106  1.00  0.00     0.000 G0
ENDBRANCH   6   7
ENDBRANCH   5   6
ENDBRANCH   3   5
ENDBRANCH   1   3
BRANCH   1  11
ATOM     11  C   UNL     1      -3.910  -2.400   1.163  1.00  0.00     0.087 C 
BRANCH  11  12
ATOM     12  C   UNL     1      -2.839  -1.278   1.092  1.00  0.00     0.066 C 
BRANCH  12  13
ATOM     13  C   UNL     1      -1.392  -1.770   1.139  1.00  0.00     0.140 C 
ATOM     14  O   UNL     1      -0.918  -2.077   2.225  1.00  0.00    -0.299 OA
BRANCH  13  15
ATOM     15  C   UNL     1      -0.549  -1.989  -0.095  1.00  0.00     0.106 CG0
ATOM     16  G   UNL     1      -0.495  -0.810  -1.061  1.00  0.00     0.000 G0
ENDBRANCH  13  15
ENDBRANCH  12  13
BRANCH  12  17
ATOM     17  C   UNL     1      -3.121  -0.160   2.144  1.00  0.00    -0.006 C 
ATOM     18  C   UNL     1      -4.488   0.506   1.917  1.00  0.00     0.008 C 
ATOM     19  C   UNL     1      -2.021   0.911   2.215  1.00  0.00     0.008 C 
ENDBRANCH  12  17
ENDBRANCH  11  12
ENDBRANCH   1  11
TORSDOF 1
ENDMDL
MODEL 5
REMARK VINA RESULT:    -3.965      1.244      1.685
REMARK INTER + INTRA:          -6.283
REMARK INTER:                  -6.156
REMARK INTRA:                  -0.127
REMARK UNBOUND:                -0.232
REMARK SMILES CC1=CCC[C@H](C)C(=O)C[C@@H](C(C)C)C(=O)C1
REMARK SMILES IDX 8 1 9 2 6 3 7 4 5 5 4 6 3 7 2 8 1 9 10 11 11 12 15 13 16 14
REMARK SMILES IDX 17 15 12 17 13 18 14 19
REMARK H PARENT
REMARK Flexibility Score: 70.00
ROOT
ATOM      1  C   UNL     1      -4.766   0.082   0.096  1.00  0.00     0.136 C 
ATOM      2  O   UNL     1      -5.988   0.134   0.072  1.00  0.00    -0.299 OA
ENDROOT
BRANCH   1   3
ATOM      3  C   UNL     1      -4.033   0.245   1.413  1.00  0.00     0.053 C 
ATOM      4  C   UNL     1      -4.852   1.144   2.346  1.00  0.00     0.016 C 
BRANCH   3   5
ATOM      5  C   UNL     1      -3.758  -1.115   2.088  1.00  0.00     0.015 C 
BRANCH   5   6
ATOM      6  C   UNL     1      -2.359  -1.245   2.716  1.00  0.00     0.028 C 
BRANCH   6   7
ATOM      7  C   UNL     1      -1.425  -0.113   2.357  1.00  0.00    -0.028 C 
ATOM      8  C   UNL     1      -0.580  -0.031   1.296  1.00  0.00    -0.070 CG0
ATOM      9  C   UNL     1       0.317   1.184   1.237  1.00  0.00     0.039 C 
ATOM     10  G   UNL     1      -0.528  -1.007   0.124  1.00  0.00     0.000 G0
ENDBRANCH   6   7
ENDBRANCH   5   6
ENDBRANCH   3   5
ENDBRANCH   1   3
BRANCH   1  11
ATOM     11  C   UNL     1      -4.017  -0.108  -1.200  1.00  0.00     0.087 C 
BRANCH  11  12
ATOM     12  C   UNL     1      -2.911  -1.192  -1.094  1.00  0.00     0.066 C 
BRANCH  12  13
ATOM     13  C   UNL     1      -1.486  -0.647  -1.007  1.00  0.00     0.140 C 
ATOM     14  O   UNL     1      -1.126   0.175  -1.839  1.00  0.00    -0.299 OA
BRANCH  13  15
ATOM     15  C   UNL     1      -0.531  -0.994   0.111  1.00  0.00     0.106 CG0
ATOM     16  G   UNL     1      -0.560  -0.046   1.306  1.00  0.00     0.000 G0
ENDBRANCH  13  15
ENDBRANCH  12  13
BRANCH  12  17
ATOM     17  C   UNL     1      -3.067  -2.270  -2.212  1.00  0.00    -0.006 C 
ATOM     18  C   UNL     1      -4.424  -2.989  -2.127  1.00  0.00     0.008 C 
ATOM     19  C   UNL     1      -1.928  -3.301  -2.238  1.00  0.00     0.008 C 
ENDBRANCH  12  17
ENDBRANCH  11  12
ENDBRANCH   1  11
TORSDOF 1
ENDMDL
MODEL 6
REMARK VINA RESULT:    -3.951      1.831      3.653
REMARK INTER + INTRA:          -6.261
REMARK INTER:                  -6.088
REMARK INTRA:                  -0.173
REMARK UNBOUND:                -0.232
REMARK SMILES CC1=CCC[C@H](C)C(=O)C[C@@H](C(C)C)C(=O)C1
REMARK SMILES IDX 8 1 9 2 6 3 7 4 5 5 4 6 3 7 2 8 1 9 10 11 11 12 15 13 16 14
REMARK SMILES IDX 17 15 12 17 13 18 14 19
REMARK H PARENT
REMARK Flexibility Score: 70.00
ROOT
ATOM      1  C   UNL     1      -4.472  -2.110  -1.486  1.00  0.00     0.136 C 
ATOM      2  O   UNL     1      -4.437  -3.304  -1.753  1.00  0.00    -0.299 OA
ENDROOT
BRANCH   1   3
ATOM      3  C   UNL     1      -5.749  -1.501  -0.941  1.00  0.00     0.053 C 
ATOM      4  C   UNL     1      -6.370  -2.450   0.089  1.00  0.00     0.016 C 
BRANCH   3   5
ATOM      5  C   UNL     1      -5.500  -0.115  -0.310  1.00  0.00     0.015 C 
BRANCH   5   6
ATOM      6  C   UNL     1      -5.290  -0.136   1.215  1.00  0.00     0.028 C 
BRANCH   6   7
ATOM      7  C   UNL     1      -4.005   0.522   1.661  1.00  0.00    -0.028 C 
ATOM      8  C   UNL     1      -2.778  -0.045   1.796  1.00  0.00    -0.070 CG0
ATOM      9  C   UNL     1      -1.685   0.833   2.359  1.00  0.00     0.039 C 
ATOM     10  G   UNL     1      -2.395  -1.452   1.348  1.00  0.00     0.000 G0
ENDBRANCH   6   7
ENDBRANCH   5   6
ENDBRANCH   3   5
ENDBRANCH   1   3
BRANCH   1  11
ATOM     11  C   UNL     1      -3.247  -1.268  -1.741  1.00  0.00     0.087 C 
BRANCH  11  12
ATOM     12  C   UNL     1      -1.943  -1.952  -1.249  1.00  0.00     0.066 C 
BRANCH  12  13
ATOM     13  C   UNL     1      -1.474  -1.515   0.139  1.00  0.00     0.140 C 
ATOM     14  O   UNL     1      -0.325  -1.114   0.264  1.00  0.00    -0.299 OA
BRANCH  13  15
ATOM     15  C   UNL     1      -2.384  -1.459   1.343  1.00  0.00     0.106 CG0
ATOM     16  G   UNL     1      -2.783  -0.056   1.790  1.00  0.00     0.000 G0
ENDBRANCH  13  15
ENDBRANCH  12  13
BRANCH  12  17
ATOM     17  C   UNL     1      -0.811  -1.846  -2.319  1.00  0.00    -0.006 C 
ATOM     18  C   UNL     1      -1.264  -1.046  -3.552  1.00  0.00     0.008 C 
ATOM     19  C   UNL     1      -0.246  -3.207  -2.756  1.00  0.00     0.008 C 
ENDBRANCH  12  17
ENDBRANCH  11  12
ENDBRANCH   1  11
TORSDOF 1
ENDMDL
MODEL 7
REMARK VINA RESULT:    -3.930      1.597      4.055
REMARK INTER + INTRA:          -6.229
REMARK INTER:                  -5.944
REMARK INTRA:                  -0.285
REMARK UNBOUND:                -0.232
REMARK SMILES CC1=CCC[C@H](C)C(=O)C[C@@H](C(C)C)C(=O)C1
REMARK SMILES IDX 8 1 9 2 6 3 7 4 5 5 4 6 3 7 2 8 1 9 10 11 11 12 15 13 16 14
REMARK SMILES IDX 17 15 12 17 13 18 14 19
REMARK H PARENT
REMARK Flexibility Score: 70.00
ROOT
ATOM      1  C   UNL     1      -5.028  -1.515  -0.340  1.00  0.00     0.136 C 
ATOM      2  O   UNL     1      -5.387  -0.397  -0.682  1.00  0.00    -0.299 OA
ENDROOT
BRANCH   1   3
ATOM      3  C   UNL     1      -5.646  -2.735  -0.996  1.00  0.00     0.053 C 
ATOM      4  C   UNL     1      -7.152  -2.512  -1.173  1.00  0.00     0.016 C 
BRANCH   3   5
ATOM      5  C   UNL     1      -4.988  -3.050  -2.356  1.00  0.00     0.015 C 
BRANCH   5   6
ATOM      6  C   UNL     1      -3.474  -3.316  -2.286  1.00  0.00     0.028 C 
BRANCH   6   7
ATOM      7  C   UNL     1      -2.632  -2.170  -2.796  1.00  0.00    -0.028 C 
ATOM      8  C   UNL     1      -1.750  -1.406  -2.099  1.00  0.00    -0.070 CG0
ATOM      9  C   UNL     1      -1.114  -0.256  -2.846  1.00  0.00     0.039 C 
ATOM     10  G   UNL     1      -1.286  -1.665  -0.670  1.00  0.00     0.000 G0
ENDBRANCH   6   7
ENDBRANCH   5   6
ENDBRANCH   3   5
ENDBRANCH   1   3
BRANCH   1  11
ATOM     11  C   UNL     1      -3.999  -1.650   0.754  1.00  0.00     0.087 C 
BRANCH  11  12
ATOM     12  C   UNL     1      -3.089  -0.398   0.873  1.00  0.00     0.066 C 
BRANCH  12  13
ATOM     13  C   UNL     1      -1.668  -0.586   0.340  1.00  0.00     0.140 C 
ATOM     14  O   UNL     1      -0.778   0.116   0.802  1.00  0.00    -0.299 OA
BRANCH  13  15
ATOM     15  C   UNL     1      -1.288  -1.658  -0.653  1.00  0.00     0.106 CG0
ATOM     16  G   UNL     1      -1.749  -1.408  -2.085  1.00  0.00     0.000 G0
ENDBRANCH  13  15
ENDBRANCH  12  13
BRANCH  12  17
ATOM     17  C   UNL     1      -3.109   0.181   2.322  1.00  0.00    -0.006 C 
ATOM     18  C   UNL     1      -2.836  -0.906   3.375  1.00  0.00     0.008 C 
ATOM     19  C   UNL     1      -4.404   0.933   2.668  1.00  0.00     0.008 C 
ENDBRANCH  12  17
ENDBRANCH  11  12
ENDBRANCH   1  11
TORSDOF 1
ENDMDL
MODEL 8
REMARK VINA RESULT:    -3.630      1.712      4.068
REMARK INTER + INTRA:          -5.772
REMARK INTER:                  -5.566
REMARK INTRA:                  -0.206
REMARK UNBOUND:                -0.232
REMARK SMILES CC1=CCC[C@H](C)C(=O)C[C@@H](C(C)C)C(=O)C1
REMARK SMILES IDX 8 1 9 2 6 3 7 4 5 5 4 6 3 7 2 8 1 9 10 11 11 12 15 13 16 14
REMARK SMILES IDX 17 15 12 17 13 18 14 19
REMARK H PARENT
REMARK Flexibility Score: 70.00
ROOT
ATOM      1  C   UNL     1      -3.917  -0.536   1.093  1.00  0.00     0.136 C 
ATOM      2  O   UNL     1      -3.624   0.639   0.915  1.00  0.00    -0.299 OA
ENDROOT
BRANCH   1   3
ATOM      3  C   UNL     1      -5.302  -1.028   0.721  1.00  0.00     0.053 C 
ATOM      4  C   UNL     1      -6.344   0.014   1.139  1.00  0.00     0.016 C 
BRANCH   3   5
ATOM      5  C   UNL     1      -5.418  -1.326  -0.788  1.00  0.00     0.015 C 
BRANCH   5   6
ATOM      6  C   UNL     1      -4.526  -2.478  -1.283  1.00  0.00     0.028 C 
BRANCH   6   7
ATOM      7  C   UNL     1      -3.440  -2.039  -2.237  1.00  0.00    -0.028 C 
ATOM      8  C   UNL     1      -2.107  -1.933  -1.996  1.00  0.00    -0.070 CG0
ATOM      9  C   UNL     1      -1.260  -1.371  -3.114  1.00  0.00     0.039 C 
ATOM     10  G   UNL     1      -1.391  -2.415  -0.738  1.00  0.00     0.000 G0
ENDBRANCH   6   7
ENDBRANCH   5   6
ENDBRANCH   3   5
ENDBRANCH   1   3
BRANCH   1  11
ATOM     11  C   UNL     1      -2.897  -1.458   1.713  1.00  0.00     0.087 C 
BRANCH  11  12
ATOM     12  C   UNL     1      -1.441  -0.961   1.503  1.00  0.00     0.066 C 
BRANCH  12  13
ATOM     13  C   UNL     1      -0.823  -1.339   0.156  1.00  0.00     0.140 C 
ATOM     14  O   UNL     1       0.219  -0.791  -0.179  1.00  0.00    -0.299 OA
BRANCH  13  15
ATOM     15  C   UNL     1      -1.378  -2.422  -0.738  1.00  0.00     0.106 CG0
ATOM     16  G   UNL     1      -2.100  -1.926  -1.987  1.00  0.00     0.000 G0
ENDBRANCH  13  15
ENDBRANCH  12  13
BRANCH  12  17
ATOM     17  C   UNL     1      -0.529  -1.357   2.706  1.00  0.00    -0.006 C 
ATOM     18  C   UNL     1      -0.067  -2.821   2.616  1.00  0.00     0.008 C 
ATOM     19  C   UNL     1      -1.170  -1.093   4.078  1.00  0.00     0.008 C 
ENDBRANCH  12  17
ENDBRANCH  11  12
ENDBRANCH   1  11
TORSDOF 1
ENDMDL
MODEL 9
REMARK VINA RESULT:    -3.586      1.857      2.774
REMARK INTER + INTRA:          -5.704
REMARK INTER:                  -5.762
REMARK INTRA:                   0.058
REMARK UNBOUND:                -0.232
REMARK SMILES CC1=CCC[C@H](C)C(=O)C[C@@H](C(C)C)C(=O)C1
REMARK SMILES IDX 8 1 9 2 6 3 7 4 5 5 4 6 3 7 2 8 1 9 10 11 11 12 15 13 16 14
REMARK SMILES IDX 17 15 12 17 13 18 14 19
REMARK H PARENT
REMARK Flexibility Score: 70.00
ROOT
ATOM      1  C   UNL     1      -2.435  -0.650   1.671  1.00  0.00     0.136 C 
ATOM      2  O   UNL     1      -2.782  -1.573   2.395  1.00  0.00    -0.299 OA
ENDROOT
BRANCH   1   3
ATOM      3  C   UNL     1      -1.083   0.003   1.883  1.00  0.00     0.053 C 
ATOM      4  C   UNL     1      -0.719  -0.048   3.371  1.00  0.00     0.016 C 
BRANCH   3   5
ATOM      5  C   UNL     1       0.018  -0.671   1.039  1.00  0.00     0.015 C 
BRANCH   5   6
ATOM      6  C   UNL     1      -0.317  -2.100   0.575  1.00  0.00     0.028 C 
BRANCH   6   7
ATOM      7  C   UNL     1      -0.028  -2.348  -0.887  1.00  0.00    -0.028 C 
ATOM      8  C   UNL     1      -0.790  -2.008  -1.959  1.00  0.00    -0.070 CG0
ATOM      9  C   UNL     1      -0.301  -2.471  -3.312  1.00  0.00     0.039 C 
ATOM     10  G   UNL     1      -2.036  -1.129  -1.920  1.00  0.00     0.000 G0
ENDBRANCH   6   7
ENDBRANCH   5   6
ENDBRANCH   3   5
ENDBRANCH   1   3
BRANCH   1  11
ATOM     11  C   UNL     1      -3.383  -0.162   0.604  1.00  0.00     0.087 C 
BRANCH  11  12
ATOM     12  C   UNL     1      -4.054  -1.326  -0.173  1.00  0.00     0.066 C 
BRANCH  12  13
ATOM     13  C   UNL     1      -3.300  -1.781  -1.423  1.00  0.00     0.140 C 
ATOM     14  O   UNL     1      -3.787  -2.677  -2.100  1.00  0.00    -0.299 OA
BRANCH  13  15
ATOM     15  C   UNL     1      -2.038  -1.116  -1.920  1.00  0.00     0.106 CG0
ATOM     16  G   UNL     1      -0.805  -2.013  -1.958  1.00  0.00     0.000 G0
ENDBRANCH  13  15
ENDBRANCH  12  13
BRANCH  12  17
ATOM     17  C   UNL     1      -5.557  -1.020  -0.464  1.00  0.00    -0.006 C 
ATOM     18  C   UNL     1      -6.087   0.124   0.416  1.00  0.00     0.008 C 
ATOM     19  C   UNL     1      -6.473  -2.247  -0.337  1.00  0.00     0.008 C 
ENDBRANCH  12  17
ENDBRANCH  11  12
ENDBRANCH   1  11
TORSDOF 1
ENDMDL
