MODEL 1
REMARK VINA RESULT:    -4.316      0.000      0.000
REMARK INTER + INTRA:          -4.854
REMARK INTER:                  -4.694
REMARK INTRA:                  -0.160
REMARK UNBOUND:                -0.160
REMARK SMILES C=C(C)[C@@H]1CC[C@@H](C)C[C@H]1O
REMARK SMILES IDX 8 1 7 2 6 3 5 4 4 5 10 6 9 7 11 8 2 10 1 11 3 12
REMARK H PARENT 11 9
REMARK Flexibility Score: inf
ROOT
ATOM      1  C   UNL     1     136.347 133.998 148.836  1.00  0.00     0.008 C 
ATOM      2  C   UNL     1     137.684 134.731 148.697  1.00  0.00    -0.012 C 
ATOM      3  C   UNL     1     138.533 134.099 147.576  1.00  0.00     0.004 C 
ATOM      4  C   UNL     1     139.881 134.816 147.434  1.00  0.00     0.011 C 
ATOM      5  C   UNL     1     140.657 134.804 148.766  1.00  0.00     0.043 C 
ATOM      6  C   UNL     1     139.809 135.432 149.901  1.00  0.00     0.121 C 
ATOM      7  C   UNL     1     138.452 134.714 150.033  1.00  0.00     0.035 C 
ENDROOT
BRANCH   6   8
ATOM      8  O   UNL     1     140.500 135.397 151.125  1.00  0.00    -0.392 OA
ATOM      9  H   UNL     1     140.796 136.323 151.330  1.00  0.00     0.210 HD
ENDBRANCH   6   8
BRANCH   5  10
ATOM     10  C   UNL     1     142.002 135.506 148.618  1.00  0.00    -0.075 C 
ATOM     11  C   UNL     1     143.132 134.785 148.537  1.00  0.00     0.008 C 
ATOM     12  C   UNL     1     142.101 137.010 148.561  1.00  0.00     0.039 C 
ENDBRANCH   5  10
TORSDOF 2
ENDMDL
MODEL 2
REMARK VINA RESULT:    -4.070     14.632     15.984
REMARK INTER + INTRA:          -4.587
REMARK INTER:                  -4.387
REMARK INTRA:                  -0.199
REMARK UNBOUND:                -0.160
REMARK SMILES C=C(C)[C@@H]1CC[C@@H](C)C[C@H]1O
REMARK SMILES IDX 8 1 7 2 6 3 5 4 4 5 10 6 9 7 11 8 2 10 1 11 3 12
REMARK H PARENT 11 9
REMARK Flexibility Score: inf
ROOT
ATOM      1  C   UNL     1     134.702 140.495 135.443  1.00  0.00     0.008 C 
ATOM      2  C   UNL     1     133.281 140.436 136.011  1.00  0.00    -0.012 C 
ATOM      3  C   UNL     1     133.319 140.301 137.546  1.00  0.00     0.004 C 
ATOM      4  C   UNL     1     131.901 140.229 138.129  1.00  0.00     0.011 C 
ATOM      5  C   UNL     1     131.107 139.063 137.507  1.00  0.00     0.043 C 
ATOM      6  C   UNL     1     131.069 139.187 135.962  1.00  0.00     0.121 C 
ATOM      7  C   UNL     1     132.495 139.269 135.384  1.00  0.00     0.035 C 
ENDROOT
BRANCH   6   8
ATOM      8  O   UNL     1     130.370 138.111 135.387  1.00  0.00    -0.392 OA
ATOM      9  H   UNL     1     129.574 137.932 135.953  1.00  0.00     0.210 HD
ENDBRANCH   6   8
BRANCH   5  10
ATOM     10  C   UNL     1     129.704 138.986 138.096  1.00  0.00    -0.075 C 
ATOM     11  C   UNL     1     128.879 140.042 138.013  1.00  0.00     0.008 C 
ATOM     12  C   UNL     1     129.207 137.736 138.781  1.00  0.00     0.039 C 
ENDBRANCH   5  10
TORSDOF 2
ENDMDL
MODEL 3
REMARK VINA RESULT:    -4.046      1.735      2.597
REMARK INTER + INTRA:          -4.561
REMARK INTER:                  -4.472
REMARK INTRA:                  -0.089
REMARK UNBOUND:                -0.160
REMARK SMILES C=C(C)[C@@H]1CC[C@@H](C)C[C@H]1O
REMARK SMILES IDX 8 1 7 2 6 3 5 4 4 5 10 6 9 7 11 8 2 10 1 11 3 12
REMARK H PARENT 11 9
REMARK Flexibility Score: inf
ROOT
ATOM      1  C   UNL     1     135.755 132.510 147.529  1.00  0.00     0.008 C 
ATOM      2  C   UNL     1     136.989 133.004 148.290  1.00  0.00    -0.012 C 
ATOM      3  C   UNL     1     136.751 134.424 148.842  1.00  0.00     0.004 C 
ATOM      4  C   UNL     1     137.985 134.937 149.597  1.00  0.00     0.011 C 
ATOM      5  C   UNL     1     139.234 134.914 148.694  1.00  0.00     0.043 C 
ATOM      6  C   UNL     1     139.478 133.492 148.128  1.00  0.00     0.121 C 
ATOM      7  C   UNL     1     138.233 132.978 147.380  1.00  0.00     0.035 C 
ENDROOT
BRANCH   6   8
ATOM      8  O   UNL     1     140.599 133.471 147.281  1.00  0.00    -0.392 OA
ATOM      9  H   UNL     1     141.115 132.646 147.484  1.00  0.00     0.210 HD
ENDBRANCH   6   8
BRANCH   5  10
ATOM     10  C   UNL     1     140.455 135.436 149.442  1.00  0.00    -0.075 C 
ATOM     11  C   UNL     1     140.606 135.172 150.749  1.00  0.00     0.008 C 
ATOM     12  C   UNL     1     141.514 136.254 148.744  1.00  0.00     0.039 C 
ENDBRANCH   5  10
TORSDOF 2
ENDMDL
MODEL 4
REMARK VINA RESULT:    -4.004     15.016     15.638
REMARK INTER + INTRA:          -4.516
REMARK INTER:                  -4.338
REMARK INTRA:                  -0.178
REMARK UNBOUND:                -0.160
REMARK SMILES C=C(C)[C@@H]1CC[C@@H](C)C[C@H]1O
REMARK SMILES IDX 8 1 7 2 6 3 5 4 4 5 10 6 9 7 11 8 2 10 1 11 3 12
REMARK H PARENT 11 9
REMARK Flexibility Score: inf
ROOT
ATOM      1  C   UNL     1     128.875 138.397 138.967  1.00  0.00     0.008 C 
ATOM      2  C   UNL     1     130.218 138.527 138.242  1.00  0.00    -0.012 C 
ATOM      3  C   UNL     1     130.739 139.975 138.326  1.00  0.00     0.004 C 
ATOM      4  C   UNL     1     132.079 140.124 137.594  1.00  0.00     0.011 C 
ATOM      5  C   UNL     1     131.955 139.683 136.121  1.00  0.00     0.043 C 
ATOM      6  C   UNL     1     131.426 138.230 136.026  1.00  0.00     0.121 C 
ATOM      7  C   UNL     1     130.085 138.084 136.772  1.00  0.00     0.035 C 
ENDROOT
BRANCH   6   8
ATOM      8  O   UNL     1     131.283 137.832 134.685  1.00  0.00    -0.392 OA
ATOM      9  H   UNL     1     131.356 138.646 134.120  1.00  0.00     0.210 HD
ENDBRANCH   6   8
BRANCH   5  10
ATOM     10  C   UNL     1     133.284 139.844 135.393  1.00  0.00    -0.075 C 
ATOM     11  C   UNL     1     134.335 139.082 135.735  1.00  0.00     0.008 C 
ATOM     12  C   UNL     1     133.454 140.849 134.281  1.00  0.00     0.039 C 
ENDBRANCH   5  10
TORSDOF 2
ENDMDL
MODEL 5
REMARK VINA RESULT:    -3.998     13.790     15.361
REMARK INTER + INTRA:          -4.509
REMARK INTER:                  -4.338
REMARK INTRA:                  -0.171
REMARK UNBOUND:                -0.160
REMARK SMILES C=C(C)[C@@H]1CC[C@@H](C)C[C@H]1O
REMARK SMILES IDX 8 1 7 2 6 3 5 4 4 5 10 6 9 7 11 8 2 10 1 11 3 12
REMARK H PARENT 11 9
REMARK Flexibility Score: inf
ROOT
ATOM      1  C   UNL     1     135.647 139.697 137.260  1.00  0.00     0.008 C 
ATOM      2  C   UNL     1     134.177 139.462 137.619  1.00  0.00    -0.012 C 
ATOM      3  C   UNL     1     133.531 138.473 136.629  1.00  0.00     0.004 C 
ATOM      4  C   UNL     1     132.053 138.237 136.970  1.00  0.00     0.011 C 
ATOM      5  C   UNL     1     131.272 139.566 136.986  1.00  0.00     0.043 C 
ATOM      6  C   UNL     1     131.918 140.571 137.974  1.00  0.00     0.121 C 
ATOM      7  C   UNL     1     133.404 140.795 137.634  1.00  0.00     0.035 C 
ENDROOT
BRANCH   6   8
ATOM      8  O   UNL     1     131.227 141.795 137.973  1.00  0.00    -0.392 OA
ATOM      9  H   UNL     1     131.284 142.172 137.055  1.00  0.00     0.210 HD
ENDBRANCH   6   8
BRANCH   5  10
ATOM     10  C   UNL     1     129.803 139.328 137.312  1.00  0.00    -0.075 C 
ATOM     11  C   UNL     1     128.875 139.421 136.345  1.00  0.00     0.008 C 
ATOM     12  C   UNL     1     129.353 138.987 138.711  1.00  0.00     0.039 C 
ENDBRANCH   5  10
TORSDOF 2
ENDMDL
MODEL 6
REMARK VINA RESULT:    -3.922      9.235     10.182
REMARK INTER + INTRA:          -4.426
REMARK INTER:                  -4.242
REMARK INTRA:                  -0.184
REMARK UNBOUND:                -0.160
REMARK SMILES C=C(C)[C@@H]1CC[C@@H](C)C[C@H]1O
REMARK SMILES IDX 8 1 7 2 6 3 5 4 4 5 10 6 9 7 11 8 2 10 1 11 3 12
REMARK H PARENT 11 9
REMARK Flexibility Score: inf
ROOT
ATOM      1  C   UNL     1     136.676 140.342 142.164  1.00  0.00     0.008 C 
ATOM      2  C   UNL     1     137.753 141.268 142.735  1.00  0.00    -0.012 C 
ATOM      3  C   UNL     1     137.332 142.743 142.584  1.00  0.00     0.004 C 
ATOM      4  C   UNL     1     138.409 143.684 143.142  1.00  0.00     0.011 C 
ATOM      5  C   UNL     1     139.766 143.441 142.453  1.00  0.00     0.043 C 
ATOM      6  C   UNL     1     140.195 141.958 142.592  1.00  0.00     0.121 C 
ATOM      7  C   UNL     1     139.106 141.018 142.041  1.00  0.00     0.035 C 
ENDROOT
BRANCH   6   8
ATOM      8  O   UNL     1     141.418 141.723 141.941  1.00  0.00    -0.392 OA
ATOM      9  H   UNL     1     141.585 142.488 141.329  1.00  0.00     0.210 HD
ENDBRANCH   6   8
BRANCH   5  10
ATOM     10  C   UNL     1     140.830 144.385 142.999  1.00  0.00    -0.075 C 
ATOM     11  C   UNL     1     141.472 145.225 142.172  1.00  0.00     0.008 C 
ATOM     12  C   UNL     1     141.188 144.402 144.464  1.00  0.00     0.039 C 
ENDBRANCH   5  10
TORSDOF 2
ENDMDL
MODEL 7
REMARK VINA RESULT:    -3.880     14.963     15.842
REMARK INTER + INTRA:          -4.380
REMARK INTER:                  -4.239
REMARK INTRA:                  -0.141
REMARK UNBOUND:                -0.160
REMARK SMILES C=C(C)[C@@H]1CC[C@@H](C)C[C@H]1O
REMARK SMILES IDX 8 1 7 2 6 3 5 4 4 5 10 6 9 7 11 8 2 10 1 11 3 12
REMARK H PARENT 11 9
REMARK Flexibility Score: inf
ROOT
ATOM      1  C   UNL     1     130.764 141.142 139.219  1.00  0.00     0.008 C 
ATOM      2  C   UNL     1     131.361 140.078 138.294  1.00  0.00    -0.012 C 
ATOM      3  C   UNL     1     132.621 140.618 137.590  1.00  0.00     0.004 C 
ATOM      4  C   UNL     1     133.223 139.566 136.650  1.00  0.00     0.011 C 
ATOM      5  C   UNL     1     132.186 139.097 135.609  1.00  0.00     0.043 C 
ATOM      6  C   UNL     1     130.913 138.557 136.308  1.00  0.00     0.121 C 
ATOM      7  C   UNL     1     130.318 139.614 137.258  1.00  0.00     0.035 C 
ENDROOT
BRANCH   6   8
ATOM      8  O   UNL     1     129.952 138.154 135.364  1.00  0.00    -0.392 OA
ATOM      9  H   UNL     1     130.021 137.168 135.266  1.00  0.00     0.210 HD
ENDBRANCH   6   8
BRANCH   5  10
ATOM     10  C   UNL     1     132.790 138.061 134.669  1.00  0.00    -0.075 C 
ATOM     11  C   UNL     1     133.196 138.422 133.441  1.00  0.00     0.008 C 
ATOM     12  C   UNL     1     132.947 136.619 135.085  1.00  0.00     0.039 C 
ENDBRANCH   5  10
TORSDOF 2
ENDMDL
MODEL 8
REMARK VINA RESULT:    -3.823     13.514     14.502
REMARK INTER + INTRA:          -4.318
REMARK INTER:                  -4.139
REMARK INTRA:                  -0.179
REMARK UNBOUND:                -0.160
REMARK SMILES C=C(C)[C@@H]1CC[C@@H](C)C[C@H]1O
REMARK SMILES IDX 8 1 7 2 6 3 5 4 4 5 10 6 9 7 11 8 2 10 1 11 3 12
REMARK H PARENT 11 9
REMARK Flexibility Score: inf
ROOT
ATOM      1  C   UNL     1     128.933 138.204 137.177  1.00  0.00     0.008 C 
ATOM      2  C   UNL     1     130.182 139.084 137.072  1.00  0.00    -0.012 C 
ATOM      3  C   UNL     1     131.413 138.232 136.706  1.00  0.00     0.004 C 
ATOM      4  C   UNL     1     132.675 139.100 136.609  1.00  0.00     0.011 C 
ATOM      5  C   UNL     1     132.923 139.863 137.925  1.00  0.00     0.043 C 
ATOM      6  C   UNL     1     131.687 140.718 138.305  1.00  0.00     0.121 C 
ATOM      7  C   UNL     1     130.421 139.844 138.391  1.00  0.00     0.035 C 
ENDROOT
BRANCH   6   8
ATOM      8  O   UNL     1     131.896 141.395 139.520  1.00  0.00    -0.392 OA
ATOM      9  H   UNL     1     131.339 140.950 140.212  1.00  0.00     0.210 HD
ENDBRANCH   6   8
BRANCH   5  10
ATOM     10  C   UNL     1     134.183 140.714 137.831  1.00  0.00    -0.075 C 
ATOM     11  C   UNL     1     134.382 141.508 136.767  1.00  0.00     0.008 C 
ATOM     12  C   UNL     1     135.232 140.689 138.916  1.00  0.00     0.039 C 
ENDBRANCH   5  10
TORSDOF 2
ENDMDL
MODEL 9
REMARK VINA RESULT:    -3.728      8.711      9.907
REMARK INTER + INTRA:          -4.215
REMARK INTER:                  -4.028
REMARK INTRA:                  -0.187
REMARK UNBOUND:                -0.160
REMARK SMILES C=C(C)[C@@H]1CC[C@@H](C)C[C@H]1O
REMARK SMILES IDX 8 1 7 2 6 3 5 4 4 5 10 6 9 7 11 8 2 10 1 11 3 12
REMARK H PARENT 11 9
REMARK Flexibility Score: inf
ROOT
ATOM      1  C   UNL     1     144.811 138.154 140.613  1.00  0.00     0.008 C 
ATOM      2  C   UNL     1     145.715 138.212 141.848  1.00  0.00    -0.012 C 
ATOM      3  C   UNL     1     144.875 138.115 143.137  1.00  0.00     0.004 C 
ATOM      4  C   UNL     1     145.768 138.184 144.384  1.00  0.00     0.011 C 
ATOM      5  C   UNL     1     146.611 139.475 144.388  1.00  0.00     0.043 C 
ATOM      6  C   UNL     1     147.454 139.584 143.092  1.00  0.00     0.121 C 
ATOM      7  C   UNL     1     146.554 139.504 141.844  1.00  0.00     0.035 C 
ENDROOT
BRANCH   6   8
ATOM      8  O   UNL     1     148.204 140.773 143.077  1.00  0.00    -0.392 OA
ATOM      9  H   UNL     1     147.613 141.498 142.743  1.00  0.00     0.210 HD
ENDBRANCH   6   8
BRANCH   5  10
ATOM     10  C   UNL     1     147.487 139.547 145.633  1.00  0.00    -0.075 C 
ATOM     11  C   UNL     1     147.229 140.458 146.585  1.00  0.00     0.008 C 
ATOM     12  C   UNL     1     148.653 138.610 145.829  1.00  0.00     0.039 C 
ENDBRANCH   5  10
TORSDOF 2
ENDMDL
