MODEL 1
REMARK VINA RESULT:    -3.515      0.000      0.000
REMARK INTER + INTRA:          -8.074
REMARK INTER:                  -6.598
REMARK INTRA:                  -1.477
REMARK UNBOUND:                -1.477
REMARK SMILES O=C([O-])CCCCCCCCCCCCCCC(=O)[O-]
REMARK SMILES IDX 10 1 9 2 8 3 7 4 6 5 5 6 4 7 2 8 1 9 3 10 11 11 12 12 13 13
REMARK SMILES IDX 14 14 15 15 16 16 17 17 18 18 19 19 20 20
REMARK H PARENT
REMARK Flexibility Score: inf
ROOT
ATOM      1  C   UNL     1      59.883  20.917  51.035  1.00  0.00     0.000 C 
ENDROOT
BRANCH   1   2
ATOM      2  C   UNL     1      59.327  19.946  52.083  1.00  0.00     0.000 C 
BRANCH   2   3
ATOM      3  C   UNL     1      60.256  18.735  52.259  1.00  0.00     0.000 C 
BRANCH   3   4
ATOM      4  C   UNL     1      59.499  17.396  52.258  1.00  0.00     0.000 C 
BRANCH   4   5
ATOM      5  C   UNL     1      59.410  16.696  50.887  1.00  0.00     0.000 C 
BRANCH   5   6
ATOM      6  C   UNL     1      57.982  16.521  50.332  1.00  0.00     0.006 C 
BRANCH   6   7
ATOM      7  C   UNL     1      57.389  17.789  49.696  1.00  0.00     0.053 C 
BRANCH   7   8
ATOM      8  C   UNL     1      56.144  18.237  50.397  1.00  0.00     0.041 C 
ATOM      9  O   UNL     1      55.139  18.603  49.732  1.00  0.00    -0.550 OA
ATOM     10  O   UNL     1      56.082  18.221  51.785  1.00  0.00    -0.550 OA
ENDBRANCH   7   8
ENDBRANCH   6   7
ENDBRANCH   5   6
ENDBRANCH   4   5
ENDBRANCH   3   4
ENDBRANCH   2   3
ENDBRANCH   1   2
BRANCH   1  11
ATOM     11  C   UNL     1      60.389  20.162  49.799  1.00  0.00     0.000 C 
BRANCH  11  12
ATOM     12  C   UNL     1      60.701  21.132  48.652  1.00  0.00     0.000 C 
BRANCH  12  13
ATOM     13  C   UNL     1      60.859  22.567  49.175  1.00  0.00     0.000 C 
BRANCH  13  14
ATOM     14  C   UNL     1      62.329  22.961  49.395  1.00  0.00     0.000 C 
BRANCH  14  15
ATOM     15  C   UNL     1      62.494  24.447  49.754  1.00  0.00     0.000 C 
BRANCH  15  16
ATOM     16  C   UNL     1      61.255  25.036  50.455  1.00  0.00     0.006 C 
BRANCH  16  17
ATOM     17  C   UNL     1      60.918  26.475  50.028  1.00  0.00     0.053 C 
BRANCH  17  18
ATOM     18  C   UNL     1      59.756  26.543  49.085  1.00  0.00     0.041 C 
ATOM     19  O   UNL     1      59.590  27.554  48.353  1.00  0.00    -0.550 OA
ATOM     20  O   UNL     1      58.843  25.497  49.031  1.00  0.00    -0.550 OA
ENDBRANCH  17  18
ENDBRANCH  16  17
ENDBRANCH  15  16
ENDBRANCH  14  15
ENDBRANCH  13  14
ENDBRANCH  12  13
ENDBRANCH  11  12
ENDBRANCH   1  11
TORSDOF 15
ENDMDL
MODEL 2
REMARK VINA RESULT:    -3.499      1.218      2.481
REMARK INTER + INTRA:          -8.044
REMARK INTER:                  -6.209
REMARK INTRA:                  -1.835
REMARK UNBOUND:                -1.477
REMARK SMILES O=C([O-])CCCCCCCCCCCCCCC(=O)[O-]
REMARK SMILES IDX 10 1 9 2 8 3 7 4 6 5 5 6 4 7 2 8 1 9 3 10 11 11 12 12 13 13
REMARK SMILES IDX 14 14 15 15 16 16 17 17 18 18 19 19 20 20
REMARK H PARENT
REMARK Flexibility Score: inf
ROOT
ATOM      1  C   UNL     1      61.240  18.430  51.321  1.00  0.00     0.000 C 
ENDROOT
BRANCH   1   2
ATOM      2  C   UNL     1      60.806  16.981  51.070  1.00  0.00     0.000 C 
BRANCH   2   3
ATOM      3  C   UNL     1      59.485  16.670  51.791  1.00  0.00     0.000 C 
BRANCH   3   4
ATOM      4  C   UNL     1      58.382  16.185  50.834  1.00  0.00     0.000 C 
BRANCH   4   5
ATOM      5  C   UNL     1      58.195  17.040  49.565  1.00  0.00     0.000 C 
BRANCH   5   6
ATOM      6  C   UNL     1      57.117  18.137  49.667  1.00  0.00     0.006 C 
BRANCH   6   7
ATOM      7  C   UNL     1      56.285  18.091  50.959  1.00  0.00     0.053 C 
BRANCH   7   8
ATOM      8  C   UNL     1      54.992  18.832  50.819  1.00  0.00     0.041 C 
ATOM      9  O   UNL     1      54.516  19.467  51.797  1.00  0.00    -0.550 OA
ATOM     10  O   UNL     1      54.327  18.848  49.599  1.00  0.00    -0.550 OA
ENDBRANCH   7   8
ENDBRANCH   6   7
ENDBRANCH   5   6
ENDBRANCH   4   5
ENDBRANCH   3   4
ENDBRANCH   2   3
ENDBRANCH   1   2
BRANCH   1  11
ATOM     11  C   UNL     1      60.063  19.278  51.820  1.00  0.00     0.000 C 
BRANCH  11  12
ATOM     12  C   UNL     1      59.860  20.514  50.934  1.00  0.00     0.000 C 
BRANCH  12  13
ATOM     13  C   UNL     1      60.235  20.211  49.476  1.00  0.00     0.000 C 
BRANCH  13  14
ATOM     14  C   UNL     1      60.780  21.442  48.734  1.00  0.00     0.000 C 
BRANCH  14  15
ATOM     15  C   UNL     1      62.284  21.657  48.972  1.00  0.00     0.000 C 
BRANCH  15  16
ATOM     16  C   UNL     1      62.627  23.105  49.373  1.00  0.00     0.006 C 
BRANCH  16  17
ATOM     17  C   UNL     1      61.669  23.711  50.413  1.00  0.00     0.053 C 
BRANCH  17  18
ATOM     18  C   UNL     1      61.045  24.991  49.951  1.00  0.00     0.041 C 
ATOM     19  O   UNL     1      60.189  24.984  49.027  1.00  0.00    -0.550 OA
ATOM     20  O   UNL     1      61.425  26.198  50.526  1.00  0.00    -0.550 OA
ENDBRANCH  17  18
ENDBRANCH  16  17
ENDBRANCH  15  16
ENDBRANCH  14  15
ENDBRANCH  13  14
ENDBRANCH  12  13
ENDBRANCH  11  12
ENDBRANCH   1  11
TORSDOF 15
ENDMDL
MODEL 3
REMARK VINA RESULT:    -3.400      3.233      8.544
REMARK INTER + INTRA:          -7.857
REMARK INTER:                  -5.899
REMARK INTRA:                  -1.959
REMARK UNBOUND:                -1.477
REMARK SMILES O=C([O-])CCCCCCCCCCCCCCC(=O)[O-]
REMARK SMILES IDX 10 1 9 2 8 3 7 4 6 5 5 6 4 7 2 8 1 9 3 10 11 11 12 12 13 13
REMARK SMILES IDX 14 14 15 15 16 16 17 17 18 18 19 19 20 20
REMARK H PARENT
REMARK Flexibility Score: inf
ROOT
ATOM      1  C   UNL     1      57.609  27.200  51.664  1.00  0.00     0.000 C 
ENDROOT
BRANCH   1   2
ATOM      2  C   UNL     1      57.686  28.544  50.931  1.00  0.00     0.000 C 
BRANCH   2   3
ATOM      3  C   UNL     1      57.433  28.364  49.426  1.00  0.00     0.000 C 
BRANCH   3   4
ATOM      4  C   UNL     1      58.699  28.577  48.578  1.00  0.00     0.000 C 
BRANCH   4   5
ATOM      5  C   UNL     1      59.701  27.404  48.594  1.00  0.00     0.000 C 
BRANCH   5   6
ATOM      6  C   UNL     1      61.045  27.701  49.288  1.00  0.00     0.006 C 
BRANCH   6   7
ATOM      7  C   UNL     1      62.111  26.608  49.102  1.00  0.00     0.053 C 
BRANCH   7   8
ATOM      8  C   UNL     1      63.432  27.179  48.691  1.00  0.00     0.041 C 
ATOM      9  O   UNL     1      63.740  27.252  47.472  1.00  0.00    -0.550 OA
ATOM     10  O   UNL     1      64.312  27.660  49.653  1.00  0.00    -0.550 OA
ENDBRANCH   7   8
ENDBRANCH   6   7
ENDBRANCH   5   6
ENDBRANCH   4   5
ENDBRANCH   3   4
ENDBRANCH   2   3
ENDBRANCH   1   2
BRANCH   1  11
ATOM     11  C   UNL     1      56.871  26.153  50.819  1.00  0.00     0.000 C 
BRANCH  11  12
ATOM     12  C   UNL     1      57.728  24.895  50.631  1.00  0.00     0.000 C 
BRANCH  12  13
ATOM     13  C   UNL     1      58.988  24.954  51.506  1.00  0.00     0.000 C 
BRANCH  13  14
ATOM     14  C   UNL     1      60.024  23.882  51.129  1.00  0.00     0.000 C 
BRANCH  14  15
ATOM     15  C   UNL     1      60.125  23.667  49.609  1.00  0.00     0.000 C 
BRANCH  15  16
ATOM     16  C   UNL     1      61.248  22.689  49.215  1.00  0.00     0.006 C 
BRANCH  16  17
ATOM     17  C   UNL     1      60.745  21.311  48.751  1.00  0.00     0.053 C 
BRANCH  17  18
ATOM     18  C   UNL     1      60.619  20.330  49.877  1.00  0.00     0.041 C 
ATOM     19  O   UNL     1      61.518  20.254  50.756  1.00  0.00    -0.550 OA
ATOM     20  O   UNL     1      59.519  19.484  49.943  1.00  0.00    -0.550 OA
ENDBRANCH  17  18
ENDBRANCH  16  17
ENDBRANCH  15  16
ENDBRANCH  14  15
ENDBRANCH  13  14
ENDBRANCH  12  13
ENDBRANCH  11  12
ENDBRANCH   1  11
TORSDOF 15
ENDMDL
MODEL 4
REMARK VINA RESULT:    -3.393      1.729      2.817
REMARK INTER + INTRA:          -7.846
REMARK INTER:                  -6.397
REMARK INTRA:                  -1.449
REMARK UNBOUND:                -1.477
REMARK SMILES O=C([O-])CCCCCCCCCCCCCCC(=O)[O-]
REMARK SMILES IDX 10 1 9 2 8 3 7 4 6 5 5 6 4 7 2 8 1 9 3 10 11 11 12 12 13 13
REMARK SMILES IDX 14 14 15 15 16 16 17 17 18 18 19 19 20 20
REMARK H PARENT
REMARK Flexibility Score: inf
ROOT
ATOM      1  C   UNL     1      60.031  17.880  50.307  1.00  0.00     0.000 C 
ENDROOT
BRANCH   1   2
ATOM      2  C   UNL     1      59.245  16.780  51.030  1.00  0.00     0.000 C 
BRANCH   2   3
ATOM      3  C   UNL     1      57.947  16.448  50.278  1.00  0.00     0.000 C 
BRANCH   3   4
ATOM      4  C   UNL     1      57.278  17.689  49.662  1.00  0.00     0.000 C 
BRANCH   4   5
ATOM      5  C   UNL     1      56.098  18.264  50.470  1.00  0.00     0.000 C 
BRANCH   5   6
ATOM      6  C   UNL     1      56.458  18.783  51.877  1.00  0.00     0.006 C 
BRANCH   6   7
ATOM      7  C   UNL     1      55.307  18.713  52.893  1.00  0.00     0.053 C 
BRANCH   7   8
ATOM      8  C   UNL     1      54.291  19.789  52.663  1.00  0.00     0.041 C 
ATOM      9  O   UNL     1      54.640  20.999  52.656  1.00  0.00    -0.550 OA
ATOM     10  O   UNL     1      52.964  19.454  52.426  1.00  0.00    -0.550 OA
ENDBRANCH   7   8
ENDBRANCH   6   7
ENDBRANCH   5   6
ENDBRANCH   4   5
ENDBRANCH   3   4
ENDBRANCH   2   3
ENDBRANCH   1   2
BRANCH   1  11
ATOM     11  C   UNL     1      60.320  19.058  51.247  1.00  0.00     0.000 C 
BRANCH  11  12
ATOM     12  C   UNL     1      59.840  20.380  50.636  1.00  0.00     0.000 C 
BRANCH  12  13
ATOM     13  C   UNL     1      60.196  20.455  49.143  1.00  0.00     0.000 C 
BRANCH  13  14
ATOM     14  C   UNL     1      61.152  21.614  48.818  1.00  0.00     0.000 C 
BRANCH  14  15
ATOM     15  C   UNL     1      61.086  22.745  49.859  1.00  0.00     0.000 C 
BRANCH  15  16
ATOM     16  C   UNL     1      60.528  24.059  49.281  1.00  0.00     0.006 C 
BRANCH  16  17
ATOM     17  C   UNL     1      59.610  24.828  50.248  1.00  0.00     0.053 C 
BRANCH  17  18
ATOM     18  C   UNL     1      58.617  25.695  49.537  1.00  0.00     0.041 C 
ATOM     19  O   UNL     1      58.993  26.748  48.957  1.00  0.00    -0.550 OA
ATOM     20  O   UNL     1      57.270  25.352  49.534  1.00  0.00    -0.550 OA
ENDBRANCH  17  18
ENDBRANCH  16  17
ENDBRANCH  15  16
ENDBRANCH  14  15
ENDBRANCH  13  14
ENDBRANCH  12  13
ENDBRANCH  11  12
ENDBRANCH   1  11
TORSDOF 15
ENDMDL
MODEL 5
REMARK VINA RESULT:    -3.347     11.820     12.998
REMARK INTER + INTRA:          -7.759
REMARK INTER:                  -5.609
REMARK INTRA:                  -2.149
REMARK UNBOUND:                -1.477
REMARK SMILES O=C([O-])CCCCCCCCCCCCCCC(=O)[O-]
REMARK SMILES IDX 10 1 9 2 8 3 7 4 6 5 5 6 4 7 2 8 1 9 3 10 11 11 12 12 13 13
REMARK SMILES IDX 14 14 15 15 16 16 17 17 18 18 19 19 20 20
REMARK H PARENT
REMARK Flexibility Score: inf
ROOT
ATOM      1  C   UNL     1      64.488  29.130  59.797  1.00  0.00     0.000 C 
ENDROOT
BRANCH   1   2
ATOM      2  C   UNL     1      65.564  28.097  60.151  1.00  0.00     0.000 C 
BRANCH   2   3
ATOM      3  C   UNL     1      65.257  26.739  59.502  1.00  0.00     0.000 C 
BRANCH   3   4
ATOM      4  C   UNL     1      64.334  25.860  60.364  1.00  0.00     0.000 C 
BRANCH   4   5
ATOM      5  C   UNL     1      62.907  25.671  59.810  1.00  0.00     0.000 C 
BRANCH   5   6
ATOM      6  C   UNL     1      61.814  25.452  60.876  1.00  0.00     0.006 C 
BRANCH   6   7
ATOM      7  C   UNL     1      60.412  25.920  60.452  1.00  0.00     0.053 C 
BRANCH   7   8
ATOM      8  C   UNL     1      59.396  25.691  61.528  1.00  0.00     0.041 C 
ATOM      9  O   UNL     1      58.254  26.215  61.443  1.00  0.00    -0.550 OA
ATOM     10  O   UNL     1      59.700  24.872  62.608  1.00  0.00    -0.550 OA
ENDBRANCH   7   8
ENDBRANCH   6   7
ENDBRANCH   5   6
ENDBRANCH   4   5
ENDBRANCH   3   4
ENDBRANCH   2   3
ENDBRANCH   1   2
BRANCH   1  11
ATOM     11  C   UNL     1      63.682  29.532  61.040  1.00  0.00     0.000 C 
BRANCH  11  12
ATOM     12  C   UNL     1      62.201  29.169  60.876  1.00  0.00     0.000 C 
BRANCH  12  13
ATOM     13  C   UNL     1      61.777  29.244  59.402  1.00  0.00     0.000 C 
BRANCH  13  14
ATOM     14  C   UNL     1      60.428  29.954  59.206  1.00  0.00     0.000 C 
BRANCH  14  15
ATOM     15  C   UNL     1      60.543  31.206  58.320  1.00  0.00     0.000 C 
BRANCH  15  16
ATOM     16  C   UNL     1      62.002  31.578  57.994  1.00  0.00     0.006 C 
BRANCH  16  17
ATOM     17  C   UNL     1      62.506  32.836  58.722  1.00  0.00     0.053 C 
BRANCH  17  18
ATOM     18  C   UNL     1      63.933  32.718  59.162  1.00  0.00     0.041 C 
ATOM     19  O   UNL     1      64.258  33.004  60.345  1.00  0.00    -0.550 OA
ATOM     20  O   UNL     1      64.908  32.313  58.260  1.00  0.00    -0.550 OA
ENDBRANCH  17  18
ENDBRANCH  16  17
ENDBRANCH  15  16
ENDBRANCH  14  15
ENDBRANCH  13  14
ENDBRANCH  12  13
ENDBRANCH  11  12
ENDBRANCH   1  11
TORSDOF 15
ENDMDL
MODEL 6
REMARK VINA RESULT:    -3.334      4.502      7.648
REMARK INTER + INTRA:          -7.734
REMARK INTER:                  -5.356
REMARK INTRA:                  -2.378
REMARK UNBOUND:                -1.477
REMARK SMILES O=C([O-])CCCCCCCCCCCCCCC(=O)[O-]
REMARK SMILES IDX 10 1 9 2 8 3 7 4 6 5 5 6 4 7 2 8 1 9 3 10 11 11 12 12 13 13
REMARK SMILES IDX 14 14 15 15 16 16 17 17 18 18 19 19 20 20
REMARK H PARENT
REMARK Flexibility Score: inf
ROOT
ATOM      1  C   UNL     1      59.986  28.829  52.020  1.00  0.00     0.000 C 
ENDROOT
BRANCH   1   2
ATOM      2  C   UNL     1      60.862  29.160  50.806  1.00  0.00     0.000 C 
BRANCH   2   3
ATOM      3  C   UNL     1      61.233  27.887  50.031  1.00  0.00     0.000 C 
BRANCH   3   4
ATOM      4  C   UNL     1      60.235  27.560  48.906  1.00  0.00     0.000 C 
BRANCH   4   5
ATOM      5  C   UNL     1      59.754  26.095  48.864  1.00  0.00     0.000 C 
BRANCH   5   6
ATOM      6  C   UNL     1      60.724  25.069  49.484  1.00  0.00     0.006 C 
BRANCH   6   7
ATOM      7  C   UNL     1      60.111  23.680  49.721  1.00  0.00     0.053 C 
BRANCH   7   8
ATOM      8  C   UNL     1      61.051  22.580  49.336  1.00  0.00     0.041 C 
ATOM      9  O   UNL     1      62.250  22.607  49.721  1.00  0.00    -0.550 OA
ATOM     10  O   UNL     1      60.596  21.508  48.579  1.00  0.00    -0.550 OA
ENDBRANCH   7   8
ENDBRANCH   6   7
ENDBRANCH   5   6
ENDBRANCH   4   5
ENDBRANCH   3   4
ENDBRANCH   2   3
ENDBRANCH   1   2
BRANCH   1  11
ATOM     11  C   UNL     1      60.158  27.363  52.438  1.00  0.00     0.000 C 
BRANCH  11  12
ATOM     12  C   UNL     1      58.799  26.702  52.702  1.00  0.00     0.000 C 
BRANCH  12  13
ATOM     13  C   UNL     1      57.663  27.507  52.053  1.00  0.00     0.000 C 
BRANCH  13  14
ATOM     14  C   UNL     1      56.842  26.675  51.054  1.00  0.00     0.000 C 
BRANCH  14  15
ATOM     15  C   UNL     1      56.501  27.457  49.774  1.00  0.00     0.000 C 
BRANCH  15  16
ATOM     16  C   UNL     1      56.925  28.936  49.845  1.00  0.00     0.006 C 
BRANCH  16  17
ATOM     17  C   UNL     1      55.757  29.930  49.714  1.00  0.00     0.053 C 
BRANCH  17  18
ATOM     18  C   UNL     1      55.243  30.398  51.041  1.00  0.00     0.041 C 
ATOM     19  O   UNL     1      55.993  31.043  51.821  1.00  0.00    -0.550 OA
ATOM     20  O   UNL     1      53.941  30.104  51.426  1.00  0.00    -0.550 OA
ENDBRANCH  17  18
ENDBRANCH  16  17
ENDBRANCH  15  16
ENDBRANCH  14  15
ENDBRANCH  13  14
ENDBRANCH  12  13
ENDBRANCH  11  12
ENDBRANCH   1  11
TORSDOF 15
ENDMDL
MODEL 7
REMARK VINA RESULT:    -3.332      4.750      8.984
REMARK INTER + INTRA:          -7.730
REMARK INTER:                  -5.346
REMARK INTRA:                  -2.384
REMARK UNBOUND:                -1.477
REMARK SMILES O=C([O-])CCCCCCCCCCCCCCC(=O)[O-]
REMARK SMILES IDX 10 1 9 2 8 3 7 4 6 5 5 6 4 7 2 8 1 9 3 10 11 11 12 12 13 13
REMARK SMILES IDX 14 14 15 15 16 16 17 17 18 18 19 19 20 20
REMARK H PARENT
REMARK Flexibility Score: inf
ROOT
ATOM      1  C   UNL     1      59.104  27.452  52.582  1.00  0.00     0.000 C 
ENDROOT
BRANCH   1   2
ATOM      2  C   UNL     1      57.822  28.112  52.059  1.00  0.00     0.000 C 
BRANCH   2   3
ATOM      3  C   UNL     1      56.981  27.114  51.249  1.00  0.00     0.000 C 
BRANCH   3   4
ATOM      4  C   UNL     1      56.478  27.698  49.918  1.00  0.00     0.000 C 
BRANCH   4   5
ATOM      5  C   UNL     1      56.524  29.237  49.820  1.00  0.00     0.000 C 
BRANCH   5   6
ATOM      6  C   UNL     1      55.149  29.933  49.801  1.00  0.00     0.006 C 
BRANCH   6   7
ATOM      7  C   UNL     1      54.386  29.869  51.134  1.00  0.00     0.053 C 
BRANCH   7   8
ATOM      8  C   UNL     1      54.948  30.817  52.147  1.00  0.00     0.041 C 
ATOM      9  O   UNL     1      55.030  32.046  51.887  1.00  0.00    -0.550 OA
ATOM     10  O   UNL     1      55.352  30.348  53.390  1.00  0.00    -0.550 OA
ENDBRANCH   7   8
ENDBRANCH   6   7
ENDBRANCH   5   6
ENDBRANCH   4   5
ENDBRANCH   3   4
ENDBRANCH   2   3
ENDBRANCH   1   2
BRANCH   1  11
ATOM     11  C   UNL     1      60.340  28.280  52.210  1.00  0.00     0.000 C 
BRANCH  11  12
ATOM     12  C   UNL     1      59.996  29.339  51.154  1.00  0.00     0.000 C 
BRANCH  12  13
ATOM     13  C   UNL     1      60.702  29.037  49.824  1.00  0.00     0.000 C 
BRANCH  13  14
ATOM     14  C   UNL     1      59.930  28.030  48.956  1.00  0.00     0.000 C 
BRANCH  14  15
ATOM     15  C   UNL     1      60.544  26.620  49.001  1.00  0.00     0.000 C 
BRANCH  15  16
ATOM     16  C   UNL     1      59.482  25.507  49.090  1.00  0.00     0.006 C 
BRANCH  16  17
ATOM     17  C   UNL     1      59.785  24.436  50.152  1.00  0.00     0.053 C 
BRANCH  17  18
ATOM     18  C   UNL     1      60.814  23.446  49.701  1.00  0.00     0.041 C 
ATOM     19  O   UNL     1      62.041  23.689  49.857  1.00  0.00    -0.550 OA
ATOM     20  O   UNL     1      60.421  22.263  49.088  1.00  0.00    -0.550 OA
ENDBRANCH  17  18
ENDBRANCH  16  17
ENDBRANCH  15  16
ENDBRANCH  14  15
ENDBRANCH  13  14
ENDBRANCH  12  13
ENDBRANCH  11  12
ENDBRANCH   1  11
TORSDOF 15
ENDMDL
MODEL 8
REMARK VINA RESULT:    -3.327     13.118     16.739
REMARK INTER + INTRA:          -7.720
REMARK INTER:                  -6.602
REMARK INTRA:                  -1.118
REMARK UNBOUND:                -1.477
REMARK SMILES O=C([O-])CCCCCCCCCCCCCCC(=O)[O-]
REMARK SMILES IDX 10 1 9 2 8 3 7 4 6 5 5 6 4 7 2 8 1 9 3 10 11 11 12 12 13 13
REMARK SMILES IDX 14 14 15 15 16 16 17 17 18 18 19 19 20 20
REMARK H PARENT
REMARK Flexibility Score: inf
ROOT
ATOM      1  C   UNL     1      68.438  28.640  58.962  1.00  0.00     0.000 C 
ENDROOT
BRANCH   1   2
ATOM      2  C   UNL     1      69.654  28.032  59.670  1.00  0.00     0.000 C 
BRANCH   2   3
ATOM      3  C   UNL     1      69.862  28.670  61.052  1.00  0.00     0.000 C 
BRANCH   3   4
ATOM      4  C   UNL     1      71.342  28.950  61.365  1.00  0.00     0.000 C 
BRANCH   4   5
ATOM      5  C   UNL     1      72.077  29.820  60.324  1.00  0.00     0.000 C 
BRANCH   5   6
ATOM      6  C   UNL     1      71.534  31.255  60.169  1.00  0.00     0.006 C 
BRANCH   6   7
ATOM      7  C   UNL     1      71.026  31.592  58.758  1.00  0.00     0.053 C 
BRANCH   7   8
ATOM      8  C   UNL     1      70.861  33.067  58.560  1.00  0.00     0.041 C 
ATOM      9  O   UNL     1      70.941  33.565  57.406  1.00  0.00    -0.550 OA
ATOM     10  O   UNL     1      70.589  33.889  59.646  1.00  0.00    -0.550 OA
ENDBRANCH   7   8
ENDBRANCH   6   7
ENDBRANCH   5   6
ENDBRANCH   4   5
ENDBRANCH   3   4
ENDBRANCH   2   3
ENDBRANCH   1   2
BRANCH   1  11
ATOM     11  C   UNL     1      67.170  27.825  59.250  1.00  0.00     0.000 C 
BRANCH  11  12
ATOM     12  C   UNL     1      66.211  28.603  60.159  1.00  0.00     0.000 C 
BRANCH  12  13
ATOM     13  C   UNL     1      65.470  29.693  59.370  1.00  0.00     0.000 C 
BRANCH  13  14
ATOM     14  C   UNL     1      64.437  30.447  60.224  1.00  0.00     0.000 C 
BRANCH  14  15
ATOM     15  C   UNL     1      62.995  29.985  59.951  1.00  0.00     0.000 C 
BRANCH  15  16
ATOM     16  C   UNL     1      62.465  29.012  61.022  1.00  0.00     0.006 C 
BRANCH  16  17
ATOM     17  C   UNL     1      62.528  27.531  60.608  1.00  0.00     0.053 C 
BRANCH  17  18
ATOM     18  C   UNL     1      61.355  26.741  61.101  1.00  0.00     0.041 C 
ATOM     19  O   UNL     1      61.514  25.841  61.968  1.00  0.00    -0.550 OA
ATOM     20  O   UNL     1      60.086  26.985  60.589  1.00  0.00    -0.550 OA
ENDBRANCH  17  18
ENDBRANCH  16  17
ENDBRANCH  15  16
ENDBRANCH  14  15
ENDBRANCH  13  14
ENDBRANCH  12  13
ENDBRANCH  11  12
ENDBRANCH   1  11
TORSDOF 15
ENDMDL
MODEL 9
REMARK VINA RESULT:    -3.300     14.244     16.021
REMARK INTER + INTRA:          -7.671
REMARK INTER:                  -5.284
REMARK INTRA:                  -2.387
REMARK UNBOUND:                -1.477
REMARK SMILES O=C([O-])CCCCCCCCCCCCCCC(=O)[O-]
REMARK SMILES IDX 10 1 9 2 8 3 7 4 6 5 5 6 4 7 2 8 1 9 3 10 11 11 12 12 13 13
REMARK SMILES IDX 14 14 15 15 16 16 17 17 18 18 19 19 20 20
REMARK H PARENT
REMARK Flexibility Score: inf
ROOT
ATOM      1  C   UNL     1      71.584  28.289  60.574  1.00  0.00     0.000 C 
ENDROOT
BRANCH   1   2
ATOM      2  C   UNL     1      70.529  29.084  61.352  1.00  0.00     0.000 C 
BRANCH   2   3
ATOM      3  C   UNL     1      69.196  28.323  61.406  1.00  0.00     0.000 C 
BRANCH   3   4
ATOM      4  C   UNL     1      68.990  27.392  60.199  1.00  0.00     0.000 C 
BRANCH   4   5
ATOM      5  C   UNL     1      67.640  27.555  59.470  1.00  0.00     0.000 C 
BRANCH   5   6
ATOM      6  C   UNL     1      66.550  28.297  60.268  1.00  0.00     0.006 C 
BRANCH   6   7
ATOM      7  C   UNL     1      65.760  29.333  59.452  1.00  0.00     0.053 C 
BRANCH   7   8
ATOM      8  C   UNL     1      64.621  29.910  60.233  1.00  0.00     0.041 C 
ATOM      9  O   UNL     1      63.899  29.164  60.946  1.00  0.00    -0.550 OA
ATOM     10  O   UNL     1      64.375  31.277  60.198  1.00  0.00    -0.550 OA
ENDBRANCH   7   8
ENDBRANCH   6   7
ENDBRANCH   5   6
ENDBRANCH   4   5
ENDBRANCH   3   4
ENDBRANCH   2   3
ENDBRANCH   1   2
BRANCH   1  11
ATOM     11  C   UNL     1      72.540  29.229  59.827  1.00  0.00     0.000 C 
BRANCH  11  12
ATOM     12  C   UNL     1      72.077  30.687  59.938  1.00  0.00     0.000 C 
BRANCH  12  13
ATOM     13  C   UNL     1      71.724  31.257  58.556  1.00  0.00     0.000 C 
BRANCH  13  14
ATOM     14  C   UNL     1      70.209  31.419  58.350  1.00  0.00     0.000 C 
BRANCH  14  15
ATOM     15  C   UNL     1      69.551  30.149  57.783  1.00  0.00     0.000 C 
BRANCH  15  16
ATOM     16  C   UNL     1      70.422  29.443  56.726  1.00  0.00     0.006 C 
BRANCH  16  17
ATOM     17  C   UNL     1      70.075  27.958  56.519  1.00  0.00     0.053 C 
BRANCH  17  18
ATOM     18  C   UNL     1      71.130  27.037  57.048  1.00  0.00     0.041 C 
ATOM     19  O   UNL     1      70.806  25.990  57.670  1.00  0.00    -0.550 OA
ATOM     20  O   UNL     1      72.474  27.345  56.874  1.00  0.00    -0.550 OA
ENDBRANCH  17  18
ENDBRANCH  16  17
ENDBRANCH  15  16
ENDBRANCH  14  15
ENDBRANCH  13  14
ENDBRANCH  12  13
ENDBRANCH  11  12
ENDBRANCH   1  11
TORSDOF 15
ENDMDL
