MODEL 1
REMARK VINA RESULT:    -2.800      0.000      0.000
REMARK INTER + INTRA:          -4.221
REMARK INTER:                  -3.782
REMARK INTRA:                  -0.439
REMARK UNBOUND:                -0.439
REMARK SMILES CCCCCCCC(=O)[O-]
REMARK SMILES IDX 5 1 6 2 7 3 8 4 9 5 10 6 4 7 3 8 2 9 1 10
REMARK H PARENT
REMARK Flexibility Score: inf
ROOT
ATOM      1  C   UNL     1      11.965  42.807 151.794  1.00  0.00     0.000 C 
ENDROOT
BRANCH   1   2
ATOM      2  C   UNL     1      11.966  42.347 153.257  1.00  0.00     0.006 C 
BRANCH   2   3
ATOM      3  C   UNL     1      11.106  43.272 154.124  1.00  0.00     0.053 C 
BRANCH   3   4
ATOM      4  C   UNL     1      10.206  42.471 155.011  1.00  0.00     0.041 C 
ATOM      5  O   UNL     1      10.557  42.196 156.188  1.00  0.00    -0.550 OA
ATOM      6  O   UNL     1       8.958  42.069 154.552  1.00  0.00    -0.550 OA
ENDBRANCH   3   4
ENDBRANCH   2   3
ENDBRANCH   1   2
BRANCH   1   7
ATOM      7  C   UNL     1      12.056  41.605 150.841  1.00  0.00     0.000 C 
BRANCH   7   8
ATOM      8  C   UNL     1      11.949  40.253 151.569  1.00  0.00    -0.000 C 
BRANCH   8   9
ATOM      9  C   UNL     1      10.715  39.412 151.194  1.00  0.00    -0.003 C 
ATOM     10  C   UNL     1       9.405  40.012 151.705  1.00  0.00     0.004 C 
ENDBRANCH   8   9
ENDBRANCH   7   8
ENDBRANCH   1   7
TORSDOF 6
ENDMDL
MODEL 2
REMARK VINA RESULT:    -2.763      3.358      5.095
REMARK INTER + INTRA:          -4.172
REMARK INTER:                  -3.883
REMARK INTRA:                  -0.289
REMARK UNBOUND:                -0.439
REMARK SMILES CCCCCCCC(=O)[O-]
REMARK SMILES IDX 5 1 6 2 7 3 8 4 9 5 10 6 4 7 3 8 2 9 1 10
REMARK H PARENT
REMARK Flexibility Score: inf
ROOT
ATOM      1  C   UNL     1      10.246  41.093 152.537  1.00  0.00     0.000 C 
ENDROOT
BRANCH   1   2
ATOM      2  C   UNL     1      10.582  39.748 151.883  1.00  0.00     0.006 C 
BRANCH   2   3
ATOM      3  C   UNL     1      11.990  39.767 151.279  1.00  0.00     0.053 C 
BRANCH   3   4
ATOM      4  C   UNL     1      12.057  38.878 150.078  1.00  0.00     0.041 C 
ATOM      5  O   UNL     1      11.170  38.947 149.187  1.00  0.00    -0.550 OA
ATOM      6  O   UNL     1      13.125  38.003 149.920  1.00  0.00    -0.550 OA
ENDBRANCH   3   4
ENDBRANCH   2   3
ENDBRANCH   1   2
BRANCH   1   7
ATOM      7  C   UNL     1      11.483  42.004 152.589  1.00  0.00     0.000 C 
BRANCH   7   8
ATOM      8  C   UNL     1      11.659  42.699 153.951  1.00  0.00    -0.000 C 
BRANCH   8   9
ATOM      9  C   UNL     1      10.347  43.122 154.636  1.00  0.00    -0.003 C 
ATOM     10  C   UNL     1      10.114  42.413 155.970  1.00  0.00     0.004 C 
ENDBRANCH   8   9
ENDBRANCH   7   8
ENDBRANCH   1   7
TORSDOF 6
ENDMDL
MODEL 3
REMARK VINA RESULT:    -2.753      2.684      3.735
REMARK INTER + INTRA:          -4.158
REMARK INTER:                  -4.002
REMARK INTRA:                  -0.156
REMARK UNBOUND:                -0.439
REMARK SMILES CCCCCCCC(=O)[O-]
REMARK SMILES IDX 5 1 6 2 7 3 8 4 9 5 10 6 4 7 3 8 2 9 1 10
REMARK H PARENT
REMARK Flexibility Score: inf
ROOT
ATOM      1  C   UNL     1      10.517  39.575 151.513  1.00  0.00     0.000 C 
ENDROOT
BRANCH   1   2
ATOM      2  C   UNL     1      11.929  40.172 151.516  1.00  0.00     0.006 C 
BRANCH   2   3
ATOM      3  C   UNL     1      11.913  41.627 151.039  1.00  0.00     0.053 C 
BRANCH   3   4
ATOM      4  C   UNL     1      12.099  42.559 152.194  1.00  0.00     0.041 C 
ATOM      5  O   UNL     1      11.879  42.165 153.369  1.00  0.00    -0.550 OA
ATOM      6  O   UNL     1      12.561  43.851 151.976  1.00  0.00    -0.550 OA
ENDBRANCH   3   4
ENDBRANCH   2   3
ENDBRANCH   1   2
BRANCH   1   7
ATOM      7  C   UNL     1      10.188  38.951 150.148  1.00  0.00     0.000 C 
BRANCH   7   8
ATOM      8  C   UNL     1      10.719  37.514 150.002  1.00  0.00    -0.000 C 
BRANCH   8   9
ATOM      9  C   UNL     1       9.631  36.427 149.913  1.00  0.00    -0.003 C 
ATOM     10  C   UNL     1      10.177  35.016 150.130  1.00  0.00     0.004 C 
ENDBRANCH   8   9
ENDBRANCH   7   8
ENDBRANCH   1   7
TORSDOF 6
ENDMDL
MODEL 4
REMARK VINA RESULT:    -2.751      4.608      6.188
REMARK INTER + INTRA:          -4.154
REMARK INTER:                  -3.709
REMARK INTRA:                  -0.445
REMARK UNBOUND:                -0.439
REMARK SMILES CCCCCCCC(=O)[O-]
REMARK SMILES IDX 5 1 6 2 7 3 8 4 9 5 10 6 4 7 3 8 2 9 1 10
REMARK H PARENT
REMARK Flexibility Score: inf
ROOT
ATOM      1  C   UNL     1      11.100  38.697 149.652  1.00  0.00     0.000 C 
ENDROOT
BRANCH   1   2
ATOM      2  C   UNL     1      10.407  37.380 150.021  1.00  0.00     0.006 C 
BRANCH   2   3
ATOM      3  C   UNL     1       8.919  37.422 149.658  1.00  0.00     0.053 C 
BRANCH   3   4
ATOM      4  C   UNL     1       8.404  36.041 149.403  1.00  0.00     0.041 C 
ATOM      5  O   UNL     1       7.229  35.869 148.985  1.00  0.00    -0.550 OA
ATOM      6  O   UNL     1       9.238  34.944 149.582  1.00  0.00    -0.550 OA
ENDBRANCH   3   4
ENDBRANCH   2   3
ENDBRANCH   1   2
BRANCH   1   7
ATOM      7  C   UNL     1      11.905  39.246 150.839  1.00  0.00     0.000 C 
BRANCH   7   8
ATOM      8  C   UNL     1      11.252  40.480 151.487  1.00  0.00    -0.000 C 
BRANCH   8   9
ATOM      9  C   UNL     1      10.242  40.166 152.606  1.00  0.00    -0.003 C 
ATOM     10  C   UNL     1       8.789  40.317 152.157  1.00  0.00     0.004 C 
ENDBRANCH   8   9
ENDBRANCH   7   8
ENDBRANCH   1   7
TORSDOF 6
ENDMDL
MODEL 5
REMARK VINA RESULT:    -2.730      2.598      3.801
REMARK INTER + INTRA:          -4.126
REMARK INTER:                  -3.843
REMARK INTRA:                  -0.283
REMARK UNBOUND:                -0.439
REMARK SMILES CCCCCCCC(=O)[O-]
REMARK SMILES IDX 5 1 6 2 7 3 8 4 9 5 10 6 4 7 3 8 2 9 1 10
REMARK H PARENT
REMARK Flexibility Score: inf
ROOT
ATOM      1  C   UNL     1      11.428  38.939 149.762  1.00  0.00     0.000 C 
ENDROOT
BRANCH   1   2
ATOM      2  C   UNL     1      12.082  39.401 151.069  1.00  0.00     0.006 C 
BRANCH   2   3
ATOM      3  C   UNL     1      11.896  40.908 151.274  1.00  0.00     0.053 C 
BRANCH   3   4
ATOM      4  C   UNL     1      11.164  41.177 152.550  1.00  0.00     0.041 C 
ATOM      5  O   UNL     1      11.377  42.239 153.192  1.00  0.00    -0.550 OA
ATOM      6  O   UNL     1      10.211  40.276 153.008  1.00  0.00    -0.550 OA
ENDBRANCH   3   4
ENDBRANCH   2   3
ENDBRANCH   1   2
BRANCH   1   7
ATOM      7  C   UNL     1      10.376  37.851 150.028  1.00  0.00     0.000 C 
BRANCH   7   8
ATOM      8  C   UNL     1       8.932  38.367 149.889  1.00  0.00    -0.000 C 
BRANCH   8   9
ATOM      9  C   UNL     1       7.948  37.371 149.248  1.00  0.00    -0.003 C 
ATOM     10  C   UNL     1       8.383  35.915 149.408  1.00  0.00     0.004 C 
ENDBRANCH   8   9
ENDBRANCH   7   8
ENDBRANCH   1   7
TORSDOF 6
ENDMDL
MODEL 6
REMARK VINA RESULT:    -2.729      1.064      1.427
REMARK INTER + INTRA:          -4.126
REMARK INTER:                  -3.862
REMARK INTRA:                  -0.264
REMARK UNBOUND:                -0.439
REMARK SMILES CCCCCCCC(=O)[O-]
REMARK SMILES IDX 5 1 6 2 7 3 8 4 9 5 10 6 4 7 3 8 2 9 1 10
REMARK H PARENT
REMARK Flexibility Score: inf
ROOT
ATOM      1  C   UNL     1      11.752  42.680 151.675  1.00  0.00     0.000 C 
ENDROOT
BRANCH   1   2
ATOM      2  C   UNL     1      11.963  42.214 153.120  1.00  0.00     0.006 C 
BRANCH   2   3
ATOM      3  C   UNL     1      11.196  43.105 154.102  1.00  0.00     0.053 C 
BRANCH   3   4
ATOM      4  C   UNL     1      10.249  42.287 154.921  1.00  0.00     0.041 C 
ATOM      5  O   UNL     1      10.358  42.257 156.175  1.00  0.00    -0.550 OA
ATOM      6  O   UNL     1       9.216  41.593 154.303  1.00  0.00    -0.550 OA
ENDBRANCH   3   4
ENDBRANCH   2   3
ENDBRANCH   1   2
BRANCH   1   7
ATOM      7  C   UNL     1      11.981  41.526 150.686  1.00  0.00     0.000 C 
BRANCH   7   8
ATOM      8  C   UNL     1      11.949  40.144 151.361  1.00  0.00    -0.000 C 
BRANCH   8   9
ATOM      9  C   UNL     1      12.283  38.962 150.432  1.00  0.00    -0.003 C 
ATOM     10  C   UNL     1      12.310  39.353 148.955  1.00  0.00     0.004 C 
ENDBRANCH   8   9
ENDBRANCH   7   8
ENDBRANCH   1   7
TORSDOF 6
ENDMDL
MODEL 7
REMARK VINA RESULT:    -2.718     18.667     19.896
REMARK INTER + INTRA:          -4.111
REMARK INTER:                  -3.917
REMARK INTRA:                  -0.194
REMARK UNBOUND:                -0.439
REMARK SMILES CCCCCCCC(=O)[O-]
REMARK SMILES IDX 5 1 6 2 7 3 8 4 9 5 10 6 4 7 3 8 2 9 1 10
REMARK H PARENT
REMARK Flexibility Score: inf
ROOT
ATOM      1  C   UNL     1      -4.780  39.178 143.179  1.00  0.00     0.000 C 
ENDROOT
BRANCH   1   2
ATOM      2  C   UNL     1      -5.255  39.771 141.847  1.00  0.00     0.006 C 
BRANCH   2   3
ATOM      3  C   UNL     1      -6.743  40.130 141.906  1.00  0.00     0.053 C 
BRANCH   3   4
ATOM      4  C   UNL     1      -6.919  41.607 142.062  1.00  0.00     0.041 C 
ATOM      5  O   UNL     1      -6.924  42.356 141.050  1.00  0.00    -0.550 OA
ATOM      6  O   UNL     1      -7.125  42.153 143.323  1.00  0.00    -0.550 OA
ENDBRANCH   3   4
ENDBRANCH   2   3
ENDBRANCH   1   2
BRANCH   1   7
ATOM      7  C   UNL     1      -5.052  37.667 143.236  1.00  0.00     0.000 C 
BRANCH   7   8
ATOM      8  C   UNL     1      -3.836  36.856 143.717  1.00  0.00    -0.000 C 
BRANCH   8   9
ATOM      9  C   UNL     1      -3.975  35.329 143.567  1.00  0.00    -0.003 C 
ATOM     10  C   UNL     1      -5.245  34.916 142.823  1.00  0.00     0.004 C 
ENDBRANCH   8   9
ENDBRANCH   7   8
ENDBRANCH   1   7
TORSDOF 6
ENDMDL
MODEL 8
REMARK VINA RESULT:    -2.707      1.760      2.846
REMARK INTER + INTRA:          -4.095
REMARK INTER:                  -3.500
REMARK INTRA:                  -0.595
REMARK UNBOUND:                -0.439
REMARK SMILES CCCCCCCC(=O)[O-]
REMARK SMILES IDX 5 1 6 2 7 3 8 4 9 5 10 6 4 7 3 8 2 9 1 10
REMARK H PARENT
REMARK Flexibility Score: inf
ROOT
ATOM      1  C   UNL     1       8.852  41.375 152.804  1.00  0.00     0.000 C 
ENDROOT
BRANCH   1   2
ATOM      2  C   UNL     1       9.249  42.597 153.639  1.00  0.00     0.006 C 
BRANCH   2   3
ATOM      3  C   UNL     1      10.523  42.322 154.445  1.00  0.00     0.053 C 
BRANCH   3   4
ATOM      4  C   UNL     1      11.604  43.282 154.058  1.00  0.00     0.041 C 
ATOM      5  O   UNL     1      11.311  44.391 153.540  1.00  0.00    -0.550 OA
ATOM      6  O   UNL     1      12.933  42.970 154.314  1.00  0.00    -0.550 OA
ENDBRANCH   3   4
ENDBRANCH   2   3
ENDBRANCH   1   2
BRANCH   1   7
ATOM      7  C   UNL     1       9.846  40.221 153.011  1.00  0.00     0.000 C 
BRANCH   7   8
ATOM      8  C   UNL     1      10.538  39.785 151.707  1.00  0.00    -0.000 C 
BRANCH   8   9
ATOM      9  C   UNL     1      11.980  40.297 151.537  1.00  0.00    -0.003 C 
ATOM     10  C   UNL     1      12.058  41.623 150.781  1.00  0.00     0.004 C 
ENDBRANCH   8   9
ENDBRANCH   7   8
ENDBRANCH   1   7
TORSDOF 6
ENDMDL
MODEL 9
REMARK VINA RESULT:    -2.655      1.938      3.882
REMARK INTER + INTRA:          -4.026
REMARK INTER:                  -3.396
REMARK INTRA:                  -0.630
REMARK UNBOUND:                -0.439
REMARK SMILES CCCCCCCC(=O)[O-]
REMARK SMILES IDX 5 1 6 2 7 3 8 4 9 5 10 6 4 7 3 8 2 9 1 10
REMARK H PARENT
REMARK Flexibility Score: inf
ROOT
ATOM      1  C   UNL     1      11.239  42.470 150.381  1.00  0.00     0.000 C 
ENDROOT
BRANCH   1   2
ATOM      2  C   UNL     1      11.976  41.133 150.236  1.00  0.00     0.006 C 
BRANCH   2   3
ATOM      3  C   UNL     1      11.968  40.355 151.555  1.00  0.00     0.053 C 
BRANCH   3   4
ATOM      4  C   UNL     1      10.585  39.885 151.878  1.00  0.00     0.041 C 
ATOM      5  O   UNL     1      10.058  40.175 152.984  1.00  0.00    -0.550 OA
ATOM      6  O   UNL     1       9.859  39.166 150.937  1.00  0.00    -0.550 OA
ENDBRANCH   3   4
ENDBRANCH   2   3
ENDBRANCH   1   2
BRANCH   1   7
ATOM      7  C   UNL     1      11.896  43.345 151.460  1.00  0.00     0.000 C 
BRANCH   7   8
ATOM      8  C   UNL     1      10.911  43.784 152.558  1.00  0.00    -0.000 C 
BRANCH   8   9
ATOM      9  C   UNL     1      11.294  43.345 153.984  1.00  0.00    -0.003 C 
ATOM     10  C   UNL     1      12.784  43.042 154.136  1.00  0.00     0.004 C 
ENDBRANCH   8   9
ENDBRANCH   7   8
ENDBRANCH   1   7
TORSDOF 6
ENDMDL
