MODEL 1
REMARK VINA RESULT:    -5.229      0.000      0.000
REMARK INTER + INTRA:         -10.333
REMARK INTER:                  -9.508
REMARK INTRA:                  -0.825
REMARK UNBOUND:                -0.825
REMARK SMILES CCCCCCCCCCCCCCCC(=O)[O-]
REMARK SMILES IDX 9 1 10 2 11 3 12 4 13 5 14 6 15 7 16 8 17 9 18 10 8 11 7 12
REMARK SMILES IDX 6 13 5 14 4 15 3 16 2 17 1 18
REMARK H PARENT
REMARK Flexibility Score: inf
ROOT
ATOM      1  C   UNL     1       6.241  56.098  21.337  1.00  0.00     0.000 C 
ENDROOT
BRANCH   1   2
ATOM      2  C   UNL     1       5.710  57.378  20.673  1.00  0.00     0.000 C 
BRANCH   2   3
ATOM      3  C   UNL     1       4.378  57.809  21.299  1.00  0.00     0.000 C 
BRANCH   3   4
ATOM      4  C   UNL     1       3.746  58.962  20.510  1.00  0.00     0.000 C 
BRANCH   4   5
ATOM      5  C   UNL     1       3.234  60.059  21.456  1.00  0.00     0.000 C 
BRANCH   5   6
ATOM      6  C   UNL     1       2.313  59.510  22.558  1.00  0.00     0.006 C 
BRANCH   6   7
ATOM      7  C   UNL     1       1.107  60.418  22.826  1.00  0.00     0.053 C 
BRANCH   7   8
ATOM      8  C   UNL     1       0.109  59.715  23.692  1.00  0.00     0.041 C 
ATOM      9  O   UNL     1       0.497  58.964  24.625  1.00  0.00    -0.550 OA
ATOM     10  O   UNL     1      -1.250  59.933  23.503  1.00  0.00    -0.550 OA
ENDBRANCH   7   8
ENDBRANCH   6   7
ENDBRANCH   5   6
ENDBRANCH   4   5
ENDBRANCH   3   4
ENDBRANCH   2   3
ENDBRANCH   1   2
BRANCH   1  11
ATOM     11  C   UNL     1       7.121  55.263  20.394  1.00  0.00     0.000 C 
BRANCH  11  12
ATOM     12  C   UNL     1       8.611  55.323  20.766  1.00  0.00    -0.000 C 
BRANCH  12  13
ATOM     13  C   UNL     1       9.184  53.913  20.963  1.00  0.00    -0.000 C 
BRANCH  13  14
ATOM     14  C   UNL     1      10.590  53.972  21.580  1.00  0.00    -0.000 C 
BRANCH  14  15
ATOM     15  C   UNL     1      10.652  53.336  22.978  1.00  0.00    -0.000 C 
BRANCH  15  16
ATOM     16  C   UNL     1      10.846  54.379  24.092  1.00  0.00    -0.000 C 
BRANCH  16  17
ATOM     17  C   UNL     1       9.517  54.982  24.572  1.00  0.00    -0.003 C 
ATOM     18  C   UNL     1       8.359  53.985  24.518  1.00  0.00     0.004 C 
ENDBRANCH  16  17
ENDBRANCH  15  16
ENDBRANCH  14  15
ENDBRANCH  13  14
ENDBRANCH  12  13
ENDBRANCH  11  12
ENDBRANCH   1  11
TORSDOF 14
ENDMDL
MODEL 2
REMARK VINA RESULT:    -5.172      3.241      3.891
REMARK INTER + INTRA:         -10.230
REMARK INTER:                  -9.530
REMARK INTRA:                  -0.699
REMARK UNBOUND:                -0.825
REMARK SMILES CCCCCCCCCCCCCCCC(=O)[O-]
REMARK SMILES IDX 9 1 10 2 11 3 12 4 13 5 14 6 15 7 16 8 17 9 18 10 8 11 7 12
REMARK SMILES IDX 6 13 5 14 4 15 3 16 2 17 1 18
REMARK H PARENT
REMARK Flexibility Score: inf
ROOT
ATOM      1  C   UNL     1       5.453  56.605  21.603  1.00  0.00     0.000 C 
ENDROOT
BRANCH   1   2
ATOM      2  C   UNL     1       5.134  57.735  20.613  1.00  0.00     0.000 C 
BRANCH   2   3
ATOM      3  C   UNL     1       3.764  58.357  20.912  1.00  0.00     0.000 C 
BRANCH   3   4
ATOM      4  C   UNL     1       3.581  59.678  20.156  1.00  0.00     0.000 C 
BRANCH   4   5
ATOM      5  C   UNL     1       2.261  59.683  19.370  1.00  0.00     0.000 C 
BRANCH   5   6
ATOM      6  C   UNL     1       2.428  60.207  17.935  1.00  0.00     0.006 C 
BRANCH   6   7
ATOM      7  C   UNL     1       1.132  60.800  17.367  1.00  0.00     0.053 C 
BRANCH   7   8
ATOM      8  C   UNL     1       0.496  59.840  16.412  1.00  0.00     0.041 C 
ATOM      9  O   UNL     1       1.211  59.122  15.664  1.00  0.00    -0.550 OA
ATOM     10  O   UNL     1      -0.886  59.699  16.385  1.00  0.00    -0.550 OA
ENDBRANCH   7   8
ENDBRANCH   6   7
ENDBRANCH   5   6
ENDBRANCH   4   5
ENDBRANCH   3   4
ENDBRANCH   2   3
ENDBRANCH   1   2
BRANCH   1  11
ATOM     11  C   UNL     1       6.935  56.202  21.585  1.00  0.00     0.000 C 
BRANCH  11  12
ATOM     12  C   UNL     1       7.530  56.195  20.169  1.00  0.00    -0.000 C 
BRANCH  12  13
ATOM     13  C   UNL     1       8.550  55.060  20.007  1.00  0.00    -0.000 C 
BRANCH  13  14
ATOM     14  C   UNL     1       8.771  54.325  21.338  1.00  0.00    -0.000 C 
BRANCH  14  15
ATOM     15  C   UNL     1       9.999  53.402  21.309  1.00  0.00    -0.000 C 
BRANCH  15  16
ATOM     16  C   UNL     1      10.938  53.633  22.506  1.00  0.00    -0.000 C 
BRANCH  16  17
ATOM     17  C   UNL     1      10.292  54.493  23.604  1.00  0.00    -0.003 C 
ATOM     18  C   UNL     1      11.208  54.703  24.810  1.00  0.00     0.004 C 
ENDBRANCH  16  17
ENDBRANCH  15  16
ENDBRANCH  14  15
ENDBRANCH  13  14
ENDBRANCH  12  13
ENDBRANCH  11  12
ENDBRANCH   1  11
TORSDOF 14
ENDMDL
MODEL 3
REMARK VINA RESULT:    -5.152      6.607     11.036
REMARK INTER + INTRA:         -10.193
REMARK INTER:                  -9.563
REMARK INTRA:                  -0.629
REMARK UNBOUND:                -0.825
REMARK SMILES CCCCCCCCCCCCCCCC(=O)[O-]
REMARK SMILES IDX 9 1 10 2 11 3 12 4 13 5 14 6 15 7 16 8 17 9 18 10 8 11 7 12
REMARK SMILES IDX 6 13 5 14 4 15 3 16 2 17 1 18
REMARK H PARENT
REMARK Flexibility Score: inf
ROOT
ATOM      1  C   UNL     1      10.634  52.375  22.737  1.00  0.00     0.000 C 
ENDROOT
BRANCH   1   2
ATOM      2  C   UNL     1      10.349  50.932  22.294  1.00  0.00     0.000 C 
BRANCH   2   3
ATOM      3  C   UNL     1      11.115  49.929  23.166  1.00  0.00     0.000 C 
BRANCH   3   4
ATOM      4  C   UNL     1      10.924  48.496  22.655  1.00  0.00     0.000 C 
BRANCH   4   5
ATOM      5  C   UNL     1      11.954  47.546  23.284  1.00  0.00     0.000 C 
BRANCH   5   6
ATOM      6  C   UNL     1      11.317  46.541  24.257  1.00  0.00     0.006 C 
BRANCH   6   7
ATOM      7  C   UNL     1      10.424  45.516  23.546  1.00  0.00     0.053 C 
BRANCH   7   8
ATOM      8  C   UNL     1       8.995  45.704  23.946  1.00  0.00     0.041 C 
ATOM      9  O   UNL     1       8.126  44.856  23.613  1.00  0.00    -0.550 OA
ATOM     10  O   UNL     1       8.630  46.787  24.736  1.00  0.00    -0.550 OA
ENDBRANCH   7   8
ENDBRANCH   6   7
ENDBRANCH   5   6
ENDBRANCH   4   5
ENDBRANCH   3   4
ENDBRANCH   2   3
ENDBRANCH   1   2
BRANCH   1  11
ATOM     11  C   UNL     1      10.396  53.398  21.615  1.00  0.00     0.000 C 
BRANCH  11  12
ATOM     12  C   UNL     1       9.700  54.673  22.114  1.00  0.00    -0.000 C 
BRANCH  12  13
ATOM     13  C   UNL     1       8.229  54.703  21.678  1.00  0.00    -0.000 C 
BRANCH  13  14
ATOM     14  C   UNL     1       7.830  56.102  21.184  1.00  0.00    -0.000 C 
BRANCH  14  15
ATOM     15  C   UNL     1       7.625  56.159  19.662  1.00  0.00    -0.000 C 
BRANCH  15  16
ATOM     16  C   UNL     1       8.061  54.861  18.960  1.00  0.00    -0.000 C 
BRANCH  16  17
ATOM     17  C   UNL     1       7.049  54.395  17.902  1.00  0.00    -0.003 C 
ATOM     18  C   UNL     1       7.003  55.313  16.680  1.00  0.00     0.004 C 
ENDBRANCH  16  17
ENDBRANCH  15  16
ENDBRANCH  14  15
ENDBRANCH  13  14
ENDBRANCH  12  13
ENDBRANCH  11  12
ENDBRANCH   1  11
TORSDOF 14
ENDMDL
MODEL 4
REMARK VINA RESULT:    -5.071      6.797     10.454
REMARK INTER + INTRA:         -10.046
REMARK INTER:                  -9.281
REMARK INTRA:                  -0.765
REMARK UNBOUND:                -0.825
REMARK SMILES CCCCCCCCCCCCCCCC(=O)[O-]
REMARK SMILES IDX 9 1 10 2 11 3 12 4 13 5 14 6 15 7 16 8 17 9 18 10 8 11 7 12
REMARK SMILES IDX 6 13 5 14 4 15 3 16 2 17 1 18
REMARK H PARENT
REMARK Flexibility Score: inf
ROOT
ATOM      1  C   UNL     1       9.692  53.971  21.211  1.00  0.00     0.000 C 
ENDROOT
BRANCH   1   2
ATOM      2  C   UNL     1      10.943  53.195  21.648  1.00  0.00     0.000 C 
BRANCH   2   3
ATOM      3  C   UNL     1      10.646  52.320  22.872  1.00  0.00     0.000 C 
BRANCH   3   4
ATOM      4  C   UNL     1      10.292  50.888  22.453  1.00  0.00     0.000 C 
BRANCH   4   5
ATOM      5  C   UNL     1      11.254  49.875  23.091  1.00  0.00     0.000 C 
BRANCH   5   6
ATOM      6  C   UNL     1      10.695  48.443  23.087  1.00  0.00     0.006 C 
BRANCH   6   7
ATOM      7  C   UNL     1      10.343  47.942  24.493  1.00  0.00     0.053 C 
BRANCH   7   8
ATOM      8  C   UNL     1      10.410  46.448  24.546  1.00  0.00     0.041 C 
ATOM      9  O   UNL     1      10.968  45.873  25.517  1.00  0.00    -0.550 OA
ATOM     10  O   UNL     1       9.808  45.689  23.550  1.00  0.00    -0.550 OA
ENDBRANCH   7   8
ENDBRANCH   6   7
ENDBRANCH   5   6
ENDBRANCH   4   5
ENDBRANCH   3   4
ENDBRANCH   2   3
ENDBRANCH   1   2
BRANCH   1  11
ATOM     11  C   UNL     1       9.113  54.844  22.335  1.00  0.00     0.000 C 
BRANCH  11  12
ATOM     12  C   UNL     1       7.695  54.419  22.744  1.00  0.00    -0.000 C 
BRANCH  12  13
ATOM     13  C   UNL     1       6.639  55.129  21.887  1.00  0.00    -0.000 C 
BRANCH  13  14
ATOM     14  C   UNL     1       7.213  56.408  21.257  1.00  0.00    -0.000 C 
BRANCH  14  15
ATOM     15  C   UNL     1       7.344  56.310  19.728  1.00  0.00    -0.000 C 
BRANCH  15  16
ATOM     16  C   UNL     1       6.920  54.933  19.188  1.00  0.00    -0.000 C 
BRANCH  16  17
ATOM     17  C   UNL     1       7.633  54.571  17.876  1.00  0.00    -0.003 C 
ATOM     18  C   UNL     1       6.949  55.166  16.645  1.00  0.00     0.004 C 
ENDBRANCH  16  17
ENDBRANCH  15  16
ENDBRANCH  14  15
ENDBRANCH  13  14
ENDBRANCH  12  13
ENDBRANCH  11  12
ENDBRANCH   1  11
TORSDOF 14
ENDMDL
MODEL 5
REMARK VINA RESULT:    -5.054      7.078     11.361
REMARK INTER + INTRA:         -10.015
REMARK INTER:                  -9.220
REMARK INTRA:                  -0.795
REMARK UNBOUND:                -0.825
REMARK SMILES CCCCCCCCCCCCCCCC(=O)[O-]
REMARK SMILES IDX 9 1 10 2 11 3 12 4 13 5 14 6 15 7 16 8 17 9 18 10 8 11 7 12
REMARK SMILES IDX 6 13 5 14 4 15 3 16 2 17 1 18
REMARK H PARENT
REMARK Flexibility Score: inf
ROOT
ATOM      1  C   UNL     1      10.633  51.996  22.827  1.00  0.00     0.000 C 
ENDROOT
BRANCH   1   2
ATOM      2  C   UNL     1      10.597  50.544  22.327  1.00  0.00     0.000 C 
BRANCH   2   3
ATOM      3  C   UNL     1      10.906  49.564  23.466  1.00  0.00     0.000 C 
BRANCH   3   4
ATOM      4  C   UNL     1      12.122  48.693  23.130  1.00  0.00     0.000 C 
BRANCH   4   5
ATOM      5  C   UNL     1      12.440  47.725  24.280  1.00  0.00     0.000 C 
BRANCH   5   6
ATOM      6  C   UNL     1      12.115  48.320  25.660  1.00  0.00     0.006 C 
BRANCH   6   7
ATOM      7  C   UNL     1      12.877  47.625  26.796  1.00  0.00     0.053 C 
BRANCH   7   8
ATOM      8  C   UNL     1      13.235  48.612  27.862  1.00  0.00     0.041 C 
ATOM      9  O   UNL     1      14.180  49.424  27.682  1.00  0.00    -0.550 OA
ATOM     10  O   UNL     1      12.489  48.672  29.033  1.00  0.00    -0.550 OA
ENDBRANCH   7   8
ENDBRANCH   6   7
ENDBRANCH   5   6
ENDBRANCH   4   5
ENDBRANCH   3   4
ENDBRANCH   2   3
ENDBRANCH   1   2
BRANCH   1  11
ATOM     11  C   UNL     1      10.130  52.997  21.775  1.00  0.00     0.000 C 
BRANCH  11  12
ATOM     12  C   UNL     1       9.794  54.371  22.377  1.00  0.00    -0.000 C 
BRANCH  12  13
ATOM     13  C   UNL     1       8.357  54.398  22.913  1.00  0.00    -0.000 C 
BRANCH  13  14
ATOM     14  C   UNL     1       7.368  54.813  21.812  1.00  0.00    -0.000 C 
BRANCH  14  15
ATOM     15  C   UNL     1       7.732  56.157  21.162  1.00  0.00    -0.000 C 
BRANCH  15  16
ATOM     16  C   UNL     1       8.018  56.025  19.656  1.00  0.00    -0.000 C 
BRANCH  16  17
ATOM     17  C   UNL     1       7.323  54.806  19.029  1.00  0.00    -0.003 C 
ATOM     18  C   UNL     1       7.309  54.852  17.501  1.00  0.00     0.004 C 
ENDBRANCH  16  17
ENDBRANCH  15  16
ENDBRANCH  14  15
ENDBRANCH  13  14
ENDBRANCH  12  13
ENDBRANCH  11  12
ENDBRANCH   1  11
TORSDOF 14
ENDMDL
MODEL 6
REMARK VINA RESULT:    -5.038      4.103      9.209
REMARK INTER + INTRA:          -9.986
REMARK INTER:                  -9.186
REMARK INTRA:                  -0.800
REMARK UNBOUND:                -0.825
REMARK SMILES CCCCCCCCCCCCCCCC(=O)[O-]
REMARK SMILES IDX 9 1 10 2 11 3 12 4 13 5 14 6 15 7 16 8 17 9 18 10 8 11 7 12
REMARK SMILES IDX 6 13 5 14 4 15 3 16 2 17 1 18
REMARK H PARENT
REMARK Flexibility Score: inf
ROOT
ATOM      1  C   UNL     1       6.060  56.285  21.273  1.00  0.00     0.000 C 
ENDROOT
BRANCH   1   2
ATOM      2  C   UNL     1       6.813  56.961  20.117  1.00  0.00     0.000 C 
BRANCH   2   3
ATOM      3  C   UNL     1       8.134  56.237  19.825  1.00  0.00     0.000 C 
BRANCH   3   4
ATOM      4  C   UNL     1       8.731  55.641  21.105  1.00  0.00     0.000 C 
BRANCH   4   5
ATOM      5  C   UNL     1       9.153  54.181  20.886  1.00  0.00     0.000 C 
BRANCH   5   6
ATOM      6  C   UNL     1       9.286  53.398  22.203  1.00  0.00     0.006 C 
BRANCH   6   7
ATOM      7  C   UNL     1      10.638  53.625  22.891  1.00  0.00     0.053 C 
BRANCH   7   8
ATOM      8  C   UNL     1      10.453  54.384  24.166  1.00  0.00     0.041 C 
ATOM      9  O   UNL     1       9.295  54.639  24.589  1.00  0.00    -0.550 OA
ATOM     10  O   UNL     1      11.558  54.764  24.917  1.00  0.00    -0.550 OA
ENDBRANCH   7   8
ENDBRANCH   6   7
ENDBRANCH   5   6
ENDBRANCH   4   5
ENDBRANCH   3   4
ENDBRANCH   2   3
ENDBRANCH   1   2
BRANCH   1  11
ATOM     11  C   UNL     1       4.795  57.053  21.686  1.00  0.00     0.000 C 
BRANCH  11  12
ATOM     12  C   UNL     1       4.484  58.229  20.747  1.00  0.00    -0.000 C 
BRANCH  12  13
ATOM     13  C   UNL     1       3.176  58.923  21.151  1.00  0.00    -0.000 C 
BRANCH  13  14
ATOM     14  C   UNL     1       3.146  60.375  20.649  1.00  0.00    -0.000 C 
BRANCH  14  15
ATOM     15  C   UNL     1       3.335  60.480  19.127  1.00  0.00    -0.000 C 
BRANCH  15  16
ATOM     16  C   UNL     1       2.063  60.102  18.347  1.00  0.00    -0.000 C 
BRANCH  16  17
ATOM     17  C   UNL     1       2.231  60.272  16.830  1.00  0.00    -0.003 C 
ATOM     18  C   UNL     1       1.164  59.526  16.027  1.00  0.00     0.004 C 
ENDBRANCH  16  17
ENDBRANCH  15  16
ENDBRANCH  14  15
ENDBRANCH  13  14
ENDBRANCH  12  13
ENDBRANCH  11  12
ENDBRANCH   1  11
TORSDOF 14
ENDMDL
MODEL 7
REMARK VINA RESULT:    -5.014      4.701      9.752
REMARK INTER + INTRA:          -9.943
REMARK INTER:                  -9.271
REMARK INTRA:                  -0.672
REMARK UNBOUND:                -0.825
REMARK SMILES CCCCCCCCCCCCCCCC(=O)[O-]
REMARK SMILES IDX 9 1 10 2 11 3 12 4 13 5 14 6 15 7 16 8 17 9 18 10 8 11 7 12
REMARK SMILES IDX 6 13 5 14 4 15 3 16 2 17 1 18
REMARK H PARENT
REMARK Flexibility Score: inf
ROOT
ATOM      1  C   UNL     1       4.223  58.113  20.850  1.00  0.00     0.000 C 
ENDROOT
BRANCH   1   2
ATOM      2  C   UNL     1       5.134  57.077  21.525  1.00  0.00     0.000 C 
BRANCH   2   3
ATOM      3  C   UNL     1       6.463  56.940  20.771  1.00  0.00     0.000 C 
BRANCH   3   4
ATOM      4  C   UNL     1       6.787  55.468  20.488  1.00  0.00     0.000 C 
BRANCH   4   5
ATOM      5  C   UNL     1       8.260  55.298  20.086  1.00  0.00     0.000 C 
BRANCH   5   6
ATOM      6  C   UNL     1       8.988  54.243  20.935  1.00  0.00     0.006 C 
BRANCH   6   7
ATOM      7  C   UNL     1       9.379  54.769  22.322  1.00  0.00     0.053 C 
BRANCH   7   8
ATOM      8  C   UNL     1      10.490  53.947  22.896  1.00  0.00     0.041 C 
ATOM      9  O   UNL     1      10.972  52.987  22.241  1.00  0.00    -0.550 OA
ATOM     10  O   UNL     1      11.030  54.276  24.133  1.00  0.00    -0.550 OA
ENDBRANCH   7   8
ENDBRANCH   6   7
ENDBRANCH   5   6
ENDBRANCH   4   5
ENDBRANCH   3   4
ENDBRANCH   2   3
ENDBRANCH   1   2
BRANCH   1  11
ATOM     11  C   UNL     1       3.421  58.946  21.862  1.00  0.00     0.000 C 
BRANCH  11  12
ATOM     12  C   UNL     1       3.101  60.357  21.347  1.00  0.00    -0.000 C 
BRANCH  12  13
ATOM     13  C   UNL     1       3.137  60.404  19.814  1.00  0.00    -0.000 C 
BRANCH  13  14
ATOM     14  C   UNL     1       2.157  61.456  19.272  1.00  0.00    -0.000 C 
BRANCH  14  15
ATOM     15  C   UNL     1       1.137  60.865  18.286  1.00  0.00    -0.000 C 
BRANCH  15  16
ATOM     16  C   UNL     1       1.783  59.896  17.280  1.00  0.00    -0.000 C 
BRANCH  16  17
ATOM     17  C   UNL     1       0.867  59.592  16.085  1.00  0.00    -0.003 C 
ATOM     18  C   UNL     1      -0.614  59.794  16.406  1.00  0.00     0.004 C 
ENDBRANCH  16  17
ENDBRANCH  15  16
ENDBRANCH  14  15
ENDBRANCH  13  14
ENDBRANCH  12  13
ENDBRANCH  11  12
ENDBRANCH   1  11
TORSDOF 14
ENDMDL
MODEL 8
REMARK VINA RESULT:    -5.013      4.389      9.010
REMARK INTER + INTRA:          -9.941
REMARK INTER:                  -9.064
REMARK INTRA:                  -0.877
REMARK UNBOUND:                -0.825
REMARK SMILES CCCCCCCCCCCCCCCC(=O)[O-]
REMARK SMILES IDX 9 1 10 2 11 3 12 4 13 5 14 6 15 7 16 8 17 9 18 10 8 11 7 12
REMARK SMILES IDX 6 13 5 14 4 15 3 16 2 17 1 18
REMARK H PARENT
REMARK Flexibility Score: inf
ROOT
ATOM      1  C   UNL     1       5.554  57.436  21.151  1.00  0.00     0.000 C 
ENDROOT
BRANCH   1   2
ATOM      2  C   UNL     1       5.682  55.917  21.342  1.00  0.00     0.000 C 
BRANCH   2   3
ATOM      3  C   UNL     1       6.838  55.354  20.505  1.00  0.00     0.000 C 
BRANCH   3   4
ATOM      4  C   UNL     1       7.827  54.577  21.382  1.00  0.00     0.000 C 
BRANCH   4   5
ATOM      5  C   UNL     1       7.240  54.322  22.778  1.00  0.00     0.000 C 
BRANCH   5   6
ATOM      6  C   UNL     1       8.290  53.807  23.776  1.00  0.00     0.006 C 
BRANCH   6   7
ATOM      7  C   UNL     1       9.324  54.877  24.150  1.00  0.00     0.053 C 
BRANCH   7   8
ATOM      8  C   UNL     1      10.711  54.341  23.984  1.00  0.00     0.041 C 
ATOM      9  O   UNL     1      11.003  53.637  22.982  1.00  0.00    -0.550 OA
ATOM     10  O   UNL     1      11.697  54.665  24.908  1.00  0.00    -0.550 OA
ENDBRANCH   7   8
ENDBRANCH   6   7
ENDBRANCH   5   6
ENDBRANCH   4   5
ENDBRANCH   3   4
ENDBRANCH   2   3
ENDBRANCH   1   2
BRANCH   1  11
ATOM     11  C   UNL     1       4.103  57.928  21.270  1.00  0.00     0.000 C 
BRANCH  11  12
ATOM     12  C   UNL     1       3.785  59.075  20.299  1.00  0.00    -0.000 C 
BRANCH  12  13
ATOM     13  C   UNL     1       3.167  60.267  21.041  1.00  0.00    -0.000 C 
BRANCH  13  14
ATOM     14  C   UNL     1       2.651  59.845  22.426  1.00  0.00    -0.000 C 
BRANCH  14  15
ATOM     15  C   UNL     1       1.296  60.483  22.774  1.00  0.00    -0.000 C 
BRANCH  15  16
ATOM     16  C   UNL     1       0.130  59.485  22.667  1.00  0.00    -0.000 C 
BRANCH  16  17
ATOM     17  C   UNL     1       0.201  58.380  23.732  1.00  0.00    -0.003 C 
ATOM     18  C   UNL     1      -0.130  58.888  25.136  1.00  0.00     0.004 C 
ENDBRANCH  16  17
ENDBRANCH  15  16
ENDBRANCH  14  15
ENDBRANCH  13  14
ENDBRANCH  12  13
ENDBRANCH  11  12
ENDBRANCH   1  11
TORSDOF 14
ENDMDL
MODEL 9
REMARK VINA RESULT:    -4.940      1.182      2.246
REMARK INTER + INTRA:          -9.808
REMARK INTER:                  -8.883
REMARK INTRA:                  -0.925
REMARK UNBOUND:                -0.825
REMARK SMILES CCCCCCCCCCCCCCCC(=O)[O-]
REMARK SMILES IDX 9 1 10 2 11 3 12 4 13 5 14 6 15 7 16 8 17 9 18 10 8 11 7 12
REMARK SMILES IDX 6 13 5 14 4 15 3 16 2 17 1 18
REMARK H PARENT
REMARK Flexibility Score: inf
ROOT
ATOM      1  C   UNL     1       4.972  57.696  20.728  1.00  0.00     0.000 C 
ENDROOT
BRANCH   1   2
ATOM      2  C   UNL     1       3.811  58.487  21.348  1.00  0.00     0.000 C 
BRANCH   2   3
ATOM      3  C   UNL     1       2.832  58.963  20.268  1.00  0.00     0.000 C 
BRANCH   3   4
ATOM      4  C   UNL     1       1.997  60.149  20.764  1.00  0.00     0.000 C 
BRANCH   4   5
ATOM      5  C   UNL     1       2.123  60.312  22.286  1.00  0.00     0.000 C 
BRANCH   5   6
ATOM      6  C   UNL     1       0.764  60.262  23.002  1.00  0.00     0.006 C 
BRANCH   6   7
ATOM      7  C   UNL     1       0.629  59.048  23.931  1.00  0.00     0.053 C 
BRANCH   7   8
ATOM      8  C   UNL     1      -0.235  58.003  23.300  1.00  0.00     0.041 C 
ATOM      9  O   UNL     1      -0.455  56.917  23.897  1.00  0.00    -0.550 OA
ATOM     10  O   UNL     1      -0.843  58.250  22.075  1.00  0.00    -0.550 OA
ENDBRANCH   7   8
ENDBRANCH   6   7
ENDBRANCH   5   6
ENDBRANCH   4   5
ENDBRANCH   3   4
ENDBRANCH   2   3
ENDBRANCH   1   2
BRANCH   1  11
ATOM     11  C   UNL     1       5.454  56.547  21.627  1.00  0.00     0.000 C 
BRANCH  11  12
ATOM     12  C   UNL     1       6.350  55.547  20.881  1.00  0.00    -0.000 C 
BRANCH  12  13
ATOM     13  C   UNL     1       7.506  56.266  20.173  1.00  0.00    -0.000 C 
BRANCH  13  14
ATOM     14  C   UNL     1       8.785  55.416  20.206  1.00  0.00    -0.000 C 
BRANCH  14  15
ATOM     15  C   UNL     1       8.815  54.433  21.387  1.00  0.00    -0.000 C 
BRANCH  15  16
ATOM     16  C   UNL     1      10.219  53.854  21.637  1.00  0.00    -0.000 C 
BRANCH  16  17
ATOM     17  C   UNL     1      10.697  54.072  23.080  1.00  0.00    -0.003 C 
ATOM     18  C   UNL     1       9.822  55.059  23.853  1.00  0.00     0.004 C 
ENDBRANCH  16  17
ENDBRANCH  15  16
ENDBRANCH  14  15
ENDBRANCH  13  14
ENDBRANCH  12  13
ENDBRANCH  11  12
ENDBRANCH   1  11
TORSDOF 14
ENDMDL
