MODEL 1
REMARK VINA RESULT:    -4.160      0.000      0.000
REMARK INTER + INTRA:          -5.001
REMARK INTER:                  -4.889
REMARK INTRA:                  -0.111
REMARK UNBOUND:                -0.111
REMARK SMILES O=C([O-])CCC(=O)[O-]
REMARK SMILES IDX 4 1 2 2 1 3 3 4 5 5 6 6 7 7 8 8
REMARK H PARENT
REMARK Flexibility Score: inf
ROOT
ATOM      1  C   UNL     1      17.695  22.530  42.835  1.00  0.00     0.059 C 
ENDROOT
BRANCH   1   2
ATOM      2  C   UNL     1      18.999  23.258  42.923  1.00  0.00     0.042 C 
ATOM      3  O   UNL     1      19.243  24.002  43.909  1.00  0.00    -0.550 OA
ATOM      4  O   UNL     1      19.965  23.075  41.943  1.00  0.00    -0.550 OA
ENDBRANCH   1   2
BRANCH   1   5
ATOM      5  C   UNL     1      17.760  21.217  43.616  1.00  0.00     0.059 C 
BRANCH   5   6
ATOM      6  C   UNL     1      17.837  20.054  42.679  1.00  0.00     0.042 C 
ATOM      7  O   UNL     1      17.583  18.891  43.090  1.00  0.00    -0.550 OA
ATOM      8  O   UNL     1      18.141  20.259  41.339  1.00  0.00    -0.550 OA
ENDBRANCH   5   6
ENDBRANCH   1   5
TORSDOF 3
ENDMDL
MODEL 2
REMARK VINA RESULT:    -4.148      0.152      3.852
REMARK INTER + INTRA:          -4.987
REMARK INTER:                  -4.881
REMARK INTRA:                  -0.106
REMARK UNBOUND:                -0.111
REMARK SMILES O=C([O-])CCC(=O)[O-]
REMARK SMILES IDX 4 1 2 2 1 3 3 4 5 5 6 6 7 7 8 8
REMARK H PARENT
REMARK Flexibility Score: inf
ROOT
ATOM      1  C   UNL     1      17.923  21.210  43.605  1.00  0.00     0.059 C 
ENDROOT
BRANCH   1   2
ATOM      2  C   UNL     1      17.842  20.046  42.668  1.00  0.00     0.042 C 
ATOM      3  O   UNL     1      18.126  20.193  41.450  1.00  0.00    -0.550 OA
ATOM      4  O   UNL     1      17.501  18.789  43.149  1.00  0.00    -0.550 OA
ENDBRANCH   1   2
BRANCH   1   5
ATOM      5  C   UNL     1      17.718  22.523  42.847  1.00  0.00     0.059 C 
BRANCH   5   6
ATOM      6  C   UNL     1      18.962  23.352  42.890  1.00  0.00     0.042 C 
ATOM      7  O   UNL     1      19.244  24.018  43.920  1.00  0.00    -0.550 OA
ATOM      8  O   UNL     1      19.838  23.349  41.811  1.00  0.00    -0.550 OA
ENDBRANCH   5   6
ENDBRANCH   1   5
TORSDOF 3
ENDMDL
MODEL 3
REMARK VINA RESULT:    -4.056      1.528      3.989
REMARK INTER + INTRA:          -4.879
REMARK INTER:                  -4.846
REMARK INTRA:                  -0.033
REMARK UNBOUND:                -0.111
REMARK SMILES O=C([O-])CCC(=O)[O-]
REMARK SMILES IDX 4 1 2 2 1 3 3 4 5 5 6 6 7 7 8 8
REMARK H PARENT
REMARK Flexibility Score: inf
ROOT
ATOM      1  C   UNL     1      18.393  21.869  42.785  1.00  0.00     0.059 C 
ENDROOT
BRANCH   1   2
ATOM      2  C   UNL     1      17.610  20.597  42.849  1.00  0.00     0.042 C 
ATOM      3  O   UNL     1      16.457  20.587  43.357  1.00  0.00    -0.550 OA
ATOM      4  O   UNL     1      18.131  19.431  42.304  1.00  0.00    -0.550 OA
ENDBRANCH   1   2
BRANCH   1   5
ATOM      5  C   UNL     1      18.993  22.059  41.391  1.00  0.00     0.059 C 
BRANCH   5   6
ATOM      6  C   UNL     1      19.729  23.359  41.310  1.00  0.00     0.042 C 
ATOM      7  O   UNL     1      20.586  23.547  40.407  1.00  0.00    -0.550 OA
ATOM      8  O   UNL     1      19.434  24.382  42.203  1.00  0.00    -0.550 OA
ENDBRANCH   5   6
ENDBRANCH   1   5
TORSDOF 3
ENDMDL
MODEL 4
REMARK VINA RESULT:    -4.047      1.546      1.660
REMARK INTER + INTRA:          -4.868
REMARK INTER:                  -4.833
REMARK INTRA:                  -0.035
REMARK UNBOUND:                -0.111
REMARK SMILES O=C([O-])CCC(=O)[O-]
REMARK SMILES IDX 4 1 2 2 1 3 3 4 5 5 6 6 7 7 8 8
REMARK H PARENT
REMARK Flexibility Score: inf
ROOT
ATOM      1  C   UNL     1      19.003  22.053  41.358  1.00  0.00     0.059 C 
ENDROOT
BRANCH   1   2
ATOM      2  C   UNL     1      19.732  23.355  41.261  1.00  0.00     0.042 C 
ATOM      3  O   UNL     1      19.503  24.273  42.093  1.00  0.00    -0.550 OA
ATOM      4  O   UNL     1      20.701  23.539  40.284  1.00  0.00    -0.550 OA
ENDBRANCH   1   2
BRANCH   1   5
ATOM      5  C   UNL     1      18.400  21.879  42.754  1.00  0.00     0.059 C 
BRANCH   5   6
ATOM      6  C   UNL     1      17.624  20.603  42.834  1.00  0.00     0.042 C 
ATOM      7  O   UNL     1      16.485  20.587  43.368  1.00  0.00    -0.550 OA
ATOM      8  O   UNL     1      18.138  19.440  42.273  1.00  0.00    -0.550 OA
ENDBRANCH   5   6
ENDBRANCH   1   5
TORSDOF 3
ENDMDL
MODEL 5
REMARK VINA RESULT:    -3.795      1.840      3.834
REMARK INTER + INTRA:          -4.572
REMARK INTER:                  -4.529
REMARK INTRA:                  -0.043
REMARK UNBOUND:                -0.111
REMARK SMILES O=C([O-])CCC(=O)[O-]
REMARK SMILES IDX 4 1 2 2 1 3 3 4 5 5 6 6 7 7 8 8
REMARK H PARENT
REMARK Flexibility Score: inf
ROOT
ATOM      1  C   UNL     1      18.176  20.936  41.532  1.00  0.00     0.059 C 
ENDROOT
BRANCH   1   2
ATOM      2  C   UNL     1      17.715  20.406  42.853  1.00  0.00     0.042 C 
ATOM      3  O   UNL     1      17.647  19.164  43.048  1.00  0.00    -0.550 OA
ATOM      4  O   UNL     1      17.409  21.282  43.886  1.00  0.00    -0.550 OA
ENDBRANCH   1   2
BRANCH   1   5
ATOM      5  C   UNL     1      18.862  22.291  41.709  1.00  0.00     0.059 C 
BRANCH   5   6
ATOM      6  C   UNL     1      19.933  22.474  40.680  1.00  0.00     0.042 C 
ATOM      7  O   UNL     1      20.146  21.579  39.821  1.00  0.00    -0.550 OA
ATOM      8  O   UNL     1      20.663  23.656  40.639  1.00  0.00    -0.550 OA
ENDBRANCH   5   6
ENDBRANCH   1   5
TORSDOF 3
ENDMDL
MODEL 6
REMARK VINA RESULT:    -3.706      2.328      3.528
REMARK INTER + INTRA:          -4.467
REMARK INTER:                  -4.426
REMARK INTRA:                  -0.041
REMARK UNBOUND:                -0.111
REMARK SMILES O=C([O-])CCC(=O)[O-]
REMARK SMILES IDX 4 1 2 2 1 3 3 4 5 5 6 6 7 7 8 8
REMARK H PARENT
REMARK Flexibility Score: inf
ROOT
ATOM      1  C   UNL     1      19.944  23.423  41.278  1.00  0.00     0.059 C 
ENDROOT
BRANCH   1   2
ATOM      2  C   UNL     1      20.756  23.001  40.094  1.00  0.00     0.042 C 
ATOM      3  O   UNL     1      20.688  21.817  39.669  1.00  0.00    -0.550 OA
ATOM      4  O   UNL     1      21.549  23.927  39.429  1.00  0.00    -0.550 OA
ENDBRANCH   1   2
BRANCH   1   5
ATOM      5  C   UNL     1      18.984  22.308  41.693  1.00  0.00     0.059 C 
BRANCH   5   6
ATOM      6  C   UNL     1      18.394  22.599  43.037  1.00  0.00     0.042 C 
ATOM      7  O   UNL     1      18.346  23.781  43.466  1.00  0.00    -0.550 OA
ATOM      8  O   UNL     1      17.851  21.569  43.796  1.00  0.00    -0.550 OA
ENDBRANCH   5   6
ENDBRANCH   1   5
TORSDOF 3
ENDMDL
MODEL 7
REMARK VINA RESULT:    -3.648      2.361      4.239
REMARK INTER + INTRA:          -4.399
REMARK INTER:                  -4.365
REMARK INTRA:                  -0.034
REMARK UNBOUND:                -0.111
REMARK SMILES O=C([O-])CCC(=O)[O-]
REMARK SMILES IDX 4 1 2 2 1 3 3 4 5 5 6 6 7 7 8 8
REMARK H PARENT
REMARK Flexibility Score: inf
ROOT
ATOM      1  C   UNL     1      19.081  21.893  40.878  1.00  0.00     0.059 C 
ENDROOT
BRANCH   1   2
ATOM      2  C   UNL     1      18.361  21.307  42.051  1.00  0.00     0.042 C 
ATOM      3  O   UNL     1      18.010  20.098  42.039  1.00  0.00    -0.550 OA
ATOM      4  O   UNL     1      18.122  22.082  43.178  1.00  0.00    -0.550 OA
ENDBRANCH   1   2
BRANCH   1   5
ATOM      5  C   UNL     1      19.952  23.071  41.317  1.00  0.00     0.059 C 
BRANCH   5   6
ATOM      6  C   UNL     1      21.160  23.184  40.442  1.00  0.00     0.042 C 
ATOM      7  O   UNL     1      22.240  22.634  40.780  1.00  0.00    -0.550 OA
ATOM      8  O   UNL     1      21.079  23.856  39.229  1.00  0.00    -0.550 OA
ENDBRANCH   5   6
ENDBRANCH   1   5
TORSDOF 3
ENDMDL
MODEL 8
REMARK VINA RESULT:    -3.430     12.036     13.134
REMARK INTER + INTRA:          -4.143
REMARK INTER:                  -4.035
REMARK INTRA:                  -0.108
REMARK UNBOUND:                -0.111
REMARK SMILES O=C([O-])CCC(=O)[O-]
REMARK SMILES IDX 4 1 2 2 1 3 3 4 5 5 6 6 7 7 8 8
REMARK H PARENT
REMARK Flexibility Score: inf
ROOT
ATOM      1  C   UNL     1      13.019  13.926  35.622  1.00  0.00     0.059 C 
ENDROOT
BRANCH   1   2
ATOM      2  C   UNL     1      12.839  12.879  36.674  1.00  0.00     0.042 C 
ATOM      3  O   UNL     1      13.837  12.257  37.127  1.00  0.00    -0.550 OA
ATOM      4  O   UNL     1      11.576  12.622  37.192  1.00  0.00    -0.550 OA
ENDBRANCH   1   2
BRANCH   1   5
ATOM      5  C   UNL     1      12.541  13.410  34.264  1.00  0.00     0.059 C 
BRANCH   5   6
ATOM      6  C   UNL     1      13.635  12.659  33.574  1.00  0.00     0.042 C 
ATOM      7  O   UNL     1      14.838  12.866  33.883  1.00  0.00    -0.550 OA
ATOM      8  O   UNL     1      13.325  11.695  32.624  1.00  0.00    -0.550 OA
ENDBRANCH   5   6
ENDBRANCH   1   5
TORSDOF 3
ENDMDL
MODEL 9
REMARK VINA RESULT:    -3.415     12.013     13.136
REMARK INTER + INTRA:          -4.125
REMARK INTER:                  -3.998
REMARK INTRA:                  -0.127
REMARK UNBOUND:                -0.111
REMARK SMILES O=C([O-])CCC(=O)[O-]
REMARK SMILES IDX 4 1 2 2 1 3 3 4 5 5 6 6 7 7 8 8
REMARK H PARENT
REMARK Flexibility Score: inf
ROOT
ATOM      1  C   UNL     1      12.655  13.392  34.201  1.00  0.00     0.059 C 
ENDROOT
BRANCH   1   2
ATOM      2  C   UNL     1      13.719  12.542  33.583  1.00  0.00     0.042 C 
ATOM      3  O   UNL     1      13.406  11.601  32.806  1.00  0.00    -0.550 OA
ATOM      4  O   UNL     1      15.058  12.818  33.824  1.00  0.00    -0.550 OA
ENDBRANCH   1   2
BRANCH   1   5
ATOM      5  C   UNL     1      13.124  13.940  35.550  1.00  0.00     0.059 C 
BRANCH   5   6
ATOM      6  C   UNL     1      12.948  12.912  36.622  1.00  0.00     0.042 C 
ATOM      7  O   UNL     1      13.944  12.286  37.070  1.00  0.00    -0.550 OA
ATOM      8  O   UNL     1      11.690  12.681  37.164  1.00  0.00    -0.550 OA
ENDBRANCH   5   6
ENDBRANCH   1   5
TORSDOF 3
ENDMDL
