MODEL 1
REMARK VINA RESULT:    -2.912      0.000      0.000
REMARK INTER + INTRA:          -2.912
REMARK INTER:                  -2.912
REMARK INTRA:                   0.000
REMARK UNBOUND:                 0.000
REMARK SMILES CC(=O)[O-]
REMARK SMILES IDX 1 1 2 2 3 3 4 4
REMARK H PARENT
REMARK Flexibility Score: inf
ROOT
ATOM      1  C   UNL     1      -5.758   2.471  -1.604  1.00  0.00     0.063 C 
ATOM      2  C   UNL     1      -5.798   1.728  -2.895  1.00  0.00     0.038 C 
ATOM      3  O   UNL     1      -6.890   1.572  -3.501  1.00  0.00    -0.550 OA
ATOM      4  O   UNL     1      -4.622   1.252  -3.461  1.00  0.00    -0.550 OA
ENDROOT
TORSDOF 0
ENDMDL
MODEL 2
REMARK VINA RESULT:    -2.759      1.435      2.140
REMARK INTER + INTRA:          -2.759
REMARK INTER:                  -2.759
REMARK INTRA:                   0.000
REMARK UNBOUND:                 0.000
REMARK SMILES CC(=O)[O-]
REMARK SMILES IDX 1 1 2 2 3 3 4 4
REMARK H PARENT
REMARK Flexibility Score: inf
ROOT
ATOM      1  C   UNL     1      -4.126   0.807  -3.416  1.00  0.00     0.063 C 
ATOM      2  C   UNL     1      -5.341   1.509  -2.914  1.00  0.00     0.038 C 
ATOM      3  O   UNL     1      -5.289   2.180  -1.851  1.00  0.00    -0.550 OA
ATOM      4  O   UNL     1      -6.521   1.470  -3.647  1.00  0.00    -0.550 OA
ENDROOT
TORSDOF 0
ENDMDL
MODEL 3
REMARK VINA RESULT:    -2.354     12.821     13.423
REMARK INTER + INTRA:          -2.354
REMARK INTER:                  -2.354
REMARK INTRA:                   0.000
REMARK UNBOUND:                 0.000
REMARK SMILES CC(=O)[O-]
REMARK SMILES IDX 1 1 2 2 3 3 4 4
REMARK H PARENT
REMARK Flexibility Score: inf
ROOT
ATOM      1  C   UNL     1       6.676   8.397  -2.353  1.00  0.00     0.063 C 
ATOM      2  C   UNL     1       6.458   7.041  -2.932  1.00  0.00     0.038 C 
ATOM      3  O   UNL     1       7.436   6.364  -3.343  1.00  0.00    -0.550 OA
ATOM      4  O   UNL     1       5.179   6.498  -2.972  1.00  0.00    -0.550 OA
ENDROOT
TORSDOF 0
ENDMDL
MODEL 4
REMARK VINA RESULT:    -2.151     14.232     14.759
REMARK INTER + INTRA:          -2.151
REMARK INTER:                  -2.151
REMARK INTRA:                   0.000
REMARK UNBOUND:                 0.000
REMARK SMILES CC(=O)[O-]
REMARK SMILES IDX 1 1 2 2 3 3 4 4
REMARK H PARENT
REMARK Flexibility Score: inf
ROOT
ATOM      1  C   UNL     1       7.989   7.858  -1.882  1.00  0.00     0.063 C 
ATOM      2  C   UNL     1       8.026   6.889  -3.014  1.00  0.00     0.038 C 
ATOM      3  O   UNL     1       7.018   6.183  -3.276  1.00  0.00    -0.550 OA
ATOM      4  O   UNL     1       9.157   6.800  -3.818  1.00  0.00    -0.550 OA
ENDROOT
TORSDOF 0
ENDMDL
MODEL 5
REMARK VINA RESULT:    -2.077     12.103     12.623
REMARK INTER + INTRA:          -2.077
REMARK INTER:                  -2.077
REMARK INTRA:                   0.000
REMARK UNBOUND:                 0.000
REMARK SMILES CC(=O)[O-]
REMARK SMILES IDX 1 1 2 2 3 3 4 4
REMARK H PARENT
REMARK Flexibility Score: inf
ROOT
ATOM      1  C   UNL     1       4.124   8.264  -3.794  1.00  0.00     0.063 C 
ATOM      2  C   UNL     1       5.268   7.702  -3.022  1.00  0.00     0.038 C 
ATOM      3  O   UNL     1       5.938   8.442  -2.256  1.00  0.00    -0.550 OA
ATOM      4  O   UNL     1       5.567   6.347  -3.106  1.00  0.00    -0.550 OA
ENDROOT
TORSDOF 0
ENDMDL
MODEL 6
REMARK VINA RESULT:    -2.054     11.875     12.315
REMARK INTER + INTRA:          -2.054
REMARK INTER:                  -2.054
REMARK INTRA:                   0.000
REMARK UNBOUND:                 0.000
REMARK SMILES CC(=O)[O-]
REMARK SMILES IDX 1 1 2 2 3 3 4 4
REMARK H PARENT
REMARK Flexibility Score: inf
ROOT
ATOM      1  C   UNL     1       4.988   7.190  -2.852  1.00  0.00     0.063 C 
ATOM      2  C   UNL     1       4.671   8.065  -4.016  1.00  0.00     0.038 C 
ATOM      3  O   UNL     1       3.524   8.569  -4.135  1.00  0.00    -0.550 OA
ATOM      4  O   UNL     1       5.657   8.370  -4.946  1.00  0.00    -0.550 OA
ENDROOT
TORSDOF 0
ENDMDL
MODEL 7
REMARK VINA RESULT:    -2.009     13.966     14.149
REMARK INTER + INTRA:          -2.009
REMARK INTER:                  -2.009
REMARK INTRA:                   0.000
REMARK UNBOUND:                 0.000
REMARK SMILES CC(=O)[O-]
REMARK SMILES IDX 1 1 2 2 3 3 4 4
REMARK H PARENT
REMARK Flexibility Score: inf
ROOT
ATOM      1  C   UNL     1      -3.553  -7.484   5.933  1.00  0.00     0.063 C 
ATOM      2  C   UNL     1      -3.829  -7.675   7.385  1.00  0.00     0.038 C 
ATOM      3  O   UNL     1      -4.993  -7.514   7.834  1.00  0.00    -0.550 OA
ATOM      4  O   UNL     1      -2.812  -8.084   8.239  1.00  0.00    -0.550 OA
ENDROOT
TORSDOF 0
ENDMDL
MODEL 8
REMARK VINA RESULT:    -1.922     13.865     14.096
REMARK INTER + INTRA:          -1.922
REMARK INTER:                  -1.922
REMARK INTRA:                   0.000
REMARK UNBOUND:                 0.000
REMARK SMILES CC(=O)[O-]
REMARK SMILES IDX 1 1 2 2 3 3 4 4
REMARK H PARENT
REMARK Flexibility Score: inf
ROOT
ATOM      1  C   UNL     1      -2.836  -8.802   7.645  1.00  0.00     0.063 C 
ATOM      2  C   UNL     1      -3.789  -7.845   7.013  1.00  0.00     0.038 C 
ATOM      3  O   UNL     1      -3.510  -7.311   5.908  1.00  0.00    -0.550 OA
ATOM      4  O   UNL     1      -5.011  -7.579   7.617  1.00  0.00    -0.550 OA
ENDROOT
TORSDOF 0
ENDMDL
MODEL 9
REMARK VINA RESULT:    -1.916      3.355      3.775
REMARK INTER + INTRA:          -1.916
REMARK INTER:                  -1.916
REMARK INTRA:                   0.000
REMARK UNBOUND:                 0.000
REMARK SMILES CC(=O)[O-]
REMARK SMILES IDX 1 1 2 2 3 3 4 4
REMARK H PARENT
REMARK Flexibility Score: inf
ROOT
ATOM      1  C   UNL     1      -5.267   2.480   1.994  1.00  0.00     0.063 C 
ATOM      2  C   UNL     1      -5.235   2.272   0.518  1.00  0.00     0.038 C 
ATOM      3  O   UNL     1      -4.916   1.150   0.044  1.00  0.00    -0.550 OA
ATOM      4  O   UNL     1      -5.608   3.300  -0.338  1.00  0.00    -0.550 OA
ENDROOT
TORSDOF 0
ENDMDL
