MODEL 1
REMARK VINA RESULT:    -2.502      0.000      0.000
REMARK INTER + INTRA:          -4.154
REMARK INTER:                  -3.380
REMARK INTRA:                  -0.774
REMARK UNBOUND:                -0.774
REMARK SMILES CCCCCCCC(C)=O
REMARK SMILES IDX 5 1 4 2 3 3 2 4 1 5 6 6 7 7 8 8 10 9 9 10
REMARK H PARENT
REMARK Flexibility Score: inf
ROOT
ATOM      1  C   UNL     1     141.937 133.100 137.841  1.00  0.00     0.000 C 
ENDROOT
BRANCH   1   2
ATOM      2  C   UNL     1     141.954 134.296 136.875  1.00  0.00     0.000 C 
BRANCH   2   3
ATOM      3  C   UNL     1     141.980 135.648 137.608  1.00  0.00    -0.000 C 
BRANCH   3   4
ATOM      4  C   UNL     1     141.167 135.626 138.911  1.00  0.00    -0.003 C 
ATOM      5  C   UNL     1     141.948 136.172 140.106  1.00  0.00     0.004 C 
ENDBRANCH   3   4
ENDBRANCH   2   3
ENDBRANCH   1   2
BRANCH   1   6
ATOM      6  C   UNL     1     143.311 132.418 137.961  1.00  0.00     0.008 C 
BRANCH   6   7
ATOM      7  C   UNL     1     144.124 132.962 139.145  1.00  0.00     0.075 C 
BRANCH   7   8
ATOM      8  C   UNL     1     145.286 133.805 138.695  1.00  0.00     0.129 C 
ATOM      9  O   UNL     1     146.098 133.349 137.902  1.00  0.00    -0.300 OA
ATOM     10  C   UNL     1     145.438 135.213 139.186  1.00  0.00     0.087 C 
ENDBRANCH   7   8
ENDBRANCH   6   7
ENDBRANCH   1   6
TORSDOF 6
ENDMDL
MODEL 2
REMARK VINA RESULT:    -2.492      1.024      2.886
REMARK INTER + INTRA:          -4.140
REMARK INTER:                  -3.401
REMARK INTRA:                  -0.739
REMARK UNBOUND:                -0.774
REMARK SMILES CCCCCCCC(C)=O
REMARK SMILES IDX 5 1 4 2 3 3 2 4 1 5 6 6 7 7 8 8 10 9 9 10
REMARK H PARENT
REMARK Flexibility Score: inf
ROOT
ATOM      1  C   UNL     1     143.660 136.284 139.551  1.00  0.00     0.000 C 
ENDROOT
BRANCH   1   2
ATOM      2  C   UNL     1     142.724 136.351 138.334  1.00  0.00     0.000 C 
BRANCH   2   3
ATOM      3  C   UNL     1     141.733 135.175 138.285  1.00  0.00    -0.000 C 
BRANCH   3   4
ATOM      4  C   UNL     1     141.918 134.303 137.034  1.00  0.00    -0.003 C 
ATOM      5  C   UNL     1     141.739 132.812 137.320  1.00  0.00     0.004 C 
ENDBRANCH   3   4
ENDBRANCH   2   3
ENDBRANCH   1   2
BRANCH   1   6
ATOM      6  C   UNL     1     145.143 136.198 139.152  1.00  0.00     0.008 C 
BRANCH   6   7
ATOM      7  C   UNL     1     145.809 134.917 139.674  1.00  0.00     0.075 C 
BRANCH   7   8
ATOM      8  C   UNL     1     145.176 133.676 139.102  1.00  0.00     0.129 C 
ATOM      9  O   UNL     1     145.310 133.418 137.915  1.00  0.00    -0.300 OA
ATOM     10  C   UNL     1     144.410 132.738 139.985  1.00  0.00     0.087 C 
ENDBRANCH   7   8
ENDBRANCH   6   7
ENDBRANCH   1   6
TORSDOF 6
ENDMDL
MODEL 3
REMARK VINA RESULT:    -2.485      8.492     10.667
REMARK INTER + INTRA:          -4.132
REMARK INTER:                  -3.446
REMARK INTRA:                  -0.686
REMARK UNBOUND:                -0.774
REMARK SMILES CCCCCCCC(C)=O
REMARK SMILES IDX 5 1 4 2 3 3 2 4 1 5 6 6 7 7 8 8 10 9 9 10
REMARK H PARENT
REMARK Flexibility Score: inf
ROOT
ATOM      1  C   UNL     1     134.147 139.743 137.039  1.00  0.00     0.000 C 
ENDROOT
BRANCH   1   2
ATOM      2  C   UNL     1     135.264 140.066 138.043  1.00  0.00     0.000 C 
BRANCH   2   3
ATOM      3  C   UNL     1     136.386 139.013 138.040  1.00  0.00    -0.000 C 
BRANCH   3   4
ATOM      4  C   UNL     1     136.389 138.154 139.314  1.00  0.00    -0.003 C 
ATOM      5  C   UNL     1     137.042 136.788 139.105  1.00  0.00     0.004 C 
ENDBRANCH   3   4
ENDBRANCH   2   3
ENDBRANCH   1   2
BRANCH   1   6
ATOM      6  C   UNL     1     132.750 139.761 137.682  1.00  0.00     0.008 C 
BRANCH   6   7
ATOM      7  C   UNL     1     132.100 138.369 137.691  1.00  0.00     0.075 C 
BRANCH   7   8
ATOM      8  C   UNL     1     132.798 137.424 138.632  1.00  0.00     0.129 C 
ATOM      9  O   UNL     1     132.832 137.672 139.829  1.00  0.00    -0.300 OA
ATOM     10  C   UNL     1     133.424 136.163 138.116  1.00  0.00     0.087 C 
ENDBRANCH   7   8
ENDBRANCH   6   7
ENDBRANCH   1   6
TORSDOF 6
ENDMDL
MODEL 4
REMARK VINA RESULT:    -2.485     12.450     14.379
REMARK INTER + INTRA:          -4.131
REMARK INTER:                  -3.423
REMARK INTRA:                  -0.708
REMARK UNBOUND:                -0.774
REMARK SMILES CCCCCCCC(C)=O
REMARK SMILES IDX 5 1 4 2 3 3 2 4 1 5 6 6 7 7 8 8 10 9 9 10
REMARK H PARENT
REMARK Flexibility Score: inf
ROOT
ATOM      1  C   UNL     1     139.907 147.341 137.094  1.00  0.00     0.000 C 
ENDROOT
BRANCH   1   2
ATOM      2  C   UNL     1     140.050 146.163 138.071  1.00  0.00     0.000 C 
BRANCH   2   3
ATOM      3  C   UNL     1     138.904 145.145 137.942  1.00  0.00    -0.000 C 
BRANCH   3   4
ATOM      4  C   UNL     1     138.237 144.837 139.292  1.00  0.00    -0.003 C 
ATOM      5  C   UNL     1     136.712 144.801 139.203  1.00  0.00     0.004 C 
ENDBRANCH   3   4
ENDBRANCH   2   3
ENDBRANCH   1   2
BRANCH   1   6
ATOM      6  C   UNL     1     139.796 148.696 137.814  1.00  0.00     0.008 C 
BRANCH   6   7
ATOM      7  C   UNL     1     138.385 149.294 137.705  1.00  0.00     0.075 C 
BRANCH   7   8
ATOM      8  C   UNL     1     137.403 148.599 138.610  1.00  0.00     0.129 C 
ATOM      9  O   UNL     1     137.718 148.336 139.762  1.00  0.00    -0.300 OA
ATOM     10  C   UNL     1     136.029 148.256 138.118  1.00  0.00     0.087 C 
ENDBRANCH   7   8
ENDBRANCH   6   7
ENDBRANCH   1   6
TORSDOF 6
ENDMDL
MODEL 5
REMARK VINA RESULT:    -2.479      8.720     10.047
REMARK INTER + INTRA:          -4.123
REMARK INTER:                  -3.414
REMARK INTRA:                  -0.709
REMARK UNBOUND:                -0.774
REMARK SMILES CCCCCCCC(C)=O
REMARK SMILES IDX 5 1 4 2 3 3 2 4 1 5 6 6 7 7 8 8 10 9 9 10
REMARK H PARENT
REMARK Flexibility Score: inf
ROOT
ATOM      1  C   UNL     1     147.619 141.568 137.154  1.00  0.00     0.000 C 
ENDROOT
BRANCH   1   2
ATOM      2  C   UNL     1     146.466 141.431 138.160  1.00  0.00     0.000 C 
BRANCH   2   3
ATOM      3  C   UNL     1     145.422 142.553 138.020  1.00  0.00    -0.000 C 
BRANCH   3   4
ATOM      4  C   UNL     1     145.220 143.332 139.329  1.00  0.00    -0.003 C 
ATOM      5  C   UNL     1     144.657 144.735 139.102  1.00  0.00     0.004 C 
ENDBRANCH   3   4
ENDBRANCH   2   3
ENDBRANCH   1   2
BRANCH   1   6
ATOM      6  C   UNL     1     148.978 141.798 137.839  1.00  0.00     0.008 C 
BRANCH   6   7
ATOM      7  C   UNL     1     149.486 143.234 137.647  1.00  0.00     0.075 C 
BRANCH   7   8
ATOM      8  C   UNL     1     148.790 144.208 138.560  1.00  0.00     0.129 C 
ATOM      9  O   UNL     1     148.744 143.989 139.762  1.00  0.00    -0.300 OA
ATOM     10  C   UNL     1     148.180 145.462 138.008  1.00  0.00     0.087 C 
ENDBRANCH   7   8
ENDBRANCH   6   7
ENDBRANCH   1   6
TORSDOF 6
ENDMDL
MODEL 6
REMARK VINA RESULT:    -2.456     12.490     14.470
REMARK INTER + INTRA:          -4.092
REMARK INTER:                  -3.452
REMARK INTRA:                  -0.640
REMARK UNBOUND:                -0.774
REMARK SMILES CCCCCCCC(C)=O
REMARK SMILES IDX 5 1 4 2 3 3 2 4 1 5 6 6 7 7 8 8 10 9 9 10
REMARK H PARENT
REMARK Flexibility Score: inf
ROOT
ATOM      1  C   UNL     1     139.599 148.182 137.921  1.00  0.00     0.000 C 
ENDROOT
BRANCH   1   2
ATOM      2  C   UNL     1     139.545 147.056 136.876  1.00  0.00     0.000 C 
BRANCH   2   3
ATOM      3  C   UNL     1     139.650 145.657 137.507  1.00  0.00    -0.000 C 
BRANCH   3   4
ATOM      4  C   UNL     1     140.114 145.706 138.970  1.00  0.00    -0.003 C 
ATOM      5  C   UNL     1     141.464 145.024 139.186  1.00  0.00     0.004 C 
ENDBRANCH   3   4
ENDBRANCH   2   3
ENDBRANCH   1   2
BRANCH   1   6
ATOM      6  C   UNL     1     138.306 149.013 137.963  1.00  0.00     0.008 C 
BRANCH   6   7
ATOM      7  C   UNL     1     137.382 148.586 139.113  1.00  0.00     0.075 C 
BRANCH   7   8
ATOM      8  C   UNL     1     136.264 147.695 138.640  1.00  0.00     0.129 C 
ATOM      9  O   UNL     1     135.463 148.110 137.814  1.00  0.00    -0.300 OA
ATOM     10  C   UNL     1     136.143 146.292 139.153  1.00  0.00     0.087 C 
ENDBRANCH   7   8
ENDBRANCH   6   7
ENDBRANCH   1   6
TORSDOF 6
ENDMDL
MODEL 7
REMARK VINA RESULT:    -2.425     11.784     13.494
REMARK INTER + INTRA:          -4.050
REMARK INTER:                  -3.209
REMARK INTRA:                  -0.841
REMARK UNBOUND:                -0.774
REMARK SMILES CCCCCCCC(C)=O
REMARK SMILES IDX 5 1 4 2 3 3 2 4 1 5 6 6 7 7 8 8 10 9 9 10
REMARK H PARENT
REMARK Flexibility Score: inf
ROOT
ATOM      1  C   UNL     1     137.321 147.879 138.340  1.00  0.00     0.000 C 
ENDROOT
BRANCH   1   2
ATOM      2  C   UNL     1     136.988 147.794 139.838  1.00  0.00     0.000 C 
BRANCH   2   3
ATOM      3  C   UNL     1     136.753 146.349 140.311  1.00  0.00    -0.000 C 
BRANCH   3   4
ATOM      4  C   UNL     1     136.325 145.419 139.166  1.00  0.00    -0.003 C 
ATOM      5  C   UNL     1     136.927 144.019 139.284  1.00  0.00     0.004 C 
ENDBRANCH   3   4
ENDBRANCH   2   3
ENDBRANCH   1   2
BRANCH   1   6
ATOM      6  C   UNL     1     138.773 148.318 138.082  1.00  0.00     0.008 C 
BRANCH   6   7
ATOM      7  C   UNL     1     139.488 147.390 137.089  1.00  0.00     0.075 C 
BRANCH   7   8
ATOM      8  C   UNL     1     139.726 146.019 137.666  1.00  0.00     0.129 C 
ATOM      9  O   UNL     1     139.449 145.027 137.008  1.00  0.00    -0.300 OA
ATOM     10  C   UNL     1     140.331 145.864 139.029  1.00  0.00     0.087 C 
ENDBRANCH   7   8
ENDBRANCH   6   7
ENDBRANCH   1   6
TORSDOF 6
ENDMDL
MODEL 8
REMARK VINA RESULT:    -2.400     13.458     15.361
REMARK INTER + INTRA:          -4.016
REMARK INTER:                  -3.310
REMARK INTRA:                  -0.706
REMARK UNBOUND:                -0.774
REMARK SMILES CCCCCCCC(C)=O
REMARK SMILES IDX 5 1 4 2 3 3 2 4 1 5 6 6 7 7 8 8 10 9 9 10
REMARK H PARENT
REMARK Flexibility Score: inf
ROOT
ATOM      1  C   UNL     1     136.905 146.054 139.111  1.00  0.00     0.000 C 
ENDROOT
BRANCH   1   2
ATOM      2  C   UNL     1     138.368 146.523 139.118  1.00  0.00     0.000 C 
BRANCH   2   3
ATOM      3  C   UNL     1     139.151 146.040 137.885  1.00  0.00    -0.000 C 
BRANCH   3   4
ATOM      4  C   UNL     1     139.411 147.169 136.876  1.00  0.00    -0.003 C 
ATOM      5  C   UNL     1     139.822 148.479 137.547  1.00  0.00     0.004 C 
ENDBRANCH   3   4
ENDBRANCH   2   3
ENDBRANCH   1   2
BRANCH   1   6
ATOM      6  C   UNL     1     135.909 147.219 139.241  1.00  0.00     0.008 C 
BRANCH   6   7
ATOM      7  C   UNL     1     135.954 148.156 138.025  1.00  0.00     0.075 C 
BRANCH   7   8
ATOM      8  C   UNL     1     136.384 149.549 138.399  1.00  0.00     0.129 C 
ATOM      9  O   UNL     1     136.544 150.391 137.527  1.00  0.00    -0.300 OA
ATOM     10  C   UNL     1     136.587 149.921 139.837  1.00  0.00     0.087 C 
ENDBRANCH   7   8
ENDBRANCH   6   7
ENDBRANCH   1   6
TORSDOF 6
ENDMDL
