MODEL 1
REMARK VINA RESULT:    -4.526      0.000      0.000
REMARK INTER + INTRA:          -5.797
REMARK INTER:                  -5.452
REMARK INTRA:                  -0.344
REMARK UNBOUND:                -0.344
REMARK SMILES O=c1c(O)c(-c2ccc(O)cc2O)oc2cc(O)cc(O)c12
REMARK SMILES IDX 5 1 3 2 2 3 1 4 22 5 20 6 19 7 17 8 16 9 15 10 14 11 6 12
REMARK SMILES IDX 8 13 7 14 9 15 11 16 12 17 10 18 13 20 4 22 21 24 18 26
REMARK H PARENT 10 19 13 21 4 23 21 25 18 27
REMARK Flexibility Score: inf
ROOT
ATOM      1  C   UNL     1      42.162  28.192  10.072  1.00  0.00     0.184 A 
ATOM      2  C   UNL     1      42.593  28.928   8.956  1.00  0.00     0.208 A 
ATOM      3  C   UNL     1      43.644  28.424   8.172  1.00  0.00     0.238 A 
ATOM      4  O   UNL     1      43.988  29.059   7.142  1.00  0.00    -0.285 OA
ATOM      5  C   UNL     1      44.264  27.202   8.528  1.00  0.00     0.111 A 
ATOM      6  C   UNL     1      45.363  26.616   7.830  1.00  0.00     0.134 A 
ATOM      7  C   UNL     1      45.813  25.341   8.193  1.00  0.00     0.093 A 
ATOM      8  C   UNL     1      45.245  24.658   9.272  1.00  0.00     0.123 A 
ATOM      9  C   UNL     1      44.211  25.245   9.996  1.00  0.00     0.094 A 
ATOM     10  C   UNL     1      43.716  26.501   9.635  1.00  0.00     0.146 A 
ATOM     11  O   UNL     1      42.722  27.019  10.344  1.00  0.00    -0.451 OA
ENDROOT
BRANCH   1  12
ATOM     12  C   UNL     1      41.075  28.676  10.955  1.00  0.00     0.063 A 
ATOM     13  C   UNL     1      40.351  29.699  13.042  1.00  0.00     0.047 A 
ATOM     14  C   UNL     1      41.375  29.267  12.196  1.00  0.00     0.020 A 
ATOM     15  C   UNL     1      39.013  29.537  12.665  1.00  0.00     0.119 A 
ATOM     16  C   UNL     1      38.704  28.939  11.442  1.00  0.00     0.093 A 
ATOM     17  C   UNL     1      39.726  28.504  10.585  1.00  0.00     0.130 A 
BRANCH  15  18
ATOM     18  O   UNL     1      37.984  29.964  13.502  1.00  0.00    -0.508 OA
ATOM     19  H   UNL     1      37.510  29.324  14.129  1.00  0.00     0.293 HD
ENDBRANCH  15  18
BRANCH  17  20
ATOM     20  O   UNL     1      39.403  27.914   9.362  1.00  0.00    -0.507 OA
ATOM     21  H   UNL     1      38.535  28.124   8.883  1.00  0.00     0.293 HD
ENDBRANCH  17  20
ENDBRANCH   1  12
BRANCH   2  22
ATOM     22  O   UNL     1      41.958  30.125   8.618  1.00  0.00    -0.502 OA
ATOM     23  H   UNL     1      41.293  30.192   7.857  1.00  0.00     0.293 HD
ENDBRANCH   2  22
BRANCH   6  24
ATOM     24  O   UNL     1      46.059  27.253   6.798  1.00  0.00    -0.507 OA
ATOM     25  H   UNL     1      45.630  27.795   6.063  1.00  0.00     0.293 HD
ENDBRANCH   6  24
BRANCH   8  26
ATOM     26  O   UNL     1      45.710  23.396   9.637  1.00  0.00    -0.508 OA
ATOM     27  H   UNL     1      45.074  22.658   9.917  1.00  0.00     0.293 HD
ENDBRANCH   8  26
TORSDOF 6
ENDMDL
MODEL 2
REMARK VINA RESULT:    -4.098      0.845      1.505
REMARK INTER + INTRA:          -5.281
REMARK INTER:                  -4.877
REMARK INTRA:                  -0.405
REMARK UNBOUND:                -0.344
REMARK SMILES O=c1c(O)c(-c2ccc(O)cc2O)oc2cc(O)cc(O)c12
REMARK SMILES IDX 5 1 3 2 2 3 1 4 22 5 20 6 19 7 17 8 16 9 15 10 14 11 6 12
REMARK SMILES IDX 8 13 7 14 9 15 11 16 12 17 10 18 13 20 4 22 21 24 18 26
REMARK H PARENT 10 19 13 21 4 23 21 25 18 27
REMARK Flexibility Score: inf
ROOT
ATOM      1  C   UNL     1      41.723  28.245  10.129  1.00  0.00     0.184 A 
ATOM      2  C   UNL     1      42.037  28.988   8.979  1.00  0.00     0.208 A 
ATOM      3  C   UNL     1      43.084  28.552   8.150  1.00  0.00     0.238 A 
ATOM      4  O   UNL     1      43.323  29.191   7.093  1.00  0.00    -0.285 OA
ATOM      5  C   UNL     1      43.816  27.391   8.493  1.00  0.00     0.111 A 
ATOM      6  C   UNL     1      44.922  26.879   7.749  1.00  0.00     0.134 A 
ATOM      7  C   UNL     1      45.490  25.652   8.110  1.00  0.00     0.093 A 
ATOM      8  C   UNL     1      45.034  24.948   9.229  1.00  0.00     0.123 A 
ATOM      9  C   UNL     1      43.994  25.467   9.995  1.00  0.00     0.094 A 
ATOM     10  C   UNL     1      43.383  26.672   9.639  1.00  0.00     0.146 A 
ATOM     11  O   UNL     1      42.388  27.126  10.391  1.00  0.00    -0.451 OA
ENDROOT
BRANCH   1  12
ATOM     12  C   UNL     1      40.648  28.660  11.058  1.00  0.00     0.063 A 
ATOM     13  C   UNL     1      38.286  29.027  11.523  1.00  0.00     0.047 A 
ATOM     14  C   UNL     1      39.300  28.610  10.657  1.00  0.00     0.020 A 
ATOM     15  C   UNL     1      38.604  29.511  12.797  1.00  0.00     0.119 A 
ATOM     16  C   UNL     1      39.940  29.579  13.199  1.00  0.00     0.093 A 
ATOM     17  C   UNL     1      40.965  29.160  12.337  1.00  0.00     0.130 A 
BRANCH  15  18
ATOM     18  O   UNL     1      37.601  29.930  13.667  1.00  0.00    -0.508 OA
ATOM     19  H   UNL     1      37.359  29.396  14.494  1.00  0.00     0.293 HD
ENDBRANCH  15  18
BRANCH  17  20
ATOM     20  O   UNL     1      42.294  29.226  12.756  1.00  0.00    -0.507 OA
ATOM     21  H   UNL     1      42.652  28.623  13.487  1.00  0.00     0.293 HD
ENDBRANCH  17  20
ENDBRANCH   1  12
BRANCH   2  22
ATOM     22  O   UNL     1      41.292  30.124   8.654  1.00  0.00    -0.502 OA
ATOM     23  H   UNL     1      40.432  30.077   8.121  1.00  0.00     0.293 HD
ENDBRANCH   2  22
BRANCH   6  24
ATOM     24  O   UNL     1      45.512  27.547   6.672  1.00  0.00    -0.507 OA
ATOM     25  H   UNL     1      45.843  27.102   5.830  1.00  0.00     0.293 HD
ENDBRANCH   6  24
BRANCH   8  26
ATOM     26  O   UNL     1      45.615  23.735   9.590  1.00  0.00    -0.508 OA
ATOM     27  H   UNL     1      46.606  23.661   9.791  1.00  0.00     0.293 HD
ENDBRANCH   8  26
TORSDOF 6
ENDMDL
MODEL 3
REMARK VINA RESULT:    -3.954     22.968     24.762
REMARK INTER + INTRA:          -5.107
REMARK INTER:                  -4.806
REMARK INTRA:                  -0.301
REMARK UNBOUND:                -0.344
REMARK SMILES O=c1c(O)c(-c2ccc(O)cc2O)oc2cc(O)cc(O)c12
REMARK SMILES IDX 5 1 3 2 2 3 1 4 22 5 20 6 19 7 17 8 16 9 15 10 14 11 6 12
REMARK SMILES IDX 8 13 7 14 9 15 11 16 12 17 10 18 13 20 4 22 21 24 18 26
REMARK H PARENT 10 19 13 21 4 23 21 25 18 27
REMARK Flexibility Score: inf
ROOT
ATOM      1  C   UNL     1      30.865  11.859  -3.900  1.00  0.00     0.184 A 
ATOM      2  C   UNL     1      29.791  11.764  -4.801  1.00  0.00     0.208 A 
ATOM      3  C   UNL     1      28.528  12.235  -4.407  1.00  0.00     0.238 A 
ATOM      4  O   UNL     1      27.584  12.199  -5.239  1.00  0.00    -0.285 OA
ATOM      5  C   UNL     1      28.350  12.775  -3.112  1.00  0.00     0.111 A 
ATOM      6  C   UNL     1      27.106  13.245  -2.592  1.00  0.00     0.134 A 
ATOM      7  C   UNL     1      27.073  13.877  -1.343  1.00  0.00     0.093 A 
ATOM      8  C   UNL     1      28.229  13.997  -0.566  1.00  0.00     0.123 A 
ATOM      9  C   UNL     1      29.436  13.490  -1.039  1.00  0.00     0.094 A 
ATOM     10  C   UNL     1      29.508  12.886  -2.297  1.00  0.00     0.146 A 
ATOM     11  O   UNL     1      30.681  12.427  -2.714  1.00  0.00    -0.451 OA
ENDROOT
BRANCH   1  12
ATOM     12  C   UNL     1      32.217  11.361  -4.241  1.00  0.00     0.063 A 
ATOM     13  C   UNL     1      34.148  11.347  -5.724  1.00  0.00     0.047 A 
ATOM     14  C   UNL     1      32.884  11.836  -5.386  1.00  0.00     0.020 A 
ATOM     15  C   UNL     1      34.760  10.369  -4.931  1.00  0.00     0.119 A 
ATOM     16  C   UNL     1      34.100   9.881  -3.801  1.00  0.00     0.093 A 
ATOM     17  C   UNL     1      32.831  10.368  -3.452  1.00  0.00     0.130 A 
BRANCH  15  18
ATOM     18  O   UNL     1      36.020   9.875  -5.260  1.00  0.00    -0.508 OA
ATOM     19  H   UNL     1      36.208   9.466  -6.168  1.00  0.00     0.293 HD
ENDBRANCH  15  18
BRANCH  17  20
ATOM     20  O   UNL     1      32.187   9.875  -2.316  1.00  0.00    -0.507 OA
ATOM     21  H   UNL     1      31.178   9.830  -2.254  1.00  0.00     0.293 HD
ENDBRANCH  17  20
ENDBRANCH   1  12
BRANCH   2  22
ATOM     22  O   UNL     1      29.994  11.240  -6.080  1.00  0.00    -0.502 OA
ATOM     23  H   UNL     1      29.424  10.493  -6.458  1.00  0.00     0.293 HD
ENDBRANCH   2  22
BRANCH   6  24
ATOM     24  O   UNL     1      25.880  13.092  -3.247  1.00  0.00    -0.507 OA
ATOM     25  H   UNL     1      25.014  13.516  -2.952  1.00  0.00     0.293 HD
ENDBRANCH   6  24
BRANCH   8  26
ATOM     26  O   UNL     1      28.184  14.614   0.683  1.00  0.00    -0.508 OA
ATOM     27  H   UNL     1      28.845  15.337   0.941  1.00  0.00     0.293 HD
ENDBRANCH   8  26
TORSDOF 6
ENDMDL
MODEL 4
REMARK VINA RESULT:    -3.743      1.993      5.970
REMARK INTER + INTRA:          -4.853
REMARK INTER:                  -4.425
REMARK INTRA:                  -0.428
REMARK UNBOUND:                -0.344
REMARK SMILES O=c1c(O)c(-c2ccc(O)cc2O)oc2cc(O)cc(O)c12
REMARK SMILES IDX 5 1 3 2 2 3 1 4 22 5 20 6 19 7 17 8 16 9 15 10 14 11 6 12
REMARK SMILES IDX 8 13 7 14 9 15 11 16 12 17 10 18 13 20 4 22 21 24 18 26
REMARK H PARENT 10 19 13 21 4 23 21 25 18 27
REMARK Flexibility Score: inf
ROOT
ATOM      1  C   UNL     1      44.125  26.440  10.053  1.00  0.00     0.184 A 
ATOM      2  C   UNL     1      44.840  26.973   8.968  1.00  0.00     0.208 A 
ATOM      3  C   UNL     1      44.260  28.003   8.210  1.00  0.00     0.238 A 
ATOM      4  O   UNL     1      44.929  28.515   7.274  1.00  0.00    -0.285 OA
ATOM      5  C   UNL     1      42.965  28.472   8.534  1.00  0.00     0.111 A 
ATOM      6  C   UNL     1      42.263  29.484   7.811  1.00  0.00     0.134 A 
ATOM      7  C   UNL     1      41.040  29.960   8.298  1.00  0.00     0.093 A 
ATOM      8  C   UNL     1      40.461  29.414   9.448  1.00  0.00     0.123 A 
ATOM      9  C   UNL     1      41.110  28.387  10.127  1.00  0.00     0.094 A 
ATOM     10  C   UNL     1      42.349  27.915   9.686  1.00  0.00     0.146 A 
ATOM     11  O   UNL     1      42.938  26.943  10.370  1.00  0.00    -0.451 OA
ENDROOT
BRANCH   1  12
ATOM     12  C   UNL     1      44.667  25.337  10.879  1.00  0.00     0.063 A 
ATOM     13  C   UNL     1      45.369  23.016  11.102  1.00  0.00     0.047 A 
ATOM     14  C   UNL     1      44.884  24.065  10.317  1.00  0.00     0.020 A 
ATOM     15  C   UNL     1      45.634  23.218  12.461  1.00  0.00     0.119 A 
ATOM     16  C   UNL     1      45.408  24.473  13.032  1.00  0.00     0.093 A 
ATOM     17  C   UNL     1      44.923  25.533  12.251  1.00  0.00     0.130 A 
BRANCH  15  18
ATOM     18  O   UNL     1      46.117  22.179  13.252  1.00  0.00    -0.508 OA
ATOM     19  H   UNL     1      45.742  21.240  13.181  1.00  0.00     0.293 HD
ENDBRANCH  15  18
BRANCH  17  20
ATOM     20  O   UNL     1      44.709  26.783  12.835  1.00  0.00    -0.507 OA
ATOM     21  H   UNL     1      43.797  27.222  12.832  1.00  0.00     0.293 HD
ENDBRANCH  17  20
ENDBRANCH   1  12
BRANCH   2  22
ATOM     22  O   UNL     1      46.123  26.503   8.674  1.00  0.00    -0.502 OA
ATOM     23  H   UNL     1      46.329  25.517   8.565  1.00  0.00     0.293 HD
ENDBRANCH   2  22
BRANCH   6  24
ATOM     24  O   UNL     1      42.710  30.031   6.604  1.00  0.00    -0.507 OA
ATOM     25  H   UNL     1      43.155  30.931   6.510  1.00  0.00     0.293 HD
ENDBRANCH   6  24
BRANCH   8  26
ATOM     26  O   UNL     1      39.236  29.883   9.917  1.00  0.00    -0.508 OA
ATOM     27  H   UNL     1      39.126  30.831  10.259  1.00  0.00     0.293 HD
ENDBRANCH   8  26
TORSDOF 6
ENDMDL
MODEL 5
REMARK VINA RESULT:    -3.578      2.339      4.054
REMARK INTER + INTRA:          -4.655
REMARK INTER:                  -4.249
REMARK INTRA:                  -0.406
REMARK UNBOUND:                -0.344
REMARK SMILES O=c1c(O)c(-c2ccc(O)cc2O)oc2cc(O)cc(O)c12
REMARK SMILES IDX 5 1 3 2 2 3 1 4 22 5 20 6 19 7 17 8 16 9 15 10 14 11 6 12
REMARK SMILES IDX 8 13 7 14 9 15 11 16 12 17 10 18 13 20 4 22 21 24 18 26
REMARK H PARENT 10 19 13 21 4 23 21 25 18 27
REMARK Flexibility Score: inf
ROOT
ATOM      1  C   UNL     1      42.990  27.302  10.596  1.00  0.00     0.184 A 
ATOM      2  C   UNL     1      43.440  27.798  11.830  1.00  0.00     0.208 A 
ATOM      3  C   UNL     1      44.349  27.034  12.581  1.00  0.00     0.238 A 
ATOM      4  O   UNL     1      44.792  27.510  13.659  1.00  0.00    -0.285 OA
ATOM      5  C   UNL     1      44.779  25.776  12.097  1.00  0.00     0.111 A 
ATOM      6  C   UNL     1      45.667  24.899  12.792  1.00  0.00     0.134 A 
ATOM      7  C   UNL     1      46.125  23.737  12.160  1.00  0.00     0.093 A 
ATOM      8  C   UNL     1      45.676  23.386  10.884  1.00  0.00     0.123 A 
ATOM      9  C   UNL     1      44.765  24.205  10.222  1.00  0.00     0.094 A 
ATOM     10  C   UNL     1      44.317  25.390  10.811  1.00  0.00     0.146 A 
ATOM     11  O   UNL     1      43.458  26.147  10.140  1.00  0.00    -0.451 OA
ENDROOT
BRANCH   1  12
ATOM     12  C   UNL     1      42.014  28.044   9.765  1.00  0.00     0.063 A 
ATOM     13  C   UNL     1      39.787  28.978   9.454  1.00  0.00     0.047 A 
ATOM     14  C   UNL     1      40.717  28.302  10.247  1.00  0.00     0.020 A 
ATOM     15  C   UNL     1      40.134  29.396   8.164  1.00  0.00     0.119 A 
ATOM     16  C   UNL     1      41.414  29.132   7.671  1.00  0.00     0.093 A 
ATOM     17  C   UNL     1      42.355  28.456   8.461  1.00  0.00     0.130 A 
BRANCH  15  18
ATOM     18  O   UNL     1      39.213  30.070   7.365  1.00  0.00    -0.508 OA
ATOM     19  H   UNL     1      38.228  30.097   7.600  1.00  0.00     0.293 HD
ENDBRANCH  15  18
BRANCH  17  20
ATOM     20  O   UNL     1      43.632  28.205   7.956  1.00  0.00    -0.507 OA
ATOM     21  H   UNL     1      44.093  27.314   8.093  1.00  0.00     0.293 HD
ENDBRANCH  17  20
ENDBRANCH   1  12
BRANCH   2  22
ATOM     22  O   UNL     1      43.012  29.049  12.282  1.00  0.00    -0.502 OA
ATOM     23  H   UNL     1      43.143  29.358  13.237  1.00  0.00     0.293 HD
ENDBRANCH   2  22
BRANCH   6  24
ATOM     24  O   UNL     1      46.103  25.111  14.103  1.00  0.00    -0.507 OA
ATOM     25  H   UNL     1      45.543  25.517  14.837  1.00  0.00     0.293 HD
ENDBRANCH   6  24
BRANCH   8  26
ATOM     26  O   UNL     1      46.125  22.219  10.269  1.00  0.00    -0.508 OA
ATOM     27  H   UNL     1      45.530  21.403  10.182  1.00  0.00     0.293 HD
ENDBRANCH   8  26
TORSDOF 6
ENDMDL
MODEL 6
REMARK VINA RESULT:    -3.576      1.644      3.125
REMARK INTER + INTRA:          -4.652
REMARK INTER:                  -4.276
REMARK INTRA:                  -0.376
REMARK UNBOUND:                -0.344
REMARK SMILES O=c1c(O)c(-c2ccc(O)cc2O)oc2cc(O)cc(O)c12
REMARK SMILES IDX 5 1 3 2 2 3 1 4 22 5 20 6 19 7 17 8 16 9 15 10 14 11 6 12
REMARK SMILES IDX 8 13 7 14 9 15 11 16 12 17 10 18 13 20 4 22 21 24 18 26
REMARK H PARENT 10 19 13 21 4 23 21 25 18 27
REMARK Flexibility Score: inf
ROOT
ATOM      1  C   UNL     1      41.889  28.731  10.619  1.00  0.00     0.184 A 
ATOM      2  C   UNL     1      42.880  27.867  11.113  1.00  0.00     0.208 A 
ATOM      3  C   UNL     1      43.985  27.562  10.301  1.00  0.00     0.238 A 
ATOM      4  O   UNL     1      44.897  26.833  10.771  1.00  0.00    -0.285 OA
ATOM      5  C   UNL     1      44.074  28.110   8.999  1.00  0.00     0.111 A 
ATOM      6  C   UNL     1      45.128  27.839   8.075  1.00  0.00     0.134 A 
ATOM      7  C   UNL     1      45.181  28.536   6.862  1.00  0.00     0.093 A 
ATOM      8  C   UNL     1      44.181  29.447   6.511  1.00  0.00     0.123 A 
ATOM      9  C   UNL     1      43.117  29.676   7.380  1.00  0.00     0.094 A 
ATOM     10  C   UNL     1      43.056  29.022   8.614  1.00  0.00     0.146 A 
ATOM     11  O   UNL     1      42.031  29.277   9.417  1.00  0.00    -0.451 OA
ENDROOT
BRANCH   1  12
ATOM     12  C   UNL     1      40.686  29.075  11.412  1.00  0.00     0.063 A 
ATOM     13  C   UNL     1      39.678  30.088  13.383  1.00  0.00     0.047 A 
ATOM     14  C   UNL     1      40.809  29.786  12.620  1.00  0.00     0.020 A 
ATOM     15  C   UNL     1      38.411  29.675  12.957  1.00  0.00     0.119 A 
ATOM     16  C   UNL     1      38.281  28.956  11.766  1.00  0.00     0.093 A 
ATOM     17  C   UNL     1      39.410  28.650  10.992  1.00  0.00     0.130 A 
BRANCH  15  18
ATOM     18  O   UNL     1      37.278  29.970  13.711  1.00  0.00    -0.508 OA
ATOM     19  H   UNL     1      36.363  29.616  13.454  1.00  0.00     0.293 HD
ENDBRANCH  15  18
BRANCH  17  20
ATOM     20  O   UNL     1      39.263  27.937   9.801  1.00  0.00    -0.507 OA
ATOM     21  H   UNL     1      40.058  27.534   9.321  1.00  0.00     0.293 HD
ENDBRANCH  17  20
ENDBRANCH   1  12
BRANCH   2  22
ATOM     22  O   UNL     1      42.777  27.349  12.406  1.00  0.00    -0.502 OA
ATOM     23  H   UNL     1      42.614  27.935  13.216  1.00  0.00     0.293 HD
ENDBRANCH   2  22
BRANCH   6  24
ATOM     24  O   UNL     1      46.125  26.882   8.289  1.00  0.00    -0.507 OA
ATOM     25  H   UNL     1      47.014  27.065   8.730  1.00  0.00     0.293 HD
ENDBRANCH   6  24
BRANCH   8  26
ATOM     26  O   UNL     1      44.233  30.125   5.295  1.00  0.00    -0.508 OA
ATOM     27  H   UNL     1      45.088  30.179   4.755  1.00  0.00     0.293 HD
ENDBRANCH   8  26
TORSDOF 6
ENDMDL
MODEL 7
REMARK VINA RESULT:    -3.362     23.122     24.913
REMARK INTER + INTRA:          -4.394
REMARK INTER:                  -4.061
REMARK INTRA:                  -0.333
REMARK UNBOUND:                -0.344
REMARK SMILES O=c1c(O)c(-c2ccc(O)cc2O)oc2cc(O)cc(O)c12
REMARK SMILES IDX 5 1 3 2 2 3 1 4 22 5 20 6 19 7 17 8 16 9 15 10 14 11 6 12
REMARK SMILES IDX 8 13 7 14 9 15 11 16 12 17 10 18 13 20 4 22 21 24 18 26
REMARK H PARENT 10 19 13 21 4 23 21 25 18 27
REMARK Flexibility Score: inf
ROOT
ATOM      1  C   UNL     1      30.810  11.495  -3.790  1.00  0.00     0.184 A 
ATOM      2  C   UNL     1      29.633  11.052  -4.416  1.00  0.00     0.208 A 
ATOM      3  C   UNL     1      28.392  11.403  -3.859  1.00  0.00     0.238 A 
ATOM      4  O   UNL     1      27.341  11.051  -4.456  1.00  0.00    -0.285 OA
ATOM      5  C   UNL     1      28.346  12.174  -2.673  1.00  0.00     0.111 A 
ATOM      6  C   UNL     1      27.145  12.555  -1.999  1.00  0.00     0.134 A 
ATOM      7  C   UNL     1      27.214  13.426  -0.906  1.00  0.00     0.093 A 
ATOM      8  C   UNL     1      28.444  13.880  -0.421  1.00  0.00     0.123 A 
ATOM      9  C   UNL     1      29.623  13.468  -1.036  1.00  0.00     0.094 A 
ATOM     10  C   UNL     1      29.586  12.627  -2.151  1.00  0.00     0.146 A 
ATOM     11  O   UNL     1      30.733  12.268  -2.714  1.00  0.00    -0.451 OA
ENDROOT
BRANCH   1  12
ATOM     12  C   UNL     1      32.151  11.142  -4.310  1.00  0.00     0.063 A 
ATOM     13  C   UNL     1      34.222   9.875  -4.118  1.00  0.00     0.047 A 
ATOM     14  C   UNL     1      32.945  10.189  -3.645  1.00  0.00     0.020 A 
ATOM     15  C   UNL     1      34.728  10.515  -5.255  1.00  0.00     0.119 A 
ATOM     16  C   UNL     1      33.953  11.473  -5.914  1.00  0.00     0.093 A 
ATOM     17  C   UNL     1      32.670  11.793  -5.447  1.00  0.00     0.130 A 
BRANCH  15  18
ATOM     18  O   UNL     1      35.999  10.210  -5.735  1.00  0.00    -0.508 OA
ATOM     19  H   UNL     1      36.694   9.761  -5.148  1.00  0.00     0.293 HD
ENDBRANCH  15  18
BRANCH  17  20
ATOM     20  O   UNL     1      31.905  12.747  -6.121  1.00  0.00    -0.507 OA
ATOM     21  H   UNL     1      30.897  12.674  -6.182  1.00  0.00     0.293 HD
ENDBRANCH  17  20
ENDBRANCH   1  12
BRANCH   2  22
ATOM     22  O   UNL     1      29.704  10.303  -5.593  1.00  0.00    -0.502 OA
ATOM     23  H   UNL     1      29.235  10.583  -6.446  1.00  0.00     0.293 HD
ENDBRANCH   2  22
BRANCH   6  24
ATOM     24  O   UNL     1      25.875  12.086  -2.346  1.00  0.00    -0.507 OA
ATOM     25  H   UNL     1      25.442  11.260  -1.963  1.00  0.00     0.293 HD
ENDBRANCH   6  24
BRANCH   8  26
ATOM     26  O   UNL     1      28.503  14.734   0.677  1.00  0.00    -0.508 OA
ATOM     27  H   UNL     1      28.732  15.716   0.574  1.00  0.00     0.293 HD
ENDBRANCH   8  26
TORSDOF 6
ENDMDL
MODEL 8
REMARK VINA RESULT:    -3.268      1.616      6.981
REMARK INTER + INTRA:          -4.281
REMARK INTER:                  -3.955
REMARK INTRA:                  -0.325
REMARK UNBOUND:                -0.344
REMARK SMILES O=c1c(O)c(-c2ccc(O)cc2O)oc2cc(O)cc(O)c12
REMARK SMILES IDX 5 1 3 2 2 3 1 4 22 5 20 6 19 7 17 8 16 9 15 10 14 11 6 12
REMARK SMILES IDX 8 13 7 14 9 15 11 16 12 17 10 18 13 20 4 22 21 24 18 26
REMARK H PARENT 10 19 13 21 4 23 21 25 18 27
REMARK Flexibility Score: inf
ROOT
ATOM      1  C   UNL     1      42.178  28.492  10.109  1.00  0.00     0.184 A 
ATOM      2  C   UNL     1      42.436  28.407  11.487  1.00  0.00     0.208 A 
ATOM      3  C   UNL     1      41.407  28.710  12.394  1.00  0.00     0.238 A 
ATOM      4  O   UNL     1      41.629  28.577  13.625  1.00  0.00    -0.285 OA
ATOM      5  C   UNL     1      40.140  29.113  11.910  1.00  0.00     0.111 A 
ATOM      6  C   UNL     1      39.036  29.483  12.738  1.00  0.00     0.134 A 
ATOM      7  C   UNL     1      37.790  29.742  12.153  1.00  0.00     0.093 A 
ATOM      8  C   UNL     1      37.625  29.708  10.766  1.00  0.00     0.123 A 
ATOM      9  C   UNL     1      38.710  29.406   9.947  1.00  0.00     0.094 A 
ATOM     10  C   UNL     1      39.957  29.108  10.502  1.00  0.00     0.146 A 
ATOM     11  O   UNL     1      40.961  28.814   9.686  1.00  0.00    -0.451 OA
ENDROOT
BRANCH   1  12
ATOM     12  C   UNL     1      43.223  28.209   9.099  1.00  0.00     0.063 A 
ATOM     13  C   UNL     1      44.726  28.982   7.346  1.00  0.00     0.047 A 
ATOM     14  C   UNL     1      43.760  29.250   8.318  1.00  0.00     0.020 A 
ATOM     15  C   UNL     1      45.162  27.669   7.131  1.00  0.00     0.119 A 
ATOM     16  C   UNL     1      44.625  26.627   7.891  1.00  0.00     0.093 A 
ATOM     17  C   UNL     1      43.656  26.888   8.871  1.00  0.00     0.130 A 
BRANCH  15  18
ATOM     18  O   UNL     1      46.125  27.391   6.164  1.00  0.00    -0.508 OA
ATOM     19  H   UNL     1      46.160  27.902   5.289  1.00  0.00     0.293 HD
ENDBRANCH  15  18
BRANCH  17  20
ATOM     20  O   UNL     1      43.134  25.837   9.627  1.00  0.00    -0.507 OA
ATOM     21  H   UNL     1      43.725  25.102   9.995  1.00  0.00     0.293 HD
ENDBRANCH  17  20
ENDBRANCH   1  12
BRANCH   2  22
ATOM     22  O   UNL     1      43.692  27.994  11.940  1.00  0.00    -0.502 OA
ATOM     23  H   UNL     1      44.227  28.523  12.618  1.00  0.00     0.293 HD
ENDBRANCH   2  22
BRANCH   6  24
ATOM     24  O   UNL     1      39.118  29.633  14.125  1.00  0.00    -0.507 OA
ATOM     25  H   UNL     1      38.488  29.209  14.788  1.00  0.00     0.293 HD
ENDBRANCH   6  24
BRANCH   8  26
ATOM     26  O   UNL     1      36.386  29.983  10.192  1.00  0.00    -0.508 OA
ATOM     27  H   UNL     1      36.084  29.527   9.338  1.00  0.00     0.293 HD
ENDBRANCH   8  26
TORSDOF 6
ENDMDL
MODEL 9
REMARK VINA RESULT:    -3.262      1.974      3.066
REMARK INTER + INTRA:          -4.274
REMARK INTER:                  -4.048
REMARK INTRA:                  -0.226
REMARK UNBOUND:                -0.344
REMARK SMILES O=c1c(O)c(-c2ccc(O)cc2O)oc2cc(O)cc(O)c12
REMARK SMILES IDX 5 1 3 2 2 3 1 4 22 5 20 6 19 7 17 8 16 9 15 10 14 11 6 12
REMARK SMILES IDX 8 13 7 14 9 15 11 16 12 17 10 18 13 20 4 22 21 24 18 26
REMARK H PARENT 10 19 13 21 4 23 21 25 18 27
REMARK Flexibility Score: inf
ROOT
ATOM      1  C   UNL     1      41.123  28.518  10.970  1.00  0.00     0.184 A 
ATOM      2  C   UNL     1      41.948  28.644  12.101  1.00  0.00     0.208 A 
ATOM      3  C   UNL     1      43.274  28.187  12.031  1.00  0.00     0.238 A 
ATOM      4  O   UNL     1      44.024  28.355  13.028  1.00  0.00    -0.285 OA
ATOM      5  C   UNL     1      43.752  27.593  10.839  1.00  0.00     0.111 A 
ATOM      6  C   UNL     1      45.066  27.059  10.668  1.00  0.00     0.134 A 
ATOM      7  C   UNL     1      45.471  26.610   9.405  1.00  0.00     0.093 A 
ATOM      8  C   UNL     1      44.588  26.615   8.322  1.00  0.00     0.123 A 
ATOM      9  C   UNL     1      43.286  27.080   8.492  1.00  0.00     0.094 A 
ATOM     10  C   UNL     1      42.864  27.568   9.731  1.00  0.00     0.146 A 
ATOM     11  O   UNL     1      41.618  28.012   9.847  1.00  0.00    -0.451 OA
ENDROOT
BRANCH   1  12
ATOM     12  C   UNL     1      39.709  28.956  10.982  1.00  0.00     0.063 A 
ATOM     13  C   UNL     1      37.508  28.954  12.024  1.00  0.00     0.047 A 
ATOM     14  C   UNL     1      38.850  28.564  12.026  1.00  0.00     0.020 A 
ATOM     15  C   UNL     1      37.003  29.731  10.976  1.00  0.00     0.119 A 
ATOM     16  C   UNL     1      37.844  30.113   9.928  1.00  0.00     0.093 A 
ATOM     17  C   UNL     1      39.193  29.728   9.922  1.00  0.00     0.130 A 
BRANCH  15  18
ATOM     18  O   UNL     1      35.666  30.125  10.965  1.00  0.00    -0.508 OA
ATOM     19  H   UNL     1      35.126  30.142  10.108  1.00  0.00     0.293 HD
ENDBRANCH  15  18
BRANCH  17  20
ATOM     20  O   UNL     1      40.022  30.124   8.872  1.00  0.00    -0.507 OA
ATOM     21  H   UNL     1      40.848  29.596   8.618  1.00  0.00     0.293 HD
ENDBRANCH  17  20
ENDBRANCH   1  12
BRANCH   2  22
ATOM     22  O   UNL     1      41.458  29.246  13.262  1.00  0.00    -0.502 OA
ATOM     23  H   UNL     1      41.520  30.244  13.426  1.00  0.00     0.293 HD
ENDBRANCH   2  22
BRANCH   6  24
ATOM     24  O   UNL     1      45.993  26.925  11.706  1.00  0.00    -0.507 OA
ATOM     25  H   UNL     1      46.941  26.602  11.591  1.00  0.00     0.293 HD
ENDBRANCH   6  24
BRANCH   8  26
ATOM     26  O   UNL     1      44.994  26.152   7.072  1.00  0.00    -0.508 OA
ATOM     27  H   UNL     1      44.352  26.103   6.290  1.00  0.00     0.293 HD
ENDBRANCH   8  26
TORSDOF 6
ENDMDL
