MODEL 1
REMARK VINA RESULT:    -6.201      0.000      0.000
REMARK INTER + INTRA:         -10.351
REMARK INTER:                  -9.463
REMARK INTRA:                  -0.888
REMARK UNBOUND:                -0.888
REMARK SMILES CC(=O)CCC=C(C)CCC=C(C)CCC=C(C)C
REMARK SMILES IDX 10 1 11 2 12 3 13 4 14 5 15 6 16 7 18 8 17 9 19 10 9 11 7 12
REMARK SMILES IDX 6 13 8 14 5 15 4 16 2 17 3 18 1 19
REMARK H PARENT
REMARK Flexibility Score: inf
ROOT
ATOM      1  C   UNL     1      -1.218  -6.173   3.756  1.00  0.00     0.032 C 
ENDROOT
BRANCH   1   2
ATOM      2  C   UNL     1      -0.367  -5.967   4.988  1.00  0.00    -0.028 C 
ATOM      3  C   UNL     1       0.076  -4.754   5.385  1.00  0.00    -0.077 C 
ATOM      4  C   UNL     1      -0.251  -3.503   4.605  1.00  0.00     0.039 C 
BRANCH   3   5
ATOM      5  C   UNL     1       0.919  -4.646   6.639  1.00  0.00     0.034 C 
BRANCH   5   6
ATOM      6  C   UNL     1       1.200  -6.021   7.261  1.00  0.00     0.032 C 
BRANCH   6   7
ATOM      7  C   UNL     1       1.019  -6.006   8.761  1.00  0.00    -0.028 C 
ATOM      8  C   UNL     1       2.950  -7.544   9.181  1.00  0.00     0.039 C 
ATOM      9  C   UNL     1       1.815  -6.658   9.636  1.00  0.00    -0.080 C 
ATOM     10  C   UNL     1       1.538  -6.504  11.109  1.00  0.00     0.039 C 
ENDBRANCH   6   7
ENDBRANCH   5   6
ENDBRANCH   3   5
ENDBRANCH   1   2
BRANCH   1  11
ATOM     11  C   UNL     1      -1.849  -7.572   3.715  1.00  0.00     0.034 C 
BRANCH  11  12
ATOM     12  C   UNL     1      -3.357  -7.524   3.871  1.00  0.00    -0.077 C 
ATOM     13  C   UNL     1      -4.041  -6.490   3.328  1.00  0.00    -0.028 C 
ATOM     14  C   UNL     1      -4.055  -8.626   4.635  1.00  0.00     0.039 C 
BRANCH  13  15
ATOM     15  C   UNL     1      -5.532  -6.298   3.442  1.00  0.00     0.035 C 
BRANCH  15  16
ATOM     16  C   UNL     1      -5.873  -4.825   3.682  1.00  0.00     0.079 C 
BRANCH  16  17
ATOM     17  C   UNL     1      -6.110  -4.114   2.374  1.00  0.00     0.130 C 
ATOM     18  O   UNL     1      -5.211  -3.452   1.879  1.00  0.00    -0.300 OA
ATOM     19  C   UNL     1      -7.425  -4.210   1.659  1.00  0.00     0.087 C 
ENDBRANCH  16  17
ENDBRANCH  15  16
ENDBRANCH  13  15
ENDBRANCH  11  12
ENDBRANCH   1  11
TORSDOF 9
ENDMDL
MODEL 2
REMARK VINA RESULT:    -6.165      6.853      9.531
REMARK INTER + INTRA:         -10.296
REMARK INTER:                  -9.306
REMARK INTRA:                  -0.990
REMARK UNBOUND:                -0.888
REMARK SMILES CC(=O)CCC=C(C)CCC=C(C)CCC=C(C)C
REMARK SMILES IDX 10 1 11 2 12 3 13 4 14 5 15 6 16 7 18 8 17 9 19 10 9 11 7 12
REMARK SMILES IDX 6 13 8 14 5 15 4 16 2 17 3 18 1 19
REMARK H PARENT
REMARK Flexibility Score: inf
ROOT
ATOM      1  C   UNL     1      -3.661  -5.228  11.839  1.00  0.00     0.032 C 
ENDROOT
BRANCH   1   2
ATOM      2  C   UNL     1      -2.247  -5.759  11.913  1.00  0.00    -0.028 C 
ATOM      3  C   UNL     1      -1.157  -4.970  11.799  1.00  0.00    -0.077 C 
ATOM      4  C   UNL     1      -1.281  -3.481  11.580  1.00  0.00     0.039 C 
BRANCH   3   5
ATOM      5  C   UNL     1       0.222  -5.593  11.895  1.00  0.00     0.034 C 
BRANCH   5   6
ATOM      6  C   UNL     1       0.367  -6.807  10.968  1.00  0.00     0.032 C 
BRANCH   6   7
ATOM      7  C   UNL     1       0.401  -6.401   9.513  1.00  0.00    -0.028 C 
ATOM      8  C   UNL     1       2.685  -7.353   9.123  1.00  0.00     0.039 C 
ATOM      9  C   UNL     1       1.420  -6.667   8.666  1.00  0.00    -0.080 C 
ATOM     10  C   UNL     1       1.284  -6.242   7.226  1.00  0.00     0.039 C 
ENDBRANCH   6   7
ENDBRANCH   5   6
ENDBRANCH   3   5
ENDBRANCH   1   2
BRANCH   1  11
ATOM     11  C   UNL     1      -4.693  -6.262  12.314  1.00  0.00     0.034 C 
BRANCH  11  12
ATOM     12  C   UNL     1      -5.461  -5.784  13.531  1.00  0.00    -0.077 C 
ATOM     13  C   UNL     1      -4.881  -4.891  14.366  1.00  0.00    -0.028 C 
ATOM     14  C   UNL     1      -6.851  -6.322  13.784  1.00  0.00     0.039 C 
BRANCH  13  15
ATOM     15  C   UNL     1      -5.515  -4.365  15.629  1.00  0.00     0.035 C 
BRANCH  15  16
ATOM     16  C   UNL     1      -4.484  -4.282  16.759  1.00  0.00     0.079 C 
BRANCH  16  17
ATOM     17  C   UNL     1      -4.197  -2.846  17.113  1.00  0.00     0.130 C 
ATOM     18  O   UNL     1      -3.383  -2.595  17.989  1.00  0.00    -0.300 OA
ATOM     19  C   UNL     1      -4.880  -1.715  16.405  1.00  0.00     0.087 C 
ENDBRANCH  16  17
ENDBRANCH  15  16
ENDBRANCH  13  15
ENDBRANCH  11  12
ENDBRANCH   1  11
TORSDOF 9
ENDMDL
MODEL 3
REMARK VINA RESULT:    -5.990      2.747      8.119
REMARK INTER + INTRA:         -10.029
REMARK INTER:                  -8.883
REMARK INTRA:                  -1.146
REMARK UNBOUND:                -0.888
REMARK SMILES CC(=O)CCC=C(C)CCC=C(C)CCC=C(C)C
REMARK SMILES IDX 10 1 11 2 12 3 13 4 14 5 15 6 16 7 18 8 17 9 19 10 9 11 7 12
REMARK SMILES IDX 6 13 8 14 5 15 4 16 2 17 3 18 1 19
REMARK H PARENT
REMARK Flexibility Score: inf
ROOT
ATOM      1  C   UNL     1      -1.392  -5.985   3.598  1.00  0.00     0.032 C 
ENDROOT
BRANCH   1   2
ATOM      2  C   UNL     1      -2.799  -5.895   3.051  1.00  0.00    -0.028 C 
ATOM      3  C   UNL     1      -3.780  -6.757   3.394  1.00  0.00    -0.077 C 
ATOM      4  C   UNL     1      -3.529  -7.892   4.359  1.00  0.00     0.039 C 
BRANCH   3   5
ATOM      5  C   UNL     1      -5.162  -6.583   2.799  1.00  0.00     0.034 C 
BRANCH   5   6
ATOM      6  C   UNL     1      -6.009  -5.583   3.598  1.00  0.00     0.032 C 
BRANCH   6   7
ATOM      7  C   UNL     1      -6.083  -4.238   2.914  1.00  0.00    -0.028 C 
ATOM      8  C   UNL     1      -5.197  -2.991   4.897  1.00  0.00     0.039 C 
ATOM      9  C   UNL     1      -5.693  -3.071   3.473  1.00  0.00    -0.080 C 
ATOM     10  C   UNL     1      -5.779  -1.816   2.645  1.00  0.00     0.039 C 
ENDBRANCH   6   7
ENDBRANCH   5   6
ENDBRANCH   3   5
ENDBRANCH   1   2
BRANCH   1  11
ATOM     11  C   UNL     1      -0.813  -4.603   3.935  1.00  0.00     0.034 C 
BRANCH  11  12
ATOM     12  C   UNL     1       0.115  -4.649   5.134  1.00  0.00    -0.077 C 
ATOM     13  C   UNL     1       0.425  -5.849   5.678  1.00  0.00    -0.028 C 
ATOM     14  C   UNL     1       0.661  -3.356   5.694  1.00  0.00     0.039 C 
BRANCH  13  15
ATOM     15  C   UNL     1       1.300  -6.035   6.893  1.00  0.00     0.035 C 
BRANCH  15  16
ATOM     16  C   UNL     1       0.455  -6.074   8.170  1.00  0.00     0.079 C 
BRANCH  16  17
ATOM     17  C   UNL     1       1.226  -6.707   9.299  1.00  0.00     0.130 C 
ATOM     18  O   UNL     1       0.773  -6.666  10.433  1.00  0.00    -0.300 OA
ATOM     19  C   UNL     1       2.535  -7.399   9.061  1.00  0.00     0.087 C 
ENDBRANCH  16  17
ENDBRANCH  15  16
ENDBRANCH  13  15
ENDBRANCH  11  12
ENDBRANCH   1  11
TORSDOF 9
ENDMDL
MODEL 4
REMARK VINA RESULT:    -5.870      2.915      8.111
REMARK INTER + INTRA:          -9.845
REMARK INTER:                  -8.661
REMARK INTRA:                  -1.184
REMARK UNBOUND:                -0.888
REMARK SMILES CC(=O)CCC=C(C)CCC=C(C)CCC=C(C)C
REMARK SMILES IDX 10 1 11 2 12 3 13 4 14 5 15 6 16 7 18 8 17 9 19 10 9 11 7 12
REMARK SMILES IDX 6 13 8 14 5 15 4 16 2 17 3 18 1 19
REMARK H PARENT
REMARK Flexibility Score: inf
ROOT
ATOM      1  C   UNL     1      -0.321  -6.025   5.365  1.00  0.00     0.032 C 
ENDROOT
BRANCH   1   2
ATOM      2  C   UNL     1      -0.698  -5.247   4.124  1.00  0.00    -0.028 C 
ATOM      3  C   UNL     1      -1.513  -5.738   3.166  1.00  0.00    -0.077 C 
ATOM      4  C   UNL     1      -2.106  -7.123   3.269  1.00  0.00     0.039 C 
BRANCH   3   5
ATOM      5  C   UNL     1      -1.839  -4.880   1.960  1.00  0.00     0.034 C 
BRANCH   5   6
ATOM      6  C   UNL     1      -3.353  -4.744   1.746  1.00  0.00     0.032 C 
BRANCH   6   7
ATOM      7  C   UNL     1      -3.996  -3.892   2.816  1.00  0.00    -0.028 C 
ATOM      8  C   UNL     1      -5.635  -5.665   3.482  1.00  0.00     0.039 C 
ATOM      9  C   UNL     1      -4.999  -4.303   3.623  1.00  0.00    -0.080 C 
ATOM     10  C   UNL     1      -5.502  -3.355   4.680  1.00  0.00     0.039 C 
ENDBRANCH   6   7
ENDBRANCH   5   6
ENDBRANCH   3   5
ENDBRANCH   1   2
BRANCH   1  11
ATOM     11  C   UNL     1       1.111  -5.719   5.827  1.00  0.00     0.034 C 
BRANCH  11  12
ATOM     12  C   UNL     1       1.203  -5.560   7.333  1.00  0.00    -0.077 C 
ATOM     13  C   UNL     1       1.618  -6.608   8.080  1.00  0.00    -0.028 C 
ATOM     14  C   UNL     1       0.820  -4.238   7.959  1.00  0.00     0.039 C 
BRANCH  13  15
ATOM     15  C   UNL     1       1.716  -6.599   9.585  1.00  0.00     0.035 C 
BRANCH  15  16
ATOM     16  C   UNL     1       0.419  -7.113  10.217  1.00  0.00     0.079 C 
BRANCH  16  17
ATOM     17  C   UNL     1       0.049  -6.288  11.422  1.00  0.00     0.130 C 
ATOM     18  O   UNL     1      -1.126  -6.176  11.736  1.00  0.00    -0.300 OA
ATOM     19  C   UNL     1       1.095  -5.607  12.253  1.00  0.00     0.087 C 
ENDBRANCH  16  17
ENDBRANCH  15  16
ENDBRANCH  13  15
ENDBRANCH  11  12
ENDBRANCH   1  11
TORSDOF 9
ENDMDL
MODEL 5
REMARK VINA RESULT:    -5.864      5.011      8.017
REMARK INTER + INTRA:          -9.837
REMARK INTER:                  -8.974
REMARK INTRA:                  -0.862
REMARK UNBOUND:                -0.888
REMARK SMILES CC(=O)CCC=C(C)CCC=C(C)CCC=C(C)C
REMARK SMILES IDX 10 1 11 2 12 3 13 4 14 5 15 6 16 7 18 8 17 9 19 10 9 11 7 12
REMARK SMILES IDX 6 13 8 14 5 15 4 16 2 17 3 18 1 19
REMARK H PARENT
REMARK Flexibility Score: inf
ROOT
ATOM      1  C   UNL     1       0.372  -5.648  11.324  1.00  0.00     0.032 C 
ENDROOT
BRANCH   1   2
ATOM      2  C   UNL     1      -1.114  -5.615  11.603  1.00  0.00    -0.028 C 
ATOM      3  C   UNL     1      -1.797  -4.471  11.824  1.00  0.00    -0.077 C 
ATOM      4  C   UNL     1      -1.108  -3.128  11.813  1.00  0.00     0.039 C 
BRANCH   3   5
ATOM      5  C   UNL     1      -3.288  -4.538  12.089  1.00  0.00     0.034 C 
BRANCH   5   6
ATOM      6  C   UNL     1      -3.613  -5.386  13.326  1.00  0.00     0.032 C 
BRANCH   6   7
ATOM      7  C   UNL     1      -5.047  -5.207  13.768  1.00  0.00    -0.028 C 
ATOM      8  C   UNL     1      -5.848  -7.263  12.584  1.00  0.00     0.039 C 
ATOM      9  C   UNL     1      -6.053  -6.057  13.469  1.00  0.00    -0.080 C 
ATOM     10  C   UNL     1      -7.423  -5.770  14.027  1.00  0.00     0.039 C 
ENDBRANCH   6   7
ENDBRANCH   5   6
ENDBRANCH   3   5
ENDBRANCH   1   2
BRANCH   1  11
ATOM     11  C   UNL     1       0.813  -6.979  10.698  1.00  0.00     0.034 C 
BRANCH  11  12
ATOM     12  C   UNL     1       1.456  -6.784   9.338  1.00  0.00    -0.077 C 
ATOM     13  C   UNL     1       0.718  -6.264   8.330  1.00  0.00    -0.028 C 
ATOM     14  C   UNL     1       2.900  -7.185   9.140  1.00  0.00     0.039 C 
BRANCH  13  15
ATOM     15  C   UNL     1       1.218  -6.056   6.923  1.00  0.00     0.035 C 
BRANCH  15  16
ATOM     16  C   UNL     1       0.603  -4.795   6.309  1.00  0.00     0.079 C 
BRANCH  16  17
ATOM     17  C   UNL     1       1.566  -3.639   6.390  1.00  0.00     0.130 C 
ATOM     18  O   UNL     1       2.729  -3.846   6.703  1.00  0.00    -0.300 OA
ATOM     19  C   UNL     1       1.131  -2.236   6.085  1.00  0.00     0.087 C 
ENDBRANCH  16  17
ENDBRANCH  15  16
ENDBRANCH  13  15
ENDBRANCH  11  12
ENDBRANCH   1  11
TORSDOF 9
ENDMDL
MODEL 6
REMARK VINA RESULT:    -5.745      2.078      4.946
REMARK INTER + INTRA:          -9.655
REMARK INTER:                  -8.098
REMARK INTRA:                  -1.557
REMARK UNBOUND:                -0.888
REMARK SMILES CC(=O)CCC=C(C)CCC=C(C)CCC=C(C)C
REMARK SMILES IDX 10 1 11 2 12 3 13 4 14 5 15 6 16 7 18 8 17 9 19 10 9 11 7 12
REMARK SMILES IDX 6 13 8 14 5 15 4 16 2 17 3 18 1 19
REMARK H PARENT
REMARK Flexibility Score: inf
ROOT
ATOM      1  C   UNL     1      -6.018  -6.254   3.510  1.00  0.00     0.032 C 
ENDROOT
BRANCH   1   2
ATOM      2  C   UNL     1      -4.591  -6.196   3.012  1.00  0.00    -0.028 C 
ATOM      3  C   UNL     1      -3.632  -7.054   3.421  1.00  0.00    -0.077 C 
ATOM      4  C   UNL     1      -3.926  -8.142   4.426  1.00  0.00     0.039 C 
BRANCH   3   5
ATOM      5  C   UNL     1      -2.231  -6.921   2.860  1.00  0.00     0.034 C 
BRANCH   5   6
ATOM      6  C   UNL     1      -1.462  -5.760   3.505  1.00  0.00     0.032 C 
BRANCH   6   7
ATOM      7  C   UNL     1      -0.566  -6.235   4.625  1.00  0.00    -0.028 C 
ATOM      8  C   UNL     1       0.193  -3.925   5.226  1.00  0.00     0.039 C 
ATOM      9  C   UNL     1       0.157  -5.422   5.426  1.00  0.00    -0.080 C 
ATOM     10  C   UNL     1       0.965  -6.042   6.536  1.00  0.00     0.039 C 
ENDBRANCH   6   7
ENDBRANCH   5   6
ENDBRANCH   3   5
ENDBRANCH   1   2
BRANCH   1  11
ATOM     11  C   UNL     1      -6.859  -5.078   2.994  1.00  0.00     0.034 C 
BRANCH  11  12
ATOM     12  C   UNL     1      -6.107  -3.763   3.063  1.00  0.00    -0.077 C 
ATOM     13  C   UNL     1      -5.553  -3.384   4.238  1.00  0.00    -0.028 C 
ATOM     14  C   UNL     1      -6.002  -2.907   1.822  1.00  0.00     0.039 C 
BRANCH  13  15
ATOM     15  C   UNL     1      -4.815  -2.087   4.456  1.00  0.00     0.035 C 
BRANCH  15  16
ATOM     16  C   UNL     1      -3.303  -2.327   4.521  1.00  0.00     0.079 C 
BRANCH  16  17
ATOM     17  C   UNL     1      -2.613  -1.697   3.340  1.00  0.00     0.130 C 
ATOM     18  O   UNL     1      -2.251  -0.532   3.405  1.00  0.00    -0.300 OA
ATOM     19  C   UNL     1      -2.348  -2.474   2.084  1.00  0.00     0.087 C 
ENDBRANCH  16  17
ENDBRANCH  15  16
ENDBRANCH  13  15
ENDBRANCH  11  12
ENDBRANCH   1  11
TORSDOF 9
ENDMDL
MODEL 7
REMARK VINA RESULT:    -5.705      2.589      5.381
REMARK INTER + INTRA:          -9.595
REMARK INTER:                  -8.551
REMARK INTRA:                  -1.044
REMARK UNBOUND:                -0.888
REMARK SMILES CC(=O)CCC=C(C)CCC=C(C)CCC=C(C)C
REMARK SMILES IDX 10 1 11 2 12 3 13 4 14 5 15 6 16 7 18 8 17 9 19 10 9 11 7 12
REMARK SMILES IDX 6 13 8 14 5 15 4 16 2 17 3 18 1 19
REMARK H PARENT
REMARK Flexibility Score: inf
ROOT
ATOM      1  C   UNL     1      -5.904  -6.069   3.534  1.00  0.00     0.032 C 
ENDROOT
BRANCH   1   2
ATOM      2  C   UNL     1      -4.469  -6.133   3.062  1.00  0.00    -0.028 C 
ATOM      3  C   UNL     1      -3.612  -7.105   3.440  1.00  0.00    -0.077 C 
ATOM      4  C   UNL     1      -4.036  -8.207   4.381  1.00  0.00     0.039 C 
BRANCH   3   5
ATOM      5  C   UNL     1      -2.193  -7.090   2.908  1.00  0.00     0.034 C 
BRANCH   5   6
ATOM      6  C   UNL     1      -1.381  -5.916   3.473  1.00  0.00     0.032 C 
BRANCH   6   7
ATOM      7  C   UNL     1      -0.514  -6.342   4.635  1.00  0.00    -0.028 C 
ATOM      8  C   UNL     1       0.203  -4.005   5.178  1.00  0.00     0.039 C 
ATOM      9  C   UNL     1       0.177  -5.494   5.428  1.00  0.00    -0.080 C 
ATOM     10  C   UNL     1       0.958  -6.067   6.582  1.00  0.00     0.039 C 
ENDBRANCH   6   7
ENDBRANCH   5   6
ENDBRANCH   3   5
ENDBRANCH   1   2
BRANCH   1  11
ATOM     11  C   UNL     1      -6.621  -4.804   3.038  1.00  0.00     0.034 C 
BRANCH  11  12
ATOM     12  C   UNL     1      -5.853  -3.542   3.380  1.00  0.00    -0.077 C 
ATOM     13  C   UNL     1      -5.512  -3.308   4.669  1.00  0.00    -0.028 C 
ATOM     14  C   UNL     1      -5.497  -2.573   2.275  1.00  0.00     0.039 C 
BRANCH  13  15
ATOM     15  C   UNL     1      -4.787  -2.077   5.151  1.00  0.00     0.035 C 
BRANCH  15  16
ATOM     16  C   UNL     1      -4.839  -1.980   6.679  1.00  0.00     0.079 C 
BRANCH  16  17
ATOM     17  C   UNL     1      -3.708  -1.130   7.197  1.00  0.00     0.130 C 
ATOM     18  O   UNL     1      -3.950  -0.026   7.662  1.00  0.00    -0.300 OA
ATOM     19  C   UNL     1      -2.289  -1.613   7.166  1.00  0.00     0.087 C 
ENDBRANCH  16  17
ENDBRANCH  15  16
ENDBRANCH  13  15
ENDBRANCH  11  12
ENDBRANCH   1  11
TORSDOF 9
ENDMDL
MODEL 8
REMARK VINA RESULT:    -5.703      3.908      5.910
REMARK INTER + INTRA:          -9.591
REMARK INTER:                  -7.611
REMARK INTRA:                  -1.980
REMARK UNBOUND:                -0.888
REMARK SMILES CC(=O)CCC=C(C)CCC=C(C)CCC=C(C)C
REMARK SMILES IDX 10 1 11 2 12 3 13 4 14 5 15 6 16 7 18 8 17 9 19 10 9 11 7 12
REMARK SMILES IDX 6 13 8 14 5 15 4 16 2 17 3 18 1 19
REMARK H PARENT
REMARK Flexibility Score: inf
ROOT
ATOM      1  C   UNL     1      -5.836  -6.783   2.840  1.00  0.00     0.032 C 
ENDROOT
BRANCH   1   2
ATOM      2  C   UNL     1      -4.343  -6.601   2.993  1.00  0.00    -0.028 C 
ATOM      3  C   UNL     1      -3.582  -7.386   3.786  1.00  0.00    -0.077 C 
ATOM      4  C   UNL     1      -4.185  -8.512   4.591  1.00  0.00     0.039 C 
BRANCH   3   5
ATOM      5  C   UNL     1      -2.091  -7.130   3.870  1.00  0.00     0.034 C 
BRANCH   5   6
ATOM      6  C   UNL     1      -1.637  -6.052   2.877  1.00  0.00     0.032 C 
BRANCH   6   7
ATOM      7  C   UNL     1      -1.244  -4.773   3.580  1.00  0.00    -0.028 C 
ATOM      8  C   UNL     1      -2.332  -3.299   1.871  1.00  0.00     0.039 C 
ATOM      9  C   UNL     1      -1.575  -3.533   3.157  1.00  0.00    -0.080 C 
ATOM     10  C   UNL     1      -1.153  -2.354   3.995  1.00  0.00     0.039 C 
ENDBRANCH   6   7
ENDBRANCH   5   6
ENDBRANCH   3   5
ENDBRANCH   1   2
BRANCH   1  11
ATOM     11  C   UNL     1      -6.630  -5.678   3.552  1.00  0.00     0.034 C 
BRANCH  11  12
ATOM     12  C   UNL     1      -6.030  -4.304   3.320  1.00  0.00    -0.077 C 
ATOM     13  C   UNL     1      -5.522  -3.623   4.373  1.00  0.00    -0.028 C 
ATOM     14  C   UNL     1      -6.022  -3.729   1.922  1.00  0.00     0.039 C 
BRANCH  13  15
ATOM     15  C   UNL     1      -4.935  -2.236   4.291  1.00  0.00     0.035 C 
BRANCH  15  16
ATOM     16  C   UNL     1      -4.527  -1.736   5.680  1.00  0.00     0.079 C 
BRANCH  16  17
ATOM     17  C   UNL     1      -4.460  -0.231   5.705  1.00  0.00     0.130 C 
ATOM     18  O   UNL     1      -5.154   0.389   6.497  1.00  0.00    -0.300 OA
ATOM     19  C   UNL     1      -3.549   0.527   4.785  1.00  0.00     0.087 C 
ENDBRANCH  16  17
ENDBRANCH  15  16
ENDBRANCH  13  15
ENDBRANCH  11  12
ENDBRANCH   1  11
TORSDOF 9
ENDMDL
MODEL 9
REMARK VINA RESULT:    -5.693      2.848      7.309
REMARK INTER + INTRA:          -9.577
REMARK INTER:                  -7.877
REMARK INTRA:                  -1.700
REMARK UNBOUND:                -0.888
REMARK SMILES CC(=O)CCC=C(C)CCC=C(C)CCC=C(C)C
REMARK SMILES IDX 10 1 11 2 12 3 13 4 14 5 15 6 16 7 18 8 17 9 19 10 9 11 7 12
REMARK SMILES IDX 6 13 8 14 5 15 4 16 2 17 3 18 1 19
REMARK H PARENT
REMARK Flexibility Score: inf
ROOT
ATOM      1  C   UNL     1      -1.901  -5.733   2.278  1.00  0.00     0.032 C 
ENDROOT
BRANCH   1   2
ATOM      2  C   UNL     1      -3.405  -5.760   2.425  1.00  0.00    -0.028 C 
ATOM      3  C   UNL     1      -4.048  -6.577   3.286  1.00  0.00    -0.077 C 
ATOM      4  C   UNL     1      -3.292  -7.540   4.170  1.00  0.00     0.039 C 
BRANCH   3   5
ATOM      5  C   UNL     1      -5.560  -6.527   3.367  1.00  0.00     0.034 C 
BRANCH   5   6
ATOM      6  C   UNL     1      -6.098  -5.101   3.186  1.00  0.00     0.032 C 
BRANCH   6   7
ATOM      7  C   UNL     1      -5.639  -4.185   4.297  1.00  0.00    -0.028 C 
ATOM      8  C   UNL     1      -4.838  -2.404   2.728  1.00  0.00     0.039 C 
ATOM      9  C   UNL     1      -5.102  -2.960   4.107  1.00  0.00    -0.080 C 
ATOM     10  C   UNL     1      -4.741  -2.140   5.319  1.00  0.00     0.039 C 
ENDBRANCH   6   7
ENDBRANCH   5   6
ENDBRANCH   3   5
ENDBRANCH   1   2
BRANCH   1  11
ATOM     11  C   UNL     1      -1.408  -4.449   1.594  1.00  0.00     0.034 C 
BRANCH  11  12
ATOM     12  C   UNL     1      -1.000  -3.388   2.597  1.00  0.00    -0.077 C 
ATOM     13  C   UNL     1      -0.617  -3.768   3.838  1.00  0.00    -0.028 C 
ATOM     14  C   UNL     1      -1.039  -1.933   2.188  1.00  0.00     0.039 C 
BRANCH  13  15
ATOM     15  C   UNL     1      -0.227  -2.817   4.941  1.00  0.00     0.035 C 
BRANCH  15  16
ATOM     16  C   UNL     1      -0.001  -3.573   6.254  1.00  0.00     0.079 C 
BRANCH  16  17
ATOM     17  C   UNL     1       1.169  -4.514   6.132  1.00  0.00     0.130 C 
ATOM     18  O   UNL     1       2.293  -4.060   5.982  1.00  0.00    -0.300 OA
ATOM     19  C   UNL     1       0.986  -6.001   6.203  1.00  0.00     0.087 C 
ENDBRANCH  16  17
ENDBRANCH  15  16
ENDBRANCH  13  15
ENDBRANCH  11  12
ENDBRANCH   1  11
TORSDOF 9
ENDMDL
