MODEL 1
REMARK VINA RESULT:    -4.625      0.000      0.000
REMARK INTER + INTRA:          -6.917
REMARK INTER:                  -6.248
REMARK INTRA:                  -0.669
REMARK UNBOUND:                -0.669
REMARK SMILES CCCCCCC=CC(=O)[O-]
REMARK SMILES IDX 5 1 6 2 7 3 8 4 9 5 10 6 11 7 4 8 3 9 2 10 1 11
REMARK H PARENT
REMARK Flexibility Score: inf
ROOT
ATOM      1  C   UNL     1      18.127  23.193   6.257  1.00  0.00     0.004 C 
ENDROOT
BRANCH   1   2
ATOM      2  C   UNL     1      17.680  23.314   7.722  1.00  0.00     0.027 C 
BRANCH   2   3
ATOM      3  C   UNL     1      17.501  24.752   8.118  1.00  0.00    -0.025 C 
ATOM      4  C   UNL     1      18.538  25.507   8.494  1.00  0.00     0.020 C 
BRANCH   4   5
ATOM      5  C   UNL     1      18.379  26.920   8.870  1.00  0.00     0.064 C 
ATOM      6  O   UNL     1      19.401  27.636   9.040  1.00  0.00    -0.545 OA
ATOM      7  O   UNL     1      17.118  27.478   9.043  1.00  0.00    -0.545 OA
ENDBRANCH   4   5
ENDBRANCH   2   3
ENDBRANCH   1   2
BRANCH   1   8
ATOM      8  C   UNL     1      19.580  22.714   6.121  1.00  0.00     0.000 C 
BRANCH   8   9
ATOM      9  C   UNL     1      20.130  22.114   7.427  1.00  0.00    -0.000 C 
BRANCH   9  10
ATOM     10  C   UNL     1      21.387  22.844   7.926  1.00  0.00    -0.003 C 
ATOM     11  C   UNL     1      21.350  23.122   9.428  1.00  0.00     0.004 C 
ENDBRANCH   9  10
ENDBRANCH   8   9
ENDBRANCH   1   8
TORSDOF 6
ENDMDL
MODEL 2
REMARK VINA RESULT:    -4.604      2.596      4.352
REMARK INTER + INTRA:          -6.889
REMARK INTER:                  -6.387
REMARK INTRA:                  -0.502
REMARK UNBOUND:                -0.669
REMARK SMILES CCCCCCC=CC(=O)[O-]
REMARK SMILES IDX 5 1 6 2 7 3 8 4 9 5 10 6 11 7 4 8 3 9 2 10 1 11
REMARK H PARENT
REMARK Flexibility Score: inf
ROOT
ATOM      1  C   UNL     1      17.707  23.513   6.352  1.00  0.00     0.004 C 
ENDROOT
BRANCH   1   2
ATOM      2  C   UNL     1      19.028  22.777   6.080  1.00  0.00     0.027 C 
BRANCH   2   3
ATOM      3  C   UNL     1      19.737  22.445   7.362  1.00  0.00    -0.025 C 
ATOM      4  C   UNL     1      20.998  22.831   7.583  1.00  0.00     0.020 C 
BRANCH   4   5
ATOM      5  C   UNL     1      21.700  22.525   8.838  1.00  0.00     0.064 C 
ATOM      6  O   UNL     1      22.607  21.652   8.845  1.00  0.00    -0.545 OA
ATOM      7  O   UNL     1      21.377  23.184  10.019  1.00  0.00    -0.545 OA
ENDBRANCH   4   5
ENDBRANCH   2   3
ENDBRANCH   1   2
BRANCH   1   8
ATOM      8  C   UNL     1      17.494  23.814   7.843  1.00  0.00     0.000 C 
BRANCH   8   9
ATOM      9  C   UNL     1      17.545  25.320   8.156  1.00  0.00    -0.000 C 
BRANCH   9  10
ATOM     10  C   UNL     1      18.885  25.748   8.774  1.00  0.00    -0.003 C 
ATOM     11  C   UNL     1      18.991  27.260   8.964  1.00  0.00     0.004 C 
ENDBRANCH   9  10
ENDBRANCH   8   9
ENDBRANCH   1   8
TORSDOF 6
ENDMDL
MODEL 3
REMARK VINA RESULT:    -4.593      1.191      2.723
REMARK INTER + INTRA:          -6.873
REMARK INTER:                  -6.149
REMARK INTRA:                  -0.724
REMARK UNBOUND:                -0.669
REMARK SMILES CCCCCCC=CC(=O)[O-]
REMARK SMILES IDX 5 1 6 2 7 3 8 4 9 5 10 6 11 7 4 8 3 9 2 10 1 11
REMARK H PARENT
REMARK Flexibility Score: inf
ROOT
ATOM      1  C   UNL     1      21.124  23.115   9.957  1.00  0.00     0.004 C 
ENDROOT
BRANCH   1   2
ATOM      2  C   UNL     1      19.637  22.781  10.152  1.00  0.00     0.027 C 
BRANCH   2   3
ATOM      3  C   UNL     1      18.780  24.003   9.985  1.00  0.00    -0.025 C 
ATOM      4  C   UNL     1      19.232  25.094   9.356  1.00  0.00     0.020 C 
BRANCH   4   5
ATOM      5  C   UNL     1      18.399  26.291   9.173  1.00  0.00     0.064 C 
ATOM      6  O   UNL     1      17.158  26.164   9.004  1.00  0.00    -0.545 OA
ATOM      7  O   UNL     1      18.960  27.563   9.182  1.00  0.00    -0.545 OA
ENDBRANCH   4   5
ENDBRANCH   2   3
ENDBRANCH   1   2
BRANCH   1   8
ATOM      8  C   UNL     1      21.765  22.311   8.816  1.00  0.00     0.000 C 
BRANCH   8   9
ATOM      9  C   UNL     1      20.720  21.647   7.901  1.00  0.00    -0.000 C 
BRANCH   9  10
ATOM     10  C   UNL     1      20.518  22.414   6.585  1.00  0.00    -0.003 C 
ATOM     11  C   UNL     1      19.056  22.786   6.338  1.00  0.00     0.004 C 
ENDBRANCH   9  10
ENDBRANCH   8   9
ENDBRANCH   1   8
TORSDOF 6
ENDMDL
MODEL 4
REMARK VINA RESULT:    -4.563      3.095      4.730
REMARK INTER + INTRA:          -6.834
REMARK INTER:                  -6.232
REMARK INTRA:                  -0.601
REMARK UNBOUND:                -0.669
REMARK SMILES CCCCCCC=CC(=O)[O-]
REMARK SMILES IDX 5 1 6 2 7 3 8 4 9 5 10 6 11 7 4 8 3 9 2 10 1 11
REMARK H PARENT
REMARK Flexibility Score: inf
ROOT
ATOM      1  C   UNL     1      17.027  23.849   8.786  1.00  0.00     0.004 C 
ENDROOT
BRANCH   1   2
ATOM      2  C   UNL     1      16.961  24.217   7.296  1.00  0.00     0.027 C 
BRANCH   2   3
ATOM      3  C   UNL     1      18.043  23.524   6.517  1.00  0.00    -0.025 C 
ATOM      4  C   UNL     1      19.195  23.162   7.092  1.00  0.00     0.020 C 
BRANCH   4   5
ATOM      5  C   UNL     1      20.256  22.471   6.345  1.00  0.00     0.064 C 
ATOM      6  O   UNL     1      21.432  22.469   6.795  1.00  0.00    -0.545 OA
ATOM      7  O   UNL     1      19.983  21.819   5.148  1.00  0.00    -0.545 OA
ENDBRANCH   4   5
ENDBRANCH   2   3
ENDBRANCH   1   2
BRANCH   1   8
ATOM      8  C   UNL     1      17.198  25.078   9.691  1.00  0.00     0.000 C 
BRANCH   8   9
ATOM      9  C   UNL     1      18.658  25.558   9.766  1.00  0.00    -0.000 C 
BRANCH   9  10
ATOM     10  C   UNL     1      18.860  26.931   9.105  1.00  0.00    -0.003 C 
ATOM     11  C   UNL     1      17.541  27.641   8.804  1.00  0.00     0.004 C 
ENDBRANCH   9  10
ENDBRANCH   8   9
ENDBRANCH   1   8
TORSDOF 6
ENDMDL
MODEL 5
REMARK VINA RESULT:    -4.517      1.730      2.675
REMARK INTER + INTRA:          -6.771
REMARK INTER:                  -6.187
REMARK INTRA:                  -0.584
REMARK UNBOUND:                -0.669
REMARK SMILES CCCCCCC=CC(=O)[O-]
REMARK SMILES IDX 5 1 6 2 7 3 8 4 9 5 10 6 11 7 4 8 3 9 2 10 1 11
REMARK H PARENT
REMARK Flexibility Score: inf
ROOT
ATOM      1  C   UNL     1      17.765  22.711  11.028  1.00  0.00     0.004 C 
ENDROOT
BRANCH   1   2
ATOM      2  C   UNL     1      16.993  23.478   9.943  1.00  0.00     0.027 C 
BRANCH   2   3
ATOM      3  C   UNL     1      17.244  24.955  10.040  1.00  0.00    -0.025 C 
ATOM      4  C   UNL     1      17.705  25.655   8.997  1.00  0.00     0.020 C 
BRANCH   4   5
ATOM      5  C   UNL     1      17.942  27.104   9.073  1.00  0.00     0.064 C 
ATOM      6  O   UNL     1      16.962  27.894   9.093  1.00  0.00    -0.545 OA
ATOM      7  O   UNL     1      19.233  27.618   9.124  1.00  0.00    -0.545 OA
ENDBRANCH   4   5
ENDBRANCH   2   3
ENDBRANCH   1   2
BRANCH   1   8
ATOM      8  C   UNL     1      19.042  22.049  10.487  1.00  0.00     0.000 C 
BRANCH   8   9
ATOM      9  C   UNL     1      20.255  22.996  10.515  1.00  0.00    -0.000 C 
BRANCH   9  10
ATOM     10  C   UNL     1      21.175  22.808   9.299  1.00  0.00    -0.003 C 
ATOM     11  C   UNL     1      20.630  23.478   8.038  1.00  0.00     0.004 C 
ENDBRANCH   9  10
ENDBRANCH   8   9
ENDBRANCH   1   8
TORSDOF 6
ENDMDL
MODEL 6
REMARK VINA RESULT:    -4.427      1.105      2.778
REMARK INTER + INTRA:          -6.650
REMARK INTER:                  -5.934
REMARK INTRA:                  -0.716
REMARK UNBOUND:                -0.669
REMARK SMILES CCCCCCC=CC(=O)[O-]
REMARK SMILES IDX 5 1 6 2 7 3 8 4 9 5 10 6 11 7 4 8 3 9 2 10 1 11
REMARK H PARENT
REMARK Flexibility Score: inf
ROOT
ATOM      1  C   UNL     1      20.084  22.237   7.984  1.00  0.00     0.004 C 
ENDROOT
BRANCH   1   2
ATOM      2  C   UNL     1      20.545  23.285   9.008  1.00  0.00     0.027 C 
BRANCH   2   3
ATOM      3  C   UNL     1      19.894  24.614   8.755  1.00  0.00    -0.025 C 
ATOM      4  C   UNL     1      18.923  25.080   9.548  1.00  0.00     0.020 C 
BRANCH   4   5
ATOM      5  C   UNL     1      18.288  26.385   9.319  1.00  0.00     0.064 C 
ATOM      6  O   UNL     1      17.036  26.455   9.201  1.00  0.00    -0.545 OA
ATOM      7  O   UNL     1      19.047  27.547   9.231  1.00  0.00    -0.545 OA
ENDBRANCH   4   5
ENDBRANCH   2   3
ENDBRANCH   1   2
BRANCH   1   8
ATOM      8  C   UNL     1      20.220  22.728   6.534  1.00  0.00     0.000 C 
BRANCH   8   9
ATOM      9  C   UNL     1      18.975  22.417   5.685  1.00  0.00    -0.000 C 
BRANCH   9  10
ATOM     10  C   UNL     1      17.677  22.452   6.508  1.00  0.00    -0.003 C 
ATOM     11  C   UNL     1      17.038  23.840   6.541  1.00  0.00     0.004 C 
ENDBRANCH   9  10
ENDBRANCH   8   9
ENDBRANCH   1   8
TORSDOF 6
ENDMDL
MODEL 7
REMARK VINA RESULT:    -4.426      2.338      3.158
REMARK INTER + INTRA:          -6.648
REMARK INTER:                  -5.967
REMARK INTRA:                  -0.681
REMARK UNBOUND:                -0.669
REMARK SMILES CCCCCCC=CC(=O)[O-]
REMARK SMILES IDX 5 1 6 2 7 3 8 4 9 5 10 6 11 7 4 8 3 9 2 10 1 11
REMARK H PARENT
REMARK Flexibility Score: inf
ROOT
ATOM      1  C   UNL     1      20.115  22.172   9.304  1.00  0.00     0.004 C 
ENDROOT
BRANCH   1   2
ATOM      2  C   UNL     1      20.375  23.233   8.223  1.00  0.00     0.027 C 
BRANCH   2   3
ATOM      3  C   UNL     1      19.357  24.335   8.287  1.00  0.00    -0.025 C 
ATOM      4  C   UNL     1      19.136  25.018   9.416  1.00  0.00     0.020 C 
BRANCH   4   5
ATOM      5  C   UNL     1      18.153  26.108   9.488  1.00  0.00     0.064 C 
ATOM      6  O   UNL     1      16.954  25.846   9.770  1.00  0.00    -0.545 OA
ATOM      7  O   UNL     1      18.524  27.427   9.250  1.00  0.00    -0.545 OA
ENDBRANCH   4   5
ENDBRANCH   2   3
ENDBRANCH   1   2
BRANCH   1   8
ATOM      8  C   UNL     1      18.936  21.251   8.955  1.00  0.00     0.000 C 
BRANCH   8   9
ATOM      9  C   UNL     1      18.020  20.979  10.162  1.00  0.00    -0.000 C 
BRANCH   9  10
ATOM     10  C   UNL     1      18.302  21.926  11.339  1.00  0.00    -0.003 C 
ATOM     11  C   UNL     1      17.059  22.694  11.789  1.00  0.00     0.004 C 
ENDBRANCH   9  10
ENDBRANCH   8   9
ENDBRANCH   1   8
TORSDOF 6
ENDMDL
MODEL 8
REMARK VINA RESULT:    -4.416      3.801      5.630
REMARK INTER + INTRA:          -6.634
REMARK INTER:                  -6.290
REMARK INTRA:                  -0.344
REMARK UNBOUND:                -0.669
REMARK SMILES CCCCCCC=CC(=O)[O-]
REMARK SMILES IDX 5 1 6 2 7 3 8 4 9 5 10 6 11 7 4 8 3 9 2 10 1 11
REMARK H PARENT
REMARK Flexibility Score: inf
ROOT
ATOM      1  C   UNL     1      19.240  24.117   7.982  1.00  0.00     0.004 C 
ENDROOT
BRANCH   1   2
ATOM      2  C   UNL     1      20.696  23.869   8.406  1.00  0.00     0.027 C 
BRANCH   2   3
ATOM      3  C   UNL     1      21.314  22.759   7.605  1.00  0.00    -0.025 C 
ATOM      4  C   UNL     1      20.756  22.322   6.471  1.00  0.00     0.020 C 
BRANCH   4   5
ATOM      5  C   UNL     1      21.358  21.246   5.669  1.00  0.00     0.064 C 
ATOM      6  O   UNL     1      21.407  21.358   4.416  1.00  0.00    -0.545 OA
ATOM      7  O   UNL     1      21.875  20.105   6.273  1.00  0.00    -0.545 OA
ENDBRANCH   4   5
ENDBRANCH   2   3
ENDBRANCH   1   2
BRANCH   1   8
ATOM      8  C   UNL     1      18.375  24.660   9.129  1.00  0.00     0.000 C 
BRANCH   8   9
ATOM      9  C   UNL     1      19.069  25.791   9.908  1.00  0.00    -0.000 C 
BRANCH   9  10
ATOM     10  C   UNL     1      19.002  27.139   9.174  1.00  0.00    -0.003 C 
ATOM     11  C   UNL     1      17.572  27.543   8.813  1.00  0.00     0.004 C 
ENDBRANCH   9  10
ENDBRANCH   8   9
ENDBRANCH   1   8
TORSDOF 6
ENDMDL
MODEL 9
REMARK VINA RESULT:    -4.210      3.222      4.479
REMARK INTER + INTRA:          -6.356
REMARK INTER:                  -5.653
REMARK INTRA:                  -0.702
REMARK UNBOUND:                -0.669
REMARK SMILES CCCCCCC=CC(=O)[O-]
REMARK SMILES IDX 5 1 6 2 7 3 8 4 9 5 10 6 11 7 4 8 3 9 2 10 1 11
REMARK H PARENT
REMARK Flexibility Score: inf
ROOT
ATOM      1  C   UNL     1      17.133  24.207   7.953  1.00  0.00     0.004 C 
ENDROOT
BRANCH   1   2
ATOM      2  C   UNL     1      17.382  23.844   6.481  1.00  0.00     0.027 C 
BRANCH   2   3
ATOM      3  C   UNL     1      18.399  22.746   6.357  1.00  0.00    -0.025 C 
ATOM      4  C   UNL     1      19.697  22.966   6.598  1.00  0.00     0.020 C 
BRANCH   4   5
ATOM      5  C   UNL     1      20.701  21.897   6.494  1.00  0.00     0.064 C 
ATOM      6  O   UNL     1      21.009  21.232   7.517  1.00  0.00    -0.545 OA
ATOM      7  O   UNL     1      21.319  21.609   5.282  1.00  0.00    -0.545 OA
ENDBRANCH   4   5
ENDBRANCH   2   3
ENDBRANCH   1   2
BRANCH   1   8
ATOM      8  C   UNL     1      17.748  25.560   8.339  1.00  0.00     0.000 C 
BRANCH   8   9
ATOM      9  C   UNL     1      18.904  25.419   9.345  1.00  0.00    -0.000 C 
BRANCH   9  10
ATOM     10  C   UNL     1      18.930  24.040  10.022  1.00  0.00    -0.003 C 
ATOM     11  C   UNL     1      20.347  23.494  10.195  1.00  0.00     0.004 C 
ENDBRANCH   9  10
ENDBRANCH   8   9
ENDBRANCH   1   8
TORSDOF 6
ENDMDL
