MODEL 1
REMARK VINA RESULT:    -4.803      0.000      0.000
REMARK INTER + INTRA:          -7.832
REMARK INTER:                  -7.330
REMARK INTRA:                  -0.502
REMARK UNBOUND:                -0.502
REMARK SMILES O=C([O-])CCCCCCCCC(=O)[O-]
REMARK SMILES IDX 7 1 6 2 5 3 4 4 2 5 1 6 3 7 8 8 9 9 10 10 11 11 12 12 13 13
REMARK SMILES IDX 14 14
REMARK H PARENT
REMARK Flexibility Score: inf
ROOT
ATOM      1  C   UNL     1      27.232  41.883  33.244  1.00  0.00     0.000 C 
ENDROOT
BRANCH   1   2
ATOM      2  C   UNL     1      27.939  41.043  32.170  1.00  0.00     0.000 C 
BRANCH   2   3
ATOM      3  C   UNL     1      28.121  39.574  32.591  1.00  0.00     0.006 C 
BRANCH   3   4
ATOM      4  C   UNL     1      27.387  39.252  33.900  1.00  0.00     0.053 C 
BRANCH   4   5
ATOM      5  C   UNL     1      27.315  37.776  34.150  1.00  0.00     0.041 C 
ATOM      6  O   UNL     1      26.988  37.342  35.286  1.00  0.00    -0.550 OA
ATOM      7  O   UNL     1      27.577  36.882  33.120  1.00  0.00    -0.550 OA
ENDBRANCH   4   5
ENDBRANCH   3   4
ENDBRANCH   2   3
ENDBRANCH   1   2
BRANCH   1   8
ATOM      8  C   UNL     1      28.216  42.660  34.133  1.00  0.00     0.000 C 
BRANCH   8   9
ATOM      9  C   UNL     1      27.571  43.017  35.480  1.00  0.00     0.000 C 
BRANCH   9  10
ATOM     10  C   UNL     1      26.345  43.931  35.327  1.00  0.00     0.006 C 
BRANCH  10  11
ATOM     11  C   UNL     1      25.173  43.500  36.219  1.00  0.00     0.053 C 
BRANCH  11  12
ATOM     12  C   UNL     1      24.069  42.928  35.387  1.00  0.00     0.041 C 
ATOM     13  O   UNL     1      23.070  43.633  35.087  1.00  0.00    -0.550 OA
ATOM     14  O   UNL     1      24.120  41.600  34.981  1.00  0.00    -0.550 OA
ENDBRANCH  11  12
ENDBRANCH  10  11
ENDBRANCH   9  10
ENDBRANCH   8   9
ENDBRANCH   1   8
TORSDOF 9
ENDMDL
MODEL 2
REMARK VINA RESULT:    -4.801      2.719      7.191
REMARK INTER + INTRA:          -7.828
REMARK INTER:                  -7.400
REMARK INTRA:                  -0.429
REMARK UNBOUND:                -0.502
REMARK SMILES O=C([O-])CCCCCCCCC(=O)[O-]
REMARK SMILES IDX 7 1 6 2 5 3 4 4 2 5 1 6 3 7 8 8 9 9 10 10 11 11 12 12 13 13
REMARK SMILES IDX 14 14
REMARK H PARENT
REMARK Flexibility Score: inf
ROOT
ATOM      1  C   UNL     1      28.033  39.182  33.809  1.00  0.00     0.000 C 
ENDROOT
BRANCH   1   2
ATOM      2  C   UNL     1      27.870  40.076  32.571  1.00  0.00     0.000 C 
BRANCH   2   3
ATOM      3  C   UNL     1      27.670  41.558  32.932  1.00  0.00     0.006 C 
BRANCH   3   4
ATOM      4  C   UNL     1      27.847  41.817  34.434  1.00  0.00     0.053 C 
BRANCH   4   5
ATOM      5  C   UNL     1      27.075  43.019  34.887  1.00  0.00     0.041 C 
ATOM      6  O   UNL     1      27.445  44.174  34.546  1.00  0.00    -0.550 OA
ATOM      7  O   UNL     1      25.932  42.863  35.659  1.00  0.00    -0.550 OA
ENDBRANCH   4   5
ENDBRANCH   3   4
ENDBRANCH   2   3
ENDBRANCH   1   2
BRANCH   1   8
ATOM      8  C   UNL     1      27.517  37.752  33.582  1.00  0.00     0.000 C 
BRANCH   8   9
ATOM      9  C   UNL     1      27.235  37.503  32.093  1.00  0.00     0.000 C 
BRANCH   9  10
ATOM     10  C   UNL     1      27.935  36.242  31.560  1.00  0.00     0.006 C 
BRANCH  10  11
ATOM     11  C   UNL     1      28.174  35.193  32.653  1.00  0.00     0.053 C 
BRANCH  11  12
ATOM     12  C   UNL     1      28.050  33.814  32.087  1.00  0.00     0.041 C 
ATOM     13  O   UNL     1      27.869  33.649  30.852  1.00  0.00    -0.550 OA
ATOM     14  O   UNL     1      28.086  32.710  32.930  1.00  0.00    -0.550 OA
ENDBRANCH  11  12
ENDBRANCH  10  11
ENDBRANCH   9  10
ENDBRANCH   8   9
ENDBRANCH   1   8
TORSDOF 9
ENDMDL
MODEL 3
REMARK VINA RESULT:    -4.722      2.671      3.873
REMARK INTER + INTRA:          -7.708
REMARK INTER:                  -7.356
REMARK INTRA:                  -0.353
REMARK UNBOUND:                -0.502
REMARK SMILES O=C([O-])CCCCCCCCC(=O)[O-]
REMARK SMILES IDX 7 1 6 2 5 3 4 4 2 5 1 6 3 7 8 8 9 9 10 10 11 11 12 12 13 13
REMARK SMILES IDX 14 14
REMARK H PARENT
REMARK Flexibility Score: inf
ROOT
ATOM      1  C   UNL     1      26.014  43.401  35.616  1.00  0.00     0.000 C 
ENDROOT
BRANCH   1   2
ATOM      2  C   UNL     1      26.009  42.062  34.863  1.00  0.00     0.000 C 
BRANCH   2   3
ATOM      3  C   UNL     1      27.342  41.779  34.150  1.00  0.00     0.006 C 
BRANCH   3   4
ATOM      4  C   UNL     1      27.559  40.280  33.900  1.00  0.00     0.053 C 
BRANCH   4   5
ATOM      5  C   UNL     1      27.871  39.994  32.462  1.00  0.00     0.041 C 
ATOM      6  O   UNL     1      28.223  40.928  31.694  1.00  0.00    -0.550 OA
ATOM      7  O   UNL     1      27.803  38.694  31.980  1.00  0.00    -0.550 OA
ENDBRANCH   4   5
ENDBRANCH   3   4
ENDBRANCH   2   3
ENDBRANCH   1   2
BRANCH   1   8
ATOM      8  C   UNL     1      24.658  43.722  36.265  1.00  0.00     0.000 C 
BRANCH   8   9
ATOM      9  C   UNL     1      23.510  43.508  35.267  1.00  0.00     0.000 C 
BRANCH   9  10
ATOM     10  C   UNL     1      22.302  44.417  35.549  1.00  0.00     0.006 C 
BRANCH  10  11
ATOM     11  C   UNL     1      22.555  45.393  36.705  1.00  0.00     0.053 C 
BRANCH  11  12
ATOM     12  C   UNL     1      22.354  46.803  36.249  1.00  0.00     0.041 C 
ATOM     13  O   UNL     1      21.868  47.038  35.111  1.00  0.00    -0.550 OA
ATOM     14  O   UNL     1      22.747  47.860  37.060  1.00  0.00    -0.550 OA
ENDBRANCH  11  12
ENDBRANCH  10  11
ENDBRANCH   9  10
ENDBRANCH   8   9
ENDBRANCH   1   8
TORSDOF 9
ENDMDL
MODEL 4
REMARK VINA RESULT:    -4.516      3.000      7.231
REMARK INTER + INTRA:          -7.393
REMARK INTER:                  -7.000
REMARK INTRA:                  -0.393
REMARK UNBOUND:                -0.502
REMARK SMILES O=C([O-])CCCCCCCCC(=O)[O-]
REMARK SMILES IDX 7 1 6 2 5 3 4 4 2 5 1 6 3 7 8 8 9 9 10 10 11 11 12 12 13 13
REMARK SMILES IDX 14 14
REMARK H PARENT
REMARK Flexibility Score: inf
ROOT
ATOM      1  C   UNL     1      23.822  44.237  36.243  1.00  0.00     0.000 C 
ENDROOT
BRANCH   1   2
ATOM      2  C   UNL     1      22.674  44.360  35.229  1.00  0.00     0.000 C 
BRANCH   2   3
ATOM      3  C   UNL     1      21.335  44.727  35.891  1.00  0.00     0.006 C 
BRANCH   3   4
ATOM      4  C   UNL     1      21.196  46.238  36.119  1.00  0.00     0.053 C 
BRANCH   4   5
ATOM      5  C   UNL     1      21.464  47.017  34.867  1.00  0.00     0.041 C 
ATOM      6  O   UNL     1      22.422  47.835  34.823  1.00  0.00    -0.550 OA
ATOM      7  O   UNL     1      20.677  46.818  33.740  1.00  0.00    -0.550 OA
ENDBRANCH   4   5
ENDBRANCH   3   4
ENDBRANCH   2   3
ENDBRANCH   1   2
BRANCH   1   8
ATOM      8  C   UNL     1      24.881  43.207  35.820  1.00  0.00     0.000 C 
BRANCH   8   9
ATOM      9  C   UNL     1      26.296  43.716  36.135  1.00  0.00     0.000 C 
BRANCH   9  10
ATOM     10  C   UNL     1      27.201  43.759  34.894  1.00  0.00     0.006 C 
BRANCH  10  11
ATOM     11  C   UNL     1      28.059  42.495  34.745  1.00  0.00     0.053 C 
BRANCH  11  12
ATOM     12  C   UNL     1      27.443  41.562  33.751  1.00  0.00     0.041 C 
ATOM     13  O   UNL     1      27.627  41.738  32.518  1.00  0.00    -0.550 OA
ATOM     14  O   UNL     1      26.625  40.526  34.183  1.00  0.00    -0.550 OA
ENDBRANCH  11  12
ENDBRANCH  10  11
ENDBRANCH   9  10
ENDBRANCH   8   9
ENDBRANCH   1   8
TORSDOF 9
ENDMDL
MODEL 5
REMARK VINA RESULT:    -4.511      2.406      3.403
REMARK INTER + INTRA:          -7.386
REMARK INTER:                  -7.078
REMARK INTRA:                  -0.308
REMARK UNBOUND:                -0.502
REMARK SMILES O=C([O-])CCCCCCCCC(=O)[O-]
REMARK SMILES IDX 7 1 6 2 5 3 4 4 2 5 1 6 3 7 8 8 9 9 10 10 11 11 12 12 13 13
REMARK SMILES IDX 14 14
REMARK H PARENT
REMARK Flexibility Score: inf
ROOT
ATOM      1  C   UNL     1      27.493  38.364  33.107  1.00  0.00     0.000 C 
ENDROOT
BRANCH   1   2
ATOM      2  C   UNL     1      27.468  37.003  33.818  1.00  0.00     0.000 C 
BRANCH   2   3
ATOM      3  C   UNL     1      27.763  35.832  32.865  1.00  0.00     0.006 C 
BRANCH   3   4
ATOM      4  C   UNL     1      27.671  36.247  31.390  1.00  0.00     0.053 C 
BRANCH   4   5
ATOM      5  C   UNL     1      26.701  35.394  30.630  1.00  0.00     0.041 C 
ATOM      6  O   UNL     1      25.467  35.645  30.676  1.00  0.00    -0.550 OA
ATOM      7  O   UNL     1      27.162  34.343  29.849  1.00  0.00    -0.550 OA
ENDBRANCH   4   5
ENDBRANCH   3   4
ENDBRANCH   2   3
ENDBRANCH   1   2
BRANCH   1   8
ATOM      8  C   UNL     1      28.011  39.496  34.009  1.00  0.00     0.000 C 
BRANCH   8   9
ATOM      9  C   UNL     1      27.339  40.831  33.653  1.00  0.00     0.000 C 
BRANCH   9  10
ATOM     10  C   UNL     1      26.179  41.182  34.599  1.00  0.00     0.006 C 
BRANCH  10  11
ATOM     11  C   UNL     1      26.270  42.616  35.137  1.00  0.00     0.053 C 
BRANCH  11  12
ATOM     12  C   UNL     1      24.968  43.026  35.747  1.00  0.00     0.041 C 
ATOM     13  O   UNL     1      24.946  43.610  36.862  1.00  0.00    -0.550 OA
ATOM     14  O   UNL     1      23.773  42.720  35.108  1.00  0.00    -0.550 OA
ENDBRANCH  11  12
ENDBRANCH  10  11
ENDBRANCH   9  10
ENDBRANCH   8   9
ENDBRANCH   1   8
TORSDOF 9
ENDMDL
MODEL 6
REMARK VINA RESULT:    -4.488      5.060      7.035
REMARK INTER + INTRA:          -7.351
REMARK INTER:                  -6.977
REMARK INTRA:                  -0.374
REMARK UNBOUND:                -0.502
REMARK SMILES O=C([O-])CCCCCCCCC(=O)[O-]
REMARK SMILES IDX 7 1 6 2 5 3 4 4 2 5 1 6 3 7 8 8 9 9 10 10 11 11 12 12 13 13
REMARK SMILES IDX 14 14
REMARK H PARENT
REMARK Flexibility Score: inf
ROOT
ATOM      1  C   UNL     1      28.541  34.646  30.812  1.00  0.00     0.000 C 
ENDROOT
BRANCH   1   2
ATOM      2  C   UNL     1      27.353  33.697  31.032  1.00  0.00     0.000 C 
BRANCH   2   3
ATOM      3  C   UNL     1      26.601  33.378  29.728  1.00  0.00     0.006 C 
BRANCH   3   4
ATOM      4  C   UNL     1      25.079  33.484  29.895  1.00  0.00     0.053 C 
BRANCH   4   5
ATOM      5  C   UNL     1      24.354  32.490  29.040  1.00  0.00     0.041 C 
ATOM      6  O   UNL     1      23.123  32.286  29.213  1.00  0.00    -0.550 OA
ATOM      7  O   UNL     1      25.029  31.812  28.034  1.00  0.00    -0.550 OA
ENDBRANCH   4   5
ENDBRANCH   3   4
ENDBRANCH   2   3
ENDBRANCH   1   2
BRANCH   1   8
ATOM      8  C   UNL     1      28.153  36.126  30.956  1.00  0.00     0.000 C 
BRANCH   8   9
ATOM      9  C   UNL     1      27.421  36.373  32.284  1.00  0.00     0.000 C 
BRANCH   9  10
ATOM     10  C   UNL     1      26.975  37.834  32.453  1.00  0.00     0.006 C 
BRANCH  10  11
ATOM     11  C   UNL     1      27.935  38.647  33.331  1.00  0.00     0.053 C 
BRANCH  11  12
ATOM     12  C   UNL     1      27.823  40.104  33.013  1.00  0.00     0.041 C 
ATOM     13  O   UNL     1      27.340  40.903  33.858  1.00  0.00    -0.550 OA
ATOM     14  O   UNL     1      28.207  40.576  31.763  1.00  0.00    -0.550 OA
ENDBRANCH  11  12
ENDBRANCH  10  11
ENDBRANCH   9  10
ENDBRANCH   8   9
ENDBRANCH   1   8
TORSDOF 9
ENDMDL
MODEL 7
REMARK VINA RESULT:    -4.419      1.609      6.615
REMARK INTER + INTRA:          -7.247
REMARK INTER:                  -6.985
REMARK INTRA:                  -0.261
REMARK UNBOUND:                -0.502
REMARK SMILES O=C([O-])CCCCCCCCC(=O)[O-]
REMARK SMILES IDX 7 1 6 2 5 3 4 4 2 5 1 6 3 7 8 8 9 9 10 10 11 11 12 12 13 13
REMARK SMILES IDX 14 14
REMARK H PARENT
REMARK Flexibility Score: inf
ROOT
ATOM      1  C   UNL     1      26.976  43.020  35.131  1.00  0.00     0.000 C 
ENDROOT
BRANCH   1   2
ATOM      2  C   UNL     1      25.863  43.745  35.904  1.00  0.00     0.000 C 
BRANCH   2   3
ATOM      3  C   UNL     1      24.520  42.996  35.849  1.00  0.00     0.006 C 
BRANCH   3   4
ATOM      4  C   UNL     1      23.449  43.782  35.081  1.00  0.00     0.053 C 
BRANCH   4   5
ATOM      5  C   UNL     1      22.554  44.552  36.003  1.00  0.00     0.041 C 
ATOM      6  O   UNL     1      21.302  44.474  35.881  1.00  0.00    -0.550 OA
ATOM      7  O   UNL     1      23.099  45.330  37.016  1.00  0.00    -0.550 OA
ENDBRANCH   4   5
ENDBRANCH   3   4
ENDBRANCH   2   3
ENDBRANCH   1   2
BRANCH   1   8
ATOM      8  C   UNL     1      26.511  41.681  34.537  1.00  0.00     0.000 C 
BRANCH   8   9
ATOM      9  C   UNL     1      27.587  41.090  33.613  1.00  0.00     0.000 C 
BRANCH   9  10
ATOM     10  C   UNL     1      27.702  39.562  33.737  1.00  0.00     0.006 C 
BRANCH  10  11
ATOM     11  C   UNL     1      27.624  38.852  32.379  1.00  0.00     0.053 C 
BRANCH  11  12
ATOM     12  C   UNL     1      27.619  37.368  32.568  1.00  0.00     0.041 C 
ATOM     13  O   UNL     1      27.852  36.605  31.594  1.00  0.00    -0.550 OA
ATOM     14  O   UNL     1      27.310  36.825  33.809  1.00  0.00    -0.550 OA
ENDBRANCH  11  12
ENDBRANCH  10  11
ENDBRANCH   9  10
ENDBRANCH   8   9
ENDBRANCH   1   8
TORSDOF 9
ENDMDL
MODEL 8
REMARK VINA RESULT:    -4.411      6.451      9.608
REMARK INTER + INTRA:          -7.233
REMARK INTER:                  -6.828
REMARK INTRA:                  -0.406
REMARK UNBOUND:                -0.502
REMARK SMILES O=C([O-])CCCCCCCCC(=O)[O-]
REMARK SMILES IDX 7 1 6 2 5 3 4 4 2 5 1 6 3 7 8 8 9 9 10 10 11 11 12 12 13 13
REMARK SMILES IDX 14 14
REMARK H PARENT
REMARK Flexibility Score: inf
ROOT
ATOM      1  C   UNL     1      26.285  34.990  30.252  1.00  0.00     0.000 C 
ENDROOT
BRANCH   1   2
ATOM      2  C   UNL     1      27.786  35.318  30.238  1.00  0.00     0.000 C 
BRANCH   2   3
ATOM      3  C   UNL     1      28.211  36.200  31.425  1.00  0.00     0.006 C 
BRANCH   3   4
ATOM      4  C   UNL     1      27.101  36.329  32.477  1.00  0.00     0.053 C 
BRANCH   4   5
ATOM      5  C   UNL     1      27.397  35.517  33.702  1.00  0.00     0.041 C 
ATOM      6  O   UNL     1      27.055  35.939  34.839  1.00  0.00    -0.550 OA
ATOM      7  O   UNL     1      28.022  34.282  33.585  1.00  0.00    -0.550 OA
ENDBRANCH   4   5
ENDBRANCH   3   4
ENDBRANCH   2   3
ENDBRANCH   1   2
BRANCH   1   8
ATOM      8  C   UNL     1      26.006  33.483  30.137  1.00  0.00     0.000 C 
BRANCH   8   9
ATOM      9  C   UNL     1      24.527  33.224  29.810  1.00  0.00     0.000 C 
BRANCH   9  10
ATOM     10  C   UNL     1      24.341  32.351  28.559  1.00  0.00     0.006 C 
BRANCH  10  11
ATOM     11  C   UNL     1      22.868  32.209  28.152  1.00  0.00     0.053 C 
BRANCH  11  12
ATOM     12  C   UNL     1      22.189  31.185  29.006  1.00  0.00     0.041 C 
ATOM     13  O   UNL     1      21.250  31.522  29.774  1.00  0.00    -0.550 OA
ATOM     14  O   UNL     1      22.625  29.866  28.991  1.00  0.00    -0.550 OA
ENDBRANCH  11  12
ENDBRANCH  10  11
ENDBRANCH   9  10
ENDBRANCH   8   9
ENDBRANCH   1   8
TORSDOF 9
ENDMDL
MODEL 9
REMARK VINA RESULT:    -4.317      6.209      8.369
REMARK INTER + INTRA:          -7.090
REMARK INTER:                  -6.777
REMARK INTRA:                  -0.313
REMARK UNBOUND:                -0.502
REMARK SMILES O=C([O-])CCCCCCCCC(=O)[O-]
REMARK SMILES IDX 7 1 6 2 5 3 4 4 2 5 1 6 3 7 8 8 9 9 10 10 11 11 12 12 13 13
REMARK SMILES IDX 14 14
REMARK H PARENT
REMARK Flexibility Score: inf
ROOT
ATOM      1  C   UNL     1      26.137  34.287  30.383  1.00  0.00     0.000 C 
ENDROOT
BRANCH   1   2
ATOM      2  C   UNL     1      25.654  33.032  29.641  1.00  0.00     0.000 C 
BRANCH   2   3
ATOM      3  C   UNL     1      24.121  32.966  29.526  1.00  0.00     0.006 C 
BRANCH   3   4
ATOM      4  C   UNL     1      23.665  32.072  28.365  1.00  0.00     0.053 C 
BRANCH   4   5
ATOM      5  C   UNL     1      22.640  31.069  28.803  1.00  0.00     0.041 C 
ATOM      6  O   UNL     1      23.000  30.000  29.364  1.00  0.00    -0.550 OA
ATOM      7  O   UNL     1      21.289  31.329  28.619  1.00  0.00    -0.550 OA
ENDBRANCH   4   5
ENDBRANCH   3   4
ENDBRANCH   2   3
ENDBRANCH   1   2
BRANCH   1   8
ATOM      8  C   UNL     1      27.659  34.481  30.292  1.00  0.00     0.000 C 
BRANCH   8   9
ATOM      9  C   UNL     1      28.063  35.879  30.787  1.00  0.00     0.000 C 
BRANCH   9  10
ATOM     10  C   UNL     1      26.984  36.531  31.666  1.00  0.00     0.006 C 
BRANCH  10  11
ATOM     11  C   UNL     1      27.537  37.033  33.006  1.00  0.00     0.053 C 
BRANCH  11  12
ATOM     12  C   UNL     1      27.423  38.522  33.091  1.00  0.00     0.041 C 
ATOM     13  O   UNL     1      26.827  39.058  34.063  1.00  0.00    -0.550 OA
ATOM     14  O   UNL     1      27.932  39.318  32.074  1.00  0.00    -0.550 OA
ENDBRANCH  11  12
ENDBRANCH  10  11
ENDBRANCH   9  10
ENDBRANCH   8   9
ENDBRANCH   1   8
TORSDOF 9
ENDMDL
