MODEL 1
REMARK VINA RESULT:    -3.974      0.000      0.000
REMARK INTER + INTRA:          -6.223
REMARK INTER:                  -5.833
REMARK INTRA:                  -0.390
REMARK UNBOUND:                -0.390
REMARK SMILES C=C1C=C[C@H](C(C)C)CCC(C)=CCC1
REMARK SMILES IDX 3 1 4 2 5 3 9 4 10 5 11 6 12 7 13 8 6 10 7 11 8 12 2 13 1 14
REMARK SMILES IDX 15 15 14 16
REMARK H PARENT
REMARK Flexibility Score: 70.00
ROOT
ATOM      1  C   UNL     1      12.005   5.167  27.412  1.00  0.00    -0.001 C 
ATOM      2  C   UNL     1      12.031   6.333  26.745  1.00  0.00    -0.023 C 
ENDROOT
BRANCH   2   3
ATOM      3  C   UNL     1      10.924   7.373  26.605  1.00  0.00     0.014 C 
BRANCH   3   4
ATOM      4  C   UNL     1      10.737   8.231  27.891  1.00  0.00     0.012 C 
BRANCH   4   5
ATOM      5  C   UNL     1       9.424   8.014  28.677  1.00  0.00     0.031 C 
BRANCH   5   6
ATOM      6  C   UNL     1       9.643   7.921  30.174  1.00  0.00    -0.077 C 
ATOM      7  C   UNL     1       9.812   9.195  30.966  1.00  0.00     0.039 C 
ATOM      8  C   UNL     1       9.758   6.745  30.838  1.00  0.00    -0.028 CG0
ATOM      9  G   UNL     1       9.549   5.363  30.258  1.00  0.00     0.000 G0
ENDBRANCH   5   6
ENDBRANCH   4   5
ENDBRANCH   3   4
BRANCH   3  10
ATOM     10  C   UNL     1      10.932   8.153  25.251  1.00  0.00    -0.010 C 
ATOM     11  C   UNL     1      11.843   9.394  25.318  1.00  0.00     0.008 C 
ATOM     12  C   UNL     1      11.410   7.260  24.093  1.00  0.00     0.008 C 
ENDBRANCH   3  10
ENDBRANCH   2   3
BRANCH   1  13
ATOM     13  C   UNL     1      10.857   4.629  28.160  1.00  0.00    -0.055 C 
ATOM     14  C   UNL     1       9.732   4.342  27.497  1.00  0.00     0.012 C 
BRANCH  13  15
ATOM     15  C   UNL     1      10.823   4.716  29.673  1.00  0.00     0.039 C 
BRANCH  15  16
ATOM     16  C   UNL     1       9.543   5.367  30.242  1.00  0.00     0.032 CG0
ATOM     17  G   UNL     1       9.752   6.748  30.826  1.00  0.00     0.000 G0
ENDBRANCH  15  16
ENDBRANCH  13  15
ENDBRANCH   1  13
TORSDOF 1
ENDMDL
MODEL 2
REMARK VINA RESULT:    -3.846      3.696      6.128
REMARK INTER + INTRA:          -6.035
REMARK INTER:                  -5.643
REMARK INTRA:                  -0.392
REMARK UNBOUND:                -0.390
REMARK SMILES C=C1C=C[C@H](C(C)C)CCC(C)=CCC1
REMARK SMILES IDX 3 1 4 2 5 3 9 4 10 5 11 6 12 7 13 8 6 10 7 11 8 12 2 13 1 14
REMARK SMILES IDX 15 15 14 16
REMARK H PARENT
REMARK Flexibility Score: 70.00
ROOT
ATOM      1  C   UNL     1      14.260   8.037  22.439  1.00  0.00    -0.001 C 
ATOM      2  C   UNL     1      14.982   7.854  23.557  1.00  0.00    -0.023 C 
ENDROOT
BRANCH   2   3
ATOM      3  C   UNL     1      14.798   8.506  24.924  1.00  0.00     0.014 C 
BRANCH   3   4
ATOM      4  C   UNL     1      14.448   7.477  26.040  1.00  0.00     0.012 C 
BRANCH   4   5
ATOM      5  C   UNL     1      13.463   6.351  25.652  1.00  0.00     0.031 C 
BRANCH   5   6
ATOM      6  C   UNL     1      12.018   6.711  25.932  1.00  0.00    -0.077 C 
ATOM      7  C   UNL     1      11.490   6.563  27.338  1.00  0.00     0.039 C 
ATOM      8  C   UNL     1      11.149   7.103  24.969  1.00  0.00    -0.028 CG0
ATOM      9  G   UNL     1      11.483   7.388  23.520  1.00  0.00     0.000 G0
ENDBRANCH   5   6
ENDBRANCH   4   5
ENDBRANCH   3   4
BRANCH   3  10
ATOM     10  C   UNL     1      15.880   9.574  25.286  1.00  0.00    -0.010 C 
ATOM     11  C   UNL     1      16.963   8.991  26.214  1.00  0.00     0.008 C 
ATOM     12  C   UNL     1      16.567  10.125  24.023  1.00  0.00     0.008 C 
ENDBRANCH   3  10
ENDBRANCH   2   3
BRANCH   1  13
ATOM     13  C   UNL     1      13.112   8.946  22.294  1.00  0.00    -0.055 C 
ATOM     14  C   UNL     1      13.248  10.042  21.541  1.00  0.00     0.012 C 
BRANCH  13  15
ATOM     15  C   UNL     1      11.926   8.836  23.233  1.00  0.00     0.039 C 
BRANCH  15  16
ATOM     16  C   UNL     1      11.467   7.388  23.508  1.00  0.00     0.032 CG0
ATOM     17  G   UNL     1      11.156   7.097  24.960  1.00  0.00     0.000 G0
ENDBRANCH  15  16
ENDBRANCH  13  15
ENDBRANCH   1  13
TORSDOF 1
ENDMDL
MODEL 3
REMARK VINA RESULT:    -3.729      4.048      6.850
REMARK INTER + INTRA:          -5.864
REMARK INTER:                  -5.383
REMARK INTRA:                  -0.481
REMARK UNBOUND:                -0.390
REMARK SMILES C=C1C=C[C@H](C(C)C)CCC(C)=CCC1
REMARK SMILES IDX 3 1 4 2 5 3 9 4 10 5 11 6 12 7 13 8 6 10 7 11 8 12 2 13 1 14
REMARK SMILES IDX 15 15 14 16
REMARK H PARENT
REMARK Flexibility Score: 70.00
ROOT
ATOM      1  C   UNL     1      10.718   8.285  24.637  1.00  0.00    -0.001 C 
ATOM      2  C   UNL     1      11.227   7.710  25.739  1.00  0.00    -0.023 C 
ENDROOT
BRANCH   2   3
ATOM      3  C   UNL     1      12.429   6.777  25.855  1.00  0.00     0.014 C 
BRANCH   3   4
ATOM      4  C   UNL     1      13.788   7.539  25.834  1.00  0.00     0.012 C 
BRANCH   4   5
ATOM      5  C   UNL     1      14.749   7.199  24.672  1.00  0.00     0.031 C 
BRANCH   5   6
ATOM      6  C   UNL     1      15.319   8.432  24.000  1.00  0.00    -0.077 C 
ATOM      7  C   UNL     1      16.570   9.057  24.568  1.00  0.00     0.039 C 
ATOM      8  C   UNL     1      14.730   9.044  22.945  1.00  0.00    -0.028 CG0
ATOM      9  G   UNL     1      13.523   8.548  22.178  1.00  0.00     0.000 G0
ENDBRANCH   5   6
ENDBRANCH   4   5
ENDBRANCH   3   4
BRANCH   3  10
ATOM     10  C   UNL     1      12.283   5.660  26.937  1.00  0.00    -0.010 C 
ATOM     11  C   UNL     1      13.523   5.589  27.850  1.00  0.00     0.008 C 
ATOM     12  C   UNL     1      11.043   5.893  27.819  1.00  0.00     0.008 C 
ENDBRANCH   3  10
ENDBRANCH   2   3
BRANCH   1  13
ATOM     13  C   UNL     1      11.223   8.116  23.265  1.00  0.00    -0.055 C 
ATOM     14  C   UNL     1      11.090   6.926  22.670  1.00  0.00     0.012 C 
BRANCH  13  15
ATOM     15  C   UNL     1      12.167   9.141  22.668  1.00  0.00     0.039 C 
BRANCH  15  16
ATOM     16  C   UNL     1      13.510   8.556  22.178  1.00  0.00     0.032 CG0
ATOM     17  G   UNL     1      14.720   9.042  22.947  1.00  0.00     0.000 G0
ENDBRANCH  15  16
ENDBRANCH  13  15
ENDBRANCH   1  13
TORSDOF 1
ENDMDL
MODEL 4
REMARK VINA RESULT:    -3.707      2.051      5.132
REMARK INTER + INTRA:          -5.831
REMARK INTER:                  -6.066
REMARK INTRA:                   0.235
REMARK UNBOUND:                -0.390
REMARK SMILES C=C1C=C[C@H](C(C)C)CCC(C)=CCC1
REMARK SMILES IDX 3 1 4 2 5 3 9 4 10 5 11 6 12 7 13 8 6 10 7 11 8 12 2 13 1 14
REMARK SMILES IDX 15 15 14 16
REMARK H PARENT
REMARK Flexibility Score: 70.00
ROOT
ATOM      1  C   UNL     1       8.666   6.945  28.265  1.00  0.00    -0.001 C 
ATOM      2  C   UNL     1       8.919   5.626  28.214  1.00  0.00    -0.023 C 
ENDROOT
BRANCH   2   3
ATOM      3  C   UNL     1      10.193   4.887  28.614  1.00  0.00     0.014 C 
BRANCH   3   4
ATOM      4  C   UNL     1      11.255   4.858  27.475  1.00  0.00     0.012 C 
BRANCH   4   5
ATOM      5  C   UNL     1      12.392   5.900  27.569  1.00  0.00     0.031 C 
BRANCH   5   6
ATOM      6  C   UNL     1      12.648   6.611  26.255  1.00  0.00    -0.077 C 
ATOM      7  C   UNL     1      13.899   6.278  25.479  1.00  0.00     0.039 C 
ATOM      8  C   UNL     1      11.839   7.581  25.763  1.00  0.00    -0.028 CG0
ATOM      9  G   UNL     1      10.507   8.014  26.335  1.00  0.00     0.000 G0
ENDBRANCH   5   6
ENDBRANCH   4   5
ENDBRANCH   3   4
BRANCH   3  10
ATOM     10  C   UNL     1      10.723   5.233  30.043  1.00  0.00    -0.010 C 
ATOM     11  C   UNL     1       9.657   4.968  31.123  1.00  0.00     0.008 C 
ATOM     12  C   UNL     1      11.979   4.411  30.387  1.00  0.00     0.008 C 
ENDBRANCH   3  10
ENDBRANCH   2   3
BRANCH   1  13
ATOM     13  C   UNL     1       9.603   7.985  28.719  1.00  0.00    -0.055 C 
ATOM     14  C   UNL     1       9.381   8.584  29.894  1.00  0.00     0.012 C 
BRANCH  13  15
ATOM     15  C   UNL     1      10.587   8.605  27.747  1.00  0.00     0.039 C 
BRANCH  15  16
ATOM     16  C   UNL     1      10.514   8.029  26.316  1.00  0.00     0.032 CG0
ATOM     17  G   UNL     1      11.844   7.566  25.761  1.00  0.00     0.000 G0
ENDBRANCH  15  16
ENDBRANCH  13  15
ENDBRANCH   1  13
TORSDOF 1
ENDMDL
MODEL 5
REMARK VINA RESULT:    -3.672     10.909     13.393
REMARK INTER + INTRA:          -5.780
REMARK INTER:                  -5.267
REMARK INTRA:                  -0.514
REMARK UNBOUND:                -0.390
REMARK SMILES C=C1C=C[C@H](C(C)C)CCC(C)=CCC1
REMARK SMILES IDX 3 1 4 2 5 3 9 4 10 5 11 6 12 7 13 8 6 10 7 11 8 12 2 13 1 14
REMARK SMILES IDX 15 15 14 16
REMARK H PARENT
REMARK Flexibility Score: 70.00
ROOT
ATOM      1  C   UNL     1       3.377   8.395  20.011  1.00  0.00    -0.001 C 
ATOM      2  C   UNL     1       2.373   8.604  19.143  1.00  0.00    -0.023 C 
ENDROOT
BRANCH   2   3
ATOM      3  C   UNL     1       2.430   9.253  17.763  1.00  0.00     0.014 C 
BRANCH   3   4
ATOM      4  C   UNL     1       2.928   8.275  16.657  1.00  0.00     0.012 C 
BRANCH   4   5
ATOM      5  C   UNL     1       4.146   8.739  15.827  1.00  0.00     0.031 C 
BRANCH   5   6
ATOM      6  C   UNL     1       5.217   7.673  15.709  1.00  0.00    -0.077 C 
ATOM      7  C   UNL     1       5.196   6.749  14.516  1.00  0.00     0.039 C 
ATOM      8  C   UNL     1       6.166   7.463  16.653  1.00  0.00    -0.028 CG0
ATOM      9  G   UNL     1       6.415   8.314  17.881  1.00  0.00     0.000 G0
ENDBRANCH   5   6
ENDBRANCH   4   5
ENDBRANCH   3   4
BRANCH   3  10
ATOM     10  C   UNL     1       1.185  10.125  17.402  1.00  0.00    -0.010 C 
ATOM     11  C   UNL     1       0.524   9.654  16.092  1.00  0.00     0.008 C 
ATOM     12  C   UNL     1       0.130  10.084  18.522  1.00  0.00     0.008 C 
ENDBRANCH   3  10
ENDBRANCH   2   3
BRANCH   1  13
ATOM     13  C   UNL     1       4.784   8.775  19.808  1.00  0.00    -0.055 C 
ATOM     14  C   UNL     1       5.126  10.063  19.908  1.00  0.00     0.012 C 
BRANCH  13  15
ATOM     15  C   UNL     1       5.754   7.799  19.171  1.00  0.00     0.039 C 
BRANCH  15  16
ATOM     16  C   UNL     1       6.432   8.325  17.887  1.00  0.00     0.032 CG0
ATOM     17  G   UNL     1       6.187   7.474  16.659  1.00  0.00     0.000 G0
ENDBRANCH  15  16
ENDBRANCH  13  15
ENDBRANCH   1  13
TORSDOF 1
ENDMDL
MODEL 6
REMARK VINA RESULT:    -3.647     10.689     13.221
REMARK INTER + INTRA:          -5.743
REMARK INTER:                  -5.321
REMARK INTRA:                  -0.422
REMARK UNBOUND:                -0.390
REMARK SMILES C=C1C=C[C@H](C(C)C)CCC(C)=CCC1
REMARK SMILES IDX 3 1 4 2 5 3 9 4 10 5 11 6 12 7 13 8 6 10 7 11 8 12 2 13 1 14
REMARK SMILES IDX 15 15 14 16
REMARK H PARENT
REMARK Flexibility Score: 70.00
ROOT
ATOM      1  C   UNL     1       3.692   6.777  15.782  1.00  0.00    -0.001 C 
ATOM      2  C   UNL     1       4.948   6.574  15.351  1.00  0.00    -0.023 C 
ENDROOT
BRANCH   2   3
ATOM      3  C   UNL     1       5.968   7.604  14.874  1.00  0.00     0.014 C 
BRANCH   3   4
ATOM      4  C   UNL     1       6.774   8.242  16.046  1.00  0.00     0.012 C 
BRANCH   4   5
ATOM      5  C   UNL     1       6.602   7.586  17.434  1.00  0.00     0.031 C 
BRANCH   5   6
ATOM      6  C   UNL     1       6.294   8.592  18.526  1.00  0.00    -0.077 C 
ATOM      7  C   UNL     1       7.441   9.266  19.239  1.00  0.00     0.039 C 
ATOM      8  C   UNL     1       5.036   8.876  18.942  1.00  0.00    -0.028 CG0
ATOM      9  G   UNL     1       3.750   8.376  18.321  1.00  0.00     0.000 G0
ENDBRANCH   5   6
ENDBRANCH   4   5
ENDBRANCH   3   4
BRANCH   3  10
ATOM     10  C   UNL     1       6.797   7.168  13.624  1.00  0.00    -0.010 C 
ATOM     11  C   UNL     1       8.278   7.573  13.758  1.00  0.00     0.008 C 
ATOM     12  C   UNL     1       6.726   5.646  13.409  1.00  0.00     0.008 C 
ENDBRANCH   3  10
ENDBRANCH   2   3
BRANCH   1  13
ATOM     13  C   UNL     1       3.013   8.080  15.873  1.00  0.00    -0.055 C 
ATOM     14  C   UNL     1       2.311   8.516  14.822  1.00  0.00     0.012 C 
BRANCH  13  15
ATOM     15  C   UNL     1       3.371   9.052  16.979  1.00  0.00     0.039 C 
BRANCH  15  16
ATOM     16  C   UNL     1       3.738   8.381  18.321  1.00  0.00     0.032 CG0
ATOM     17  G   UNL     1       5.032   8.875  18.932  1.00  0.00     0.000 G0
ENDBRANCH  15  16
ENDBRANCH  13  15
ENDBRANCH   1  13
TORSDOF 1
ENDMDL
MODEL 7
REMARK VINA RESULT:    -3.638      4.397      7.480
REMARK INTER + INTRA:          -5.730
REMARK INTER:                  -5.224
REMARK INTRA:                  -0.507
REMARK UNBOUND:                -0.390
REMARK SMILES C=C1C=C[C@H](C(C)C)CCC(C)=CCC1
REMARK SMILES IDX 3 1 4 2 5 3 9 4 10 5 11 6 12 7 13 8 6 10 7 11 8 12 2 13 1 14
REMARK SMILES IDX 15 15 14 16
REMARK H PARENT
REMARK Flexibility Score: 70.00
ROOT
ATOM      1  C   UNL     1      15.590   7.847  24.169  1.00  0.00    -0.001 C 
ATOM      2  C   UNL     1      14.624   7.053  24.658  1.00  0.00    -0.023 C 
ENDROOT
BRANCH   2   3
ATOM      3  C   UNL     1      13.230   7.441  25.143  1.00  0.00     0.014 C 
BRANCH   3   4
ATOM      4  C   UNL     1      12.100   6.925  24.204  1.00  0.00     0.012 C 
BRANCH   4   5
ATOM      5  C   UNL     1      11.481   7.961  23.239  1.00  0.00     0.031 C 
BRANCH   5   6
ATOM      6  C   UNL     1      12.139   7.959  21.873  1.00  0.00    -0.077 C 
ATOM      7  C   UNL     1      11.724   6.913  20.867  1.00  0.00     0.039 C 
ATOM      8  C   UNL     1      13.130   8.813  21.523  1.00  0.00    -0.028 CG0
ATOM      9  G   UNL     1      13.643   9.978  22.343  1.00  0.00     0.000 G0
ENDBRANCH   5   6
ENDBRANCH   4   5
ENDBRANCH   3   4
BRANCH   3  10
ATOM     10  C   UNL     1      12.997   7.244  26.676  1.00  0.00    -0.010 C 
ATOM     11  C   UNL     1      11.499   7.093  27.006  1.00  0.00     0.008 C 
ATOM     12  C   UNL     1      13.738   6.000  27.199  1.00  0.00     0.008 C 
ENDBRANCH   3  10
ENDBRANCH   2   3
BRANCH   1  13
ATOM     13  C   UNL     1      15.506   9.308  24.006  1.00  0.00    -0.055 C 
ATOM     14  C   UNL     1      15.427  10.075  25.098  1.00  0.00     0.012 C 
BRANCH  13  15
ATOM     15  C   UNL     1      15.172   9.908  22.655  1.00  0.00     0.039 C 
BRANCH  15  16
ATOM     16  C   UNL     1      13.660   9.977  22.346  1.00  0.00     0.032 CG0
ATOM     17  G   UNL     1      13.135   8.810  21.537  1.00  0.00     0.000 G0
ENDBRANCH  15  16
ENDBRANCH  13  15
ENDBRANCH   1  13
TORSDOF 1
ENDMDL
MODEL 8
REMARK VINA RESULT:    -3.631      2.824      5.188
REMARK INTER + INTRA:          -5.720
REMARK INTER:                  -5.234
REMARK INTRA:                  -0.486
REMARK UNBOUND:                -0.390
REMARK SMILES C=C1C=C[C@H](C(C)C)CCC(C)=CCC1
REMARK SMILES IDX 3 1 4 2 5 3 9 4 10 5 11 6 12 7 13 8 6 10 7 11 8 12 2 13 1 14
REMARK SMILES IDX 15 15 14 16
REMARK H PARENT
REMARK Flexibility Score: 70.00
ROOT
ATOM      1  C   UNL     1      11.789   4.947  27.209  1.00  0.00    -0.001 C 
ATOM      2  C   UNL     1      10.660   5.628  27.467  1.00  0.00    -0.023 C 
ENDROOT
BRANCH   2   3
ATOM      3  C   UNL     1      10.456   7.138  27.537  1.00  0.00     0.014 C 
BRANCH   3   4
ATOM      4  C   UNL     1      10.429   7.809  26.131  1.00  0.00     0.012 C 
BRANCH   4   5
ATOM      5  C   UNL     1      11.376   9.013  25.926  1.00  0.00     0.031 C 
BRANCH   5   6
ATOM      6  C   UNL     1      12.104   8.970  24.598  1.00  0.00    -0.077 C 
ATOM      7  C   UNL     1      11.547   9.757  23.437  1.00  0.00     0.039 C 
ATOM      8  C   UNL     1      13.203   8.209  24.375  1.00  0.00    -0.028 CG0
ATOM      9  G   UNL     1      13.965   7.408  25.410  1.00  0.00     0.000 G0
ENDBRANCH   5   6
ENDBRANCH   4   5
ENDBRANCH   3   4
BRANCH   3  10
ATOM     10  C   UNL     1       9.352   7.599  28.541  1.00  0.00    -0.010 C 
ATOM     11  C   UNL     1       9.008   6.490  29.554  1.00  0.00     0.008 C 
ATOM     12  C   UNL     1       9.793   8.851  29.322  1.00  0.00     0.008 C 
ENDBRANCH   3  10
ENDBRANCH   2   3
BRANCH   1  13
ATOM     13  C   UNL     1      13.111   5.539  26.945  1.00  0.00    -0.055 C 
ATOM     14  C   UNL     1      13.829   5.999  27.975  1.00  0.00     0.012 C 
BRANCH  13  15
ATOM     15  C   UNL     1      13.505   5.931  25.535  1.00  0.00     0.039 C 
BRANCH  15  16
ATOM     16  C   UNL     1      13.978   7.394  25.392  1.00  0.00     0.032 CG0
ATOM     17  G   UNL     1      13.202   8.205  24.376  1.00  0.00     0.000 G0
ENDBRANCH  15  16
ENDBRANCH  13  15
ENDBRANCH   1  13
TORSDOF 1
ENDMDL
MODEL 9
REMARK VINA RESULT:    -3.561     11.669     14.599
REMARK INTER + INTRA:          -5.617
REMARK INTER:                  -5.150
REMARK INTRA:                  -0.467
REMARK UNBOUND:                -0.390
REMARK SMILES C=C1C=C[C@H](C(C)C)CCC(C)=CCC1
REMARK SMILES IDX 3 1 4 2 5 3 9 4 10 5 11 6 12 7 13 8 6 10 7 11 8 12 2 13 1 14
REMARK SMILES IDX 15 15 14 16
REMARK H PARENT
REMARK Flexibility Score: 70.00
ROOT
ATOM      1  C   UNL     1       3.063   8.096  15.775  1.00  0.00    -0.001 C 
ATOM      2  C   UNL     1       3.698   9.048  16.479  1.00  0.00    -0.023 C 
ENDROOT
BRANCH   2   3
ATOM      3  C   UNL     1       5.153   9.080  16.935  1.00  0.00     0.014 C 
BRANCH   3   4
ATOM      4  C   UNL     1       6.134   9.483  15.794  1.00  0.00     0.012 C 
BRANCH   4   5
ATOM      5  C   UNL     1       7.150   8.407  15.349  1.00  0.00     0.031 C 
BRANCH   5   6
ATOM      6  C   UNL     1       7.235   8.265  13.843  1.00  0.00    -0.077 C 
ATOM      7  C   UNL     1       8.133   9.202  13.072  1.00  0.00     0.039 C 
ATOM      8  C   UNL     1       6.498   7.374  13.136  1.00  0.00    -0.028 CG0
ATOM      9  G   UNL     1       5.598   6.299  13.708  1.00  0.00     0.000 G0
ENDBRANCH   5   6
ENDBRANCH   4   5
ENDBRANCH   3   4
BRANCH   3  10
ATOM     10  C   UNL     1       5.386   9.769  18.318  1.00  0.00    -0.010 C 
ATOM     11  C   UNL     1       4.348   9.312  19.361  1.00  0.00     0.008 C 
ATOM     12  C   UNL     1       6.792   9.463  18.865  1.00  0.00     0.008 C 
ENDBRANCH   3  10
ENDBRANCH   2   3
BRANCH   1  13
ATOM     13  C   UNL     1       3.658   6.840  15.292  1.00  0.00    -0.055 C 
ATOM     14  C   UNL     1       4.055   5.929  16.187  1.00  0.00     0.012 C 
BRANCH  13  15
ATOM     15  C   UNL     1       4.125   6.718  13.855  1.00  0.00     0.039 C 
BRANCH  15  16
ATOM     16  C   UNL     1       5.604   6.303  13.701  1.00  0.00     0.032 CG0
ATOM     17  G   UNL     1       6.499   7.384  13.133  1.00  0.00     0.000 G0
ENDBRANCH  15  16
ENDBRANCH  13  15
ENDBRANCH   1  13
TORSDOF 1
ENDMDL
