MODEL 1
REMARK VINA RESULT:    -3.660      0.000      0.000
REMARK INTER + INTRA:          -5.297
REMARK INTER:                  -4.943
REMARK INTRA:                  -0.353
REMARK UNBOUND:                -0.353
REMARK SMILES CCCCCCCC(=O)[O-]
REMARK SMILES IDX 5 1 6 2 7 3 8 4 9 5 10 6 4 7 3 8 2 9 1 10
REMARK H PARENT
REMARK Flexibility Score: inf
ROOT
ATOM      1  C   UNL     1     -19.986   3.243 -24.930  1.00  0.00     0.000 C 
ENDROOT
BRANCH   1   2
ATOM      2  C   UNL     1     -21.193   2.299 -25.017  1.00  0.00     0.006 C 
BRANCH   2   3
ATOM      3  C   UNL     1     -20.876   1.083 -25.893  1.00  0.00     0.053 C 
BRANCH   3   4
ATOM      4  C   UNL     1     -19.718   0.321 -25.331  1.00  0.00     0.041 C 
ATOM      5  O   UNL     1     -18.687   0.131 -26.027  1.00  0.00    -0.550 OA
ATOM      6  O   UNL     1     -19.758  -0.138 -24.020  1.00  0.00    -0.550 OA
ENDBRANCH   3   4
ENDBRANCH   2   3
ENDBRANCH   1   2
BRANCH   1   7
ATOM      7  C   UNL     1     -19.886   3.878 -23.535  1.00  0.00     0.000 C 
BRANCH   7   8
ATOM      8  C   UNL     1     -20.451   2.972 -22.430  1.00  0.00    -0.000 C 
BRANCH   8   9
ATOM      9  C   UNL     1     -20.671   3.720 -21.107  1.00  0.00    -0.003 C 
ATOM     10  C   UNL     1     -19.927   3.040 -19.962  1.00  0.00     0.004 C 
ENDBRANCH   8   9
ENDBRANCH   7   8
ENDBRANCH   1   7
TORSDOF 6
ENDMDL
MODEL 2
REMARK VINA RESULT:    -3.488      0.613      1.531
REMARK INTER + INTRA:          -5.065
REMARK INTER:                  -4.575
REMARK INTRA:                  -0.490
REMARK UNBOUND:                -0.353
REMARK SMILES CCCCCCCC(=O)[O-]
REMARK SMILES IDX 5 1 6 2 7 3 8 4 9 5 10 6 4 7 3 8 2 9 1 10
REMARK H PARENT
REMARK Flexibility Score: inf
ROOT
ATOM      1  C   UNL     1     -21.619   2.915 -25.098  1.00  0.00     0.000 C 
ENDROOT
BRANCH   1   2
ATOM      2  C   UNL     1     -21.223   2.063 -26.312  1.00  0.00     0.006 C 
BRANCH   2   3
ATOM      3  C   UNL     1     -21.112   0.584 -25.932  1.00  0.00     0.053 C 
BRANCH   3   4
ATOM      4  C   UNL     1     -19.800   0.311 -25.267  1.00  0.00     0.041 C 
ATOM      5  O   UNL     1     -19.765  -0.118 -24.085  1.00  0.00    -0.550 OA
ATOM      6  O   UNL     1     -18.614   0.487 -25.971  1.00  0.00    -0.550 OA
ENDBRANCH   3   4
ENDBRANCH   2   3
ENDBRANCH   1   2
BRANCH   1   7
ATOM      7  C   UNL     1     -20.552   3.981 -24.804  1.00  0.00     0.000 C 
BRANCH   7   8
ATOM      8  C   UNL     1     -19.861   3.768 -23.448  1.00  0.00    -0.000 C 
BRANCH   8   9
ATOM      9  C   UNL     1     -20.681   2.881 -22.499  1.00  0.00    -0.003 C 
ATOM     10  C   UNL     1     -20.336   3.171 -21.042  1.00  0.00     0.004 C 
ENDBRANCH   8   9
ENDBRANCH   7   8
ENDBRANCH   1   7
TORSDOF 6
ENDMDL
MODEL 3
REMARK VINA RESULT:    -3.369     11.585     12.896
REMARK INTER + INTRA:          -4.904
REMARK INTER:                  -4.477
REMARK INTRA:                  -0.426
REMARK UNBOUND:                -0.353
REMARK SMILES CCCCCCCC(=O)[O-]
REMARK SMILES IDX 5 1 6 2 7 3 8 4 9 5 10 6 4 7 3 8 2 9 1 10
REMARK H PARENT
REMARK Flexibility Score: inf
ROOT
ATOM      1  C   UNL     1      -8.578   0.661 -25.043  1.00  0.00     0.000 C 
ENDROOT
BRANCH   1   2
ATOM      2  C   UNL     1      -7.409  -0.330 -24.974  1.00  0.00     0.006 C 
BRANCH   2   3
ATOM      3  C   UNL     1      -7.655  -1.395 -23.901  1.00  0.00     0.053 C 
BRANCH   3   4
ATOM      4  C   UNL     1      -6.591  -1.335 -22.851  1.00  0.00     0.041 C 
ATOM      5  O   UNL     1      -6.450  -0.298 -22.151  1.00  0.00    -0.550 OA
ATOM      6  O   UNL     1      -5.786  -2.442 -22.612  1.00  0.00    -0.550 OA
ENDBRANCH   3   4
ENDBRANCH   2   3
ENDBRANCH   1   2
BRANCH   1   7
ATOM      7  C   UNL     1      -9.908  -0.073 -25.267  1.00  0.00     0.000 C 
BRANCH   7   8
ATOM      8  C   UNL     1     -10.456   0.115 -26.690  1.00  0.00    -0.000 C 
BRANCH   8   9
ATOM      9  C   UNL     1     -10.774  -1.218 -27.383  1.00  0.00    -0.003 C 
ATOM     10  C   UNL     1      -9.551  -2.130 -27.404  1.00  0.00     0.004 C 
ENDBRANCH   8   9
ENDBRANCH   7   8
ENDBRANCH   1   7
TORSDOF 6
ENDMDL
MODEL 4
REMARK VINA RESULT:    -3.337     11.807     13.194
REMARK INTER + INTRA:          -4.860
REMARK INTER:                  -4.453
REMARK INTRA:                  -0.407
REMARK UNBOUND:                -0.353
REMARK SMILES CCCCCCCC(=O)[O-]
REMARK SMILES IDX 5 1 6 2 7 3 8 4 9 5 10 6 4 7 3 8 2 9 1 10
REMARK H PARENT
REMARK Flexibility Score: inf
ROOT
ATOM      1  C   UNL     1      -8.409  -3.251 -25.882  1.00  0.00     0.000 C 
ENDROOT
BRANCH   1   2
ATOM      2  C   UNL     1      -7.779  -3.099 -24.492  1.00  0.00     0.006 C 
BRANCH   2   3
ATOM      3  C   UNL     1      -7.347  -1.651 -24.240  1.00  0.00     0.053 C 
BRANCH   3   4
ATOM      4  C   UNL     1      -6.551  -1.556 -22.977  1.00  0.00     0.041 C 
ATOM      5  O   UNL     1      -6.658  -0.545 -22.235  1.00  0.00    -0.550 OA
ATOM      6  O   UNL     1      -5.724  -2.605 -22.595  1.00  0.00    -0.550 OA
ENDBRANCH   3   4
ENDBRANCH   2   3
ENDBRANCH   1   2
BRANCH   1   7
ATOM      7  C   UNL     1      -8.508  -1.892 -26.592  1.00  0.00     0.000 C 
BRANCH   7   8
ATOM      8  C   UNL     1      -9.853  -1.696 -27.310  1.00  0.00    -0.000 C 
BRANCH   8   9
ATOM      9  C   UNL     1     -10.482  -0.326 -27.020  1.00  0.00    -0.003 C 
ATOM     10  C   UNL     1     -10.525  -0.047 -25.521  1.00  0.00     0.004 C 
ENDBRANCH   8   9
ENDBRANCH   7   8
ENDBRANCH   1   7
TORSDOF 6
ENDMDL
MODEL 5
REMARK VINA RESULT:    -3.274     13.517     14.912
REMARK INTER + INTRA:          -4.776
REMARK INTER:                  -4.603
REMARK INTRA:                  -0.172
REMARK UNBOUND:                -0.353
REMARK SMILES CCCCCCCC(=O)[O-]
REMARK SMILES IDX 5 1 6 2 7 3 8 4 9 5 10 6 4 7 3 8 2 9 1 10
REMARK H PARENT
REMARK Flexibility Score: inf
ROOT
ATOM      1  C   UNL     1      -7.065  -3.479 -25.732  1.00  0.00     0.000 C 
ENDROOT
BRANCH   1   2
ATOM      2  C   UNL     1      -7.827  -3.125 -24.448  1.00  0.00     0.006 C 
BRANCH   2   3
ATOM      3  C   UNL     1      -7.611  -1.657 -24.068  1.00  0.00     0.053 C 
BRANCH   3   4
ATOM      4  C   UNL     1      -6.619  -1.546 -22.953  1.00  0.00     0.041 C 
ATOM      5  O   UNL     1      -6.541  -0.487 -22.278  1.00  0.00    -0.550 OA
ATOM      6  O   UNL     1      -5.814  -2.631 -22.628  1.00  0.00    -0.550 OA
ENDBRANCH   3   4
ENDBRANCH   2   3
ENDBRANCH   1   2
BRANCH   1   7
ATOM      7  C   UNL     1      -6.848  -4.996 -25.841  1.00  0.00     0.000 C 
BRANCH   7   8
ATOM      8  C   UNL     1      -8.168  -5.783 -25.848  1.00  0.00    -0.000 C 
BRANCH   8   9
ATOM      9  C   UNL     1      -7.950  -7.302 -25.782  1.00  0.00    -0.003 C 
ATOM     10  C   UNL     1      -9.271  -8.052 -25.924  1.00  0.00     0.004 C 
ENDBRANCH   8   9
ENDBRANCH   7   8
ENDBRANCH   1   7
TORSDOF 6
ENDMDL
MODEL 6
REMARK VINA RESULT:    -3.198      2.051      3.049
REMARK INTER + INTRA:          -4.673
REMARK INTER:                  -4.153
REMARK INTRA:                  -0.520
REMARK UNBOUND:                -0.353
REMARK SMILES CCCCCCCC(=O)[O-]
REMARK SMILES IDX 5 1 6 2 7 3 8 4 9 5 10 6 4 7 3 8 2 9 1 10
REMARK H PARENT
REMARK Flexibility Score: inf
ROOT
ATOM      1  C   UNL     1     -21.136   2.276 -27.569  1.00  0.00     0.000 C 
ENDROOT
BRANCH   1   2
ATOM      2  C   UNL     1     -20.346   1.000 -27.886  1.00  0.00     0.006 C 
BRANCH   2   3
ATOM      3  C   UNL     1     -20.658  -0.105 -26.872  1.00  0.00     0.053 C 
BRANCH   3   4
ATOM      4  C   UNL     1     -19.437  -0.445 -26.077  1.00  0.00     0.041 C 
ATOM      5  O   UNL     1     -19.350  -0.100 -24.870  1.00  0.00    -0.550 OA
ATOM      6  O   UNL     1     -18.414  -1.186 -26.657  1.00  0.00    -0.550 OA
ENDBRANCH   3   4
ENDBRANCH   2   3
ENDBRANCH   1   2
BRANCH   1   7
ATOM      7  C   UNL     1     -22.120   2.041 -26.413  1.00  0.00     0.000 C 
BRANCH   7   8
ATOM      8  C   UNL     1     -22.066   3.153 -25.354  1.00  0.00    -0.000 C 
BRANCH   8   9
ATOM      9  C   UNL     1     -21.117   2.819 -24.194  1.00  0.00    -0.003 C 
ATOM     10  C   UNL     1     -19.798   3.574 -24.330  1.00  0.00     0.004 C 
ENDBRANCH   8   9
ENDBRANCH   7   8
ENDBRANCH   1   7
TORSDOF 6
ENDMDL
MODEL 7
REMARK VINA RESULT:    -3.175     14.965     16.602
REMARK INTER + INTRA:          -4.642
REMARK INTER:                  -4.370
REMARK INTRA:                  -0.272
REMARK UNBOUND:                -0.353
REMARK SMILES CCCCCCCC(=O)[O-]
REMARK SMILES IDX 5 1 6 2 7 3 8 4 9 5 10 6 4 7 3 8 2 9 1 10
REMARK H PARENT
REMARK Flexibility Score: inf
ROOT
ATOM      1  C   UNL     1     -12.300 -10.614 -28.025  1.00  0.00     0.000 C 
ENDROOT
BRANCH   1   2
ATOM      2  C   UNL     1     -11.445  -9.353 -27.846  1.00  0.00     0.006 C 
BRANCH   2   3
ATOM      3  C   UNL     1     -10.128  -9.680 -27.134  1.00  0.00     0.053 C 
BRANCH   3   4
ATOM      4  C   UNL     1     -10.056  -8.971 -25.818  1.00  0.00     0.041 C 
ATOM      5  O   UNL     1     -10.065  -9.626 -24.744  1.00  0.00    -0.550 OA
ATOM      6  O   UNL     1      -9.928  -7.587 -25.780  1.00  0.00    -0.550 OA
ENDBRANCH   3   4
ENDBRANCH   2   3
ENDBRANCH   1   2
BRANCH   1   7
ATOM      7  C   UNL     1     -11.616 -11.836 -27.395  1.00  0.00     0.000 C 
BRANCH   7   8
ATOM      8  C   UNL     1     -12.590 -12.709 -26.588  1.00  0.00    -0.000 C 
BRANCH   8   9
ATOM      9  C   UNL     1     -12.262 -14.206 -26.686  1.00  0.00    -0.003 C 
ATOM     10  C   UNL     1     -10.818 -14.423 -27.128  1.00  0.00     0.004 C 
ENDBRANCH   8   9
ENDBRANCH   7   8
ENDBRANCH   1   7
TORSDOF 6
ENDMDL
MODEL 8
REMARK VINA RESULT:    -3.173     12.973     13.622
REMARK INTER + INTRA:          -4.639
REMARK INTER:                  -4.278
REMARK INTRA:                  -0.361
REMARK UNBOUND:                -0.353
REMARK SMILES CCCCCCCC(=O)[O-]
REMARK SMILES IDX 5 1 6 2 7 3 8 4 9 5 10 6 4 7 3 8 2 9 1 10
REMARK H PARENT
REMARK Flexibility Score: inf
ROOT
ATOM      1  C   UNL     1      -8.092   0.270 -24.989  1.00  0.00     0.000 C 
ENDROOT
BRANCH   1   2
ATOM      2  C   UNL     1      -8.347  -0.833 -23.954  1.00  0.00     0.006 C 
BRANCH   2   3
ATOM      3  C   UNL     1      -7.129  -1.027 -23.046  1.00  0.00     0.053 C 
BRANCH   3   4
ATOM      4  C   UNL     1      -6.504  -2.365 -23.289  1.00  0.00     0.041 C 
ATOM      5  O   UNL     1      -5.565  -2.768 -22.555  1.00  0.00    -0.550 OA
ATOM      6  O   UNL     1      -6.991  -3.187 -24.298  1.00  0.00    -0.550 OA
ENDBRANCH   3   4
ENDBRANCH   2   3
ENDBRANCH   1   2
BRANCH   1   7
ATOM      7  C   UNL     1      -6.847   1.091 -24.622  1.00  0.00     0.000 C 
BRANCH   7   8
ATOM      8  C   UNL     1      -7.195   2.498 -24.111  1.00  0.00    -0.000 C 
BRANCH   8   9
ATOM      9  C   UNL     1      -6.023   3.169 -23.381  1.00  0.00    -0.003 C 
ATOM     10  C   UNL     1      -5.960   2.727 -21.922  1.00  0.00     0.004 C 
ENDBRANCH   8   9
ENDBRANCH   7   8
ENDBRANCH   1   7
TORSDOF 6
ENDMDL
MODEL 9
REMARK VINA RESULT:    -3.080     12.890     13.828
REMARK INTER + INTRA:          -4.514
REMARK INTER:                  -4.021
REMARK INTRA:                  -0.493
REMARK UNBOUND:                -0.353
REMARK SMILES CCCCCCCC(=O)[O-]
REMARK SMILES IDX 5 1 6 2 7 3 8 4 9 5 10 6 4 7 3 8 2 9 1 10
REMARK H PARENT
REMARK Flexibility Score: inf
ROOT
ATOM      1  C   UNL     1      -7.654   0.412 -25.493  1.00  0.00     0.000 C 
ENDROOT
BRANCH   1   2
ATOM      2  C   UNL     1      -7.416   1.612 -24.568  1.00  0.00     0.006 C 
BRANCH   2   3
ATOM      3  C   UNL     1      -5.992   1.596 -24.003  1.00  0.00     0.053 C 
BRANCH   3   4
ATOM      4  C   UNL     1      -6.019   1.767 -22.517  1.00  0.00     0.041 C 
ATOM      5  O   UNL     1      -5.571   0.861 -21.767  1.00  0.00    -0.550 OA
ATOM      6  O   UNL     1      -6.493   2.949 -21.961  1.00  0.00    -0.550 OA
ENDBRANCH   3   4
ENDBRANCH   2   3
ENDBRANCH   1   2
BRANCH   1   7
ATOM      7  C   UNL     1      -8.785  -0.479 -24.957  1.00  0.00     0.000 C 
BRANCH   7   8
ATOM      8  C   UNL     1      -8.378  -1.255 -23.694  1.00  0.00    -0.000 C 
BRANCH   8   9
ATOM      9  C   UNL     1      -7.417  -2.413 -23.996  1.00  0.00    -0.003 C 
ATOM     10  C   UNL     1      -6.237  -2.413 -23.028  1.00  0.00     0.004 C 
ENDBRANCH   8   9
ENDBRANCH   7   8
ENDBRANCH   1   7
TORSDOF 6
ENDMDL
