MODEL 1
REMARK VINA RESULT:    -8.008      0.000      0.000
REMARK INTER + INTRA:         -12.095
REMARK INTER:                 -10.817
REMARK INTRA:                  -1.277
REMARK UNBOUND:                -1.277
REMARK SMILES CC[C@H](CC[C@@H](C)[C@H]1CC[C@@H]2[C@@H]3CC(=O)C4=CC(=O)CC[C@]4(C)[C@H]3CC[C@@]21C)C(C)C
REMARK SMILES IDX 4 1 3 2 2 3 1 4 29 5 30 6 31 7 5 8 6 9 7 10 8 11 9 12 27 13
REMARK SMILES IDX 10 14 11 15 26 16 28 17 12 18 25 19 24 20 13 21 22 22 14 23
REMARK SMILES IDX 16 24 21 25 23 26 15 27 17 28 20 29 18 30 19 31
REMARK H PARENT
REMARK Flexibility Score: inf
ROOT
ATOM      1  C   UNL     1      43.155  59.032  44.904  1.00  0.00     0.004 C 
ENDROOT
BRANCH   1   2
ATOM      2  C   UNL     1      43.253  60.525  45.328  1.00  0.00    -0.009 C 
BRANCH   2   3
ATOM      3  C   UNL     1      44.406  60.762  46.354  1.00  0.00     0.000 C 
ATOM      4  C   UNL     1      44.911  59.518  47.100  1.00  0.00     0.004 C 
ENDBRANCH   2   3
BRANCH   2   5
ATOM      5  C   UNL     1      43.255  61.526  44.120  1.00  0.00    -0.014 C 
ATOM      6  C   UNL     1      43.757  62.933  44.465  1.00  0.00     0.007 C 
ATOM      7  C   UNL     1      41.876  61.611  43.441  1.00  0.00     0.007 C 
ENDBRANCH   2   5
ENDBRANCH   1   2
BRANCH   1   8
ATOM      8  C   UNL     1      43.945  58.609  43.642  1.00  0.00     0.004 C 
BRANCH   8   9
ATOM      9  C   UNL     1      43.684  57.148  43.160  1.00  0.00    -0.011 C 
ATOM     10  C   UNL     1      42.776  56.409  44.166  1.00  0.00     0.008 C 
BRANCH   9  11
ATOM     11  C   UNL     1      43.052  57.034  41.720  1.00  0.00    -0.002 C 
ATOM     12  C   UNL     1      42.180  58.253  41.343  1.00  0.00     0.005 C 
ATOM     13  C   UNL     1      43.998  56.777  40.484  1.00  0.00    -0.026 C 
ATOM     14  C   UNL     1      42.604  58.703  39.949  1.00  0.00     0.005 C 
ATOM     15  C   UNL     1      44.004  58.125  39.729  1.00  0.00    -0.001 C 
ATOM     16  C   UNL     1      43.344  55.671  39.596  1.00  0.00     0.007 C 
ATOM     17  C   UNL     1      45.436  56.349  40.865  1.00  0.00     0.012 C 
ATOM     18  C   UNL     1      44.480  58.052  38.243  1.00  0.00     0.004 C 
ATOM     19  C   UNL     1      43.927  55.579  38.185  1.00  0.00     0.005 C 
ATOM     20  C   UNL     1      43.796  56.919  37.422  1.00  0.00     0.003 C 
ATOM     21  C   UNL     1      44.313  59.421  37.559  1.00  0.00     0.085 C 
ATOM     22  C   UNL     1      44.320  56.828  35.926  1.00  0.00    -0.000 C 
ATOM     23  C   UNL     1      44.746  59.378  36.134  1.00  0.00     0.159 C 
ATOM     24  C   UNL     1      44.373  58.224  35.294  1.00  0.00     0.005 C 
ATOM     25  C   UNL     1      43.346  55.926  35.100  1.00  0.00     0.020 C 
ATOM     26  C   UNL     1      45.753  56.234  35.856  1.00  0.00     0.017 C 
ATOM     27  O   UNL     1      45.348  60.370  35.638  1.00  0.00    -0.295 OA
ATOM     28  C   UNL     1      44.196  58.407  33.971  1.00  0.00     0.055 C 
ATOM     29  C   UNL     1      43.660  55.913  33.600  1.00  0.00     0.081 C 
ATOM     30  C   UNL     1      43.828  57.303  33.074  1.00  0.00     0.156 C 
ATOM     31  O   UNL     1      43.688  57.524  31.842  1.00  0.00    -0.295 OA
ENDBRANCH   9  11
ENDBRANCH   8   9
ENDBRANCH   1   8
TORSDOF 6
ENDMDL
MODEL 2
REMARK VINA RESULT:    -7.846      0.858      1.671
REMARK INTER + INTRA:         -11.875
REMARK INTER:                 -10.484
REMARK INTRA:                  -1.391
REMARK UNBOUND:                -1.277
REMARK SMILES CC[C@H](CC[C@@H](C)[C@H]1CC[C@@H]2[C@@H]3CC(=O)C4=CC(=O)CC[C@]4(C)[C@H]3CC[C@@]21C)C(C)C
REMARK SMILES IDX 4 1 3 2 2 3 1 4 29 5 30 6 31 7 5 8 6 9 7 10 8 11 9 12 27 13
REMARK SMILES IDX 10 14 11 15 26 16 28 17 12 18 25 19 24 20 13 21 22 22 14 23
REMARK SMILES IDX 16 24 21 25 23 26 15 27 17 28 20 29 18 30 19 31
REMARK H PARENT
REMARK Flexibility Score: inf
ROOT
ATOM      1  C   UNL     1      43.950  58.675  44.339  1.00  0.00     0.004 C 
ENDROOT
BRANCH   1   2
ATOM      2  C   UNL     1      43.644  60.192  44.487  1.00  0.00    -0.009 C 
BRANCH   2   3
ATOM      3  C   UNL     1      42.232  60.557  43.931  1.00  0.00     0.000 C 
ATOM      4  C   UNL     1      42.209  61.415  42.658  1.00  0.00     0.004 C 
ENDBRANCH   2   3
BRANCH   2   5
ATOM      5  C   UNL     1      43.934  60.758  45.922  1.00  0.00    -0.014 C 
ATOM      6  C   UNL     1      45.082  61.773  45.982  1.00  0.00     0.007 C 
ATOM      7  C   UNL     1      44.171  59.634  46.946  1.00  0.00     0.007 C 
ENDBRANCH   2   5
ENDBRANCH   1   2
BRANCH   1   8
ATOM      8  C   UNL     1      44.333  58.174  42.925  1.00  0.00     0.004 C 
BRANCH   8   9
ATOM      9  C   UNL     1      43.661  56.832  42.498  1.00  0.00    -0.011 C 
ATOM     10  C   UNL     1      42.610  56.405  43.545  1.00  0.00     0.008 C 
BRANCH   9  11
ATOM     11  C   UNL     1      42.982  56.860  41.075  1.00  0.00    -0.002 C 
ATOM     12  C   UNL     1      42.225  58.177  40.791  1.00  0.00     0.005 C 
ATOM     13  C   UNL     1      43.865  56.583  39.798  1.00  0.00    -0.026 C 
ATOM     14  C   UNL     1      42.655  58.662  39.410  1.00  0.00     0.005 C 
ATOM     15  C   UNL     1      43.984  57.964  39.115  1.00  0.00    -0.001 C 
ATOM     16  C   UNL     1      43.083  55.597  38.873  1.00  0.00     0.007 C 
ATOM     17  C   UNL     1      45.264  55.996  40.109  1.00  0.00     0.012 C 
ATOM     18  C   UNL     1      44.411  57.929  37.613  1.00  0.00     0.004 C 
ATOM     19  C   UNL     1      43.616  55.528  37.441  1.00  0.00     0.005 C 
ATOM     20  C   UNL     1      43.597  56.915  36.755  1.00  0.00     0.003 C 
ATOM     21  C   UNL     1      44.362  59.343  37.009  1.00  0.00     0.085 C 
ATOM     22  C   UNL     1      44.070  56.858  35.241  1.00  0.00    -0.000 C 
ATOM     23  C   UNL     1      44.750  59.339  35.570  1.00  0.00     0.159 C 
ATOM     24  C   UNL     1      44.243  58.276  34.682  1.00  0.00     0.005 C 
ATOM     25  C   UNL     1      42.991  56.103  34.399  1.00  0.00     0.020 C 
ATOM     26  C   UNL     1      45.435  56.133  35.093  1.00  0.00     0.017 C 
ATOM     27  O   UNL     1      45.434  60.294  35.109  1.00  0.00    -0.295 OA
ATOM     28  C   UNL     1      44.050  58.548  33.377  1.00  0.00     0.055 C 
ATOM     29  C   UNL     1      43.262  56.143  32.891  1.00  0.00     0.081 C 
ATOM     30  C   UNL     1      43.552  57.537  32.435  1.00  0.00     0.156 C 
ATOM     31  O   UNL     1      43.402  57.840  31.222  1.00  0.00    -0.295 OA
ENDBRANCH   9  11
ENDBRANCH   8   9
ENDBRANCH   1   8
TORSDOF 6
ENDMDL
MODEL 3
REMARK VINA RESULT:    -7.846     17.372     20.443
REMARK INTER + INTRA:         -11.875
REMARK INTER:                  -9.343
REMARK INTRA:                  -2.532
REMARK UNBOUND:                -1.277
REMARK SMILES CC[C@H](CC[C@@H](C)[C@H]1CC[C@@H]2[C@@H]3CC(=O)C4=CC(=O)CC[C@]4(C)[C@H]3CC[C@@]21C)C(C)C
REMARK SMILES IDX 4 1 3 2 2 3 1 4 29 5 30 6 31 7 5 8 6 9 7 10 8 11 9 12 27 13
REMARK SMILES IDX 10 14 11 15 26 16 28 17 12 18 25 19 24 20 13 21 22 22 14 23
REMARK SMILES IDX 16 24 21 25 23 26 15 27 17 28 20 29 18 30 19 31
REMARK H PARENT
REMARK Flexibility Score: inf
ROOT
ATOM      1  C   UNL     1      58.661  71.341  31.249  1.00  0.00     0.004 C 
ENDROOT
BRANCH   1   2
ATOM      2  C   UNL     1      57.696  70.508  32.139  1.00  0.00    -0.009 C 
BRANCH   2   3
ATOM      3  C   UNL     1      56.604  71.403  32.806  1.00  0.00     0.000 C 
ATOM      4  C   UNL     1      56.162  70.990  34.217  1.00  0.00     0.004 C 
ENDBRANCH   2   3
BRANCH   2   5
ATOM      5  C   UNL     1      57.131  69.227  31.432  1.00  0.00    -0.014 C 
ATOM      6  C   UNL     1      57.971  68.737  30.245  1.00  0.00     0.007 C 
ATOM      7  C   UNL     1      55.665  69.405  31.001  1.00  0.00     0.007 C 
ENDBRANCH   2   5
ENDBRANCH   1   2
BRANCH   1   8
ATOM      8  C   UNL     1      60.135  71.436  31.712  1.00  0.00     0.004 C 
BRANCH   8   9
ATOM      9  C   UNL     1      60.766  70.088  32.181  1.00  0.00    -0.011 C 
ATOM     10  C   UNL     1      62.125  69.865  31.481  1.00  0.00     0.008 C 
BRANCH   9  11
ATOM     11  C   UNL     1      60.967  69.963  33.740  1.00  0.00    -0.002 C 
ATOM     12  C   UNL     1      60.564  71.242  34.508  1.00  0.00     0.005 C 
ATOM     13  C   UNL     1      60.289  68.764  34.507  1.00  0.00    -0.026 C 
ATOM     14  C   UNL     1      59.674  70.815  35.670  1.00  0.00     0.005 C 
ATOM     15  C   UNL     1      59.144  69.427  35.304  1.00  0.00    -0.001 C 
ATOM     16  C   UNL     1      61.341  68.159  35.490  1.00  0.00     0.007 C 
ATOM     17  C   UNL     1      59.746  67.646  33.584  1.00  0.00     0.012 C 
ATOM     18  C   UNL     1      58.584  68.582  36.494  1.00  0.00     0.004 C 
ATOM     19  C   UNL     1      60.743  67.255  36.568  1.00  0.00     0.005 C 
ATOM     20  C   UNL     1      59.691  68.002  37.423  1.00  0.00     0.003 C 
ATOM     21  C   UNL     1      57.551  69.397  37.291  1.00  0.00     0.085 C 
ATOM     22  C   UNL     1      59.112  67.109  38.601  1.00  0.00    -0.000 C 
ATOM     23  C   UNL     1      57.010  68.621  38.442  1.00  0.00     0.159 C 
ATOM     24  C   UNL     1      57.926  67.815  39.271  1.00  0.00     0.005 C 
ATOM     25  C   UNL     1      60.236  66.876  39.662  1.00  0.00     0.020 C 
ATOM     26  C   UNL     1      58.602  65.737  38.084  1.00  0.00     0.017 C 
ATOM     27  O   UNL     1      55.792  68.733  38.749  1.00  0.00    -0.295 OA
ATOM     28  C   UNL     1      57.638  67.627  40.573  1.00  0.00     0.055 C 
ATOM     29  C   UNL     1      59.736  66.173  40.929  1.00  0.00     0.081 C 
ATOM     30  C   UNL     1      58.502  66.832  41.456  1.00  0.00     0.156 C 
ATOM     31  O   UNL     1      58.179  66.676  42.664  1.00  0.00    -0.295 OA
ENDBRANCH   9  11
ENDBRANCH   8   9
ENDBRANCH   1   8
TORSDOF 6
ENDMDL
MODEL 4
REMARK VINA RESULT:    -7.826      4.800     10.248
REMARK INTER + INTRA:         -11.848
REMARK INTER:                  -9.175
REMARK INTRA:                  -2.673
REMARK UNBOUND:                -1.277
REMARK SMILES CC[C@H](CC[C@@H](C)[C@H]1CC[C@@H]2[C@@H]3CC(=O)C4=CC(=O)CC[C@]4(C)[C@H]3CC[C@@]21C)C(C)C
REMARK SMILES IDX 4 1 3 2 2 3 1 4 29 5 30 6 31 7 5 8 6 9 7 10 8 11 9 12 27 13
REMARK SMILES IDX 10 14 11 15 26 16 28 17 12 18 25 19 24 20 13 21 22 22 14 23
REMARK SMILES IDX 16 24 21 25 23 26 15 27 17 28 20 29 18 30 19 31
REMARK H PARENT
REMARK Flexibility Score: inf
ROOT
ATOM      1  C   UNL     1      43.954  58.850  29.295  1.00  0.00     0.004 C 
ENDROOT
BRANCH   1   2
ATOM      2  C   UNL     1      45.426  59.298  29.515  1.00  0.00    -0.009 C 
BRANCH   2   3
ATOM      3  C   UNL     1      45.614  60.019  30.887  1.00  0.00     0.000 C 
ATOM      4  C   UNL     1      44.562  61.079  31.241  1.00  0.00     0.004 C 
ENDBRANCH   2   3
BRANCH   2   5
ATOM      5  C   UNL     1      46.479  58.168  29.235  1.00  0.00    -0.014 C 
ATOM      6  C   UNL     1      47.611  58.088  30.267  1.00  0.00     0.007 C 
ATOM      7  C   UNL     1      47.067  58.268  27.816  1.00  0.00     0.007 C 
ENDBRANCH   2   5
ENDBRANCH   1   2
BRANCH   1   8
ATOM      8  C   UNL     1      43.726  57.377  28.878  1.00  0.00     0.004 C 
BRANCH   8   9
ATOM      9  C   UNL     1      42.660  56.610  29.721  1.00  0.00    -0.011 C 
ATOM     10  C   UNL     1      41.919  55.583  28.837  1.00  0.00     0.008 C 
BRANCH   9  11
ATOM     11  C   UNL     1      43.233  55.872  30.991  1.00  0.00    -0.002 C 
ATOM     12  C   UNL     1      44.635  55.264  30.758  1.00  0.00     0.005 C 
ATOM     13  C   UNL     1      43.321  56.654  32.358  1.00  0.00    -0.026 C 
ATOM     14  C   UNL     1      45.514  55.681  31.931  1.00  0.00     0.005 C 
ATOM     15  C   UNL     1      44.833  56.903  32.552  1.00  0.00    -0.001 C 
ATOM     16  C   UNL     1      42.786  55.717  33.487  1.00  0.00     0.007 C 
ATOM     17  C   UNL     1      42.533  57.986  32.379  1.00  0.00     0.012 C 
ATOM     18  C   UNL     1      45.268  57.251  34.013  1.00  0.00     0.004 C 
ATOM     19  C   UNL     1      43.155  56.169  34.901  1.00  0.00     0.005 C 
ATOM     20  C   UNL     1      44.688  56.282  35.085  1.00  0.00     0.003 C 
ATOM     21  C   UNL     1      46.802  57.340  34.108  1.00  0.00     0.085 C 
ATOM     22  C   UNL     1      45.101  56.672  36.567  1.00  0.00    -0.000 C 
ATOM     23  C   UNL     1      47.247  57.656  35.494  1.00  0.00     0.159 C 
ATOM     24  C   UNL     1      46.601  56.985  36.637  1.00  0.00     0.005 C 
ATOM     25  C   UNL     1      44.782  55.471  37.516  1.00  0.00     0.020 C 
ATOM     26  C   UNL     1      44.342  57.932  37.062  1.00  0.00     0.017 C 
ATOM     27  O   UNL     1      48.232  58.425  35.669  1.00  0.00    -0.295 OA
ATOM     28  C   UNL     1      47.316  56.763  37.757  1.00  0.00     0.055 C 
ATOM     29  C   UNL     1      45.304  55.673  38.944  1.00  0.00     0.081 C 
ATOM     30  C   UNL     1      46.736  56.104  38.935  1.00  0.00     0.156 C 
ATOM     31  O   UNL     1      47.444  55.933  39.962  1.00  0.00    -0.295 OA
ENDBRANCH   9  11
ENDBRANCH   8   9
ENDBRANCH   1   8
TORSDOF 6
ENDMDL
MODEL 5
REMARK VINA RESULT:    -7.810     15.573     17.484
REMARK INTER + INTRA:         -11.828
REMARK INTER:                 -10.129
REMARK INTRA:                  -1.698
REMARK UNBOUND:                -1.277
REMARK SMILES CC[C@H](CC[C@@H](C)[C@H]1CC[C@@H]2[C@@H]3CC(=O)C4=CC(=O)CC[C@]4(C)[C@H]3CC[C@@]21C)C(C)C
REMARK SMILES IDX 4 1 3 2 2 3 1 4 29 5 30 6 31 7 5 8 6 9 7 10 8 11 9 12 27 13
REMARK SMILES IDX 10 14 11 15 26 16 28 17 12 18 25 19 24 20 13 21 22 22 14 23
REMARK SMILES IDX 16 24 21 25 23 26 15 27 17 28 20 29 18 30 19 31
REMARK H PARENT
REMARK Flexibility Score: inf
ROOT
ATOM      1  C   UNL     1      58.427  61.286  45.872  1.00  0.00     0.004 C 
ENDROOT
BRANCH   1   2
ATOM      2  C   UNL     1      58.267  60.236  44.737  1.00  0.00    -0.009 C 
BRANCH   2   3
ATOM      3  C   UNL     1      58.117  60.912  43.338  1.00  0.00     0.000 C 
ATOM      4  C   UNL     1      56.711  60.884  42.722  1.00  0.00     0.004 C 
ENDBRANCH   2   3
BRANCH   2   5
ATOM      5  C   UNL     1      59.335  59.087  44.783  1.00  0.00    -0.014 C 
ATOM      6  C   UNL     1      60.680  59.448  44.139  1.00  0.00     0.007 C 
ATOM      7  C   UNL     1      58.799  57.777  44.181  1.00  0.00     0.007 C 
ENDBRANCH   2   5
ENDBRANCH   1   2
BRANCH   1   8
ATOM      8  C   UNL     1      57.950  62.726  45.566  1.00  0.00     0.004 C 
BRANCH   8   9
ATOM      9  C   UNL     1      58.934  63.854  46.008  1.00  0.00    -0.011 C 
ATOM     10  C   UNL     1      59.926  63.314  47.061  1.00  0.00     0.008 C 
BRANCH   9  11
ATOM     11  C   UNL     1      59.747  64.515  44.830  1.00  0.00    -0.002 C 
ATOM     12  C   UNL     1      60.637  63.507  44.067  1.00  0.00     0.005 C 
ATOM     13  C   UNL     1      58.973  65.334  43.727  1.00  0.00    -0.026 C 
ATOM     14  C   UNL     1      60.385  63.715  42.578  1.00  0.00     0.005 C 
ATOM     15  C   UNL     1      59.036  64.431  42.475  1.00  0.00    -0.001 C 
ATOM     16  C   UNL     1      59.755  66.660  43.468  1.00  0.00     0.007 C 
ATOM     17  C   UNL     1      57.506  65.665  44.096  1.00  0.00     0.012 C 
ATOM     18  C   UNL     1      58.756  65.154  41.118  1.00  0.00     0.004 C 
ATOM     19  C   UNL     1      59.360  67.376  42.176  1.00  0.00     0.005 C 
ATOM     20  C   UNL     1      59.562  66.474  40.935  1.00  0.00     0.003 C 
ATOM     21  C   UNL     1      58.983  64.189  39.940  1.00  0.00     0.085 C 
ATOM     22  C   UNL     1      59.235  67.221  39.573  1.00  0.00    -0.000 C 
ATOM     23  C   UNL     1      58.737  64.856  38.631  1.00  0.00     0.159 C 
ATOM     24  C   UNL     1      59.237  66.226  38.406  1.00  0.00     0.005 C 
ATOM     25  C   UNL     1      60.324  68.313  39.318  1.00  0.00     0.020 C 
ATOM     26  C   UNL     1      57.835  67.891  39.607  1.00  0.00     0.017 C 
ATOM     27  O   UNL     1      58.184  64.210  37.699  1.00  0.00    -0.295 OA
ATOM     28  C   UNL     1      59.578  66.602  37.158  1.00  0.00     0.055 C 
ATOM     29  C   UNL     1      60.205  68.977  37.942  1.00  0.00     0.081 C 
ATOM     30  C   UNL     1      60.078  67.951  36.861  1.00  0.00     0.156 C 
ATOM     31  O   UNL     1      60.370  68.257  35.674  1.00  0.00    -0.295 OA
ENDBRANCH   9  11
ENDBRANCH   8   9
ENDBRANCH   1   8
TORSDOF 6
ENDMDL
MODEL 6
REMARK VINA RESULT:    -7.744     16.502     19.637
REMARK INTER + INTRA:         -11.738
REMARK INTER:                  -9.089
REMARK INTRA:                  -2.649
REMARK UNBOUND:                -1.277
REMARK SMILES CC[C@H](CC[C@@H](C)[C@H]1CC[C@@H]2[C@@H]3CC(=O)C4=CC(=O)CC[C@]4(C)[C@H]3CC[C@@]21C)C(C)C
REMARK SMILES IDX 4 1 3 2 2 3 1 4 29 5 30 6 31 7 5 8 6 9 7 10 8 11 9 12 27 13
REMARK SMILES IDX 10 14 11 15 26 16 28 17 12 18 25 19 24 20 13 21 22 22 14 23
REMARK SMILES IDX 16 24 21 25 23 26 15 27 17 28 20 29 18 30 19 31
REMARK H PARENT
REMARK Flexibility Score: inf
ROOT
ATOM      1  C   UNL     1      58.215  69.363  32.556  1.00  0.00     0.004 C 
ENDROOT
BRANCH   1   2
ATOM      2  C   UNL     1      58.453  67.944  33.145  1.00  0.00    -0.009 C 
BRANCH   2   3
ATOM      3  C   UNL     1      57.121  67.279  33.614  1.00  0.00     0.000 C 
ATOM      4  C   UNL     1      55.956  68.235  33.907  1.00  0.00     0.004 C 
ENDBRANCH   2   3
BRANCH   2   5
ATOM      5  C   UNL     1      59.344  67.026  32.237  1.00  0.00    -0.014 C 
ATOM      6  C   UNL     1      59.925  65.800  32.954  1.00  0.00     0.007 C 
ATOM      7  C   UNL     1      60.472  67.815  31.549  1.00  0.00     0.007 C 
ENDBRANCH   2   5
ENDBRANCH   1   2
BRANCH   1   8
ATOM      8  C   UNL     1      58.841  70.553  33.323  1.00  0.00     0.004 C 
BRANCH   8   9
ATOM      9  C   UNL     1      59.975  70.169  34.323  1.00  0.00    -0.011 C 
ATOM     10  C   UNL     1      61.202  71.084  34.115  1.00  0.00     0.008 C 
BRANCH   9  11
ATOM     11  C   UNL     1      59.554  70.216  35.842  1.00  0.00    -0.002 C 
ATOM     12  C   UNL     1      58.083  70.639  36.052  1.00  0.00     0.005 C 
ATOM     13  C   UNL     1      59.771  68.936  36.738  1.00  0.00    -0.026 C 
ATOM     14  C   UNL     1      57.455  69.641  37.019  1.00  0.00     0.005 C 
ATOM     15  C   UNL     1      58.343  68.395  36.972  1.00  0.00    -0.001 C 
ATOM     16  C   UNL     1      60.395  69.394  38.094  1.00  0.00     0.007 C 
ATOM     17  C   UNL     1      60.674  67.856  36.094  1.00  0.00     0.012 C 
ATOM     18  C   UNL     1      58.192  67.412  38.177  1.00  0.00     0.004 C 
ATOM     19  C   UNL     1      60.312  68.346  39.206  1.00  0.00     0.005 C 
ATOM     20  C   UNL     1      58.849  67.928  39.491  1.00  0.00     0.003 C 
ATOM     21  C   UNL     1      56.711  67.052  38.393  1.00  0.00     0.085 C 
ATOM     22  C   UNL     1      58.728  66.901  40.695  1.00  0.00    -0.000 C 
ATOM     23  C   UNL     1      56.535  66.125  39.546  1.00  0.00     0.159 C 
ATOM     24  C   UNL     1      57.298  66.356  40.788  1.00  0.00     0.005 C 
ATOM     25  C   UNL     1      59.086  67.636  42.028  1.00  0.00     0.020 C 
ATOM     26  C   UNL     1      59.675  65.685  40.509  1.00  0.00     0.017 C 
ATOM     27  O   UNL     1      55.671  65.208  39.480  1.00  0.00    -0.295 OA
ATOM     28  C   UNL     1      56.761  65.980  41.965  1.00  0.00     0.055 C 
ATOM     29  C   UNL     1      58.831  66.783  43.276  1.00  0.00     0.081 C 
ATOM     30  C   UNL     1      57.465  66.175  43.240  1.00  0.00     0.156 C 
ATOM     31  O   UNL     1      56.925  65.792  44.312  1.00  0.00    -0.295 OA
ENDBRANCH   9  11
ENDBRANCH   8   9
ENDBRANCH   1   8
TORSDOF 6
ENDMDL
MODEL 7
REMARK VINA RESULT:    -7.738      3.773     10.381
REMARK INTER + INTRA:         -11.730
REMARK INTER:                 -10.172
REMARK INTRA:                  -1.558
REMARK UNBOUND:                -1.277
REMARK SMILES CC[C@H](CC[C@@H](C)[C@H]1CC[C@@H]2[C@@H]3CC(=O)C4=CC(=O)CC[C@]4(C)[C@H]3CC[C@@]21C)C(C)C
REMARK SMILES IDX 4 1 3 2 2 3 1 4 29 5 30 6 31 7 5 8 6 9 7 10 8 11 9 12 27 13
REMARK SMILES IDX 10 14 11 15 26 16 28 17 12 18 25 19 24 20 13 21 22 22 14 23
REMARK SMILES IDX 16 24 21 25 23 26 15 27 17 28 20 29 18 30 19 31
REMARK H PARENT
REMARK Flexibility Score: inf
ROOT
ATOM      1  C   UNL     1      44.309  57.339  28.502  1.00  0.00     0.004 C 
ENDROOT
BRANCH   1   2
ATOM      2  C   UNL     1      45.107  58.631  28.837  1.00  0.00    -0.009 C 
BRANCH   2   3
ATOM      3  C   UNL     1      45.774  59.247  27.567  1.00  0.00     0.000 C 
ATOM      4  C   UNL     1      47.144  58.673  27.179  1.00  0.00     0.004 C 
ENDBRANCH   2   3
BRANCH   2   5
ATOM      5  C   UNL     1      44.304  59.662  29.705  1.00  0.00    -0.014 C 
ATOM      6  C   UNL     1      43.496  60.681  28.891  1.00  0.00     0.007 C 
ATOM      7  C   UNL     1      45.207  60.392  30.714  1.00  0.00     0.007 C 
ENDBRANCH   2   5
ENDBRANCH   1   2
BRANCH   1   8
ATOM      8  C   UNL     1      43.876  56.454  29.695  1.00  0.00     0.004 C 
BRANCH   8   9
ATOM      9  C   UNL     1      44.915  55.373  30.126  1.00  0.00    -0.011 C 
ATOM     10  C   UNL     1      46.014  55.232  29.050  1.00  0.00     0.008 C 
BRANCH   9  11
ATOM     11  C   UNL     1      45.597  55.636  31.523  1.00  0.00    -0.002 C 
ATOM     12  C   UNL     1      46.637  56.779  31.484  1.00  0.00     0.005 C 
ATOM     13  C   UNL     1      44.688  55.918  32.780  1.00  0.00    -0.026 C 
ATOM     14  C   UNL     1      46.343  57.703  32.660  1.00  0.00     0.005 C 
ATOM     15  C   UNL     1      44.893  57.423  33.062  1.00  0.00    -0.001 C 
ATOM     16  C   UNL     1      45.236  55.073  33.974  1.00  0.00     0.007 C 
ATOM     17  C   UNL     1      43.190  55.593  32.565  1.00  0.00     0.012 C 
ATOM     18  C   UNL     1      44.485  57.893  34.496  1.00  0.00     0.004 C 
ATOM     19  C   UNL     1      44.717  55.516  35.343  1.00  0.00     0.005 C 
ATOM     20  C   UNL     1      45.057  56.997  35.633  1.00  0.00     0.003 C 
ATOM     21  C   UNL     1      44.861  59.372  34.702  1.00  0.00     0.085 C 
ATOM     22  C   UNL     1      44.600  57.459  37.082  1.00  0.00    -0.000 C 
ATOM     23  C   UNL     1      44.497  59.844  36.067  1.00  0.00     0.159 C 
ATOM     24  C   UNL     1      44.759  58.977  37.232  1.00  0.00     0.005 C 
ATOM     25  C   UNL     1      45.489  56.742  38.149  1.00  0.00     0.020 C 
ATOM     26  C   UNL     1      43.108  57.122  37.347  1.00  0.00     0.017 C 
ATOM     27  O   UNL     1      44.052  61.015  36.221  1.00  0.00    -0.295 OA
ATOM     28  C   UNL     1      45.023  59.545  38.424  1.00  0.00     0.055 C 
ATOM     29  C   UNL     1      45.250  57.249  39.575  1.00  0.00     0.081 C 
ATOM     30  C   UNL     1      45.288  58.743  39.627  1.00  0.00     0.156 C 
ATOM     31  O   UNL     1      45.516  59.323  40.722  1.00  0.00    -0.295 OA
ENDBRANCH   9  11
ENDBRANCH   8   9
ENDBRANCH   1   8
TORSDOF 6
ENDMDL
MODEL 8
REMARK VINA RESULT:    -7.650     16.918     19.915
REMARK INTER + INTRA:         -11.611
REMARK INTER:                  -9.099
REMARK INTRA:                  -2.512
REMARK UNBOUND:                -1.277
REMARK SMILES CC[C@H](CC[C@@H](C)[C@H]1CC[C@@H]2[C@@H]3CC(=O)C4=CC(=O)CC[C@]4(C)[C@H]3CC[C@@]21C)C(C)C
REMARK SMILES IDX 4 1 3 2 2 3 1 4 29 5 30 6 31 7 5 8 6 9 7 10 8 11 9 12 27 13
REMARK SMILES IDX 10 14 11 15 26 16 28 17 12 18 25 19 24 20 13 21 22 22 14 23
REMARK SMILES IDX 16 24 21 25 23 26 15 27 17 28 20 29 18 30 19 31
REMARK H PARENT
REMARK Flexibility Score: inf
ROOT
ATOM      1  C   UNL     1      60.888  68.026  32.913  1.00  0.00     0.004 C 
ENDROOT
BRANCH   1   2
ATOM      2  C   UNL     1      59.667  67.313  32.268  1.00  0.00    -0.009 C 
BRANCH   2   3
ATOM      3  C   UNL     1      59.185  66.099  33.122  1.00  0.00     0.000 C 
ATOM      4  C   UNL     1      60.263  65.390  33.955  1.00  0.00     0.004 C 
ENDBRANCH   2   3
BRANCH   2   5
ATOM      5  C   UNL     1      58.518  68.292  31.839  1.00  0.00    -0.014 C 
ATOM      6  C   UNL     1      57.160  67.996  32.488  1.00  0.00     0.007 C 
ATOM      7  C   UNL     1      58.365  68.367  30.310  1.00  0.00     0.007 C 
ENDBRANCH   2   5
ENDBRANCH   1   2
BRANCH   1   8
ATOM      8  C   UNL     1      60.806  69.565  33.054  1.00  0.00     0.004 C 
BRANCH   8   9
ATOM      9  C   UNL     1      61.358  70.135  34.398  1.00  0.00    -0.011 C 
ATOM     10  C   UNL     1      61.719  71.628  34.235  1.00  0.00     0.008 C 
BRANCH   9  11
ATOM     11  C   UNL     1      60.385  69.975  35.628  1.00  0.00    -0.002 C 
ATOM     12  C   UNL     1      58.911  69.763  35.212  1.00  0.00     0.005 C 
ATOM     13  C   UNL     1      60.693  68.872  36.712  1.00  0.00    -0.026 C 
ATOM     14  C   UNL     1      58.380  68.576  36.008  1.00  0.00     0.005 C 
ATOM     15  C   UNL     1      59.612  67.796  36.472  1.00  0.00    -0.001 C 
ATOM     16  C   UNL     1      60.503  69.513  38.123  1.00  0.00     0.007 C 
ATOM     17  C   UNL     1      62.113  68.263  36.611  1.00  0.00     0.012 C 
ATOM     18  C   UNL     1      59.379  66.809  37.662  1.00  0.00     0.004 C 
ATOM     19  C   UNL     1      60.388  68.497  39.261  1.00  0.00     0.005 C 
ATOM     20  C   UNL     1      59.210  67.519  39.038  1.00  0.00     0.003 C 
ATOM     21  C   UNL     1      58.192  65.878  37.360  1.00  0.00     0.085 C 
ATOM     22  C   UNL     1      59.019  66.504  40.243  1.00  0.00    -0.000 C 
ATOM     23  C   UNL     1      57.936  64.934  38.485  1.00  0.00     0.159 C 
ATOM     24  C   UNL     1      57.992  65.426  39.875  1.00  0.00     0.005 C 
ATOM     25  C   UNL     1      58.510  67.291  41.495  1.00  0.00     0.020 C 
ATOM     26  C   UNL     1      60.345  65.778  40.599  1.00  0.00     0.017 C 
ATOM     27  O   UNL     1      57.587  63.748  38.233  1.00  0.00    -0.295 OA
ATOM     28  C   UNL     1      57.218  64.840  40.808  1.00  0.00     0.055 C 
ATOM     29  C   UNL     1      58.124  66.381  42.666  1.00  0.00     0.081 C 
ATOM     30  C   UNL     1      57.226  65.274  42.212  1.00  0.00     0.156 C 
ATOM     31  O   UNL     1      56.493  64.683  43.049  1.00  0.00    -0.295 OA
ENDBRANCH   9  11
ENDBRANCH   8   9
ENDBRANCH   1   8
TORSDOF 6
ENDMDL
MODEL 9
REMARK VINA RESULT:    -7.545     15.223     16.798
REMARK INTER + INTRA:         -11.469
REMARK INTER:                  -8.799
REMARK INTRA:                  -2.670
REMARK UNBOUND:                -1.277
REMARK SMILES CC[C@H](CC[C@@H](C)[C@H]1CC[C@@H]2[C@@H]3CC(=O)C4=CC(=O)CC[C@]4(C)[C@H]3CC[C@@]21C)C(C)C
REMARK SMILES IDX 4 1 3 2 2 3 1 4 29 5 30 6 31 7 5 8 6 9 7 10 8 11 9 12 27 13
REMARK SMILES IDX 10 14 11 15 26 16 28 17 12 18 25 19 24 20 13 21 22 22 14 23
REMARK SMILES IDX 16 24 21 25 23 26 15 27 17 28 20 29 18 30 19 31
REMARK H PARENT
REMARK Flexibility Score: inf
ROOT
ATOM      1  C   UNL     1      57.195  64.628  44.654  1.00  0.00     0.004 C 
ENDROOT
BRANCH   1   2
ATOM      2  C   UNL     1      56.507  64.603  43.260  1.00  0.00    -0.009 C 
BRANCH   2   3
ATOM      3  C   UNL     1      55.868  63.212  42.952  1.00  0.00     0.000 C 
ATOM      4  C   UNL     1      56.457  62.451  41.756  1.00  0.00     0.004 C 
ENDBRANCH   2   3
BRANCH   2   5
ATOM      5  C   UNL     1      55.548  65.819  43.008  1.00  0.00    -0.014 C 
ATOM      6  C   UNL     1      54.296  65.832  43.895  1.00  0.00     0.007 C 
ATOM      7  C   UNL     1      55.145  65.938  41.528  1.00  0.00     0.007 C 
ENDBRANCH   2   5
ENDBRANCH   1   2
BRANCH   1   8
ATOM      8  C   UNL     1      58.737  64.494  44.676  1.00  0.00     0.004 C 
BRANCH   8   9
ATOM      9  C   UNL     1      59.514  65.744  44.159  1.00  0.00    -0.011 C 
ATOM     10  C   UNL     1      60.666  66.093  45.127  1.00  0.00     0.008 C 
BRANCH   9  11
ATOM     11  C   UNL     1      60.098  65.599  42.702  1.00  0.00    -0.002 C 
ATOM     12  C   UNL     1      60.137  64.136  42.207  1.00  0.00     0.005 C 
ATOM     13  C   UNL     1      59.454  66.437  41.530  1.00  0.00    -0.026 C 
ATOM     14  C   UNL     1      59.528  64.111  40.809  1.00  0.00     0.005 C 
ATOM     15  C   UNL     1      58.692  65.387  40.692  1.00  0.00    -0.001 C 
ATOM     16  C   UNL     1      60.611  67.056  40.684  1.00  0.00     0.007 C 
ATOM     17  C   UNL     1      58.504  67.563  42.005  1.00  0.00     0.012 C 
ATOM     18  C   UNL     1      58.333  65.830  39.237  1.00  0.00     0.004 C 
ATOM     19  C   UNL     1      60.176  67.569  39.311  1.00  0.00     0.005 C 
ATOM     20  C   UNL     1      59.532  66.449  38.459  1.00  0.00     0.003 C 
ATOM     21  C   UNL     1      57.703  64.660  38.460  1.00  0.00     0.085 C 
ATOM     22  C   UNL     1      59.144  66.935  36.998  1.00  0.00    -0.000 C 
ATOM     23  C   UNL     1      57.364  65.050  37.063  1.00  0.00     0.159 C 
ATOM     24  C   UNL     1      58.316  65.862  36.282  1.00  0.00     0.005 C 
ATOM     25  C   UNL     1      60.453  67.202  36.187  1.00  0.00     0.020 C 
ATOM     26  C   UNL     1      58.289  68.231  37.033  1.00  0.00     0.017 C 
ATOM     27  O   UNL     1      56.308  64.606  36.534  1.00  0.00    -0.295 OA
ATOM     28  C   UNL     1      58.356  65.716  34.943  1.00  0.00     0.055 C 
ATOM     29  C   UNL     1      60.195  67.508  34.707  1.00  0.00     0.081 C 
ATOM     30  C   UNL     1      59.276  66.494  34.102  1.00  0.00     0.156 C 
ATOM     31  O   UNL     1      59.264  66.331  32.853  1.00  0.00    -0.295 OA
ENDBRANCH   9  11
ENDBRANCH   8   9
ENDBRANCH   1   8
TORSDOF 6
ENDMDL
