MODEL 1
REMARK VINA RESULT:    -3.414      0.000      0.000
REMARK INTER + INTRA:          -3.850
REMARK INTER:                  -3.813
REMARK INTRA:                  -0.037
REMARK UNBOUND:                -0.037
REMARK SMILES CCCC(=O)[O-]
REMARK SMILES IDX 3 1 4 2 5 3 6 4 2 5 1 6
REMARK H PARENT
REMARK Flexibility Score: inf
ROOT
ATOM      1  C   UNL     1      15.014  33.928  13.976  1.00  0.00     0.052 C 
ENDROOT
BRANCH   1   2
ATOM      2  C   UNL     1      15.111  32.598  13.294  1.00  0.00     0.041 C 
ATOM      3  O   UNL     1      16.050  31.808  13.576  1.00  0.00    -0.550 OA
ATOM      4  O   UNL     1      14.146  32.219  12.370  1.00  0.00    -0.550 OA
ENDBRANCH   1   2
BRANCH   1   5
ATOM      5  C   UNL     1      13.631  34.565  13.789  1.00  0.00     0.003 C 
ATOM      6  C   UNL     1      13.691  35.857  12.975  1.00  0.00     0.004 C 
ENDBRANCH   1   5
TORSDOF 2
ENDMDL
MODEL 2
REMARK VINA RESULT:    -3.273      2.263      3.072
REMARK INTER + INTRA:          -3.693
REMARK INTER:                  -3.730
REMARK INTRA:                   0.037
REMARK UNBOUND:                -0.037
REMARK SMILES CCCC(=O)[O-]
REMARK SMILES IDX 3 1 4 2 5 3 6 4 2 5 1 6
REMARK H PARENT
REMARK Flexibility Score: inf
ROOT
ATOM      1  C   UNL     1      15.298  34.135  13.817  1.00  0.00     0.052 C 
ENDROOT
BRANCH   1   2
ATOM      2  C   UNL     1      13.983  34.837  13.670  1.00  0.00     0.041 C 
ATOM      3  O   UNL     1      13.033  34.576  14.455  1.00  0.00    -0.550 OA
ATOM      4  O   UNL     1      13.817  35.804  12.687  1.00  0.00    -0.550 OA
ENDBRANCH   1   2
BRANCH   1   5
ATOM      5  C   UNL     1      15.165  32.624  13.588  1.00  0.00     0.003 C 
ATOM      6  C   UNL     1      14.210  32.291  12.442  1.00  0.00     0.004 C 
ENDBRANCH   1   5
TORSDOF 2
ENDMDL
MODEL 3
REMARK VINA RESULT:    -3.187     16.409     17.002
REMARK INTER + INTRA:          -3.596
REMARK INTER:                  -3.591
REMARK INTRA:                  -0.006
REMARK UNBOUND:                -0.037
REMARK SMILES CCCC(=O)[O-]
REMARK SMILES IDX 3 1 4 2 5 3 6 4 2 5 1 6
REMARK H PARENT
REMARK Flexibility Score: inf
ROOT
ATOM      1  C   UNL     1       5.127  46.943  10.184  1.00  0.00     0.052 C 
ENDROOT
BRANCH   1   2
ATOM      2  C   UNL     1       4.018  46.140   9.578  1.00  0.00     0.041 C 
ATOM      3  O   UNL     1       2.958  46.706   9.201  1.00  0.00    -0.550 OA
ATOM      4  O   UNL     1       4.168  44.771   9.398  1.00  0.00    -0.550 OA
ENDBRANCH   1   2
BRANCH   1   5
ATOM      5  C   UNL     1       5.896  47.742   9.124  1.00  0.00     0.003 C 
ATOM      6  C   UNL     1       7.356  47.972   9.515  1.00  0.00     0.004 C 
ENDBRANCH   1   5
TORSDOF 2
ENDMDL
MODEL 4
REMARK VINA RESULT:    -3.115     15.544     16.284
REMARK INTER + INTRA:          -3.516
REMARK INTER:                  -3.446
REMARK INTRA:                  -0.070
REMARK UNBOUND:                -0.037
REMARK SMILES CCCC(=O)[O-]
REMARK SMILES IDX 3 1 4 2 5 3 6 4 2 5 1 6
REMARK H PARENT
REMARK Flexibility Score: inf
ROOT
ATOM      1  C   UNL     1       4.126  44.933  11.942  1.00  0.00     0.052 C 
ENDROOT
BRANCH   1   2
ATOM      2  C   UNL     1       3.929  46.069  10.986  1.00  0.00     0.041 C 
ATOM      3  O   UNL     1       4.923  46.684  10.519  1.00  0.00    -0.550 OA
ATOM      4  O   UNL     1       2.648  46.425  10.584  1.00  0.00    -0.550 OA
ENDBRANCH   1   2
BRANCH   1   5
ATOM      5  C   UNL     1       3.543  43.622  11.398  1.00  0.00     0.003 C 
ATOM      6  C   UNL     1       4.143  43.235  10.047  1.00  0.00     0.004 C 
ENDBRANCH   1   5
TORSDOF 2
ENDMDL
MODEL 5
REMARK VINA RESULT:    -3.086     15.413     16.094
REMARK INTER + INTRA:          -3.484
REMARK INTER:                  -3.465
REMARK INTRA:                  -0.020
REMARK UNBOUND:                -0.037
REMARK SMILES CCCC(=O)[O-]
REMARK SMILES IDX 3 1 4 2 5 3 6 4 2 5 1 6
REMARK H PARENT
REMARK Flexibility Score: inf
ROOT
ATOM      1  C   UNL     1       3.990  46.175  10.972  1.00  0.00     0.052 C 
ENDROOT
BRANCH   1   2
ATOM      2  C   UNL     1       4.018  44.733  11.379  1.00  0.00     0.041 C 
ATOM      3  O   UNL     1       3.886  44.414  12.589  1.00  0.00    -0.550 OA
ATOM      4  O   UNL     1       4.155  43.742  10.416  1.00  0.00    -0.550 OA
ENDBRANCH   1   2
BRANCH   1   5
ATOM      5  C   UNL     1       4.412  46.362   9.509  1.00  0.00     0.003 C 
ATOM      6  C   UNL     1       5.528  47.395   9.353  1.00  0.00     0.004 C 
ENDBRANCH   1   5
TORSDOF 2
ENDMDL
MODEL 6
REMARK VINA RESULT:    -3.077     15.336     16.065
REMARK INTER + INTRA:          -3.474
REMARK INTER:                  -3.505
REMARK INTRA:                   0.032
REMARK UNBOUND:                -0.037
REMARK SMILES CCCC(=O)[O-]
REMARK SMILES IDX 3 1 4 2 5 3 6 4 2 5 1 6
REMARK H PARENT
REMARK Flexibility Score: inf
ROOT
ATOM      1  C   UNL     1       3.848  45.469  11.359  1.00  0.00     0.052 C 
ENDROOT
BRANCH   1   2
ATOM      2  C   UNL     1       4.118  45.225   9.906  1.00  0.00     0.041 C 
ATOM      3  O   UNL     1       4.334  46.193   9.131  1.00  0.00    -0.550 OA
ATOM      4  O   UNL     1       4.164  43.927   9.415  1.00  0.00    -0.550 OA
ENDBRANCH   1   2
BRANCH   1   5
ATOM      5  C   UNL     1       3.741  44.156  12.146  1.00  0.00     0.003 C 
ATOM      6  C   UNL     1       2.317  43.603  12.165  1.00  0.00     0.004 C 
ENDBRANCH   1   5
TORSDOF 2
ENDMDL
MODEL 7
REMARK VINA RESULT:    -3.059     15.218     15.974
REMARK INTER + INTRA:          -3.453
REMARK INTER:                  -3.385
REMARK INTRA:                  -0.068
REMARK UNBOUND:                -0.037
REMARK SMILES CCCC(=O)[O-]
REMARK SMILES IDX 3 1 4 2 5 3 6 4 2 5 1 6
REMARK H PARENT
REMARK Flexibility Score: inf
ROOT
ATOM      1  C   UNL     1       2.576  44.740  10.510  1.00  0.00     0.052 C 
ENDROOT
BRANCH   1   2
ATOM      2  C   UNL     1       3.786  44.620   9.634  1.00  0.00     0.041 C 
ATOM      3  O   UNL     1       4.128  43.497   9.178  1.00  0.00    -0.550 OA
ATOM      4  O   UNL     1       4.513  45.753   9.294  1.00  0.00    -0.550 OA
ENDBRANCH   1   2
BRANCH   1   5
ATOM      5  C   UNL     1       2.746  43.966  11.824  1.00  0.00     0.003 C 
ATOM      6  C   UNL     1       3.997  44.391  12.592  1.00  0.00     0.004 C 
ENDBRANCH   1   5
TORSDOF 2
ENDMDL
MODEL 8
REMARK VINA RESULT:    -3.023     16.286     17.148
REMARK INTER + INTRA:          -3.413
REMARK INTER:                  -3.406
REMARK INTRA:                  -0.007
REMARK UNBOUND:                -0.037
REMARK SMILES CCCC(=O)[O-]
REMARK SMILES IDX 3 1 4 2 5 3 6 4 2 5 1 6
REMARK H PARENT
REMARK Flexibility Score: inf
ROOT
ATOM      1  C   UNL     1       4.500  46.096   9.598  1.00  0.00     0.052 C 
ENDROOT
BRANCH   1   2
ATOM      2  C   UNL     1       5.120  47.376   9.125  1.00  0.00     0.041 C 
ATOM      3  O   UNL     1       6.305  47.660   9.441  1.00  0.00    -0.550 OA
ATOM      4  O   UNL     1       4.399  48.237   8.308  1.00  0.00    -0.550 OA
ENDBRANCH   1   2
BRANCH   1   5
ATOM      5  C   UNL     1       3.896  46.240  11.001  1.00  0.00     0.003 C 
ATOM      6  C   UNL     1       3.832  44.908  11.746  1.00  0.00     0.004 C 
ENDBRANCH   1   5
TORSDOF 2
ENDMDL
MODEL 9
REMARK VINA RESULT:    -3.012     15.361     16.015
REMARK INTER + INTRA:          -3.401
REMARK INTER:                  -3.334
REMARK INTRA:                  -0.067
REMARK UNBOUND:                -0.037
REMARK SMILES CCCC(=O)[O-]
REMARK SMILES IDX 3 1 4 2 5 3 6 4 2 5 1 6
REMARK H PARENT
REMARK Flexibility Score: inf
ROOT
ATOM      1  C   UNL     1       2.379  44.720  11.382  1.00  0.00     0.052 C 
ENDROOT
BRANCH   1   2
ATOM      2  C   UNL     1       3.783  45.050  11.789  1.00  0.00     0.041 C 
ATOM      3  O   UNL     1       4.445  45.905  11.144  1.00  0.00    -0.550 OA
ATOM      4  O   UNL     1       4.347  44.437  12.900  1.00  0.00    -0.550 OA
ENDBRANCH   1   2
BRANCH   1   5
ATOM      5  C   UNL     1       2.194  43.216  11.142  1.00  0.00     0.003 C 
ATOM      6  C   UNL     1       2.919  42.734   9.886  1.00  0.00     0.004 C 
ENDBRANCH   1   5
TORSDOF 2
ENDMDL
