MODEL 1
REMARK VINA RESULT:    -4.167      0.000      0.000
REMARK INTER + INTRA:          -6.739
REMARK INTER:                  -6.116
REMARK INTRA:                  -0.623
REMARK UNBOUND:                -0.623
REMARK SMILES O=C([O-])CCCCCCCC(=O)[O-]
REMARK SMILES IDX 7 1 6 2 5 3 4 4 2 5 1 6 3 7 8 8 9 9 10 10 11 11 12 12 13 13
REMARK H PARENT
REMARK Flexibility Score: inf
ROOT
ATOM      1  C   UNL     1     -27.334 -11.187  17.762  1.00  0.00     0.000 C 
ENDROOT
BRANCH   1   2
ATOM      2  C   UNL     1     -28.743 -10.947  17.194  1.00  0.00     0.000 C 
BRANCH   2   3
ATOM      3  C   UNL     1     -29.722 -12.078  17.544  1.00  0.00     0.006 C 
BRANCH   3   4
ATOM      4  C   UNL     1     -30.067 -12.905  16.302  1.00  0.00     0.053 C 
BRANCH   4   5
ATOM      5  C   UNL     1     -31.312 -13.702  16.532  1.00  0.00     0.041 C 
ATOM      6  O   UNL     1     -31.988 -13.535  17.580  1.00  0.00    -0.550 OA
ATOM      7  O   UNL     1     -31.754 -14.594  15.563  1.00  0.00    -0.550 OA
ENDBRANCH   4   5
ENDBRANCH   3   4
ENDBRANCH   2   3
ENDBRANCH   1   2
BRANCH   1   8
ATOM      8  C   UNL     1     -26.314 -11.563  16.678  1.00  0.00     0.000 C 
BRANCH   8   9
ATOM      9  C   UNL     1     -25.542 -12.832  17.066  1.00  0.00     0.006 C 
BRANCH   9  10
ATOM     10  C   UNL     1     -26.287 -13.667  18.116  1.00  0.00     0.053 C 
BRANCH  10  11
ATOM     11  C   UNL     1     -26.675 -15.012  17.581  1.00  0.00     0.041 C 
ATOM     12  O   UNL     1     -25.794 -15.806  17.161  1.00  0.00    -0.550 OA
ATOM     13  O   UNL     1     -28.015 -15.374  17.517  1.00  0.00    -0.550 OA
ENDBRANCH  10  11
ENDBRANCH   9  10
ENDBRANCH   8   9
ENDBRANCH   1   8
TORSDOF 8
ENDMDL
MODEL 2
REMARK VINA RESULT:    -4.134      0.964      4.164
REMARK INTER + INTRA:          -6.691
REMARK INTER:                  -6.122
REMARK INTRA:                  -0.569
REMARK UNBOUND:                -0.623
REMARK SMILES O=C([O-])CCCCCCCC(=O)[O-]
REMARK SMILES IDX 7 1 6 2 5 3 4 4 2 5 1 6 3 7 8 8 9 9 10 10 11 11 12 12 13 13
REMARK H PARENT
REMARK Flexibility Score: inf
ROOT
ATOM      1  C   UNL     1     -26.441 -11.775  16.712  1.00  0.00     0.000 C 
ENDROOT
BRANCH   1   2
ATOM      2  C   UNL     1     -25.309 -12.154  17.680  1.00  0.00     0.000 C 
BRANCH   2   3
ATOM      3  C   UNL     1     -25.376 -13.624  18.121  1.00  0.00     0.006 C 
BRANCH   3   4
ATOM      4  C   UNL     1     -26.822 -14.130  18.115  1.00  0.00     0.053 C 
BRANCH   4   5
ATOM      5  C   UNL     1     -26.891 -15.513  17.549  1.00  0.00     0.041 C 
ATOM      6  O   UNL     1     -25.872 -16.039  17.032  1.00  0.00    -0.550 OA
ATOM      7  O   UNL     1     -28.070 -16.241  17.638  1.00  0.00    -0.550 OA
ENDBRANCH   4   5
ENDBRANCH   3   4
ENDBRANCH   2   3
ENDBRANCH   1   2
BRANCH   1   8
ATOM      8  C   UNL     1     -27.334 -10.650  17.256  1.00  0.00     0.000 C 
BRANCH   8   9
ATOM      9  C   UNL     1     -28.672 -11.208  17.762  1.00  0.00     0.006 C 
BRANCH   9  10
ATOM     10  C   UNL     1     -29.590 -11.650  16.615  1.00  0.00     0.053 C 
BRANCH  10  11
ATOM     11  C   UNL     1     -30.159 -13.015  16.854  1.00  0.00     0.041 C 
ATOM     12  O   UNL     1     -29.923 -13.950  16.046  1.00  0.00    -0.550 OA
ATOM     13  O   UNL     1     -30.978 -13.244  17.952  1.00  0.00    -0.550 OA
ENDBRANCH  10  11
ENDBRANCH   9  10
ENDBRANCH   8   9
ENDBRANCH   1   8
TORSDOF 8
ENDMDL
MODEL 3
REMARK VINA RESULT:    -4.082      1.675      2.800
REMARK INTER + INTRA:          -6.614
REMARK INTER:                  -6.067
REMARK INTRA:                  -0.547
REMARK UNBOUND:                -0.623
REMARK SMILES O=C([O-])CCCCCCCC(=O)[O-]
REMARK SMILES IDX 7 1 6 2 5 3 4 4 2 5 1 6 3 7 8 8 9 9 10 10 11 11 12 12 13 13
REMARK H PARENT
REMARK Flexibility Score: inf
ROOT
ATOM      1  C   UNL     1     -29.529 -12.741  16.421  1.00  0.00     0.000 C 
ENDROOT
BRANCH   1   2
ATOM      2  C   UNL     1     -29.666 -13.945  17.367  1.00  0.00     0.000 C 
BRANCH   2   3
ATOM      3  C   UNL     1     -31.128 -14.361  17.587  1.00  0.00     0.006 C 
BRANCH   3   4
ATOM      4  C   UNL     1     -31.985 -14.009  16.367  1.00  0.00     0.053 C 
BRANCH   4   5
ATOM      5  C   UNL     1     -32.175 -15.209  15.495  1.00  0.00     0.041 C 
ATOM      6  O   UNL     1     -33.267 -15.833  15.504  1.00  0.00    -0.550 OA
ATOM      7  O   UNL     1     -31.161 -15.608  14.633  1.00  0.00    -0.550 OA
ENDBRANCH   4   5
ENDBRANCH   3   4
ENDBRANCH   2   3
ENDBRANCH   1   2
BRANCH   1   8
ATOM      8  C   UNL     1     -29.327 -11.416  17.172  1.00  0.00     0.000 C 
BRANCH   8   9
ATOM      9  C   UNL     1     -27.924 -11.346  17.792  1.00  0.00     0.006 C 
BRANCH   9  10
ATOM     10  C   UNL     1     -26.816 -11.538  16.748  1.00  0.00     0.053 C 
BRANCH  10  11
ATOM     11  C   UNL     1     -25.761 -12.489  17.226  1.00  0.00     0.041 C 
ATOM     12  O   UNL     1     -24.593 -12.078  17.451  1.00  0.00    -0.550 OA
ATOM     13  O   UNL     1     -26.062 -13.834  17.392  1.00  0.00    -0.550 OA
ENDBRANCH  10  11
ENDBRANCH   9  10
ENDBRANCH   8   9
ENDBRANCH   1   8
TORSDOF 8
ENDMDL
MODEL 4
REMARK VINA RESULT:    -4.081      1.973      2.972
REMARK INTER + INTRA:          -6.613
REMARK INTER:                  -6.058
REMARK INTRA:                  -0.555
REMARK UNBOUND:                -0.623
REMARK SMILES O=C([O-])CCCCCCCC(=O)[O-]
REMARK SMILES IDX 7 1 6 2 5 3 4 4 2 5 1 6 3 7 8 8 9 9 10 10 11 11 12 12 13 13
REMARK H PARENT
REMARK Flexibility Score: inf
ROOT
ATOM      1  C   UNL     1     -29.772 -12.378  16.753  1.00  0.00     0.000 C 
ENDROOT
BRANCH   1   2
ATOM      2  C   UNL     1     -30.749 -13.131  17.671  1.00  0.00     0.000 C 
BRANCH   2   3
ATOM      3  C   UNL     1     -30.661 -14.655  17.504  1.00  0.00     0.006 C 
BRANCH   3   4
ATOM      4  C   UNL     1     -29.494 -15.038  16.588  1.00  0.00     0.053 C 
BRANCH   4   5
ATOM      5  C   UNL     1     -29.982 -15.849  15.429  1.00  0.00     0.041 C 
ATOM      6  O   UNL     1     -30.383 -15.280  14.381  1.00  0.00    -0.550 OA
ATOM      7  O   UNL     1     -29.944 -17.236  15.488  1.00  0.00    -0.550 OA
ENDBRANCH   4   5
ENDBRANCH   3   4
ENDBRANCH   2   3
ENDBRANCH   1   2
BRANCH   1   8
ATOM      8  C   UNL     1     -29.271 -11.065  17.371  1.00  0.00     0.000 C 
BRANCH   8   9
ATOM      9  C   UNL     1     -27.803 -11.187  17.806  1.00  0.00     0.006 C 
BRANCH   9  10
ATOM     10  C   UNL     1     -26.903 -11.703  16.675  1.00  0.00     0.053 C 
BRANCH  10  11
ATOM     11  C   UNL     1     -25.826 -12.607  17.192  1.00  0.00     0.041 C 
ATOM     12  O   UNL     1     -24.678 -12.150  17.436  1.00  0.00    -0.550 OA
ATOM     13  O   UNL     1     -26.081 -13.960  17.372  1.00  0.00    -0.550 OA
ENDBRANCH  10  11
ENDBRANCH   9  10
ENDBRANCH   8   9
ENDBRANCH   1   8
TORSDOF 8
ENDMDL
MODEL 5
REMARK VINA RESULT:    -4.066      1.671      5.324
REMARK INTER + INTRA:          -6.591
REMARK INTER:                  -6.060
REMARK INTRA:                  -0.531
REMARK UNBOUND:                -0.623
REMARK SMILES O=C([O-])CCCCCCCC(=O)[O-]
REMARK SMILES IDX 7 1 6 2 5 3 4 4 2 5 1 6 3 7 8 8 9 9 10 10 11 11 12 12 13 13
REMARK H PARENT
REMARK Flexibility Score: inf
ROOT
ATOM      1  C   UNL     1     -29.484 -12.595  16.445  1.00  0.00     0.000 C 
ENDROOT
BRANCH   1   2
ATOM      2  C   UNL     1     -29.334 -11.352  17.338  1.00  0.00     0.000 C 
BRANCH   2   3
ATOM      3  C   UNL     1     -27.876 -11.083  17.736  1.00  0.00     0.006 C 
BRANCH   3   4
ATOM      4  C   UNL     1     -26.913 -11.570  16.649  1.00  0.00     0.053 C 
BRANCH   4   5
ATOM      5  C   UNL     1     -25.906 -12.515  17.224  1.00  0.00     0.041 C 
ATOM      6  O   UNL     1     -26.227 -13.704  17.483  1.00  0.00    -0.550 OA
ATOM      7  O   UNL     1     -24.598 -12.096  17.427  1.00  0.00    -0.550 OA
ENDBRANCH   4   5
ENDBRANCH   3   4
ENDBRANCH   2   3
ENDBRANCH   1   2
BRANCH   1   8
ATOM      8  C   UNL     1     -30.006 -13.818  17.214  1.00  0.00     0.000 C 
BRANCH   8   9
ATOM      9  C   UNL     1     -31.368 -13.521  17.857  1.00  0.00     0.006 C 
BRANCH   9  10
ATOM     10  C   UNL     1     -32.415 -14.592  17.522  1.00  0.00     0.053 C 
BRANCH  10  11
ATOM     11  C   UNL     1     -32.687 -14.660  16.051  1.00  0.00     0.041 C 
ATOM     12  O   UNL     1     -33.240 -13.694  15.463  1.00  0.00    -0.550 OA
ATOM     13  O   UNL     1     -32.361 -15.805  15.335  1.00  0.00    -0.550 OA
ENDBRANCH  10  11
ENDBRANCH   9  10
ENDBRANCH   8   9
ENDBRANCH   1   8
TORSDOF 8
ENDMDL
MODEL 6
REMARK VINA RESULT:    -4.048      1.982      3.523
REMARK INTER + INTRA:          -6.564
REMARK INTER:                  -6.049
REMARK INTRA:                  -0.516
REMARK UNBOUND:                -0.623
REMARK SMILES O=C([O-])CCCCCCCC(=O)[O-]
REMARK SMILES IDX 7 1 6 2 5 3 4 4 2 5 1 6 3 7 8 8 9 9 10 10 11 11 12 12 13 13
REMARK H PARENT
REMARK Flexibility Score: inf
ROOT
ATOM      1  C   UNL     1     -25.590 -13.736  18.113  1.00  0.00     0.000 C 
ENDROOT
BRANCH   1   2
ATOM      2  C   UNL     1     -25.449 -12.609  17.077  1.00  0.00     0.000 C 
BRANCH   2   3
ATOM      3  C   UNL     1     -26.479 -11.489  17.278  1.00  0.00     0.006 C 
BRANCH   3   4
ATOM      4  C   UNL     1     -27.805 -12.053  17.800  1.00  0.00     0.053 C 
BRANCH   4   5
ATOM      5  C   UNL     1     -28.952 -11.217  17.329  1.00  0.00     0.041 C 
ATOM      6  O   UNL     1     -29.006  -9.993  17.616  1.00  0.00    -0.550 OA
ATOM      7  O   UNL     1     -29.938 -11.780  16.528  1.00  0.00    -0.550 OA
ENDBRANCH   4   5
ENDBRANCH   3   4
ENDBRANCH   2   3
ENDBRANCH   1   2
BRANCH   1   8
ATOM      8  C   UNL     1     -25.979 -15.080  17.478  1.00  0.00     0.000 C 
BRANCH   8   9
ATOM      9  C   UNL     1     -27.361 -15.537  17.964  1.00  0.00     0.006 C 
BRANCH   9  10
ATOM     10  C   UNL     1     -28.239 -16.057  16.817  1.00  0.00     0.053 C 
BRANCH  10  11
ATOM     11  C   UNL     1     -29.502 -15.263  16.682  1.00  0.00     0.041 C 
ATOM     12  O   UNL     1     -30.131 -14.894  17.708  1.00  0.00    -0.550 OA
ATOM     13  O   UNL     1     -30.002 -14.961  15.422  1.00  0.00    -0.550 OA
ENDBRANCH  10  11
ENDBRANCH   9  10
ENDBRANCH   8   9
ENDBRANCH   1   8
TORSDOF 8
ENDMDL
MODEL 7
REMARK VINA RESULT:    -4.041      2.399      4.812
REMARK INTER + INTRA:          -6.554
REMARK INTER:                  -6.077
REMARK INTRA:                  -0.477
REMARK UNBOUND:                -0.623
REMARK SMILES O=C([O-])CCCCCCCC(=O)[O-]
REMARK SMILES IDX 7 1 6 2 5 3 4 4 2 5 1 6 3 7 8 8 9 9 10 10 11 11 12 12 13 13
REMARK H PARENT
REMARK Flexibility Score: inf
ROOT
ATOM      1  C   UNL     1     -29.546 -12.918  16.375  1.00  0.00     0.000 C 
ENDROOT
BRANCH   1   2
ATOM      2  C   UNL     1     -29.450 -11.653  17.244  1.00  0.00     0.000 C 
BRANCH   2   3
ATOM      3  C   UNL     1     -28.032 -11.410  17.780  1.00  0.00     0.006 C 
BRANCH   3   4
ATOM      4  C   UNL     1     -26.989 -11.604  16.675  1.00  0.00     0.053 C 
BRANCH   4   5
ATOM      5  C   UNL     1     -25.887 -12.500  17.145  1.00  0.00     0.041 C 
ATOM      6  O   UNL     1     -24.730 -12.041  17.326  1.00  0.00    -0.550 OA
ATOM      7  O   UNL     1     -26.151 -13.833  17.432  1.00  0.00    -0.550 OA
ENDBRANCH   4   5
ENDBRANCH   3   4
ENDBRANCH   2   3
ENDBRANCH   1   2
BRANCH   1   8
ATOM      8  C   UNL     1     -29.741 -14.194  17.207  1.00  0.00     0.000 C 
BRANCH   8   9
ATOM      9  C   UNL     1     -29.687 -15.444  16.316  1.00  0.00     0.006 C 
BRANCH   9  10
ATOM     10  C   UNL     1     -30.338 -15.210  14.946  1.00  0.00     0.053 C 
BRANCH  10  11
ATOM     11  C   UNL     1     -30.286 -16.438  14.091  1.00  0.00     0.041 C 
ATOM     12  O   UNL     1     -29.314 -16.630  13.315  1.00  0.00    -0.550 OA
ATOM     13  O   UNL     1     -31.330 -17.354  14.126  1.00  0.00    -0.550 OA
ENDBRANCH  10  11
ENDBRANCH   9  10
ENDBRANCH   8   9
ENDBRANCH   1   8
TORSDOF 8
ENDMDL
MODEL 8
REMARK VINA RESULT:    -3.969      2.284      3.499
REMARK INTER + INTRA:          -6.449
REMARK INTER:                  -6.088
REMARK INTRA:                  -0.361
REMARK UNBOUND:                -0.623
REMARK SMILES O=C([O-])CCCCCCCC(=O)[O-]
REMARK SMILES IDX 7 1 6 2 5 3 4 4 2 5 1 6 3 7 8 8 9 9 10 10 11 11 12 12 13 13
REMARK H PARENT
REMARK Flexibility Score: inf
ROOT
ATOM      1  C   UNL     1     -25.934 -15.031  17.377  1.00  0.00     0.000 C 
ENDROOT
BRANCH   1   2
ATOM      2  C   UNL     1     -27.194 -15.708  17.939  1.00  0.00     0.000 C 
BRANCH   2   3
ATOM      3  C   UNL     1     -28.490 -15.066  17.424  1.00  0.00     0.006 C 
BRANCH   3   4
ATOM      4  C   UNL     1     -29.190 -15.982  16.415  1.00  0.00     0.053 C 
BRANCH   4   5
ATOM      5  C   UNL     1     -30.077 -15.186  15.510  1.00  0.00     0.041 C 
ATOM      6  O   UNL     1     -30.484 -14.048  15.861  1.00  0.00    -0.550 OA
ATOM      7  O   UNL     1     -30.411 -15.679  14.255  1.00  0.00    -0.550 OA
ENDBRANCH   4   5
ENDBRANCH   3   4
ENDBRANCH   2   3
ENDBRANCH   1   2
BRANCH   1   8
ATOM      8  C   UNL     1     -25.643 -13.676  18.039  1.00  0.00     0.000 C 
BRANCH   8   9
ATOM      9  C   UNL     1     -25.498 -12.569  16.986  1.00  0.00     0.006 C 
BRANCH   9  10
ATOM     10  C   UNL     1     -26.046 -11.223  17.477  1.00  0.00     0.053 C 
BRANCH  10  11
ATOM     11  C   UNL     1     -27.486 -11.041  17.106  1.00  0.00     0.041 C 
ATOM     12  O   UNL     1     -28.087 -11.928  16.445  1.00  0.00    -0.550 OA
ATOM     13  O   UNL     1     -28.154  -9.876  17.462  1.00  0.00    -0.550 OA
ENDBRANCH  10  11
ENDBRANCH   9  10
ENDBRANCH   8   9
ENDBRANCH   1   8
TORSDOF 8
ENDMDL
MODEL 9
REMARK VINA RESULT:    -3.783      2.755      3.854
REMARK INTER + INTRA:          -6.176
REMARK INTER:                  -5.757
REMARK INTRA:                  -0.419
REMARK UNBOUND:                -0.623
REMARK SMILES O=C([O-])CCCCCCCC(=O)[O-]
REMARK SMILES IDX 7 1 6 2 5 3 4 4 2 5 1 6 3 7 8 8 9 9 10 10 11 11 12 12 13 13
REMARK H PARENT
REMARK Flexibility Score: inf
ROOT
ATOM      1  C   UNL     1     -30.737 -13.200  17.353  1.00  0.00     0.000 C 
ENDROOT
BRANCH   1   2
ATOM      2  C   UNL     1     -30.454 -14.711  17.373  1.00  0.00     0.000 C 
BRANCH   2   3
ATOM      3  C   UNL     1     -29.972 -15.241  16.015  1.00  0.00     0.006 C 
BRANCH   3   4
ATOM      4  C   UNL     1     -31.151 -15.736  15.172  1.00  0.00     0.053 C 
BRANCH   4   5
ATOM      5  C   UNL     1     -30.685 -16.720  14.145  1.00  0.00     0.041 C 
ATOM      6  O   UNL     1     -31.437 -17.661  13.781  1.00  0.00    -0.550 OA
ATOM      7  O   UNL     1     -29.438 -16.567  13.553  1.00  0.00    -0.550 OA
ENDBRANCH   4   5
ENDBRANCH   3   4
ENDBRANCH   2   3
ENDBRANCH   1   2
BRANCH   1   8
ATOM      8  C   UNL     1     -29.760 -12.426  16.456  1.00  0.00     0.000 C 
BRANCH   8   9
ATOM      9  C   UNL     1     -28.678 -11.731  17.294  1.00  0.00     0.006 C 
BRANCH   9  10
ATOM     10  C   UNL     1     -27.424 -12.599  17.462  1.00  0.00     0.053 C 
BRANCH  10  11
ATOM     11  C   UNL     1     -26.170 -11.817  17.212  1.00  0.00     0.041 C 
ATOM     12  O   UNL     1     -25.067 -12.410  17.087  1.00  0.00    -0.550 OA
ATOM     13  O   UNL     1     -26.217 -10.430  17.153  1.00  0.00    -0.550 OA
ENDBRANCH  10  11
ENDBRANCH   9  10
ENDBRANCH   8   9
ENDBRANCH   1   8
TORSDOF 8
ENDMDL
