MODEL 1
REMARK VINA RESULT:    -3.306      0.000      0.000
REMARK INTER + INTRA:          -3.587
REMARK INTER:                  -3.500
REMARK INTRA:                  -0.088
REMARK UNBOUND:                -0.088
REMARK SMILES CC1=CC[C@@H]2[C@H]3[C@@H](C(C)C)CC[C@]2(C)[C@@H]13
REMARK SMILES IDX 1 1 2 2 3 3 4 4 5 5 6 6 15 7 13 8 12 9 11 10 7 11 14 12 8 13
REMARK SMILES IDX 9 14 10 15
REMARK H PARENT
REMARK Flexibility Score: inf
ROOT
ATOM      1  C   UNL     1     143.859 142.710 130.377  1.00  0.00     0.039 C 
ATOM      2  C   UNL     1     144.135 143.610 131.544  1.00  0.00    -0.073 C 
ATOM      3  C   UNL     1     143.127 144.084 132.322  1.00  0.00    -0.027 C 
ATOM      4  C   UNL     1     143.472 144.979 133.516  1.00  0.00     0.031 C 
ATOM      5  C   UNL     1     145.015 145.218 133.591  1.00  0.00     0.003 C 
ATOM      6  C   UNL     1     145.501 145.573 132.160  1.00  0.00     0.004 C 
ATOM      7  C   UNL     1     145.557 144.051 131.904  1.00  0.00     0.024 C 
ATOM      8  C   UNL     1     145.804 143.894 133.422  1.00  0.00    -0.022 C 
ATOM      9  C   UNL     1     147.320 144.120 133.718  1.00  0.00     0.008 C 
ATOM     10  C   UNL     1     147.802 145.539 133.310  1.00  0.00     0.005 C 
ATOM     11  C   UNL     1     146.948 146.153 132.157  1.00  0.00    -0.005 C 
ATOM     12  C   UNL     1     145.290 142.616 134.125  1.00  0.00     0.012 C 
ENDROOT
BRANCH  11  13
ATOM     13  C   UNL     1     146.961 147.711 132.107  1.00  0.00    -0.014 C 
ATOM     14  C   UNL     1     145.813 148.312 132.934  1.00  0.00     0.007 C 
ATOM     15  C   UNL     1     146.959 148.298 130.685  1.00  0.00     0.007 C 
ENDBRANCH  11  13
TORSDOF 1
ENDMDL
MODEL 2
REMARK VINA RESULT:    -2.990      1.030      4.593
REMARK INTER + INTRA:          -3.252
REMARK INTER:                  -3.165
REMARK INTRA:                  -0.088
REMARK UNBOUND:                -0.088
REMARK SMILES CC1=CC[C@@H]2[C@H]3[C@@H](C(C)C)CC[C@]2(C)[C@@H]13
REMARK SMILES IDX 1 1 2 2 3 3 4 4 5 5 6 6 15 7 13 8 12 9 11 10 7 11 14 12 8 13
REMARK SMILES IDX 9 14 10 15
REMARK H PARENT
REMARK Flexibility Score: inf
ROOT
ATOM      1  C   UNL     1     146.882 148.226 130.380  1.00  0.00     0.039 C 
ATOM      2  C   UNL     1     146.616 147.301 131.531  1.00  0.00    -0.073 C 
ATOM      3  C   UNL     1     147.629 146.829 132.304  1.00  0.00    -0.027 C 
ATOM      4  C   UNL     1     147.294 145.908 133.481  1.00  0.00     0.031 C 
ATOM      5  C   UNL     1     145.754 145.646 133.547  1.00  0.00     0.003 C 
ATOM      6  C   UNL     1     145.278 145.308 132.109  1.00  0.00     0.004 C 
ATOM      7  C   UNL     1     145.200 146.834 131.878  1.00  0.00     0.024 C 
ATOM      8  C   UNL     1     144.946 146.961 133.399  1.00  0.00    -0.022 C 
ATOM      9  C   UNL     1     143.433 146.708 133.686  1.00  0.00     0.008 C 
ATOM     10  C   UNL     1     142.973 145.289 133.252  1.00  0.00     0.005 C 
ATOM     11  C   UNL     1     143.839 144.708 132.090  1.00  0.00    -0.005 C 
ATOM     12  C   UNL     1     145.440 148.233 134.125  1.00  0.00     0.012 C 
ENDROOT
BRANCH  11  13
ATOM     13  C   UNL     1     143.849 143.151 132.014  1.00  0.00    -0.014 C 
ATOM     14  C   UNL     1     144.994 142.552 132.846  1.00  0.00     0.007 C 
ATOM     15  C   UNL     1     143.878 142.590 130.582  1.00  0.00     0.007 C 
ENDBRANCH  11  13
TORSDOF 1
ENDMDL
MODEL 3
REMARK VINA RESULT:    -2.389      1.695      3.129
REMARK INTER + INTRA:          -2.616
REMARK INTER:                  -2.517
REMARK INTRA:                  -0.099
REMARK UNBOUND:                -0.088
REMARK SMILES CC1=CC[C@@H]2[C@H]3[C@@H](C(C)C)CC[C@]2(C)[C@@H]13
REMARK SMILES IDX 1 1 2 2 3 3 4 4 5 5 6 6 15 7 13 8 12 9 11 10 7 11 14 12 8 13
REMARK SMILES IDX 9 14 10 15
REMARK H PARENT
REMARK Flexibility Score: inf
ROOT
ATOM      1  C   UNL     1     148.132 143.630 130.354  1.00  0.00     0.039 C 
ATOM      2  C   UNL     1     147.221 143.945 131.502  1.00  0.00    -0.073 C 
ATOM      3  C   UNL     1     146.665 142.958 132.252  1.00  0.00    -0.027 C 
ATOM      4  C   UNL     1     145.762 143.341 133.429  1.00  0.00     0.031 C 
ATOM      5  C   UNL     1     145.618 144.895 133.522  1.00  0.00     0.003 C 
ATOM      6  C   UNL     1     145.331 145.422 132.090  1.00  0.00     0.004 C 
ATOM      7  C   UNL     1     146.860 145.387 131.873  1.00  0.00     0.024 C 
ATOM      8  C   UNL     1     146.992 145.602 133.399  1.00  0.00    -0.022 C 
ATOM      9  C   UNL     1     146.853 147.125 133.712  1.00  0.00     0.008 C 
ATOM     10  C   UNL     1     145.478 147.700 133.276  1.00  0.00     0.005 C 
ATOM     11  C   UNL     1     144.843 146.902 132.095  1.00  0.00    -0.005 C 
ATOM     12  C   UNL     1     148.217 144.999 134.125  1.00  0.00     0.012 C 
ENDROOT
BRANCH  11  13
ATOM     13  C   UNL     1     143.291 147.013 132.006  1.00  0.00    -0.014 C 
ATOM     14  C   UNL     1     142.598 146.052 132.985  1.00  0.00     0.007 C 
ATOM     15  C   UNL     1     142.724 146.832 130.588  1.00  0.00     0.007 C 
ENDBRANCH  11  13
TORSDOF 1
ENDMDL
MODEL 4
REMARK VINA RESULT:    -2.354      1.731      3.344
REMARK INTER + INTRA:          -2.579
REMARK INTER:                  -2.488
REMARK INTRA:                  -0.091
REMARK UNBOUND:                -0.088
REMARK SMILES CC1=CC[C@@H]2[C@H]3[C@@H](C(C)C)CC[C@]2(C)[C@@H]13
REMARK SMILES IDX 1 1 2 2 3 3 4 4 5 5 6 6 15 7 13 8 12 9 11 10 7 11 14 12 8 13
REMARK SMILES IDX 9 14 10 15
REMARK H PARENT
REMARK Flexibility Score: inf
ROOT
ATOM      1  C   UNL     1     142.600 147.160 130.367  1.00  0.00     0.039 C 
ATOM      2  C   UNL     1     143.510 146.843 131.516  1.00  0.00    -0.073 C 
ATOM      3  C   UNL     1     144.053 147.829 132.278  1.00  0.00    -0.027 C 
ATOM      4  C   UNL     1     144.955 147.443 133.454  1.00  0.00     0.031 C 
ATOM      5  C   UNL     1     145.114 145.890 133.533  1.00  0.00     0.003 C 
ATOM      6  C   UNL     1     145.413 145.380 132.098  1.00  0.00     0.004 C 
ATOM      7  C   UNL     1     143.884 145.402 131.875  1.00  0.00     0.024 C 
ATOM      8  C   UNL     1     143.748 145.171 133.398  1.00  0.00    -0.022 C 
ATOM      9  C   UNL     1     143.901 143.646 133.698  1.00  0.00     0.008 C 
ATOM     10  C   UNL     1     145.284 143.089 133.262  1.00  0.00     0.005 C 
ATOM     11  C   UNL     1     145.916 143.904 132.090  1.00  0.00    -0.005 C 
ATOM     12  C   UNL     1     142.515 145.754 134.125  1.00  0.00     0.012 C 
ENDROOT
BRANCH  11  13
ATOM     13  C   UNL     1     147.469 143.810 132.007  1.00  0.00    -0.014 C 
ATOM     14  C   UNL     1     148.148 144.839 132.924  1.00  0.00     0.007 C 
ATOM     15  C   UNL     1     148.033 143.913 130.579  1.00  0.00     0.007 C 
ENDBRANCH  11  13
TORSDOF 1
ENDMDL
MODEL 5
REMARK VINA RESULT:    -2.306      1.426      4.600
REMARK INTER + INTRA:          -2.528
REMARK INTER:                  -2.237
REMARK INTRA:                  -0.292
REMARK UNBOUND:                -0.088
REMARK SMILES CC1=CC[C@@H]2[C@H]3[C@@H](C(C)C)CC[C@]2(C)[C@@H]13
REMARK SMILES IDX 1 1 2 2 3 3 4 4 5 5 6 6 15 7 13 8 12 9 11 10 7 11 14 12 8 13
REMARK SMILES IDX 9 14 10 15
REMARK H PARENT
REMARK Flexibility Score: inf
ROOT
ATOM      1  C   UNL     1     148.331 145.475 134.114  1.00  0.00     0.039 C 
ATOM      2  C   UNL     1     147.030 145.849 133.470  1.00  0.00    -0.073 C 
ATOM      3  C   UNL     1     146.112 146.608 134.125  1.00  0.00    -0.027 C 
ATOM      4  C   UNL     1     144.812 146.980 133.406  1.00  0.00     0.031 C 
ATOM      5  C   UNL     1     144.776 146.343 131.979  1.00  0.00     0.003 C 
ATOM      6  C   UNL     1     145.214 144.861 132.119  1.00  0.00     0.004 C 
ATOM      7  C   UNL     1     146.666 145.384 132.057  1.00  0.00     0.024 C 
ATOM      8  C   UNL     1     146.112 146.563 131.225  1.00  0.00    -0.022 C 
ATOM      9  C   UNL     1     145.978 146.117 129.735  1.00  0.00     0.008 C 
ATOM     10  C   UNL     1     145.004 144.920 129.556  1.00  0.00     0.005 C 
ATOM     11  C   UNL     1     144.907 144.032 130.836  1.00  0.00    -0.005 C 
ATOM     12  C   UNL     1     146.818 147.935 131.328  1.00  0.00     0.012 C 
ENDROOT
BRANCH  11  13
ATOM     13  C   UNL     1     143.578 143.225 130.957  1.00  0.00    -0.014 C 
ATOM     14  C   UNL     1     143.320 142.775 132.404  1.00  0.00     0.007 C 
ATOM     15  C   UNL     1     143.478 142.026 129.999  1.00  0.00     0.007 C 
ENDBRANCH  11  13
TORSDOF 1
ENDMDL
MODEL 6
REMARK VINA RESULT:    -2.227      1.268      2.606
REMARK INTER + INTRA:          -2.446
REMARK INTER:                  -2.216
REMARK INTRA:                  -0.229
REMARK UNBOUND:                -0.088
REMARK SMILES CC1=CC[C@@H]2[C@H]3[C@@H](C(C)C)CC[C@]2(C)[C@@H]13
REMARK SMILES IDX 1 1 2 2 3 3 4 4 5 5 6 6 15 7 13 8 12 9 11 10 7 11 14 12 8 13
REMARK SMILES IDX 9 14 10 15
REMARK H PARENT
REMARK Flexibility Score: inf
ROOT
ATOM      1  C   UNL     1     146.500 142.783 132.617  1.00  0.00     0.039 C 
ATOM      2  C   UNL     1     145.803 144.040 132.191  1.00  0.00    -0.073 C 
ATOM      3  C   UNL     1     144.933 144.044 131.147  1.00  0.00    -0.027 C 
ATOM      4  C   UNL     1     144.231 145.353 130.774  1.00  0.00     0.031 C 
ATOM      5  C   UNL     1     144.709 146.513 131.706  1.00  0.00     0.003 C 
ATOM      6  C   UNL     1     146.257 146.434 131.790  1.00  0.00     0.004 C 
ATOM      7  C   UNL     1     146.047 145.377 132.897  1.00  0.00     0.024 C 
ATOM      8  C   UNL     1     144.705 146.084 133.195  1.00  0.00    -0.022 C 
ATOM      9  C   UNL     1     144.972 147.314 134.119  1.00  0.00     0.008 C 
ATOM     10  C   UNL     1     145.915 148.359 133.462  1.00  0.00     0.005 C 
ATOM     11  C   UNL     1     146.879 147.720 132.414  1.00  0.00    -0.005 C 
ATOM     12  C   UNL     1     143.528 145.237 133.732  1.00  0.00     0.012 C 
ENDROOT
BRANCH  11  13
ATOM     13  C   UNL     1     147.397 148.712 131.329  1.00  0.00    -0.014 C 
ATOM     14  C   UNL     1     147.144 148.180 129.910  1.00  0.00     0.007 C 
ATOM     15  C   UNL     1     148.872 149.115 131.495  1.00  0.00     0.007 C 
ENDBRANCH  11  13
TORSDOF 1
ENDMDL
MODEL 7
REMARK VINA RESULT:    -2.217      1.227      4.477
REMARK INTER + INTRA:          -2.434
REMARK INTER:                  -2.082
REMARK INTRA:                  -0.352
REMARK UNBOUND:                -0.088
REMARK SMILES CC1=CC[C@@H]2[C@H]3[C@@H](C(C)C)CC[C@]2(C)[C@@H]13
REMARK SMILES IDX 1 1 2 2 3 3 4 4 5 5 6 6 15 7 13 8 12 9 11 10 7 11 14 12 8 13
REMARK SMILES IDX 9 14 10 15
REMARK H PARENT
REMARK Flexibility Score: inf
ROOT
ATOM      1  C   UNL     1     146.897 148.341 130.156  1.00  0.00     0.039 C 
ATOM      2  C   UNL     1     146.362 147.658 131.380  1.00  0.00    -0.073 C 
ATOM      3  C   UNL     1     146.724 148.061 132.626  1.00  0.00    -0.027 C 
ATOM      4  C   UNL     1     146.126 147.342 133.839  1.00  0.00     0.031 C 
ATOM      5  C   UNL     1     145.182 146.186 133.376  1.00  0.00     0.003 C 
ATOM      6  C   UNL     1     145.923 145.395 132.265  1.00  0.00     0.004 C 
ATOM      7  C   UNL     1     145.402 146.469 131.284  1.00  0.00     0.024 C 
ATOM      8  C   UNL     1     144.215 146.654 132.258  1.00  0.00    -0.022 C 
ATOM      9  C   UNL     1     143.142 145.557 131.968  1.00  0.00     0.008 C 
ATOM     10  C   UNL     1     143.692 144.118 132.169  1.00  0.00     0.005 C 
ATOM     11  C   UNL     1     145.236 144.032 131.953  1.00  0.00    -0.005 C 
ATOM     12  C   UNL     1     143.560 148.050 132.365  1.00  0.00     0.012 C 
ENDROOT
BRANCH  11  13
ATOM     13  C   UNL     1     145.921 142.841 132.690  1.00  0.00    -0.014 C 
ATOM     14  C   UNL     1     145.392 142.684 134.124  1.00  0.00     0.007 C 
ATOM     15  C   UNL     1     147.458 142.900 132.691  1.00  0.00     0.007 C 
ENDBRANCH  11  13
TORSDOF 1
ENDMDL
MODEL 8
REMARK VINA RESULT:    -2.189      1.243      4.509
REMARK INTER + INTRA:          -2.405
REMARK INTER:                  -2.171
REMARK INTRA:                  -0.235
REMARK UNBOUND:                -0.088
REMARK SMILES CC1=CC[C@@H]2[C@H]3[C@@H](C(C)C)CC[C@]2(C)[C@@H]13
REMARK SMILES IDX 1 1 2 2 3 3 4 4 5 5 6 6 15 7 13 8 12 9 11 10 7 11 14 12 8 13
REMARK SMILES IDX 9 14 10 15
REMARK H PARENT
REMARK Flexibility Score: inf
ROOT
ATOM      1  C   UNL     1     144.251 148.020 132.598  1.00  0.00     0.039 C 
ATOM      2  C   UNL     1     144.944 146.758 132.178  1.00  0.00    -0.073 C 
ATOM      3  C   UNL     1     145.816 146.748 131.136  1.00  0.00    -0.027 C 
ATOM      4  C   UNL     1     146.513 145.434 130.768  1.00  0.00     0.031 C 
ATOM      5  C   UNL     1     146.028 144.279 131.703  1.00  0.00     0.003 C 
ATOM      6  C   UNL     1     144.480 144.365 131.784  1.00  0.00     0.004 C 
ATOM      7  C   UNL     1     144.692 145.425 132.888  1.00  0.00     0.024 C 
ATOM      8  C   UNL     1     146.030 144.712 133.191  1.00  0.00    -0.022 C 
ATOM      9  C   UNL     1     145.756 143.486 134.118  1.00  0.00     0.008 C 
ATOM     10  C   UNL     1     144.809 142.444 133.462  1.00  0.00     0.005 C 
ATOM     11  C   UNL     1     143.851 143.084 132.410  1.00  0.00    -0.005 C 
ATOM     12  C   UNL     1     147.210 145.556 133.728  1.00  0.00     0.012 C 
ENDROOT
BRANCH  11  13
ATOM     13  C   UNL     1     143.331 142.091 131.327  1.00  0.00    -0.014 C 
ATOM     14  C   UNL     1     143.575 142.624 129.907  1.00  0.00     0.007 C 
ATOM     15  C   UNL     1     141.858 141.683 131.499  1.00  0.00     0.007 C 
ENDBRANCH  11  13
TORSDOF 1
ENDMDL
MODEL 9
REMARK VINA RESULT:    -2.178      1.986      3.464
REMARK INTER + INTRA:          -2.393
REMARK INTER:                  -2.110
REMARK INTRA:                  -0.283
REMARK UNBOUND:                -0.088
REMARK SMILES CC1=CC[C@@H]2[C@H]3[C@@H](C(C)C)CC[C@]2(C)[C@@H]13
REMARK SMILES IDX 1 1 2 2 3 3 4 4 5 5 6 6 15 7 13 8 12 9 11 10 7 11 14 12 8 13
REMARK SMILES IDX 9 14 10 15
REMARK H PARENT
REMARK Flexibility Score: inf
ROOT
ATOM      1  C   UNL     1     145.464 142.357 134.122  1.00  0.00     0.039 C 
ATOM      2  C   UNL     1     145.861 143.654 133.483  1.00  0.00    -0.073 C 
ATOM      3  C   UNL     1     146.670 144.537 134.125  1.00  0.00    -0.027 C 
ATOM      4  C   UNL     1     147.063 145.834 133.412  1.00  0.00     0.031 C 
ATOM      5  C   UNL     1     146.383 145.912 132.007  1.00  0.00     0.003 C 
ATOM      6  C   UNL     1     144.892 145.521 132.189  1.00  0.00     0.004 C 
ATOM      7  C   UNL     1     145.363 144.053 132.091  1.00  0.00     0.024 C 
ATOM      8  C   UNL     1     146.533 144.580 131.228  1.00  0.00    -0.022 C 
ATOM      9  C   UNL     1     146.045 144.749 129.755  1.00  0.00     0.008 C 
ATOM     10  C   UNL     1     144.876 145.765 129.628  1.00  0.00     0.005 C 
ATOM     11  C   UNL     1     144.033 145.874 130.937  1.00  0.00    -0.005 C 
ATOM     12  C   UNL     1     147.883 143.827 131.278  1.00  0.00     0.012 C 
ENDROOT
BRANCH  11  13
ATOM     13  C   UNL     1     143.276 147.227 131.102  1.00  0.00    -0.014 C 
ATOM     14  C   UNL     1     142.790 147.430 132.545  1.00  0.00     0.007 C 
ATOM     15  C   UNL     1     142.113 147.424 130.114  1.00  0.00     0.007 C 
ENDBRANCH  11  13
TORSDOF 1
ENDMDL
