MODEL 1
REMARK VINA RESULT:    -2.213      0.000      0.000
REMARK INTER + INTRA:          -2.278
REMARK INTER:                  -2.278
REMARK INTRA:                   0.000
REMARK UNBOUND:                 0.000
REMARK SMILES C[C@H]1CC[C@@]2(OC1)O[C@H]1C[C@@H]3[C@H]4CC=C5C[C@@H](O)CC[C@@]5(C)[C@@H]4CC[C@]3(C)[C@H]1[C@@H]2C
REMARK SMILES IDX 1 1 2 2 3 3 4 4 5 5 29 6 28 7 9 8 8 9 10 10 11 11 26 12
REMARK SMILES IDX 25 13 24 14 23 15 12 16 13 17 14 18 15 19 21 20 20 21 19 22
REMARK SMILES IDX 17 23 16 24 22 25 27 26 30 27 6 28 7 29 18 30
REMARK H PARENT 18 31
REMARK Flexibility Score: inf
ROOT
ATOM      1  C   UNL     1      48.179  -2.754 159.362  1.00  0.00     0.010 C 
ATOM      2  C   UNL     1      47.545  -4.124 159.076  1.00  0.00     0.012 C 
ATOM      3  C   UNL     1      47.897  -4.639 157.672  1.00  0.00     0.011 C 
ATOM      4  C   UNL     1      49.348  -5.123 157.604  1.00  0.00     0.066 C 
ATOM      5  C   UNL     1      49.676  -6.075 158.781  1.00  0.00     0.171 C 
ATOM      6  C   UNL     1      51.167  -6.452 158.763  1.00  0.00     0.052 C 
ATOM      7  C   UNL     1      51.165  -7.825 159.432  1.00  0.00     0.033 C 
ATOM      8  C   UNL     1      49.759  -8.329 159.122  1.00  0.00     0.126 C 
ATOM      9  O   UNL     1      48.957  -7.279 158.625  1.00  0.00    -0.346 OA
ATOM     10  C   UNL     1      49.897  -9.425 158.060  1.00  0.00     0.037 C 
ATOM     11  C   UNL     1      51.375  -9.457 157.641  1.00  0.00     0.002 C 
ATOM     12  C   UNL     1      52.135  -8.917 158.877  1.00  0.00    -0.024 C 
ATOM     13  C   UNL     1      52.339 -10.027 159.982  1.00  0.00     0.008 C 
ATOM     14  C   UNL     1      52.208 -11.486 159.504  1.00  0.00     0.005 C 
ATOM     15  C   UNL     1      52.722 -11.654 158.068  1.00  0.00     0.003 C 
ATOM     16  C   UNL     1      51.813 -10.861 157.101  1.00  0.00     0.000 C 
ATOM     17  C   UNL     1      52.526 -10.761 155.749  1.00  0.00     0.031 C 
ATOM     18  C   UNL     1      52.973 -12.114 155.256  1.00  0.00    -0.027 C 
ATOM     19  C   UNL     1      53.222 -13.166 156.075  1.00  0.00    -0.065 C 
ATOM     20  C   UNL     1      52.911 -13.141 157.584  1.00  0.00    -0.008 C 
ATOM     21  C   UNL     1      54.120 -13.776 158.346  1.00  0.00     0.014 C 
ATOM     22  C   UNL     1      54.606 -15.109 157.748  1.00  0.00     0.033 C 
ATOM     23  C   UNL     1      54.951 -14.976 156.259  1.00  0.00     0.118 C 
ATOM     24  C   UNL     1      53.743 -14.453 155.467  1.00  0.00     0.063 C 
ATOM     25  C   UNL     1      51.637 -13.989 157.850  1.00  0.00     0.016 C 
ATOM     26  C   UNL     1      53.515  -8.324 158.485  1.00  0.00     0.012 C 
ATOM     27  C   UNL     1      52.065  -5.422 159.478  1.00  0.00     0.014 C 
ATOM     28  O   UNL     1      49.350  -5.469 160.030  1.00  0.00    -0.349 OA
ATOM     29  C   UNL     1      47.969  -5.165 160.125  1.00  0.00     0.167 C 
ENDROOT
BRANCH  23  30
ATOM     30  O   UNL     1      56.048 -14.112 156.104  1.00  0.00    -0.393 OA
ATOM     31  H   UNL     1      56.735 -14.611 155.590  1.00  0.00     0.210 HD
ENDBRANCH  23  30
TORSDOF 1
ENDMDL
MODEL 2
REMARK VINA RESULT:    -0.872     11.839     14.288
REMARK INTER + INTRA:          -0.898
REMARK INTER:                  -0.898
REMARK INTRA:                   0.000
REMARK UNBOUND:                 0.000
REMARK SMILES C[C@H]1CC[C@@]2(OC1)O[C@H]1C[C@@H]3[C@H]4CC=C5C[C@@H](O)CC[C@@]5(C)[C@@H]4CC[C@]3(C)[C@H]1[C@@H]2C
REMARK SMILES IDX 1 1 2 2 3 3 4 4 5 5 29 6 28 7 9 8 8 9 10 10 11 11 26 12
REMARK SMILES IDX 25 13 24 14 23 15 12 16 13 17 14 18 15 19 21 20 20 21 19 22
REMARK SMILES IDX 17 23 16 24 22 25 27 26 30 27 6 28 7 29 18 30
REMARK H PARENT 18 31
REMARK Flexibility Score: inf
ROOT
ATOM      1  C   UNL     1      36.814 -11.506 159.956  1.00  0.00     0.010 C 
ATOM      2  C   UNL     1      36.640 -11.976 158.504  1.00  0.00     0.012 C 
ATOM      3  C   UNL     1      35.875 -10.952 157.654  1.00  0.00     0.011 C 
ATOM      4  C   UNL     1      36.751  -9.740 157.320  1.00  0.00     0.066 C 
ATOM      5  C   UNL     1      38.132 -10.182 156.775  1.00  0.00     0.171 C 
ATOM      6  C   UNL     1      39.037  -8.958 156.562  1.00  0.00     0.052 C 
ATOM      7  C   UNL     1      39.962  -9.426 155.439  1.00  0.00     0.033 C 
ATOM      8  C   UNL     1      39.098 -10.464 154.728  1.00  0.00     0.126 C 
ATOM      9  O   UNL     1      37.967 -10.783 155.509  1.00  0.00    -0.346 OA
ATOM     10  C   UNL     1      38.654  -9.847 153.398  1.00  0.00     0.037 C 
ATOM     11  C   UNL     1      39.137  -8.388 153.399  1.00  0.00     0.002 C 
ATOM     12  C   UNL     1      40.368  -8.393 154.339  1.00  0.00    -0.024 C 
ATOM     13  C   UNL     1      41.671  -8.909 153.611  1.00  0.00     0.008 C 
ATOM     14  C   UNL     1      41.646  -8.863 152.071  1.00  0.00     0.005 C 
ATOM     15  C   UNL     1      40.842  -7.660 151.560  1.00  0.00     0.003 C 
ATOM     16  C   UNL     1      39.357  -7.830 151.952  1.00  0.00     0.000 C 
ATOM     17  C   UNL     1      38.650  -6.487 151.740  1.00  0.00     0.031 C 
ATOM     18  C   UNL     1      38.897  -5.944 150.356  1.00  0.00    -0.027 C 
ATOM     19  C   UNL     1      39.982  -6.261 149.607  1.00  0.00    -0.065 C 
ATOM     20  C   UNL     1      40.995  -7.346 150.023  1.00  0.00    -0.008 C 
ATOM     21  C   UNL     1      42.436  -6.802 149.754  1.00  0.00     0.014 C 
ATOM     22  C   UNL     1      42.616  -6.168 148.364  1.00  0.00     0.033 C 
ATOM     23  C   UNL     1      41.592  -5.054 148.107  1.00  0.00     0.118 C 
ATOM     24  C   UNL     1      40.160  -5.588 148.261  1.00  0.00     0.063 C 
ATOM     25  C   UNL     1      40.758  -8.615 149.160  1.00  0.00     0.016 C 
ATOM     26  C   UNL     1      40.638  -6.986 154.935  1.00  0.00     0.012 C 
ATOM     27  C   UNL     1      39.791  -8.526 157.837  1.00  0.00     0.014 C 
ATOM     28  O   UNL     1      38.763 -11.094 157.671  1.00  0.00    -0.349 OA
ATOM     29  C   UNL     1      37.999 -12.275 157.848  1.00  0.00     0.167 C 
ENDROOT
BRANCH  23  30
ATOM     30  O   UNL     1      41.816  -3.991 148.999  1.00  0.00    -0.393 OA
ATOM     31  H   UNL     1      42.129  -4.393 149.850  1.00  0.00     0.210 HD
ENDBRANCH  23  30
TORSDOF 1
ENDMDL
MODEL 3
REMARK VINA RESULT:    -0.289     12.079     14.132
REMARK INTER + INTRA:          -0.297
REMARK INTER:                  -0.297
REMARK INTRA:                   0.000
REMARK UNBOUND:                 0.000
REMARK SMILES C[C@H]1CC[C@@]2(OC1)O[C@H]1C[C@@H]3[C@H]4CC=C5C[C@@H](O)CC[C@@]5(C)[C@@H]4CC[C@]3(C)[C@H]1[C@@H]2C
REMARK SMILES IDX 1 1 2 2 3 3 4 4 5 5 29 6 28 7 9 8 8 9 10 10 11 11 26 12
REMARK SMILES IDX 25 13 24 14 23 15 12 16 13 17 14 18 15 19 21 20 20 21 19 22
REMARK SMILES IDX 17 23 16 24 22 25 27 26 30 27 6 28 7 29 18 30
REMARK H PARENT 18 31
REMARK Flexibility Score: inf
ROOT
ATOM      1  C   UNL     1      41.193  -5.651 149.120  1.00  0.00     0.010 C 
ATOM      2  C   UNL     1      40.001  -6.620 149.160  1.00  0.00     0.012 C 
ATOM      3  C   UNL     1      40.452  -8.082 149.285  1.00  0.00     0.011 C 
ATOM      4  C   UNL     1      40.951  -8.393 150.701  1.00  0.00     0.066 C 
ATOM      5  C   UNL     1      39.945  -7.896 151.768  1.00  0.00     0.171 C 
ATOM      6  C   UNL     1      40.518  -8.105 153.180  1.00  0.00     0.052 C 
ATOM      7  C   UNL     1      39.256  -8.263 154.026  1.00  0.00     0.033 C 
ATOM      8  C   UNL     1      38.254  -8.797 153.006  1.00  0.00     0.126 C 
ATOM      9  O   UNL     1      38.765  -8.666 151.697  1.00  0.00    -0.346 OA
ATOM     10  C   UNL     1      38.026 -10.277 153.330  1.00  0.00     0.037 C 
ATOM     11  C   UNL     1      39.012 -10.646 154.450  1.00  0.00     0.002 C 
ATOM     12  C   UNL     1      39.272  -9.309 155.187  1.00  0.00    -0.024 C 
ATOM     13  C   UNL     1      38.118  -8.957 156.206  1.00  0.00     0.008 C 
ATOM     14  C   UNL     1      37.228 -10.134 156.649  1.00  0.00     0.005 C 
ATOM     15  C   UNL     1      38.028 -11.440 156.735  1.00  0.00     0.003 C 
ATOM     16  C   UNL     1      38.505 -11.845 155.322  1.00  0.00     0.000 C 
ATOM     17  C   UNL     1      39.568 -12.938 155.471  1.00  0.00     0.031 C 
ATOM     18  C   UNL     1      39.081 -14.070 156.339  1.00  0.00    -0.027 C 
ATOM     19  C   UNL     1      38.119 -13.930 157.285  1.00  0.00    -0.065 C 
ATOM     20  C   UNL     1      37.299 -12.636 157.457  1.00  0.00    -0.008 C 
ATOM     21  C   UNL     1      37.191 -12.322 158.984  1.00  0.00     0.014 C 
ATOM     22  C   UNL     1      36.786 -13.532 159.845  1.00  0.00     0.033 C 
ATOM     23  C   UNL     1      37.727 -14.725 159.633  1.00  0.00     0.118 C 
ATOM     24  C   UNL     1      37.770 -15.124 158.151  1.00  0.00     0.063 C 
ATOM     25  C   UNL     1      35.875 -12.862 156.879  1.00  0.00     0.016 C 
ATOM     26  C   UNL     1      40.631  -9.324 155.936  1.00  0.00     0.012 C 
ATOM     27  C   UNL     1      41.429  -6.952 153.646  1.00  0.00     0.014 C 
ATOM     28  O   UNL     1      39.640  -6.515 151.576  1.00  0.00    -0.349 OA
ATOM     29  C   UNL     1      39.042  -6.278 150.313  1.00  0.00     0.167 C 
ENDROOT
BRANCH  23  30
ATOM     30  O   UNL     1      39.015 -14.398 160.089  1.00  0.00    -0.393 OA
ATOM     31  H   UNL     1      39.613 -14.414 159.297  1.00  0.00     0.210 HD
ENDBRANCH  23  30
TORSDOF 1
ENDMDL
MODEL 4
REMARK VINA RESULT:     0.089      1.596      2.346
REMARK INTER + INTRA:           0.092
REMARK INTER:                   0.092
REMARK INTRA:                   0.000
REMARK UNBOUND:                 0.000
REMARK SMILES C[C@H]1CC[C@@]2(OC1)O[C@H]1C[C@@H]3[C@H]4CC=C5C[C@@H](O)CC[C@@]5(C)[C@@H]4CC[C@]3(C)[C@H]1[C@@H]2C
REMARK SMILES IDX 1 1 2 2 3 3 4 4 5 5 29 6 28 7 9 8 8 9 10 10 11 11 26 12
REMARK SMILES IDX 25 13 24 14 23 15 12 16 13 17 14 18 15 19 21 20 20 21 19 22
REMARK SMILES IDX 17 23 16 24 22 25 27 26 30 27 6 28 7 29 18 30
REMARK H PARENT 18 31
REMARK Flexibility Score: inf
ROOT
ATOM      1  C   UNL     1      46.411  -3.442 158.992  1.00  0.00     0.010 C 
ATOM      2  C   UNL     1      47.072  -4.257 160.114  1.00  0.00     0.012 C 
ATOM      3  C   UNL     1      46.594  -5.716 160.125  1.00  0.00     0.011 C 
ATOM      4  C   UNL     1      47.211  -6.513 158.972  1.00  0.00     0.066 C 
ATOM      5  C   UNL     1      48.743  -6.298 158.901  1.00  0.00     0.171 C 
ATOM      6  C   UNL     1      49.325  -7.007 157.667  1.00  0.00     0.052 C 
ATOM      7  C   UNL     1      50.756  -7.312 158.109  1.00  0.00     0.033 C 
ATOM      8  C   UNL     1      50.610  -7.391 159.626  1.00  0.00     0.126 C 
ATOM      9  O   UNL     1      49.353  -6.891 160.028  1.00  0.00    -0.346 OA
ATOM     10  C   UNL     1      50.730  -8.869 160.015  1.00  0.00     0.037 C 
ATOM     11  C   UNL     1      50.796  -9.671 158.706  1.00  0.00     0.002 C 
ATOM     12  C   UNL     1      51.387  -8.675 157.676  1.00  0.00    -0.024 C 
ATOM     13  C   UNL     1      52.958  -8.568 157.786  1.00  0.00     0.008 C 
ATOM     14  C   UNL     1      53.666  -9.737 158.497  1.00  0.00     0.005 C 
ATOM     15  C   UNL     1      52.951 -11.068 158.233  1.00  0.00     0.003 C 
ATOM     16  C   UNL     1      51.547 -11.035 158.877  1.00  0.00     0.000 C 
ATOM     17  C   UNL     1      50.738 -12.211 158.322  1.00  0.00     0.031 C 
ATOM     18  C   UNL     1      51.484 -13.513 158.462  1.00  0.00    -0.027 C 
ATOM     19  C   UNL     1      52.835 -13.599 158.537  1.00  0.00    -0.065 C 
ATOM     20  C   UNL     1      53.745 -12.361 158.660  1.00  0.00    -0.008 C 
ATOM     21  C   UNL     1      54.965 -12.550 157.701  1.00  0.00     0.014 C 
ATOM     22  C   UNL     1      55.637 -13.931 157.809  1.00  0.00     0.033 C 
ATOM     23  C   UNL     1      54.635 -15.073 157.594  1.00  0.00     0.118 C 
ATOM     24  C   UNL     1      53.476 -14.972 158.596  1.00  0.00     0.063 C 
ATOM     25  C   UNL     1      54.256 -12.254 160.123  1.00  0.00     0.016 C 
ATOM     26  C   UNL     1      50.999  -9.059 156.223  1.00  0.00     0.012 C 
ATOM     27  C   UNL     1      49.249  -6.157 156.383  1.00  0.00     0.014 C 
ATOM     28  O   UNL     1      49.060  -4.908 158.849  1.00  0.00    -0.349 OA
ATOM     29  C   UNL     1      48.605  -4.220 160.002  1.00  0.00     0.167 C 
ENDROOT
BRANCH  23  30
ATOM     30  O   UNL     1      54.147 -15.032 156.277  1.00  0.00    -0.393 OA
ATOM     31  H   UNL     1      54.616 -15.749 155.776  1.00  0.00     0.210 HD
ENDBRANCH  23  30
TORSDOF 1
ENDMDL
