MODEL 1
REMARK VINA RESULT:    -2.986      0.000      0.000
REMARK INTER + INTRA:          -3.470
REMARK INTER:                  -3.248
REMARK INTRA:                  -0.222
REMARK UNBOUND:                -0.222
REMARK SMILES O=C([O-])c1ccccc1O
REMARK SMILES IDX 4 1 9 2 5 3 8 4 6 5 7 6 2 7 1 8 3 9 10 10
REMARK H PARENT 10 11
REMARK Flexibility Score: inf
ROOT
ATOM      1  C   UNL     1     -96.330  23.509 -29.388  1.00  0.00     0.039 A 
ATOM      2  C   UNL     1     -97.298  22.922 -28.536  1.00  0.00     0.124 A 
ATOM      3  C   UNL     1     -96.762  24.155 -30.562  1.00  0.00     0.014 A 
ATOM      4  C   UNL     1     -98.660  22.994 -28.871  1.00  0.00     0.047 A 
ATOM      5  C   UNL     1     -98.121  24.219 -30.882  1.00  0.00     0.001 A 
ATOM      6  C   UNL     1     -99.067  23.639 -30.039  1.00  0.00     0.004 A 
ENDROOT
BRANCH   1   7
ATOM      7  C   UNL     1     -94.879  23.460 -29.079  1.00  0.00     0.075 C 
ATOM      8  O   UNL     1     -94.262  22.362 -29.029  1.00  0.00    -0.545 OA
ATOM      9  O   UNL     1     -94.173  24.633 -28.838  1.00  0.00    -0.545 OA
ENDBRANCH   1   7
BRANCH   2  10
ATOM     10  O   UNL     1     -96.916  22.271 -27.363  1.00  0.00    -0.507 OA
ATOM     11  H   UNL     1     -97.272  22.553 -26.457  1.00  0.00     0.293 HD
ENDBRANCH   2  10
TORSDOF 2
ENDMDL
MODEL 2
REMARK VINA RESULT:    -2.940     10.781     11.262
REMARK INTER + INTRA:          -3.420
REMARK INTER:                  -3.186
REMARK INTRA:                  -0.234
REMARK UNBOUND:                -0.222
REMARK SMILES O=C([O-])c1ccccc1O
REMARK SMILES IDX 4 1 9 2 5 3 8 4 6 5 7 6 2 7 1 8 3 9 10 10
REMARK H PARENT 10 11
REMARK Flexibility Score: inf
ROOT
ATOM      1  C   UNL     1     -96.445  26.087 -39.974  1.00  0.00     0.039 A 
ATOM      2  C   UNL     1     -95.851  27.272 -39.474  1.00  0.00     0.124 A 
ATOM      3  C   UNL     1     -97.841  25.936 -39.881  1.00  0.00     0.014 A 
ATOM      4  C   UNL     1     -96.656  28.268 -38.898  1.00  0.00     0.047 A 
ATOM      5  C   UNL     1     -98.630  26.936 -39.305  1.00  0.00     0.001 A 
ATOM      6  C   UNL     1     -98.039  28.098 -38.815  1.00  0.00     0.004 A 
ENDROOT
BRANCH   1   7
ATOM      7  C   UNL     1     -95.638  25.005 -40.592  1.00  0.00     0.075 C 
ATOM      8  O   UNL     1     -95.843  24.638 -41.780  1.00  0.00    -0.545 OA
ATOM      9  O   UNL     1     -94.636  24.373 -39.862  1.00  0.00    -0.545 OA
ENDBRANCH   1   7
BRANCH   2  10
ATOM     10  O   UNL     1     -94.471  27.465 -39.545  1.00  0.00    -0.507 OA
ATOM     11  H   UNL     1     -93.983  28.066 -38.892  1.00  0.00     0.293 HD
ENDBRANCH   2  10
TORSDOF 2
ENDMDL
MODEL 3
REMARK VINA RESULT:    -2.933      9.765     10.985
REMARK INTER + INTRA:          -3.412
REMARK INTER:                  -3.187
REMARK INTRA:                  -0.225
REMARK UNBOUND:                -0.222
REMARK SMILES O=C([O-])c1ccccc1O
REMARK SMILES IDX 4 1 9 2 5 3 8 4 6 5 7 6 2 7 1 8 3 9 10 10
REMARK H PARENT 10 11
REMARK Flexibility Score: inf
ROOT
ATOM      1  C   UNL     1     -96.415  26.884 -38.743  1.00  0.00     0.039 A 
ATOM      2  C   UNL     1     -95.242  27.442 -39.306  1.00  0.00     0.124 A 
ATOM      3  C   UNL     1     -96.287  25.905 -37.740  1.00  0.00     0.014 A 
ATOM      4  C   UNL     1     -93.981  27.016 -38.858  1.00  0.00     0.047 A 
ATOM      5  C   UNL     1     -95.026  25.491 -37.304  1.00  0.00     0.001 A 
ATOM      6  C   UNL     1     -93.876  26.045 -37.862  1.00  0.00     0.004 A 
ENDROOT
BRANCH   1   7
ATOM      7  C   UNL     1     -97.771  27.300 -39.182  1.00  0.00     0.075 C 
ATOM      8  O   UNL     1     -98.172  28.484 -39.021  1.00  0.00    -0.545 OA
ATOM      9  O   UNL     1     -98.627  26.382 -39.781  1.00  0.00    -0.545 OA
ENDBRANCH   1   7
BRANCH   2  10
ATOM     10  O   UNL     1     -95.320  28.415 -40.303  1.00  0.00    -0.507 OA
ATOM     11  H   UNL     1     -94.714  28.395 -41.115  1.00  0.00     0.293 HD
ENDBRANCH   2  10
TORSDOF 2
ENDMDL
MODEL 4
REMARK VINA RESULT:    -2.920     11.435     12.725
REMARK INTER + INTRA:          -3.398
REMARK INTER:                  -3.143
REMARK INTRA:                  -0.255
REMARK UNBOUND:                -0.222
REMARK SMILES O=C([O-])c1ccccc1O
REMARK SMILES IDX 4 1 9 2 5 3 8 4 6 5 7 6 2 7 1 8 3 9 10 10
REMARK H PARENT 10 11
REMARK Flexibility Score: inf
ROOT
ATOM      1  C   UNL     1     -97.785  34.237 -34.858  1.00  0.00     0.039 A 
ATOM      2  C   UNL     1     -98.198  35.177 -35.832  1.00  0.00     0.124 A 
ATOM      3  C   UNL     1     -98.763  33.607 -34.065  1.00  0.00     0.014 A 
ATOM      4  C   UNL     1     -99.563  35.464 -35.993  1.00  0.00     0.047 A 
ATOM      5  C   UNL     1    -100.118  33.902 -34.236  1.00  0.00     0.001 A 
ATOM      6  C   UNL     1    -100.517  34.828 -35.197  1.00  0.00     0.004 A 
ENDROOT
BRANCH   1   7
ATOM      7  C   UNL     1     -96.354  33.900 -34.648  1.00  0.00     0.075 C 
ATOM      8  O   UNL     1     -95.973  32.701 -34.573  1.00  0.00    -0.545 OA
ATOM      9  O   UNL     1     -95.405  34.909 -34.530  1.00  0.00    -0.545 OA
ENDBRANCH   1   7
BRANCH   2  10
ATOM     10  O   UNL     1     -97.264  35.827 -36.640  1.00  0.00    -0.507 OA
ATOM     11  H   UNL     1     -97.477  36.702 -37.104  1.00  0.00     0.293 HD
ENDBRANCH   2  10
TORSDOF 2
ENDMDL
MODEL 5
REMARK VINA RESULT:    -2.826      1.785      3.444
REMARK INTER + INTRA:          -3.295
REMARK INTER:                  -3.054
REMARK INTRA:                  -0.242
REMARK UNBOUND:                -0.222
REMARK SMILES O=C([O-])c1ccccc1O
REMARK SMILES IDX 4 1 9 2 5 3 8 4 6 5 7 6 2 7 1 8 3 9 10 10
REMARK H PARENT 10 11
REMARK Flexibility Score: inf
ROOT
ATOM      1  C   UNL     1     -97.256  23.768 -29.402  1.00  0.00     0.039 A 
ATOM      2  C   UNL     1     -96.271  23.248 -28.528  1.00  0.00     0.124 A 
ATOM      3  C   UNL     1     -96.899  24.059 -30.732  1.00  0.00     0.014 A 
ATOM      4  C   UNL     1     -94.965  23.032 -28.997  1.00  0.00     0.047 A 
ATOM      5  C   UNL     1     -95.595  23.839 -31.185  1.00  0.00     0.001 A 
ATOM      6  C   UNL     1     -94.631  23.327 -30.319  1.00  0.00     0.004 A 
ENDROOT
BRANCH   1   7
ATOM      7  C   UNL     1     -98.650  24.015 -28.955  1.00  0.00     0.075 C 
ATOM      8  O   UNL     1     -98.895  24.771 -27.977  1.00  0.00    -0.545 OA
ATOM      9  O   UNL     1     -99.716  23.411 -29.614  1.00  0.00    -0.545 OA
ENDBRANCH   1   7
BRANCH   2  10
ATOM     10  O   UNL     1     -96.580  22.946 -27.202  1.00  0.00    -0.507 OA
ATOM     11  H   UNL     1     -95.866  22.669 -26.538  1.00  0.00     0.293 HD
ENDBRANCH   2  10
TORSDOF 2
ENDMDL
MODEL 6
REMARK VINA RESULT:    -2.810      1.912      2.379
REMARK INTER + INTRA:          -3.279
REMARK INTER:                  -3.038
REMARK INTRA:                  -0.241
REMARK UNBOUND:                -0.222
REMARK SMILES O=C([O-])c1ccccc1O
REMARK SMILES IDX 4 1 9 2 5 3 8 4 6 5 7 6 2 7 1 8 3 9 10 10
REMARK H PARENT 10 11
REMARK Flexibility Score: inf
ROOT
ATOM      1  C   UNL     1     -97.210  24.518 -27.868  1.00  0.00     0.039 A 
ATOM      2  C   UNL     1     -97.187  23.171 -28.304  1.00  0.00     0.124 A 
ATOM      3  C   UNL     1     -98.422  25.231 -27.932  1.00  0.00     0.014 A 
ATOM      4  C   UNL     1     -98.362  22.572 -28.786  1.00  0.00     0.047 A 
ATOM      5  C   UNL     1     -99.584  24.623 -28.415  1.00  0.00     0.001 A 
ATOM      6  C   UNL     1     -99.553  23.297 -28.842  1.00  0.00     0.004 A 
ENDROOT
BRANCH   1   7
ATOM      7  C   UNL     1     -95.996  25.197 -27.350  1.00  0.00     0.075 C 
ATOM      8  O   UNL     1     -94.952  25.286 -28.050  1.00  0.00    -0.545 OA
ATOM      9  O   UNL     1     -95.992  25.749 -26.073  1.00  0.00    -0.545 OA
ENDBRANCH   1   7
BRANCH   2  10
ATOM     10  O   UNL     1     -96.009  22.426 -28.259  1.00  0.00    -0.507 OA
ATOM     11  H   UNL     1     -95.126  22.840 -27.983  1.00  0.00     0.293 HD
ENDBRANCH   2  10
TORSDOF 2
ENDMDL
MODEL 7
REMARK VINA RESULT:    -2.770      8.954     10.129
REMARK INTER + INTRA:          -3.236
REMARK INTER:                  -2.997
REMARK INTRA:                  -0.238
REMARK UNBOUND:                -0.222
REMARK SMILES O=C([O-])c1ccccc1O
REMARK SMILES IDX 4 1 9 2 5 3 8 4 6 5 7 6 2 7 1 8 3 9 10 10
REMARK H PARENT 10 11
REMARK Flexibility Score: inf
ROOT
ATOM      1  C   UNL     1     -97.201  27.919 -38.536  1.00  0.00     0.039 A 
ATOM      2  C   UNL     1     -97.078  27.140 -37.360  1.00  0.00     0.124 A 
ATOM      3  C   UNL     1     -98.486  28.175 -39.050  1.00  0.00     0.014 A 
ATOM      4  C   UNL     1     -98.229  26.640 -36.729  1.00  0.00     0.047 A 
ATOM      5  C   UNL     1     -99.623  27.671 -38.412  1.00  0.00     0.001 A 
ATOM      6  C   UNL     1     -99.494  26.905 -37.255  1.00  0.00     0.004 A 
ENDROOT
BRANCH   1   7
ATOM      7  C   UNL     1     -96.016  28.470 -39.240  1.00  0.00     0.075 C 
ATOM      8  O   UNL     1     -95.109  27.712 -39.678  1.00  0.00    -0.545 OA
ATOM      9  O   UNL     1     -95.886  29.842 -39.429  1.00  0.00    -0.545 OA
ENDBRANCH   1   7
BRANCH   2  10
ATOM     10  O   UNL     1     -95.825  26.860 -36.816  1.00  0.00    -0.507 OA
ATOM     11  H   UNL     1     -95.715  26.573 -35.850  1.00  0.00     0.293 HD
ENDBRANCH   2  10
TORSDOF 2
ENDMDL
MODEL 8
REMARK VINA RESULT:    -2.759     12.024     13.312
REMARK INTER + INTRA:          -3.223
REMARK INTER:                  -2.978
REMARK INTRA:                  -0.246
REMARK UNBOUND:                -0.222
REMARK SMILES O=C([O-])c1ccccc1O
REMARK SMILES IDX 4 1 9 2 5 3 8 4 6 5 7 6 2 7 1 8 3 9 10 10
REMARK H PARENT 10 11
REMARK Flexibility Score: inf
ROOT
ATOM      1  C   UNL     1     -98.821  34.633 -34.975  1.00  0.00     0.039 A 
ATOM      2  C   UNL     1     -97.553  34.827 -35.577  1.00  0.00     0.124 A 
ATOM      3  C   UNL     1     -98.937  33.706 -33.922  1.00  0.00     0.014 A 
ATOM      4  C   UNL     1     -96.443  34.100 -35.118  1.00  0.00     0.047 A 
ATOM      5  C   UNL     1     -97.824  32.990 -33.475  1.00  0.00     0.001 A 
ATOM      6  C   UNL     1     -96.580  33.186 -34.072  1.00  0.00     0.004 A 
ENDROOT
BRANCH   1   7
ATOM      7  C   UNL     1    -100.025  35.376 -35.424  1.00  0.00     0.075 C 
ATOM      8  O   UNL     1    -100.388  35.358 -36.630  1.00  0.00    -0.545 OA
ATOM      9  O   UNL     1    -100.776  36.111 -34.513  1.00  0.00    -0.545 OA
ENDBRANCH   1   7
BRANCH   2  10
ATOM     10  O   UNL     1     -97.391  35.735 -36.624  1.00  0.00    -0.507 OA
ATOM     11  H   UNL     1     -96.652  35.630 -37.309  1.00  0.00     0.293 HD
ENDBRANCH   2  10
TORSDOF 2
ENDMDL
MODEL 9
REMARK VINA RESULT:    -2.754     10.901     11.583
REMARK INTER + INTRA:          -3.218
REMARK INTER:                  -2.991
REMARK INTRA:                  -0.226
REMARK UNBOUND:                -0.222
REMARK SMILES O=C([O-])c1ccccc1O
REMARK SMILES IDX 4 1 9 2 5 3 8 4 6 5 7 6 2 7 1 8 3 9 10 10
REMARK H PARENT 10 11
REMARK Flexibility Score: inf
ROOT
ATOM      1  C   UNL     1     -96.386  25.982 -40.393  1.00  0.00     0.039 A 
ATOM      2  C   UNL     1     -97.656  26.146 -39.788  1.00  0.00     0.124 A 
ATOM      3  C   UNL     1     -95.384  26.938 -40.136  1.00  0.00     0.014 A 
ATOM      4  C   UNL     1     -97.895  27.247 -38.949  1.00  0.00     0.047 A 
ATOM      5  C   UNL     1     -95.636  28.028 -39.300  1.00  0.00     0.001 A 
ATOM      6  C   UNL     1     -96.888  28.182 -38.709  1.00  0.00     0.004 A 
ENDROOT
BRANCH   1   7
ATOM      7  C   UNL     1     -96.084  24.836 -41.287  1.00  0.00     0.075 C 
ATOM      8  O   UNL     1     -95.175  24.012 -41.002  1.00  0.00    -0.545 OA
ATOM      9  O   UNL     1     -96.804  24.655 -42.463  1.00  0.00    -0.545 OA
ENDBRANCH   1   7
BRANCH   2  10
ATOM     10  O   UNL     1     -98.679  25.225 -40.014  1.00  0.00    -0.507 OA
ATOM     11  H   UNL     1     -99.311  25.312 -40.801  1.00  0.00     0.293 HD
ENDBRANCH   2  10
TORSDOF 2
ENDMDL
