MODEL 1
REMARK VINA RESULT:    -3.888      0.000      0.000
REMARK INTER + INTRA:          -6.609
REMARK INTER:                  -5.252
REMARK INTRA:                  -1.357
REMARK UNBOUND:                -1.357
REMARK SMILES CC(=O)CCC=C(C)CCC=C(C)C
REMARK SMILES IDX 7 1 6 2 8 3 9 4 10 5 11 6 13 7 12 8 14 9 5 10 4 11 2 12 3 13
REMARK SMILES IDX 1 14
REMARK H PARENT
REMARK Flexibility Score: inf
ROOT
ATOM      1  C   UNL     1       7.440   0.859  -6.639  1.00  0.00    -0.077 C 
ATOM      2  C   UNL     1       7.022   1.663  -7.642  1.00  0.00    -0.028 C 
ATOM      3  C   UNL     1       8.919   0.741  -6.379  1.00  0.00     0.039 C 
ENDROOT
BRANCH   1   4
ATOM      4  C   UNL     1       6.487   0.025  -5.805  1.00  0.00     0.034 C 
BRANCH   4   5
ATOM      5  C   UNL     1       6.496  -1.435  -6.272  1.00  0.00     0.032 C 
BRANCH   5   6
ATOM      6  C   UNL     1       5.332  -1.708  -7.192  1.00  0.00    -0.028 C 
ATOM      7  C   UNL     1       6.760  -1.751  -9.248  1.00  0.00     0.039 C 
ATOM      8  C   UNL     1       5.438  -1.877  -8.528  1.00  0.00    -0.080 C 
ATOM      9  C   UNL     1       4.190  -2.184  -9.315  1.00  0.00     0.039 C 
ENDBRANCH   5   6
ENDBRANCH   4   5
ENDBRANCH   1   4
BRANCH   2  10
ATOM     10  C   UNL     1       5.571   1.856  -8.013  1.00  0.00     0.035 C 
BRANCH  10  11
ATOM     11  C   UNL     1       5.177   3.335  -7.960  1.00  0.00     0.079 C 
BRANCH  11  12
ATOM     12  C   UNL     1       5.046   3.801  -6.533  1.00  0.00     0.130 C 
ATOM     13  O   UNL     1       5.633   4.811  -6.173  1.00  0.00    -0.300 OA
ATOM     14  C   UNL     1       4.216   3.047  -5.537  1.00  0.00     0.087 C 
ENDBRANCH  11  12
ENDBRANCH  10  11
ENDBRANCH   2  10
TORSDOF 6
ENDMDL
MODEL 2
REMARK VINA RESULT:    -3.471      2.331      4.995
REMARK INTER + INTRA:          -6.046
REMARK INTER:                  -4.723
REMARK INTRA:                  -1.322
REMARK UNBOUND:                -1.357
REMARK SMILES CC(=O)CCC=C(C)CCC=C(C)C
REMARK SMILES IDX 7 1 6 2 8 3 9 4 10 5 11 6 13 7 12 8 14 9 5 10 4 11 2 12 3 13
REMARK SMILES IDX 1 14
REMARK H PARENT
REMARK Flexibility Score: inf
ROOT
ATOM      1  C   UNL     1       8.815   2.404  -7.381  1.00  0.00    -0.077 C 
ATOM      2  C   UNL     1       9.067   1.494  -6.414  1.00  0.00    -0.028 C 
ATOM      3  C   UNL     1       9.392   3.788  -7.237  1.00  0.00     0.039 C 
ENDROOT
BRANCH   1   4
ATOM      4  C   UNL     1       7.927   2.108  -8.574  1.00  0.00     0.034 C 
BRANCH   4   5
ATOM      5  C   UNL     1       6.739   3.075  -8.617  1.00  0.00     0.032 C 
BRANCH   5   6
ATOM      6  C   UNL     1       5.718   2.714  -7.568  1.00  0.00    -0.028 C 
ATOM      7  C   UNL     1       5.901   4.920  -6.398  1.00  0.00     0.039 C 
ATOM      8  C   UNL     1       5.312   3.540  -6.579  1.00  0.00    -0.080 C 
ATOM      9  C   UNL     1       4.253   3.054  -5.625  1.00  0.00     0.039 C 
ENDBRANCH   5   6
ENDBRANCH   4   5
ENDBRANCH   1   4
BRANCH   2  10
ATOM     10  C   UNL     1       8.536   0.081  -6.433  1.00  0.00     0.035 C 
BRANCH  10  11
ATOM     11  C   UNL     1       7.238  -0.035  -5.628  1.00  0.00     0.079 C 
BRANCH  11  12
ATOM     12  C   UNL     1       6.514  -1.313  -5.965  1.00  0.00     0.130 C 
ATOM     13  O   UNL     1       6.628  -2.281  -5.227  1.00  0.00    -0.300 OA
ATOM     14  C   UNL     1       5.662  -1.429  -7.194  1.00  0.00     0.087 C 
ENDBRANCH  11  12
ENDBRANCH  10  11
ENDBRANCH   2  10
TORSDOF 6
ENDMDL
MODEL 3
REMARK VINA RESULT:    -3.459      1.290      2.051
REMARK INTER + INTRA:          -6.030
REMARK INTER:                  -5.235
REMARK INTRA:                  -0.795
REMARK UNBOUND:                -1.357
REMARK SMILES CC(=O)CCC=C(C)CCC=C(C)C
REMARK SMILES IDX 7 1 6 2 8 3 9 4 10 5 11 6 13 7 12 8 14 9 5 10 4 11 2 12 3 13
REMARK SMILES IDX 1 14
REMARK H PARENT
REMARK Flexibility Score: inf
ROOT
ATOM      1  C   UNL     1       7.041  -0.711  -6.147  1.00  0.00    -0.077 C 
ATOM      2  C   UNL     1       6.355   0.436  -5.947  1.00  0.00    -0.028 C 
ATOM      3  C   UNL     1       6.747  -1.892  -5.257  1.00  0.00     0.039 C 
ENDROOT
BRANCH   1   4
ATOM      4  C   UNL     1       8.135  -0.842  -7.189  1.00  0.00     0.034 C 
BRANCH   4   5
ATOM      5  C   UNL     1       7.537  -0.868  -8.600  1.00  0.00     0.032 C 
BRANCH   5   6
ATOM      6  C   UNL     1       6.369  -1.819  -8.667  1.00  0.00    -0.028 C 
ATOM      7  C   UNL     1       4.884  -0.169  -9.827  1.00  0.00     0.039 C 
ATOM      8  C   UNL     1       5.179  -1.529  -9.237  1.00  0.00    -0.080 C 
ATOM      9  C   UNL     1       4.116  -2.596  -9.265  1.00  0.00     0.039 C 
ENDBRANCH   5   6
ENDBRANCH   4   5
ENDBRANCH   1   4
BRANCH   2  10
ATOM     10  C   UNL     1       6.565   1.690  -6.759  1.00  0.00     0.035 C 
BRANCH  10  11
ATOM     11  C   UNL     1       5.232   2.264  -7.249  1.00  0.00     0.079 C 
BRANCH  11  12
ATOM     12  C   UNL     1       4.782   3.398  -6.364  1.00  0.00     0.130 C 
ATOM     13  O   UNL     1       3.757   3.280  -5.710  1.00  0.00    -0.300 OA
ATOM     14  C   UNL     1       5.561   4.677  -6.275  1.00  0.00     0.087 C 
ENDBRANCH  11  12
ENDBRANCH  10  11
ENDBRANCH   2  10
TORSDOF 6
ENDMDL
MODEL 4
REMARK VINA RESULT:    -3.410      1.732      3.098
REMARK INTER + INTRA:          -5.964
REMARK INTER:                  -4.169
REMARK INTRA:                  -1.794
REMARK UNBOUND:                -1.357
REMARK SMILES CC(=O)CCC=C(C)CCC=C(C)C
REMARK SMILES IDX 7 1 6 2 8 3 9 4 10 5 11 6 13 7 12 8 14 9 5 10 4 11 2 12 3 13
REMARK SMILES IDX 1 14
REMARK H PARENT
REMARK Flexibility Score: inf
ROOT
ATOM      1  C   UNL     1       6.159  -0.795  -6.212  1.00  0.00    -0.077 C 
ATOM      2  C   UNL     1       6.157   0.475  -5.750  1.00  0.00    -0.028 C 
ATOM      3  C   UNL     1       6.837  -1.861  -5.389  1.00  0.00     0.039 C 
ENDROOT
BRANCH   1   4
ATOM      4  C   UNL     1       5.561  -1.182  -7.551  1.00  0.00     0.034 C 
BRANCH   4   5
ATOM      5  C   UNL     1       6.643  -1.731  -8.487  1.00  0.00     0.032 C 
BRANCH   5   6
ATOM      6  C   UNL     1       7.214  -0.631  -9.347  1.00  0.00    -0.028 C 
ATOM      7  C   UNL     1       9.322  -0.457  -8.007  1.00  0.00     0.039 C 
ATOM      8  C   UNL     1       8.426  -0.065  -9.159  1.00  0.00    -0.080 C 
ATOM      9  C   UNL     1       8.880   0.999 -10.123  1.00  0.00     0.039 C 
ENDBRANCH   5   6
ENDBRANCH   4   5
ENDBRANCH   1   4
BRANCH   2  10
ATOM     10  C   UNL     1       5.526   1.633  -6.484  1.00  0.00     0.035 C 
BRANCH  10  11
ATOM     11  C   UNL     1       6.577   2.443  -7.250  1.00  0.00     0.079 C 
BRANCH  11  12
ATOM     12  C   UNL     1       6.039   2.887  -8.585  1.00  0.00     0.130 C 
ATOM     13  O   UNL     1       6.574   3.818  -9.169  1.00  0.00    -0.300 OA
ATOM     14  C   UNL     1       4.850   2.220  -9.212  1.00  0.00     0.087 C 
ENDBRANCH  11  12
ENDBRANCH  10  11
ENDBRANCH   2  10
TORSDOF 6
ENDMDL
MODEL 5
REMARK VINA RESULT:    -3.402      1.270      2.235
REMARK INTER + INTRA:          -5.953
REMARK INTER:                  -4.501
REMARK INTRA:                  -1.452
REMARK UNBOUND:                -1.357
REMARK SMILES CC(=O)CCC=C(C)CCC=C(C)C
REMARK SMILES IDX 7 1 6 2 8 3 9 4 10 5 11 6 13 7 12 8 14 9 5 10 4 11 2 12 3 13
REMARK SMILES IDX 1 14
REMARK H PARENT
REMARK Flexibility Score: inf
ROOT
ATOM      1  C   UNL     1       9.040   1.719  -7.156  1.00  0.00    -0.077 C 
ATOM      2  C   UNL     1       7.983   2.561  -7.188  1.00  0.00    -0.028 C 
ATOM      3  C   UNL     1      10.036   1.853  -6.032  1.00  0.00     0.039 C 
ENDROOT
BRANCH   1   4
ATOM      4  C   UNL     1       9.297   0.684  -8.234  1.00  0.00     0.034 C 
BRANCH   4   5
ATOM      5  C   UNL     1       9.076  -0.731  -7.689  1.00  0.00     0.032 C 
BRANCH   5   6
ATOM      6  C   UNL     1       7.647  -1.167  -7.899  1.00  0.00    -0.028 C 
ATOM      7  C   UNL     1       7.063  -0.982  -5.472  1.00  0.00     0.039 C 
ATOM      8  C   UNL     1       6.725  -1.261  -6.918  1.00  0.00    -0.080 C 
ATOM      9  C   UNL     1       5.323  -1.673  -7.285  1.00  0.00     0.039 C 
ENDBRANCH   5   6
ENDBRANCH   4   5
ENDBRANCH   1   4
BRANCH   2  10
ATOM     10  C   UNL     1       6.926   2.539  -8.264  1.00  0.00     0.035 C 
BRANCH  10  11
ATOM     11  C   UNL     1       5.565   2.125  -7.696  1.00  0.00     0.079 C 
BRANCH  11  12
ATOM     12  C   UNL     1       4.910   3.281  -6.986  1.00  0.00     0.130 C 
ATOM     13  O   UNL     1       4.913   4.387  -7.507  1.00  0.00    -0.300 OA
ATOM     14  C   UNL     1       4.260   3.109  -5.645  1.00  0.00     0.087 C 
ENDBRANCH  11  12
ENDBRANCH  10  11
ENDBRANCH   2  10
TORSDOF 6
ENDMDL
MODEL 6
REMARK VINA RESULT:    -3.351      2.324      4.782
REMARK INTER + INTRA:          -5.883
REMARK INTER:                  -4.643
REMARK INTRA:                  -1.241
REMARK UNBOUND:                -1.357
REMARK SMILES CC(=O)CCC=C(C)CCC=C(C)C
REMARK SMILES IDX 7 1 6 2 8 3 9 4 10 5 11 6 13 7 12 8 14 9 5 10 4 11 2 12 3 13
REMARK SMILES IDX 1 14
REMARK H PARENT
REMARK Flexibility Score: inf
ROOT
ATOM      1  C   UNL     1       8.364   0.757  -6.497  1.00  0.00    -0.077 C 
ATOM      2  C   UNL     1       7.395   0.011  -5.920  1.00  0.00    -0.028 C 
ATOM      3  C   UNL     1       9.729   0.786  -5.857  1.00  0.00     0.039 C 
ENDROOT
BRANCH   1   4
ATOM      4  C   UNL     1       8.120   1.611  -7.725  1.00  0.00     0.034 C 
BRANCH   4   5
ATOM      5  C   UNL     1       7.558   2.981  -7.328  1.00  0.00     0.032 C 
BRANCH   5   6
ATOM      6  C   UNL     1       6.405   3.363  -8.222  1.00  0.00    -0.028 C 
ATOM      7  C   UNL     1       4.751   3.406  -6.343  1.00  0.00     0.039 C 
ATOM      8  C   UNL     1       5.143   3.582  -7.792  1.00  0.00    -0.080 C 
ATOM      9  C   UNL     1       4.102   3.998  -8.798  1.00  0.00     0.039 C 
ENDBRANCH   5   6
ENDBRANCH   4   5
ENDBRANCH   1   4
BRANCH   2  10
ATOM     10  C   UNL     1       5.987  -0.091  -6.454  1.00  0.00     0.035 C 
BRANCH  10  11
ATOM     11  C   UNL     1       5.709  -1.486  -7.022  1.00  0.00     0.079 C 
BRANCH  11  12
ATOM     12  C   UNL     1       5.171  -1.393  -8.426  1.00  0.00     0.130 C 
ATOM     13  O   UNL     1       4.756  -2.401  -8.979  1.00  0.00    -0.300 OA
ATOM     14  C   UNL     1       5.143  -0.090  -9.168  1.00  0.00     0.087 C 
ENDBRANCH  11  12
ENDBRANCH  10  11
ENDBRANCH   2  10
TORSDOF 6
ENDMDL
MODEL 7
REMARK VINA RESULT:    -3.309      1.441      3.167
REMARK INTER + INTRA:          -5.827
REMARK INTER:                  -4.465
REMARK INTRA:                  -1.361
REMARK UNBOUND:                -1.357
REMARK SMILES CC(=O)CCC=C(C)CCC=C(C)C
REMARK SMILES IDX 7 1 6 2 8 3 9 4 10 5 11 6 13 7 12 8 14 9 5 10 4 11 2 12 3 13
REMARK SMILES IDX 1 14
REMARK H PARENT
REMARK Flexibility Score: inf
ROOT
ATOM      1  C   UNL     1       6.420  -0.940  -6.536  1.00  0.00    -0.077 C 
ATOM      2  C   UNL     1       6.048   0.328  -6.252  1.00  0.00    -0.028 C 
ATOM      3  C   UNL     1       6.802  -1.851  -5.398  1.00  0.00     0.039 C 
ENDROOT
BRANCH   1   4
ATOM      4  C   UNL     1       6.526  -1.465  -7.954  1.00  0.00     0.034 C 
BRANCH   4   5
ATOM      5  C   UNL     1       7.993  -1.545  -8.393  1.00  0.00     0.032 C 
BRANCH   5   6
ATOM      6  C   UNL     1       8.439  -0.239  -9.000  1.00  0.00    -0.028 C 
ATOM      7  C   UNL     1       9.781   0.422  -6.993  1.00  0.00     0.039 C 
ATOM      8  C   UNL     1       9.262   0.644  -8.394  1.00  0.00    -0.080 C 
ATOM      9  C   UNL     1       9.655   1.893  -9.141  1.00  0.00     0.039 C 
ENDBRANCH   5   6
ENDBRANCH   4   5
ENDBRANCH   1   4
BRANCH   2  10
ATOM     10  C   UNL     1       5.656   1.341  -7.300  1.00  0.00     0.035 C 
BRANCH  10  11
ATOM     11  C   UNL     1       6.336   2.690  -7.048  1.00  0.00     0.079 C 
BRANCH  11  12
ATOM     12  C   UNL     1       5.330   3.719  -6.602  1.00  0.00     0.130 C 
ATOM     13  O   UNL     1       5.517   4.898  -6.868  1.00  0.00    -0.300 OA
ATOM     14  C   UNL     1       4.105   3.332  -5.827  1.00  0.00     0.087 C 
ENDBRANCH  11  12
ENDBRANCH  10  11
ENDBRANCH   2  10
TORSDOF 6
ENDMDL
MODEL 8
REMARK VINA RESULT:    -3.308      1.443      3.498
REMARK INTER + INTRA:          -5.825
REMARK INTER:                  -4.411
REMARK INTRA:                  -1.414
REMARK UNBOUND:                -1.357
REMARK SMILES CC(=O)CCC=C(C)CCC=C(C)C
REMARK SMILES IDX 7 1 6 2 8 3 9 4 10 5 11 6 13 7 12 8 14 9 5 10 4 11 2 12 3 13
REMARK SMILES IDX 1 14
REMARK H PARENT
REMARK Flexibility Score: inf
ROOT
ATOM      1  C   UNL     1       5.231  -1.145  -8.369  1.00  0.00    -0.077 C 
ATOM      2  C   UNL     1       5.442  -0.323  -9.421  1.00  0.00    -0.028 C 
ATOM      3  C   UNL     1       4.578  -2.481  -8.617  1.00  0.00     0.039 C 
ENDROOT
BRANCH   1   4
ATOM      4  C   UNL     1       5.569  -0.756  -6.943  1.00  0.00     0.034 C 
BRANCH   4   5
ATOM      5  C   UNL     1       6.865  -1.437  -6.490  1.00  0.00     0.032 C 
BRANCH   5   6
ATOM      6  C   UNL     1       7.838  -0.422  -5.945  1.00  0.00    -0.028 C 
ATOM      7  C   UNL     1       9.255  -0.433  -8.010  1.00  0.00     0.039 C 
ATOM      8  C   UNL     1       8.903   0.058  -6.625  1.00  0.00    -0.080 C 
ATOM      9  C   UNL     1       9.767   1.101  -5.965  1.00  0.00     0.039 C 
ENDBRANCH   5   6
ENDBRANCH   4   5
ENDBRANCH   1   4
BRANCH   2  10
ATOM     10  C   UNL     1       6.073   1.043  -9.303  1.00  0.00     0.035 C 
BRANCH  10  11
ATOM     11  C   UNL     1       5.008   2.139  -9.202  1.00  0.00     0.079 C 
BRANCH  11  12
ATOM     12  C   UNL     1       5.132   2.885  -7.899  1.00  0.00     0.130 C 
ATOM     13  O   UNL     1       4.174   3.514  -7.473  1.00  0.00    -0.300 OA
ATOM     14  C   UNL     1       6.410   2.883  -7.115  1.00  0.00     0.087 C 
ENDBRANCH  11  12
ENDBRANCH  10  11
ENDBRANCH   2  10
TORSDOF 6
ENDMDL
MODEL 9
REMARK VINA RESULT:    -3.258      2.466      5.390
REMARK INTER + INTRA:          -5.758
REMARK INTER:                  -4.131
REMARK INTRA:                  -1.626
REMARK UNBOUND:                -1.357
REMARK SMILES CC(=O)CCC=C(C)CCC=C(C)C
REMARK SMILES IDX 7 1 6 2 8 3 9 4 10 5 11 6 13 7 12 8 14 9 5 10 4 11 2 12 3 13
REMARK SMILES IDX 1 14
REMARK H PARENT
REMARK Flexibility Score: inf
ROOT
ATOM      1  C   UNL     1       5.255   2.084  -6.574  1.00  0.00    -0.077 C 
ATOM      2  C   UNL     1       5.625   1.120  -5.701  1.00  0.00    -0.028 C 
ATOM      3  C   UNL     1       4.559   3.310  -6.042  1.00  0.00     0.039 C 
ENDROOT
BRANCH   1   4
ATOM      4  C   UNL     1       5.458   1.955  -8.071  1.00  0.00     0.034 C 
BRANCH   4   5
ATOM      5  C   UNL     1       6.379   3.065  -8.589  1.00  0.00     0.032 C 
BRANCH   5   6
ATOM      6  C   UNL     1       7.806   2.813  -8.172  1.00  0.00    -0.028 C 
ATOM      7  C   UNL     1       7.918   4.862  -6.736  1.00  0.00     0.039 C 
ATOM      8  C   UNL     1       8.503   3.597  -7.321  1.00  0.00    -0.080 C 
ATOM      9  C   UNL     1       9.911   3.198  -6.965  1.00  0.00     0.039 C 
ENDBRANCH   5   6
ENDBRANCH   4   5
ENDBRANCH   1   4
BRANCH   2  10
ATOM     10  C   UNL     1       6.316  -0.159  -6.107  1.00  0.00     0.035 C 
BRANCH  10  11
ATOM     11  C   UNL     1       7.829  -0.064  -5.893  1.00  0.00     0.079 C 
BRANCH  11  12
ATOM     12  C   UNL     1       8.571  -0.529  -7.119  1.00  0.00     0.130 C 
ATOM     13  O   UNL     1       9.785  -0.394  -7.175  1.00  0.00    -0.300 OA
ATOM     14  C   UNL     1       7.852  -1.145  -8.283  1.00  0.00     0.087 C 
ENDBRANCH  11  12
ENDBRANCH  10  11
ENDBRANCH   2  10
TORSDOF 6
ENDMDL
