MODEL 1
REMARK VINA RESULT:     1.054      0.000      0.000
REMARK INTER + INTRA:           0.715
REMARK INTER:                   1.485
REMARK INTRA:                  -0.770
REMARK UNBOUND:                -0.770
REMARK SMILES COc1c(O[C@H]2O[C@@H](C(=O)[O-])[C@H](O)[C@@H](O)[C@H]2O)cc(O)c2c(=O)cc(-c3ccccc3)oc12
REMARK SMILES IDX 5 1 6 2 8 3 12 4 7 5 14 6 16 7 9 8 10 9 11 10 13 11 15 13
REMARK SMILES IDX 17 15 4 17 3 18 18 19 33 20 19 21 21 22 32 23 22 24 25 25
REMARK SMILES IDX 24 26 23 27 2 28 1 29 20 30 26 32 27 33 31 34 28 35 30 36
REMARK SMILES IDX 29 37
REMARK H PARENT 13 12 15 14 17 16 20 31
REMARK Flexibility Score: inf
ROOT
ATOM      1  O   UNL     1       0.238   8.041  -8.743  1.00  0.00    -0.458 OA
ENDROOT
BRANCH   1   2
ATOM      2  C   UNL     1      -0.680   9.071  -9.132  1.00  0.00     0.339 C 
ATOM      3  C   UNL     1      -1.603   8.039 -11.099  1.00  0.00     0.199 C 
ATOM      4  C   UNL     1      -3.002   7.872 -10.427  1.00  0.00     0.180 C 
ATOM      5  O   UNL     1      -0.844   9.116 -10.551  1.00  0.00    -0.328 OA
ATOM      6  C   UNL     1      -2.883   7.782  -8.903  1.00  0.00     0.181 C 
ATOM      7  C   UNL     1      -2.022   8.955  -8.379  1.00  0.00     0.214 C 
BRANCH   3   8
ATOM      8  C   UNL     1      -0.810   6.767 -11.121  1.00  0.00     0.073 C 
ATOM      9  O   UNL     1      -1.389   5.634 -11.087  1.00  0.00    -0.547 OA
ATOM     10  O   UNL     1      -1.427   5.526 -11.086  1.00  0.00    -0.547 OA
ENDBRANCH   3   8
BRANCH   4  11
ATOM     11  O   UNL     1      -3.891   8.900 -10.777  1.00  0.00    -0.387 OA
ATOM     12  H   UNL     1      -3.451   9.507 -11.422  1.00  0.00     0.211 HD
ENDBRANCH   4  11
BRANCH   6  13
ATOM     13  O   UNL     1      -2.368   6.519  -8.568  1.00  0.00    -0.387 OA
ATOM     14  H   UNL     1      -1.396   6.613  -8.479  1.00  0.00     0.211 HD
ENDBRANCH   6  13
BRANCH   7  15
ATOM     15  O   UNL     1      -1.858   8.910  -6.968  1.00  0.00    -0.384 OA
ATOM     16  H   UNL     1      -2.749   8.774  -6.545  1.00  0.00     0.211 HD
ENDBRANCH   7  15
ENDBRANCH   1   2
BRANCH   1  17
ATOM     17  C   UNL     1       1.644   8.136  -8.761  1.00  0.00     0.172 A 
ATOM     18  C   UNL     1       2.398   7.900  -7.583  1.00  0.00     0.205 A 
ATOM     19  C   UNL     1       2.320   8.528  -9.927  1.00  0.00     0.097 A 
ATOM     20  C   UNL     1       3.781   8.150  -7.572  1.00  0.00     0.188 A 
ATOM     21  C   UNL     1       3.710   8.722  -9.936  1.00  0.00     0.134 A 
ATOM     22  C   UNL     1       4.452   8.544  -8.756  1.00  0.00     0.111 A 
ATOM     23  O   UNL     1       4.462   8.003  -6.436  1.00  0.00    -0.452 OA
ATOM     24  C   UNL     1       5.836   8.741  -8.688  1.00  0.00     0.197 A 
ATOM     25  C   UNL     1       5.770   8.214  -6.333  1.00  0.00     0.138 A 
ATOM     26  C   UNL     1       6.502   8.568  -7.475  1.00  0.00     0.100 A 
ATOM     27  O   UNL     1       6.504   9.107  -9.697  1.00  0.00    -0.289 OA
BRANCH  18  28
ATOM     28  O   UNL     1       1.846   7.419  -6.383  1.00  0.00    -0.490 OA
ATOM     29  C   UNL     1       2.267   6.258  -5.654  1.00  0.00     0.278 C 
ENDBRANCH  18  28
BRANCH  21  30
ATOM     30  O   UNL     1       4.343   9.110 -11.125  1.00  0.00    -0.507 OA
ATOM     31  H   UNL     1       4.713   8.424 -11.774  1.00  0.00     0.293 HD
ENDBRANCH  21  30
BRANCH  25  32
ATOM     32  C   UNL     1       6.425   8.053  -5.011  1.00  0.00     0.017 A 
ATOM     33  C   UNL     1       5.851   7.254  -4.000  1.00  0.00     0.012 A 
ATOM     34  C   UNL     1       7.658   8.688  -4.751  1.00  0.00     0.012 A 
ATOM     35  C   UNL     1       6.466   7.143  -2.750  1.00  0.00     0.001 A 
ATOM     36  C   UNL     1       8.287   8.547  -3.510  1.00  0.00     0.001 A 
ATOM     37  C   UNL     1       7.680   7.790  -2.498  1.00  0.00     0.000 A 
ENDBRANCH  25  32
ENDBRANCH   1  17
TORSDOF 9
ENDMDL
MODEL 2
REMARK VINA RESULT:     1.334     13.722     15.360
REMARK INTER + INTRA:           1.110
REMARK INTER:                   1.044
REMARK INTRA:                   0.066
REMARK UNBOUND:                -0.770
REMARK SMILES COc1c(O[C@H]2O[C@@H](C(=O)[O-])[C@H](O)[C@@H](O)[C@H]2O)cc(O)c2c(=O)cc(-c3ccccc3)oc12
REMARK SMILES IDX 5 1 6 2 8 3 12 4 7 5 14 6 16 7 9 8 10 9 11 10 13 11 15 13
REMARK SMILES IDX 17 15 4 17 3 18 18 19 33 20 19 21 21 22 32 23 22 24 25 25
REMARK SMILES IDX 24 26 23 27 2 28 1 29 20 30 26 32 27 33 31 34 28 35 30 36
REMARK SMILES IDX 29 37
REMARK H PARENT 13 12 15 14 17 16 20 31
REMARK Flexibility Score: inf
ROOT
ATOM      1  O   UNL     1      10.035  -6.297  -9.657  1.00  0.00    -0.458 OA
ENDROOT
BRANCH   1   2
ATOM      2  C   UNL     1       9.378  -6.853 -10.804  1.00  0.00     0.339 C 
ATOM      3  C   UNL     1       9.319  -9.161 -10.129  1.00  0.00     0.199 C 
ATOM      4  C   UNL     1       7.765  -9.142  -9.988  1.00  0.00     0.180 C 
ATOM      5  O   UNL     1       9.810  -8.192 -11.054  1.00  0.00    -0.328 OA
ATOM      6  C   UNL     1       7.248  -7.734  -9.682  1.00  0.00     0.181 C 
ATOM      7  C   UNL     1       7.843  -6.731 -10.698  1.00  0.00     0.214 C 
BRANCH   3   8
ATOM      8  C   UNL     1      10.027  -9.063  -8.811  1.00  0.00     0.073 C 
ATOM      9  O   UNL     1      10.107 -10.070  -8.035  1.00  0.00    -0.547 OA
ATOM     10  O   UNL     1      10.124 -10.151  -7.956  1.00  0.00    -0.547 OA
ENDBRANCH   3   8
BRANCH   4  11
ATOM     11  O   UNL     1       7.118  -9.653 -11.124  1.00  0.00    -0.387 OA
ATOM     12  H   UNL     1       7.760  -9.693 -11.875  1.00  0.00     0.211 HD
ENDBRANCH   4  11
BRANCH   6  13
ATOM     13  O   UNL     1       7.555  -7.425  -8.347  1.00  0.00    -0.387 OA
ATOM     14  H   UNL     1       8.350  -6.850  -8.355  1.00  0.00     0.211 HD
ENDBRANCH   6  13
BRANCH   7  15
ATOM     15  O   UNL     1       7.414  -5.399 -10.447  1.00  0.00    -0.384 OA
ATOM     16  H   UNL     1       6.462  -5.416 -10.160  1.00  0.00     0.211 HD
ENDBRANCH   7  15
ENDBRANCH   1   2
BRANCH   1  17
ATOM     17  C   UNL     1       9.783  -5.029  -9.094  1.00  0.00     0.172 A 
ATOM     18  C   UNL     1       9.180  -4.915  -7.816  1.00  0.00     0.205 A 
ATOM     19  C   UNL     1      10.064  -3.858  -9.815  1.00  0.00     0.097 A 
ATOM     20  C   UNL     1       8.790  -3.654  -7.333  1.00  0.00     0.188 A 
ATOM     21  C   UNL     1       9.731  -2.591  -9.309  1.00  0.00     0.134 A 
ATOM     22  C   UNL     1       9.081  -2.479  -8.068  1.00  0.00     0.111 A 
ATOM     23  O   UNL     1       8.150  -3.571  -6.167  1.00  0.00    -0.452 OA
ATOM     24  C   UNL     1       8.701  -1.250  -7.515  1.00  0.00     0.197 A 
ATOM     25  C   UNL     1       7.748  -2.423  -5.632  1.00  0.00     0.138 A 
ATOM     26  C   UNL     1       8.038  -1.219  -6.288  1.00  0.00     0.100 A 
ATOM     27  O   UNL     1       8.912  -0.158  -8.116  1.00  0.00    -0.289 OA
BRANCH  18  28
ATOM     28  O   UNL     1       8.932  -6.007  -6.967  1.00  0.00    -0.490 OA
ATOM     29  C   UNL     1       9.892  -6.682  -6.142  1.00  0.00     0.278 C 
ENDBRANCH  18  28
BRANCH  21  30
ATOM     30  O   UNL     1      10.035  -1.448 -10.061  1.00  0.00    -0.507 OA
ATOM     31  H   UNL     1       9.318  -0.949 -10.576  1.00  0.00     0.293 HD
ENDBRANCH  21  30
BRANCH  25  32
ATOM     32  C   UNL     1       7.013  -2.446  -4.342  1.00  0.00     0.017 A 
ATOM     33  C   UNL     1       7.172  -1.420  -3.389  1.00  0.00     0.012 A 
ATOM     34  C   UNL     1       6.117  -3.499  -4.059  1.00  0.00     0.012 A 
ATOM     35  C   UNL     1       6.498  -1.479  -2.165  1.00  0.00     0.001 A 
ATOM     36  C   UNL     1       5.418  -3.536  -2.848  1.00  0.00     0.001 A 
ATOM     37  C   UNL     1       5.624  -2.535  -1.889  1.00  0.00     0.000 A 
ENDBRANCH  25  32
ENDBRANCH   1  17
TORSDOF 9
ENDMDL
MODEL 3
REMARK VINA RESULT:     3.602     12.924     14.968
REMARK INTER + INTRA:           4.305
REMARK INTER:                   0.278
REMARK INTRA:                   4.027
REMARK UNBOUND:                -0.770
REMARK SMILES COc1c(O[C@H]2O[C@@H](C(=O)[O-])[C@H](O)[C@@H](O)[C@H]2O)cc(O)c2c(=O)cc(-c3ccccc3)oc12
REMARK SMILES IDX 5 1 6 2 8 3 12 4 7 5 14 6 16 7 9 8 10 9 11 10 13 11 15 13
REMARK SMILES IDX 17 15 4 17 3 18 18 19 33 20 19 21 21 22 32 23 22 24 25 25
REMARK SMILES IDX 24 26 23 27 2 28 1 29 20 30 26 32 27 33 31 34 28 35 30 36
REMARK SMILES IDX 29 37
REMARK H PARENT 13 12 15 14 17 16 20 31
REMARK Flexibility Score: inf
ROOT
ATOM      1  O   UNL     1       5.869  -2.056  -7.027  1.00  0.00    -0.458 OA
ENDROOT
BRANCH   1   2
ATOM      2  C   UNL     1       6.342  -0.981  -6.204  1.00  0.00     0.339 C 
ATOM      3  C   UNL     1       6.028  -1.987  -4.042  1.00  0.00     0.199 C 
ATOM      4  C   UNL     1       7.567  -2.066  -3.790  1.00  0.00     0.180 C 
ATOM      5  O   UNL     1       5.662  -0.947  -4.948  1.00  0.00    -0.328 OA
ATOM      6  C   UNL     1       8.346  -2.143  -5.106  1.00  0.00     0.181 C 
ATOM      7  C   UNL     1       7.878  -1.012  -6.052  1.00  0.00     0.214 C 
BRANCH   3   8
ATOM      8  C   UNL     1       5.434  -3.301  -4.452  1.00  0.00     0.073 C 
ATOM      9  O   UNL     1       5.317  -4.254  -3.616  1.00  0.00    -0.547 OA
ATOM     10  O   UNL     1       5.299  -4.348  -3.553  1.00  0.00    -0.547 OA
ENDBRANCH   3   8
BRANCH   4  11
ATOM     11  O   UNL     1       8.039  -0.996  -3.015  1.00  0.00    -0.387 OA
ATOM     12  H   UNL     1       8.414  -0.301  -3.612  1.00  0.00     0.211 HD
ENDBRANCH   4  11
BRANCH   6  13
ATOM     13  O   UNL     1       8.183  -3.428  -5.648  1.00  0.00    -0.387 OA
ATOM     14  H   UNL     1       7.342  -3.428  -6.153  1.00  0.00     0.211 HD
ENDBRANCH   6  13
BRANCH   7  15
ATOM     15  O   UNL     1       8.554  -1.048  -7.302  1.00  0.00    -0.384 OA
ATOM     16  H   UNL     1       9.534  -0.994  -7.139  1.00  0.00     0.211 HD
ENDBRANCH   7  15
ENDBRANCH   1   2
BRANCH   1  17
ATOM     17  C   UNL     1       6.632  -2.771  -7.972  1.00  0.00     0.172 A 
ATOM     18  C   UNL     1       6.328  -4.125  -8.267  1.00  0.00     0.205 A 
ATOM     19  C   UNL     1       7.744  -2.179  -8.590  1.00  0.00     0.097 A 
ATOM     20  C   UNL     1       7.188  -4.874  -9.090  1.00  0.00     0.188 A 
ATOM     21  C   UNL     1       8.572  -2.907  -9.460  1.00  0.00     0.134 A 
ATOM     22  C   UNL     1       8.306  -4.265  -9.709  1.00  0.00     0.111 A 
ATOM     23  O   UNL     1       6.935  -6.167  -9.293  1.00  0.00    -0.452 OA
ATOM     24  C   UNL     1       9.101  -5.056 -10.548  1.00  0.00     0.197 A 
ATOM     25  C   UNL     1       7.689  -6.950 -10.056  1.00  0.00     0.138 A 
ATOM     26  C   UNL     1       8.789  -6.402 -10.730  1.00  0.00     0.100 A 
ATOM     27  O   UNL     1      10.125  -4.589 -11.125  1.00  0.00    -0.289 OA
BRANCH  18  28
ATOM     28  O   UNL     1       5.194  -4.797  -7.781  1.00  0.00    -0.490 OA
ATOM     29  C   UNL     1       5.165  -5.776  -6.733  1.00  0.00     0.278 C 
ENDBRANCH  18  28
BRANCH  21  30
ATOM     30  O   UNL     1       9.669  -2.273 -10.057  1.00  0.00    -0.507 OA
ATOM     31  H   UNL     1      10.534  -2.772 -10.236  1.00  0.00     0.293 HD
ENDBRANCH  21  30
BRANCH  25  32
ATOM     32  C   UNL     1       7.335  -8.386 -10.187  1.00  0.00     0.017 A 
ATOM     33  C   UNL     1       5.992  -8.814 -10.182  1.00  0.00     0.012 A 
ATOM     34  C   UNL     1       8.351  -9.353 -10.344  1.00  0.00     0.012 A 
ATOM     35  C   UNL     1       5.681 -10.174 -10.271  1.00  0.00     0.001 A 
ATOM     36  C   UNL     1       8.035 -10.709 -10.468  1.00  0.00     0.001 A 
ATOM     37  C   UNL     1       6.697 -11.125 -10.411  1.00  0.00     0.000 A 
ENDBRANCH  25  32
ENDBRANCH   1  17
TORSDOF 9
ENDMDL
MODEL 4
REMARK VINA RESULT:     3.722     13.163     15.006
REMARK INTER + INTRA:           4.475
REMARK INTER:                   5.198
REMARK INTRA:                  -0.723
REMARK UNBOUND:                -0.770
REMARK SMILES COc1c(O[C@H]2O[C@@H](C(=O)[O-])[C@H](O)[C@@H](O)[C@H]2O)cc(O)c2c(=O)cc(-c3ccccc3)oc12
REMARK SMILES IDX 5 1 6 2 8 3 12 4 7 5 14 6 16 7 9 8 10 9 11 10 13 11 15 13
REMARK SMILES IDX 17 15 4 17 3 18 18 19 33 20 19 21 21 22 32 23 22 24 25 25
REMARK SMILES IDX 24 26 23 27 2 28 1 29 20 30 26 32 27 33 31 34 28 35 30 36
REMARK SMILES IDX 29 37
REMARK H PARENT 13 12 15 14 17 16 20 31
REMARK Flexibility Score: inf
ROOT
ATOM      1  O   UNL     1       6.951  -6.998  -8.676  1.00  0.00    -0.458 OA
ENDROOT
BRANCH   1   2
ATOM      2  C   UNL     1       7.995  -7.968  -8.512  1.00  0.00     0.339 C 
ATOM      3  C   UNL     1       7.690  -9.207 -10.550  1.00  0.00     0.199 C 
ATOM      4  C   UNL     1       9.054  -8.712 -11.125  1.00  0.00     0.180 C 
ATOM      5  O   UNL     1       7.652  -9.213  -9.124  1.00  0.00    -0.328 OA
ATOM      6  C   UNL     1       9.454  -7.360 -10.529  1.00  0.00     0.181 C 
ATOM      7  C   UNL     1       9.359  -7.424  -8.987  1.00  0.00     0.214 C 
BRANCH   3   8
ATOM      8  C   UNL     1       6.514  -8.476 -11.125  1.00  0.00     0.073 C 
ATOM      9  O   UNL     1       5.327  -8.895 -10.934  1.00  0.00    -0.547 OA
ATOM     10  O   UNL     1       5.215  -8.919 -10.925  1.00  0.00    -0.547 OA
ENDBRANCH   3   8
BRANCH   4  11
ATOM     11  O   UNL     1      10.086  -9.644 -10.933  1.00  0.00    -0.387 OA
ATOM     12  H   UNL     1       9.867 -10.478 -11.417  1.00  0.00     0.211 HD
ENDBRANCH   4  11
BRANCH   6  13
ATOM     13  O   UNL     1       8.645  -6.363 -11.098  1.00  0.00    -0.387 OA
ATOM     14  H   UNL     1       9.201  -5.862 -11.732  1.00  0.00     0.211 HD
ENDBRANCH   6  13
BRANCH   7  15
ATOM     15  O   UNL     1       9.698  -6.185  -8.379  1.00  0.00    -0.384 OA
ATOM     16  H   UNL     1       8.949  -5.544  -8.515  1.00  0.00     0.211 HD
ENDBRANCH   7  15
ENDBRANCH   1   2
BRANCH   1  17
ATOM     17  C   UNL     1       6.655  -5.944  -7.788  1.00  0.00     0.172 A 
ATOM     18  C   UNL     1       7.165  -4.641  -8.021  1.00  0.00     0.205 A 
ATOM     19  C   UNL     1       5.904  -6.177  -6.626  1.00  0.00     0.097 A 
ATOM     20  C   UNL     1       6.996  -3.638  -7.051  1.00  0.00     0.188 A 
ATOM     21  C   UNL     1       5.682  -5.161  -5.683  1.00  0.00     0.134 A 
ATOM     22  C   UNL     1       6.235  -3.884  -5.882  1.00  0.00     0.111 A 
ATOM     23  O   UNL     1       7.552  -2.442  -7.246  1.00  0.00    -0.452 OA
ATOM     24  C   UNL     1       6.072  -2.832  -4.974  1.00  0.00     0.197 A 
ATOM     25  C   UNL     1       7.442  -1.434  -6.387  1.00  0.00     0.138 A 
ATOM     26  C   UNL     1       6.670  -1.598  -5.229  1.00  0.00     0.100 A 
ATOM     27  O   UNL     1       5.419  -2.978  -3.901  1.00  0.00    -0.289 OA
BRANCH  18  28
ATOM     28  O   UNL     1       7.853  -4.266  -9.188  1.00  0.00    -0.490 OA
ATOM     29  C   UNL     1       7.275  -4.018 -10.476  1.00  0.00     0.278 C 
ENDBRANCH  18  28
BRANCH  21  30
ATOM     30  O   UNL     1       4.922  -5.438  -4.538  1.00  0.00    -0.507 OA
ATOM     31  H   UNL     1       4.767  -4.734  -3.825  1.00  0.00     0.293 HD
ENDBRANCH  21  30
BRANCH  25  32
ATOM     32  C   UNL     1       8.129  -0.153  -6.686  1.00  0.00     0.017 A 
ATOM     33  C   UNL     1       9.486  -0.120  -7.070  1.00  0.00     0.012 A 
ATOM     34  C   UNL     1       7.419   1.064  -6.612  1.00  0.00     0.012 A 
ATOM     35  C   UNL     1      10.124   1.100  -7.314  1.00  0.00     0.001 A 
ATOM     36  C   UNL     1       8.052   2.280  -6.890  1.00  0.00     0.001 A 
ATOM     37  C   UNL     1       9.414   2.301  -7.222  1.00  0.00     0.000 A 
ENDBRANCH  25  32
ENDBRANCH   1  17
TORSDOF 9
ENDMDL
MODEL 5
REMARK VINA RESULT:     3.849     13.031     15.249
REMARK INTER + INTRA:           4.653
REMARK INTER:                  -2.274
REMARK INTRA:                   6.927
REMARK UNBOUND:                -0.770
REMARK SMILES COc1c(O[C@H]2O[C@@H](C(=O)[O-])[C@H](O)[C@@H](O)[C@H]2O)cc(O)c2c(=O)cc(-c3ccccc3)oc12
REMARK SMILES IDX 5 1 6 2 8 3 12 4 7 5 14 6 16 7 9 8 10 9 11 10 13 11 15 13
REMARK SMILES IDX 17 15 4 17 3 18 18 19 33 20 19 21 21 22 32 23 22 24 25 25
REMARK SMILES IDX 24 26 23 27 2 28 1 29 20 30 26 32 27 33 31 34 28 35 30 36
REMARK SMILES IDX 29 37
REMARK H PARENT 13 12 15 14 17 16 20 31
REMARK Flexibility Score: inf
ROOT
ATOM      1  O   UNL     1       6.956  -3.354  -5.656  1.00  0.00    -0.458 OA
ENDROOT
BRANCH   1   2
ATOM      2  C   UNL     1       6.245  -2.117  -5.519  1.00  0.00     0.339 C 
ATOM      3  C   UNL     1       8.094  -0.667  -5.010  1.00  0.00     0.199 C 
ATOM      4  C   UNL     1       7.953   0.089  -6.369  1.00  0.00     0.180 C 
ATOM      5  O   UNL     1       6.873  -1.256  -4.567  1.00  0.00    -0.328 OA
ATOM      6  C   UNL     1       7.317  -0.802  -7.440  1.00  0.00     0.181 C 
ATOM      7  C   UNL     1       6.019  -1.434  -6.885  1.00  0.00     0.214 C 
BRANCH   3   8
ATOM      8  C   UNL     1       9.213  -1.664  -5.010  1.00  0.00     0.073 C 
ATOM      9  O   UNL     1      10.042  -1.718  -5.975  1.00  0.00    -0.547 OA
ATOM     10  O   UNL     1      10.125  -1.734  -6.053  1.00  0.00    -0.547 OA
ENDBRANCH   3   8
BRANCH   4  11
ATOM     11  O   UNL     1       7.226   1.283  -6.245  1.00  0.00    -0.387 OA
ATOM     12  H   UNL     1       7.818   1.991  -5.889  1.00  0.00     0.211 HD
ENDBRANCH   4  11
BRANCH   6  13
ATOM     13  O   UNL     1       8.266  -1.749  -7.857  1.00  0.00    -0.387 OA
ATOM     14  H   UNL     1       7.781  -2.466  -8.317  1.00  0.00     0.211 HD
ENDBRANCH   6  13
BRANCH   7  15
ATOM     15  O   UNL     1       5.395  -2.291  -7.832  1.00  0.00    -0.384 OA
ATOM     16  H   UNL     1       4.415  -2.122  -7.822  1.00  0.00     0.211 HD
ENDBRANCH   7  15
ENDBRANCH   1   2
BRANCH   1  17
ATOM     17  C   UNL     1       7.369  -3.941  -6.870  1.00  0.00     0.172 A 
ATOM     18  C   UNL     1       6.680  -5.062  -7.399  1.00  0.00     0.205 A 
ATOM     19  C   UNL     1       8.506  -3.469  -7.542  1.00  0.00     0.097 A 
ATOM     20  C   UNL     1       7.192  -5.734  -8.523  1.00  0.00     0.188 A 
ATOM     21  C   UNL     1       8.987  -4.101  -8.699  1.00  0.00     0.134 A 
ATOM     22  C   UNL     1       8.340  -5.247  -9.194  1.00  0.00     0.111 A 
ATOM     23  O   UNL     1       6.580  -6.834  -8.960  1.00  0.00    -0.452 OA
ATOM     24  C   UNL     1       8.777  -5.940 -10.329  1.00  0.00     0.197 A 
ATOM     25  C   UNL     1       6.990  -7.532 -10.014  1.00  0.00     0.138 A 
ATOM     26  C   UNL     1       8.097  -7.083 -10.747  1.00  0.00     0.100 A 
ATOM     27  O   UNL     1       9.803  -5.576 -10.974  1.00  0.00    -0.289 OA
BRANCH  18  28
ATOM     28  O   UNL     1       5.482  -5.569  -6.866  1.00  0.00    -0.490 OA
ATOM     29  C   UNL     1       5.195  -5.798  -5.480  1.00  0.00     0.278 C 
ENDBRANCH  18  28
BRANCH  21  30
ATOM     30  O   UNL     1      10.125  -3.592  -9.340  1.00  0.00    -0.507 OA
ATOM     31  H   UNL     1      10.106  -2.698  -9.818  1.00  0.00     0.293 HD
ENDBRANCH  21  30
BRANCH  25  32
ATOM     32  C   UNL     1       6.253  -8.762 -10.396  1.00  0.00     0.017 A 
ATOM     33  C   UNL     1       4.845  -8.783 -10.466  1.00  0.00     0.012 A 
ATOM     34  C   UNL     1       6.963  -9.938 -10.722  1.00  0.00     0.012 A 
ATOM     35  C   UNL     1       4.169  -9.961 -10.793  1.00  0.00     0.001 A 
ATOM     36  C   UNL     1       6.283 -11.106 -11.083  1.00  0.00     0.001 A 
ATOM     37  C   UNL     1       4.882 -11.125 -11.099  1.00  0.00     0.000 A 
ENDBRANCH  25  32
ENDBRANCH   1  17
TORSDOF 9
ENDMDL
