MODEL 1
REMARK VINA RESULT:    -5.606      0.000      0.000
REMARK INTER + INTRA:          -5.606
REMARK INTER:                  -5.606
REMARK INTRA:                   0.000
REMARK UNBOUND:                 0.000
REMARK SMILES C=C1CCC[C@]2(C)C=C3OC(=O)C(C)=C3C[C@@H]12
REMARK SMILES IDX 14 1 13 2 15 3 16 4 17 5 2 6 1 7 3 8 4 9 5 10 6 11 8 12 9 13
REMARK SMILES IDX 10 14 11 15 12 16 7 17
REMARK H PARENT
REMARK Flexibility Score: inf
ROOT
ATOM      1  C   UNL     1      -3.386  88.510  -6.581  1.00  0.00     0.053 C 
ATOM      2  C   UNL     1      -4.275  87.807  -7.557  1.00  0.00     0.041 C 
ATOM      3  C   UNL     1      -4.257  86.510  -7.853  1.00  0.00     0.005 C 
ATOM      4  C   UNL     1      -3.425  85.416  -7.259  1.00  0.00     0.049 C 
ATOM      5  C   UNL     1      -3.398  84.202  -8.234  1.00  0.00     0.029 C 
ATOM      6  C   UNL     1      -2.720  82.948  -7.682  1.00  0.00    -0.073 C 
ATOM      7  C   UNL     1      -1.974  82.940  -6.562  1.00  0.00     0.008 C 
ATOM      8  C   UNL     1      -2.866  81.660  -8.462  1.00  0.00     0.031 C 
ATOM      9  C   UNL     1      -3.399  81.914  -9.876  1.00  0.00     0.005 C 
ATOM     10  C   UNL     1      -4.713  82.722  -9.897  1.00  0.00     0.012 C 
ATOM     11  C   UNL     1      -4.827  83.833  -8.795  1.00  0.00    -0.004 C 
ATOM     12  C   UNL     1      -5.496  85.065  -9.395  1.00  0.00     0.027 C 
ATOM     13  C   UNL     1      -5.239  86.271  -8.895  1.00  0.00     0.131 C 
ATOM     14  O   UNL     1      -5.842  87.463  -9.271  1.00  0.00    -0.423 OA
ATOM     15  C   UNL     1      -5.253  88.424  -8.458  1.00  0.00     0.339 C 
ATOM     16  O   UNL     1      -5.532  89.651  -8.505  1.00  0.00    -0.246 OA
ATOM     17  C   UNL     1      -5.751  83.329  -7.656  1.00  0.00     0.016 C 
ENDROOT
TORSDOF 0
ENDMDL
MODEL 2
REMARK VINA RESULT:    -5.086      7.269      9.749
REMARK INTER + INTRA:          -5.086
REMARK INTER:                  -5.086
REMARK INTRA:                   0.000
REMARK UNBOUND:                 0.000
REMARK SMILES C=C1CCC[C@]2(C)C=C3OC(=O)C(C)=C3C[C@@H]12
REMARK SMILES IDX 14 1 13 2 15 3 16 4 17 5 2 6 1 7 3 8 4 9 5 10 6 11 8 12 9 13
REMARK SMILES IDX 10 14 11 15 12 16 7 17
REMARK H PARENT
REMARK Flexibility Score: inf
ROOT
ATOM      1  C   UNL     1      -9.045  89.302 -13.771  1.00  0.00     0.053 C 
ATOM      2  C   UNL     1      -7.593  89.384 -13.422  1.00  0.00     0.041 C 
ATOM      3  C   UNL     1      -6.636  89.958 -14.145  1.00  0.00     0.005 C 
ATOM      4  C   UNL     1      -6.749  90.722 -15.428  1.00  0.00     0.049 C 
ATOM      5  C   UNL     1      -5.358  90.768 -16.126  1.00  0.00     0.029 C 
ATOM      6  C   UNL     1      -5.289  91.658 -17.367  1.00  0.00    -0.073 C 
ATOM      7  C   UNL     1      -6.376  92.162 -17.979  1.00  0.00     0.008 C 
ATOM      8  C   UNL     1      -3.926  91.951 -17.956  1.00  0.00     0.031 C 
ATOM      9  C   UNL     1      -2.856  91.011 -17.393  1.00  0.00     0.005 C 
ATOM     10  C   UNL     1      -2.798  91.003 -15.852  1.00  0.00     0.012 C 
ATOM     11  C   UNL     1      -4.187  91.142 -15.136  1.00  0.00    -0.004 C 
ATOM     12  C   UNL     1      -4.212  90.228 -13.915  1.00  0.00     0.027 C 
ATOM     13  C   UNL     1      -5.370  89.747 -13.467  1.00  0.00     0.131 C 
ATOM     14  O   UNL     1      -5.558  88.989 -12.321  1.00  0.00    -0.423 OA
ATOM     15  C   UNL     1      -6.927  88.750 -12.280  1.00  0.00     0.339 C 
ATOM     16  O   UNL     1      -7.496  88.078 -11.381  1.00  0.00    -0.246 OA
ATOM     17  C   UNL     1      -4.350  92.593 -14.614  1.00  0.00     0.016 C 
ENDROOT
TORSDOF 0
ENDMDL
MODEL 3
REMARK VINA RESULT:    -4.995      7.654      9.360
REMARK INTER + INTRA:          -4.995
REMARK INTER:                  -4.995
REMARK INTRA:                   0.000
REMARK UNBOUND:                 0.000
REMARK SMILES C=C1CCC[C@]2(C)C=C3OC(=O)C(C)=C3C[C@@H]12
REMARK SMILES IDX 14 1 13 2 15 3 16 4 17 5 2 6 1 7 3 8 4 9 5 10 6 11 8 12 9 13
REMARK SMILES IDX 10 14 11 15 12 16 7 17
REMARK H PARENT
REMARK Flexibility Score: inf
ROOT
ATOM      1  C   UNL     1      -3.600  91.184 -15.147  1.00  0.00     0.053 C 
ATOM      2  C   UNL     1      -4.661  90.982 -14.111  1.00  0.00     0.041 C 
ATOM      3  C   UNL     1      -4.838  91.704 -13.009  1.00  0.00     0.005 C 
ATOM      4  C   UNL     1      -4.101  92.924 -12.548  1.00  0.00     0.049 C 
ATOM      5  C   UNL     1      -4.322  93.113 -11.018  1.00  0.00     0.029 C 
ATOM      6  C   UNL     1      -3.763  94.413 -10.443  1.00  0.00    -0.073 C 
ATOM      7  C   UNL     1      -2.921  95.220 -11.114  1.00  0.00     0.008 C 
ATOM      8  C   UNL     1      -4.146  94.787  -9.027  1.00  0.00     0.031 C 
ATOM      9  C   UNL     1      -4.774  93.604  -8.283  1.00  0.00     0.005 C 
ATOM     10  C   UNL     1      -5.969  92.977  -9.029  1.00  0.00     0.012 C 
ATOM     11  C   UNL     1      -5.834  92.948 -10.592  1.00  0.00    -0.004 C 
ATOM     12  C   UNL     1      -6.393  91.630 -11.117  1.00  0.00     0.027 C 
ATOM     13  C   UNL     1      -5.937  91.122 -12.260  1.00  0.00     0.131 C 
ATOM     14  O   UNL     1      -6.414  89.991 -12.906  1.00  0.00    -0.423 OA
ATOM     15  C   UNL     1      -5.632  89.886 -14.050  1.00  0.00     0.339 C 
ATOM     16  O   UNL     1      -5.754  88.968 -14.902  1.00  0.00    -0.246 OA
ATOM     17  C   UNL     1      -6.703  94.079 -11.201  1.00  0.00     0.016 C 
ENDROOT
TORSDOF 0
ENDMDL
MODEL 4
REMARK VINA RESULT:    -4.985      7.745     10.222
REMARK INTER + INTRA:          -4.985
REMARK INTER:                  -4.985
REMARK INTRA:                   0.000
REMARK UNBOUND:                 0.000
REMARK SMILES C=C1CCC[C@]2(C)C=C3OC(=O)C(C)=C3C[C@@H]12
REMARK SMILES IDX 14 1 13 2 15 3 16 4 17 5 2 6 1 7 3 8 4 9 5 10 6 11 8 12 9 13
REMARK SMILES IDX 10 14 11 15 12 16 7 17
REMARK H PARENT
REMARK Flexibility Score: inf
ROOT
ATOM      1  C   UNL     1      -5.991  91.708 -18.847  1.00  0.00     0.053 C 
ATOM      2  C   UNL     1      -4.945  91.399 -17.822  1.00  0.00     0.041 C 
ATOM      3  C   UNL     1      -5.138  91.246 -16.515  1.00  0.00     0.005 C 
ATOM      4  C   UNL     1      -6.420  91.263 -15.740  1.00  0.00     0.049 C 
ATOM      5  C   UNL     1      -6.110  91.530 -14.237  1.00  0.00     0.029 C 
ATOM      6  C   UNL     1      -7.311  91.410 -13.301  1.00  0.00    -0.073 C 
ATOM      7  C   UNL     1      -8.584  91.340 -13.732  1.00  0.00     0.008 C 
ATOM      8  C   UNL     1      -7.053  91.412 -11.810  1.00  0.00     0.031 C 
ATOM      9  C   UNL     1      -5.631  91.881 -11.485  1.00  0.00     0.005 C 
ATOM     10  C   UNL     1      -4.540  91.086 -12.231  1.00  0.00     0.012 C 
ATOM     11  C   UNL     1      -4.918  90.651 -13.691  1.00  0.00    -0.004 C 
ATOM     12  C   UNL     1      -3.693  90.800 -14.588  1.00  0.00     0.027 C 
ATOM     13  C   UNL     1      -3.847  91.025 -15.891  1.00  0.00     0.131 C 
ATOM     14  O   UNL     1      -2.837  91.085 -16.840  1.00  0.00    -0.423 OA
ATOM     15  C   UNL     1      -3.498  91.322 -18.039  1.00  0.00     0.339 C 
ATOM     16  O   UNL     1      -2.916  91.453 -19.148  1.00  0.00    -0.246 OA
ATOM     17  C   UNL     1      -5.297  89.148 -13.694  1.00  0.00     0.016 C 
ENDROOT
TORSDOF 0
ENDMDL
MODEL 5
REMARK VINA RESULT:    -4.984      3.008      4.924
REMARK INTER + INTRA:          -4.984
REMARK INTER:                  -4.984
REMARK INTRA:                   0.000
REMARK UNBOUND:                 0.000
REMARK SMILES C=C1CCC[C@]2(C)C=C3OC(=O)C(C)=C3C[C@@H]12
REMARK SMILES IDX 14 1 13 2 15 3 16 4 17 5 2 6 1 7 3 8 4 9 5 10 6 11 8 12 9 13
REMARK SMILES IDX 10 14 11 15 12 16 7 17
REMARK H PARENT
REMARK Flexibility Score: inf
ROOT
ATOM      1  C   UNL     1      -9.809  81.994  -9.357  1.00  0.00     0.053 C 
ATOM      2  C   UNL     1      -9.459  83.434  -9.156  1.00  0.00     0.041 C 
ATOM      3  C   UNL     1      -8.234  83.948  -9.077  1.00  0.00     0.005 C 
ATOM      4  C   UNL     1      -6.910  83.266  -9.238  1.00  0.00     0.049 C 
ATOM      5  C   UNL     1      -5.797  84.140  -8.590  1.00  0.00     0.029 C 
ATOM      6  C   UNL     1      -4.371  83.645  -8.824  1.00  0.00    -0.073 C 
ATOM      7  C   UNL     1      -4.080  82.428  -9.317  1.00  0.00     0.008 C 
ATOM      8  C   UNL     1      -3.229  84.562  -8.443  1.00  0.00     0.031 C 
ATOM      9  C   UNL     1      -3.706  85.718  -7.557  1.00  0.00     0.005 C 
ATOM     10  C   UNL     1      -4.872  86.519  -8.173  1.00  0.00     0.012 C 
ATOM     11  C   UNL     1      -5.905  85.665  -8.988  1.00  0.00    -0.004 C 
ATOM     12  C   UNL     1      -7.311  86.187  -8.712  1.00  0.00     0.027 C 
ATOM     13  C   UNL     1      -8.357  85.370  -8.814  1.00  0.00     0.131 C 
ATOM     14  O   UNL     1      -9.693  85.723  -8.688  1.00  0.00    -0.423 OA
ATOM     15  C   UNL     1     -10.388  84.536  -8.891  1.00  0.00     0.339 C 
ATOM     16  O   UNL     1     -11.642  84.441  -8.847  1.00  0.00    -0.246 OA
ATOM     17  C   UNL     1      -5.644  85.856 -10.504  1.00  0.00     0.016 C 
ENDROOT
TORSDOF 0
ENDMDL
MODEL 6
REMARK VINA RESULT:    -4.955      6.501      8.547
REMARK INTER + INTRA:          -4.955
REMARK INTER:                  -4.955
REMARK INTRA:                   0.000
REMARK UNBOUND:                 0.000
REMARK SMILES C=C1CCC[C@]2(C)C=C3OC(=O)C(C)=C3C[C@@H]12
REMARK SMILES IDX 14 1 13 2 15 3 16 4 17 5 2 6 1 7 3 8 4 9 5 10 6 11 8 12 9 13
REMARK SMILES IDX 10 14 11 15 12 16 7 17
REMARK H PARENT
REMARK Flexibility Score: inf
ROOT
ATOM      1  C   UNL     1      -5.972  90.552  -9.012  1.00  0.00     0.053 C 
ATOM      2  C   UNL     1      -5.342  91.606  -9.866  1.00  0.00     0.041 C 
ATOM      3  C   UNL     1      -5.240  91.596 -11.191  1.00  0.00     0.005 C 
ATOM      4  C   UNL     1      -5.775  90.599 -12.173  1.00  0.00     0.049 C 
ATOM      5  C   UNL     1      -5.006  90.737 -13.520  1.00  0.00     0.029 C 
ATOM      6  C   UNL     1      -5.559  89.893 -14.667  1.00  0.00    -0.073 C 
ATOM      7  C   UNL     1      -6.463  88.911 -14.496  1.00  0.00     0.008 C 
ATOM      8  C   UNL     1      -5.029  90.152 -16.061  1.00  0.00     0.031 C 
ATOM      9  C   UNL     1      -3.757  91.007 -16.029  1.00  0.00     0.005 C 
ATOM     10  C   UNL     1      -3.927  92.327 -15.250  1.00  0.00     0.012 C 
ATOM     11  C   UNL     1      -4.854  92.238 -13.987  1.00  0.00    -0.004 C 
ATOM     12  C   UNL     1      -4.256  93.085 -12.869  1.00  0.00     0.027 C 
ATOM     13  C   UNL     1      -4.503  92.778 -11.597  1.00  0.00     0.131 C 
ATOM     14  O   UNL     1      -4.110  93.506 -10.484  1.00  0.00    -0.423 OA
ATOM     15  C   UNL     1      -4.616  92.793  -9.404  1.00  0.00     0.339 C 
ATOM     16  O   UNL     1      -4.459  93.133  -8.202  1.00  0.00    -0.246 OA
ATOM     17  C   UNL     1      -6.238  92.851 -14.325  1.00  0.00     0.016 C 
ENDROOT
TORSDOF 0
ENDMDL
MODEL 7
REMARK VINA RESULT:    -4.874      6.745      8.266
REMARK INTER + INTRA:          -4.874
REMARK INTER:                  -4.874
REMARK INTRA:                   0.000
REMARK UNBOUND:                 0.000
REMARK SMILES C=C1CCC[C@]2(C)C=C3OC(=O)C(C)=C3C[C@@H]12
REMARK SMILES IDX 14 1 13 2 15 3 16 4 17 5 2 6 1 7 3 8 4 9 5 10 6 11 8 12 9 13
REMARK SMILES IDX 10 14 11 15 12 16 7 17
REMARK H PARENT
REMARK Flexibility Score: inf
ROOT
ATOM      1  C   UNL     1      -4.758  92.361  -8.371  1.00  0.00     0.053 C 
ATOM      2  C   UNL     1      -4.533  92.924  -9.739  1.00  0.00     0.041 C 
ATOM      3  C   UNL     1      -4.916  92.382 -10.891  1.00  0.00     0.005 C 
ATOM      4  C   UNL     1      -5.717  91.139 -11.132  1.00  0.00     0.049 C 
ATOM      5  C   UNL     1      -5.494  90.657 -12.596  1.00  0.00     0.029 C 
ATOM      6  C   UNL     1      -6.379  89.491 -13.031  1.00  0.00    -0.073 C 
ATOM      7  C   UNL     1      -7.109  88.753 -12.175  1.00  0.00     0.008 C 
ATOM      8  C   UNL     1      -6.401  89.125 -14.500  1.00  0.00     0.031 C 
ATOM      9  C   UNL     1      -5.250  89.787 -15.263  1.00  0.00     0.005 C 
ATOM     10  C   UNL     1      -5.194  91.318 -15.078  1.00  0.00     0.012 C 
ATOM     11  C   UNL     1      -5.597  91.828 -13.650  1.00  0.00    -0.004 C 
ATOM     12  C   UNL     1      -4.679  92.981 -13.255  1.00  0.00     0.027 C 
ATOM     13  C   UNL     1      -4.435  93.226 -11.970  1.00  0.00     0.131 C 
ATOM     14  O   UNL     1      -3.705  94.289 -11.459  1.00  0.00    -0.423 OA
ATOM     15  C   UNL     1      -3.750  94.115 -10.081  1.00  0.00     0.339 C 
ATOM     16  O   UNL     1      -3.188  94.883  -9.257  1.00  0.00    -0.246 OA
ATOM     17  C   UNL     1      -7.039  92.398 -13.699  1.00  0.00     0.016 C 
ENDROOT
TORSDOF 0
ENDMDL
MODEL 8
REMARK VINA RESULT:    -4.824      2.353      5.712
REMARK INTER + INTRA:          -4.824
REMARK INTER:                  -4.824
REMARK INTRA:                   0.000
REMARK UNBOUND:                 0.000
REMARK SMILES C=C1CCC[C@]2(C)C=C3OC(=O)C(C)=C3C[C@@H]12
REMARK SMILES IDX 14 1 13 2 15 3 16 4 17 5 2 6 1 7 3 8 4 9 5 10 6 11 8 12 9 13
REMARK SMILES IDX 10 14 11 15 12 16 7 17
REMARK H PARENT
REMARK Flexibility Score: inf
ROOT
ATOM      1  C   UNL     1      -4.870  82.747 -10.013  1.00  0.00     0.053 C 
ATOM      2  C   UNL     1      -4.148  83.354  -8.853  1.00  0.00     0.041 C 
ATOM      3  C   UNL     1      -4.295  84.591  -8.388  1.00  0.00     0.005 C 
ATOM      4  C   UNL     1      -5.246  85.661  -8.830  1.00  0.00     0.049 C 
ATOM      5  C   UNL     1      -4.726  87.046  -8.345  1.00  0.00     0.029 C 
ATOM      6  C   UNL     1      -5.683  88.213  -8.584  1.00  0.00    -0.073 C 
ATOM      7  C   UNL     1      -6.769  88.132  -9.373  1.00  0.00     0.008 C 
ATOM      8  C   UNL     1      -5.365  89.539  -7.927  1.00  0.00     0.031 C 
ATOM      9  C   UNL     1      -3.928  89.575  -7.397  1.00  0.00     0.005 C 
ATOM     10  C   UNL     1      -3.595  88.400  -6.454  1.00  0.00     0.012 C 
ATOM     11  C   UNL     1      -4.266  87.034  -6.834  1.00  0.00    -0.004 C 
ATOM     12  C   UNL     1      -3.271  85.904  -6.591  1.00  0.00     0.027 C 
ATOM     13  C   UNL     1      -3.355  84.779  -7.298  1.00  0.00     0.131 C 
ATOM     14  O   UNL     1      -2.587  83.638  -7.123  1.00  0.00    -0.423 OA
ATOM     15  C   UNL     1      -3.059  82.748  -8.080  1.00  0.00     0.339 C 
ATOM     16  O   UNL     1      -2.602  81.587  -8.247  1.00  0.00    -0.246 OA
ATOM     17  C   UNL     1      -5.473  86.779  -5.895  1.00  0.00     0.016 C 
ENDROOT
TORSDOF 0
ENDMDL
MODEL 9
REMARK VINA RESULT:    -4.726      7.127      9.254
REMARK INTER + INTRA:          -4.726
REMARK INTER:                  -4.726
REMARK INTRA:                   0.000
REMARK UNBOUND:                 0.000
REMARK SMILES C=C1CCC[C@]2(C)C=C3OC(=O)C(C)=C3C[C@@H]12
REMARK SMILES IDX 14 1 13 2 15 3 16 4 17 5 2 6 1 7 3 8 4 9 5 10 6 11 8 12 9 13
REMARK SMILES IDX 10 14 11 15 12 16 7 17
REMARK H PARENT
REMARK Flexibility Score: inf
ROOT
ATOM      1  C   UNL     1     -11.186  92.090 -13.748  1.00  0.00     0.053 C 
ATOM      2  C   UNL     1     -10.345  90.853 -13.726  1.00  0.00     0.041 C 
ATOM      3  C   UNL     1      -9.020  90.797 -13.628  1.00  0.00     0.005 C 
ATOM      4  C   UNL     1      -8.038  91.912 -13.442  1.00  0.00     0.049 C 
ATOM      5  C   UNL     1      -6.621  91.428 -13.869  1.00  0.00     0.029 C 
ATOM      6  C   UNL     1      -5.489  92.411 -13.577  1.00  0.00    -0.073 C 
ATOM      7  C   UNL     1      -5.693  93.694 -13.225  1.00  0.00     0.008 C 
ATOM      8  C   UNL     1      -4.065  91.923 -13.733  1.00  0.00     0.031 C 
ATOM      9  C   UNL     1      -4.005  90.597 -14.497  1.00  0.00     0.005 C 
ATOM     10  C   UNL     1      -4.899  89.498 -13.887  1.00  0.00     0.012 C 
ATOM     11  C   UNL     1      -6.257  90.007 -13.286  1.00  0.00    -0.004 C 
ATOM     12  C   UNL     1      -7.355  89.000 -13.613  1.00  0.00     0.027 C 
ATOM     13  C   UNL     1      -8.619  89.404 -13.712  1.00  0.00     0.131 C 
ATOM     14  O   UNL     1      -9.729  88.595 -13.907  1.00  0.00    -0.423 OA
ATOM     15  C   UNL     1     -10.805  89.475 -13.925  1.00  0.00     0.339 C 
ATOM     16  O   UNL     1     -12.001  89.119 -14.091  1.00  0.00    -0.246 OA
ATOM     17  C   UNL     1      -6.142  90.060 -11.740  1.00  0.00     0.016 C 
ENDROOT
TORSDOF 0
ENDMDL
