MODEL 1
REMARK VINA RESULT:    -3.993      0.000      0.000
REMARK INTER + INTRA:          -5.928
REMARK INTER:                  -5.743
REMARK INTRA:                  -0.184
REMARK UNBOUND:                -0.184
REMARK SMILES CCCCCCCCCO
REMARK SMILES IDX 6 1 5 2 4 3 3 4 2 5 1 6 7 7 8 8 9 9 10 10
REMARK H PARENT 10 11
REMARK Flexibility Score: inf
ROOT
ATOM      1  C   UNL     1       0.121  25.284  20.147  1.00  0.00     0.000 C 
ENDROOT
BRANCH   1   2
ATOM      2  C   UNL     1       0.246  23.982  20.966  1.00  0.00     0.000 C 
BRANCH   2   3
ATOM      3  C   UNL     1       0.184  24.164  22.492  1.00  0.00    -0.000 C 
BRANCH   3   4
ATOM      4  C   UNL     1      -0.043  22.839  23.242  1.00  0.00    -0.000 C 
BRANCH   4   5
ATOM      5  C   UNL     1       0.287  22.946  24.737  1.00  0.00    -0.003 C 
ATOM      6  C   UNL     1      -0.545  21.991  25.594  1.00  0.00     0.004 C 
ENDBRANCH   4   5
ENDBRANCH   3   4
ENDBRANCH   2   3
ENDBRANCH   1   2
BRANCH   1   7
ATOM      7  C   UNL     1       1.446  26.025  19.894  1.00  0.00     0.002 C 
BRANCH   7   8
ATOM      8  C   UNL     1       2.630  25.071  19.673  1.00  0.00     0.028 C 
BRANCH   8   9
ATOM      9  C   UNL     1       3.574  25.584  18.580  1.00  0.00     0.156 C 
BRANCH   9  10
ATOM     10  O   UNL     1       4.880  25.117  18.784  1.00  0.00    -0.396 OA
ATOM     11  H   UNL     1       5.078  25.239  19.749  1.00  0.00     0.210 HD
ENDBRANCH   9  10
ENDBRANCH   8   9
ENDBRANCH   7   8
ENDBRANCH   1   7
TORSDOF 8
ENDMDL
MODEL 2
REMARK VINA RESULT:    -3.881      1.442      2.825
REMARK INTER + INTRA:          -5.767
REMARK INTER:                  -5.496
REMARK INTRA:                  -0.271
REMARK UNBOUND:                -0.184
REMARK SMILES CCCCCCCCCO
REMARK SMILES IDX 6 1 5 2 4 3 3 4 2 5 1 6 7 7 8 8 9 9 10 10
REMARK H PARENT 10 11
REMARK Flexibility Score: inf
ROOT
ATOM      1  C   UNL     1      -0.322  22.812  22.186  1.00  0.00     0.000 C 
ENDROOT
BRANCH   1   2
ATOM      2  C   UNL     1      -0.589  22.277  23.608  1.00  0.00     0.000 C 
BRANCH   2   3
ATOM      3  C   UNL     1       0.284  22.899  24.712  1.00  0.00    -0.000 C 
BRANCH   3   4
ATOM      4  C   UNL     1      -0.327  22.738  26.115  1.00  0.00    -0.000 C 
BRANCH   4   5
ATOM      5  C   UNL     1      -1.103  21.423  26.272  1.00  0.00    -0.003 C 
ATOM      6  C   UNL     1      -2.008  21.415  27.504  1.00  0.00     0.004 C 
ENDBRANCH   4   5
ENDBRANCH   3   4
ENDBRANCH   2   3
ENDBRANCH   1   2
BRANCH   1   7
ATOM      7  C   UNL     1       0.249  24.241  22.122  1.00  0.00     0.002 C 
BRANCH   7   8
ATOM      8  C   UNL     1       0.356  24.776  20.686  1.00  0.00     0.028 C 
BRANCH   8   9
ATOM      9  C   UNL     1       1.816  24.970  20.262  1.00  0.00     0.156 C 
BRANCH   9  10
ATOM     10  O   UNL     1       2.319  23.814  19.649  1.00  0.00    -0.396 OA
ATOM     11  H   UNL     1       1.657  23.093  19.815  1.00  0.00     0.210 HD
ENDBRANCH   9  10
ENDBRANCH   8   9
ENDBRANCH   7   8
ENDBRANCH   1   7
TORSDOF 8
ENDMDL
MODEL 3
REMARK VINA RESULT:    -3.800      3.223      5.484
REMARK INTER + INTRA:          -5.651
REMARK INTER:                  -5.077
REMARK INTRA:                  -0.574
REMARK UNBOUND:                -0.184
REMARK SMILES CCCCCCCCCO
REMARK SMILES IDX 6 1 5 2 4 3 3 4 2 5 1 6 7 7 8 8 9 9 10 10
REMARK H PARENT 10 11
REMARK Flexibility Score: inf
ROOT
ATOM      1  C   UNL     1      -0.283  22.620  26.077  1.00  0.00     0.000 C 
ENDROOT
BRANCH   1   2
ATOM      2  C   UNL     1      -0.900  21.209  25.990  1.00  0.00     0.000 C 
BRANCH   2   3
ATOM      3  C   UNL     1      -1.815  20.825  27.165  1.00  0.00    -0.000 C 
BRANCH   3   4
ATOM      4  C   UNL     1      -2.772  21.960  27.570  1.00  0.00    -0.000 C 
BRANCH   4   5
ATOM      5  C   UNL     1      -3.983  22.072  26.632  1.00  0.00    -0.003 C 
ATOM      6  C   UNL     1      -4.006  23.386  25.851  1.00  0.00     0.004 C 
ENDBRANCH   4   5
ENDBRANCH   3   4
ENDBRANCH   2   3
ENDBRANCH   1   2
BRANCH   1   7
ATOM      7  C   UNL     1      -0.388  23.459  24.790  1.00  0.00     0.002 C 
BRANCH   7   8
ATOM      8  C   UNL     1      -0.268  22.612  23.514  1.00  0.00     0.028 C 
BRANCH   8   9
ATOM      9  C   UNL     1      -0.132  23.487  22.264  1.00  0.00     0.156 C 
BRANCH   9  10
ATOM     10  O   UNL     1       0.972  24.344  22.368  1.00  0.00    -0.396 OA
ATOM     11  H   UNL     1       1.274  24.306  23.314  1.00  0.00     0.210 HD
ENDBRANCH   9  10
ENDBRANCH   8   9
ENDBRANCH   7   8
ENDBRANCH   1   7
TORSDOF 8
ENDMDL
MODEL 4
REMARK VINA RESULT:    -3.790      2.043      3.784
REMARK INTER + INTRA:          -5.636
REMARK INTER:                  -5.313
REMARK INTRA:                  -0.323
REMARK UNBOUND:                -0.184
REMARK SMILES CCCCCCCCCO
REMARK SMILES IDX 6 1 5 2 4 3 3 4 2 5 1 6 7 7 8 8 9 9 10 10
REMARK H PARENT 10 11
REMARK Flexibility Score: inf
ROOT
ATOM      1  C   UNL     1      -0.466  22.255  23.405  1.00  0.00     0.000 C 
ENDROOT
BRANCH   1   2
ATOM      2  C   UNL     1       0.029  23.142  24.567  1.00  0.00     0.000 C 
BRANCH   2   3
ATOM      3  C   UNL     1      -0.327  22.631  25.973  1.00  0.00    -0.000 C 
BRANCH   3   4
ATOM      4  C   UNL     1      -0.987  21.241  25.953  1.00  0.00    -0.000 C 
BRANCH   4   5
ATOM      5  C   UNL     1      -1.864  20.988  27.188  1.00  0.00    -0.003 C 
ATOM      6  C   UNL     1      -2.885  22.102  27.424  1.00  0.00     0.004 C 
ENDBRANCH   4   5
ENDBRANCH   3   4
ENDBRANCH   2   3
ENDBRANCH   1   2
BRANCH   1   7
ATOM      7  C   UNL     1      -0.511  22.946  22.030  1.00  0.00     0.002 C 
BRANCH   7   8
ATOM      8  C   UNL     1       0.203  24.306  22.023  1.00  0.00     0.028 C 
BRANCH   8   9
ATOM      9  C   UNL     1       0.912  24.566  20.689  1.00  0.00     0.156 C 
BRANCH   9  10
ATOM     10  O   UNL     1       1.218  23.361  20.040  1.00  0.00    -0.396 OA
ATOM     11  H   UNL     1       2.157  23.141  20.279  1.00  0.00     0.210 HD
ENDBRANCH   9  10
ENDBRANCH   8   9
ENDBRANCH   7   8
ENDBRANCH   1   7
TORSDOF 8
ENDMDL
MODEL 5
REMARK VINA RESULT:    -3.773      2.178      2.681
REMARK INTER + INTRA:          -5.612
REMARK INTER:                  -5.090
REMARK INTRA:                  -0.522
REMARK UNBOUND:                -0.184
REMARK SMILES CCCCCCCCCO
REMARK SMILES IDX 6 1 5 2 4 3 3 4 2 5 1 6 7 7 8 8 9 9 10 10
REMARK H PARENT 10 11
REMARK Flexibility Score: inf
ROOT
ATOM      1  C   UNL     1       0.832  26.510  19.344  1.00  0.00     0.000 C 
ENDROOT
BRANCH   1   2
ATOM      2  C   UNL     1      -0.413  25.678  19.712  1.00  0.00     0.000 C 
BRANCH   2   3
ATOM      3  C   UNL     1      -0.450  25.167  21.162  1.00  0.00    -0.000 C 
BRANCH   3   4
ATOM      4  C   UNL     1      -0.902  23.700  21.266  1.00  0.00    -0.000 C 
BRANCH   4   5
ATOM      5  C   UNL     1      -0.002  22.749  20.463  1.00  0.00    -0.003 C 
ATOM      6  C   UNL     1      -0.799  21.782  19.588  1.00  0.00     0.004 C 
ENDBRANCH   4   5
ENDBRANCH   3   4
ENDBRANCH   2   3
ENDBRANCH   1   2
BRANCH   1   7
ATOM      7  C   UNL     1       2.143  26.054  20.011  1.00  0.00     0.002 C 
BRANCH   7   8
ATOM      8  C   UNL     1       2.891  24.991  19.191  1.00  0.00     0.028 C 
BRANCH   8   9
ATOM      9  C   UNL     1       3.907  25.627  18.236  1.00  0.00     0.156 C 
BRANCH   9  10
ATOM     10  O   UNL     1       5.209  25.201  18.533  1.00  0.00    -0.396 OA
ATOM     11  H   UNL     1       5.711  25.200  17.675  1.00  0.00     0.210 HD
ENDBRANCH   9  10
ENDBRANCH   8   9
ENDBRANCH   7   8
ENDBRANCH   1   7
TORSDOF 8
ENDMDL
MODEL 6
REMARK VINA RESULT:    -3.658      4.063      6.313
REMARK INTER + INTRA:          -5.446
REMARK INTER:                  -4.775
REMARK INTRA:                  -0.671
REMARK UNBOUND:                -0.184
REMARK SMILES CCCCCCCCCO
REMARK SMILES IDX 6 1 5 2 4 3 3 4 2 5 1 6 7 7 8 8 9 9 10 10
REMARK H PARENT 10 11
REMARK Flexibility Score: inf
ROOT
ATOM      1  C   UNL     1      -1.535  22.014  26.957  1.00  0.00     0.000 C 
ENDROOT
BRANCH   1   2
ATOM      2  C   UNL     1      -1.901  20.524  27.115  1.00  0.00     0.000 C 
BRANCH   2   3
ATOM      3  C   UNL     1      -3.253  20.118  26.504  1.00  0.00    -0.000 C 
BRANCH   3   4
ATOM      4  C   UNL     1      -3.102  19.369  25.168  1.00  0.00    -0.000 C 
BRANCH   4   5
ATOM      5  C   UNL     1      -3.166  20.309  23.956  1.00  0.00    -0.003 C 
ATOM      6  C   UNL     1      -2.011  20.091  22.978  1.00  0.00     0.004 C 
ENDBRANCH   4   5
ENDBRANCH   3   4
ENDBRANCH   2   3
ENDBRANCH   1   2
BRANCH   1   7
ATOM      7  C   UNL     1      -0.405  22.305  25.952  1.00  0.00     0.002 C 
BRANCH   7   8
ATOM      8  C   UNL     1      -0.865  23.181  24.776  1.00  0.00     0.028 C 
BRANCH   8   9
ATOM      9  C   UNL     1       0.128  23.129  23.610  1.00  0.00     0.156 C 
BRANCH   9  10
ATOM     10  O   UNL     1       1.449  23.086  24.077  1.00  0.00    -0.396 OA
ATOM     11  H   UNL     1       1.984  23.664  23.471  1.00  0.00     0.210 HD
ENDBRANCH   9  10
ENDBRANCH   8   9
ENDBRANCH   7   8
ENDBRANCH   1   7
TORSDOF 8
ENDMDL
MODEL 7
REMARK VINA RESULT:    -3.649      2.281      5.770
REMARK INTER + INTRA:          -5.433
REMARK INTER:                  -5.266
REMARK INTRA:                  -0.168
REMARK UNBOUND:                -0.184
REMARK SMILES CCCCCCCCCO
REMARK SMILES IDX 6 1 5 2 4 3 3 4 2 5 1 6 7 7 8 8 9 9 10 10
REMARK H PARENT 10 11
REMARK Flexibility Score: inf
ROOT
ATOM      1  C   UNL     1      -0.362  25.342  21.058  1.00  0.00     0.000 C 
ENDROOT
BRANCH   1   2
ATOM      2  C   UNL     1       0.265  25.717  19.700  1.00  0.00     0.000 C 
BRANCH   2   3
ATOM      3  C   UNL     1       1.692  26.288  19.776  1.00  0.00    -0.000 C 
BRANCH   3   4
ATOM      4  C   UNL     1       2.772  25.236  19.469  1.00  0.00    -0.000 C 
BRANCH   4   5
ATOM      5  C   UNL     1       3.642  25.622  18.264  1.00  0.00    -0.003 C 
ATOM      6  C   UNL     1       2.864  26.390  17.195  1.00  0.00     0.004 C 
ENDBRANCH   4   5
ENDBRANCH   3   4
ENDBRANCH   2   3
ENDBRANCH   1   2
BRANCH   1   7
ATOM      7  C   UNL     1       0.426  24.302  21.876  1.00  0.00     0.002 C 
BRANCH   7   8
ATOM      8  C   UNL     1      -0.485  23.377  22.698  1.00  0.00     0.028 C 
BRANCH   8   9
ATOM      9  C   UNL     1       0.040  23.191  24.126  1.00  0.00     0.156 C 
BRANCH   9  10
ATOM     10  O   UNL     1       1.438  23.082  24.137  1.00  0.00    -0.396 OA
ATOM     11  H   UNL     1       1.786  23.926  24.529  1.00  0.00     0.210 HD
ENDBRANCH   9  10
ENDBRANCH   8   9
ENDBRANCH   7   8
ENDBRANCH   1   7
TORSDOF 8
ENDMDL
MODEL 8
REMARK VINA RESULT:    -3.624      4.696      6.004
REMARK INTER + INTRA:          -5.397
REMARK INTER:                  -4.789
REMARK INTRA:                  -0.608
REMARK UNBOUND:                -0.184
REMARK SMILES CCCCCCCCCO
REMARK SMILES IDX 6 1 5 2 4 3 3 4 2 5 1 6 7 7 8 8 9 9 10 10
REMARK H PARENT 10 11
REMARK Flexibility Score: inf
ROOT
ATOM      1  C   UNL     1      -0.278  23.484  24.872  1.00  0.00     0.000 C 
ENDROOT
BRANCH   1   2
ATOM      2  C   UNL     1      -0.357  22.724  26.212  1.00  0.00     0.000 C 
BRANCH   2   3
ATOM      3  C   UNL     1      -1.783  22.422  26.706  1.00  0.00    -0.000 C 
BRANCH   3   4
ATOM      4  C   UNL     1      -1.958  20.963  27.164  1.00  0.00    -0.000 C 
BRANCH   4   5
ATOM      5  C   UNL     1      -3.257  20.334  26.639  1.00  0.00    -0.003 C 
ATOM      6  C   UNL     1      -3.092  18.860  26.270  1.00  0.00     0.004 C 
ENDBRANCH   4   5
ENDBRANCH   3   4
ENDBRANCH   2   3
ENDBRANCH   1   2
BRANCH   1   7
ATOM      7  C   UNL     1       0.015  22.607  23.641  1.00  0.00     0.002 C 
BRANCH   7   8
ATOM      8  C   UNL     1      -1.259  22.194  22.887  1.00  0.00     0.028 C 
BRANCH   8   9
ATOM      9  C   UNL     1      -1.740  20.801  23.310  1.00  0.00     0.156 C 
BRANCH   9  10
ATOM     10  O   UNL     1      -0.717  20.089  23.950  1.00  0.00    -0.396 OA
ATOM     11  H   UNL     1      -0.094  20.765  24.328  1.00  0.00     0.210 HD
ENDBRANCH   9  10
ENDBRANCH   8   9
ENDBRANCH   7   8
ENDBRANCH   1   7
TORSDOF 8
ENDMDL
MODEL 9
REMARK VINA RESULT:    -3.587      4.399      7.347
REMARK INTER + INTRA:          -5.345
REMARK INTER:                  -5.029
REMARK INTRA:                  -0.316
REMARK UNBOUND:                -0.184
REMARK SMILES CCCCCCCCCO
REMARK SMILES IDX 6 1 5 2 4 3 3 4 2 5 1 6 7 7 8 8 9 9 10 10
REMARK H PARENT 10 11
REMARK Flexibility Score: inf
ROOT
ATOM      1  C   UNL     1      -0.087  22.866  26.026  1.00  0.00     0.000 C 
ENDROOT
BRANCH   1   2
ATOM      2  C   UNL     1       0.374  22.907  24.555  1.00  0.00     0.000 C 
BRANCH   2   3
ATOM      3  C   UNL     1      -0.630  22.329  23.542  1.00  0.00    -0.000 C 
BRANCH   3   4
ATOM      4  C   UNL     1      -0.439  22.896  22.124  1.00  0.00    -0.000 C 
BRANCH   4   5
ATOM      5  C   UNL     1       0.101  24.334  22.133  1.00  0.00    -0.003 C 
ATOM      6  C   UNL     1      -0.236  25.098  20.852  1.00  0.00     0.004 C 
ENDBRANCH   4   5
ENDBRANCH   3   4
ENDBRANCH   2   3
ENDBRANCH   1   2
BRANCH   1   7
ATOM      7  C   UNL     1      -1.527  22.368  26.246  1.00  0.00     0.002 C 
BRANCH   7   8
ATOM      8  C   UNL     1      -1.592  21.079  27.080  1.00  0.00     0.028 C 
BRANCH   8   9
ATOM      9  C   UNL     1      -2.613  20.087  26.510  1.00  0.00     0.156 C 
BRANCH   9  10
ATOM     10  O   UNL     1      -2.240  18.766  26.792  1.00  0.00    -0.396 OA
ATOM     11  H   UNL     1      -3.058  18.300  27.107  1.00  0.00     0.210 HD
ENDBRANCH   9  10
ENDBRANCH   8   9
ENDBRANCH   7   8
ENDBRANCH   1   7
TORSDOF 8
ENDMDL
