MODEL 1
REMARK VINA RESULT:    11.681      0.000      0.000
REMARK INTER + INTRA:          16.812
REMARK INTER:                  15.778
REMARK INTRA:                   1.034
REMARK UNBOUND:                 1.034
REMARK SMILES CC[C@H](CC[C@@H](C)[C@@H]1CC[C@@H]2[C@H]3CC(=O)C4=CC(=O)CC[C@@]4(C)[C@@H]3CC[C@@]21C)C(C)C
REMARK SMILES IDX 4 1 3 2 2 3 1 4 29 5 30 6 31 7 5 8 6 9 7 10 8 11 9 12 27 13
REMARK SMILES IDX 10 14 11 15 26 16 28 17 12 18 25 19 24 20 13 21 22 22 14 23
REMARK SMILES IDX 16 24 21 25 23 26 15 27 17 28 20 29 18 30 19 31
REMARK H PARENT
REMARK Flexibility Score: inf
ROOT
ATOM      1  C   UNL     1     134.892  52.071  29.971  1.00  0.00     0.004 C 
ENDROOT
BRANCH   1   2
ATOM      2  C   UNL     1     135.311  53.482  29.463  1.00  0.00    -0.009 C 
BRANCH   2   3
ATOM      3  C   UNL     1     134.185  54.101  28.588  1.00  0.00     0.000 C 
ATOM      4  C   UNL     1     134.334  55.607  28.357  1.00  0.00     0.004 C 
ENDBRANCH   2   3
BRANCH   2   5
ATOM      5  C   UNL     1     135.750  54.427  30.635  1.00  0.00    -0.014 C 
ATOM      6  C   UNL     1     137.273  54.652  30.660  1.00  0.00     0.007 C 
ATOM      7  C   UNL     1     135.260  53.963  32.016  1.00  0.00     0.007 C 
ENDBRANCH   2   5
ENDBRANCH   1   2
BRANCH   1   8
ATOM      8  C   UNL     1     136.101  51.147  30.244  1.00  0.00     0.004 C 
BRANCH   8   9
ATOM      9  C   UNL     1     135.801  49.632  30.109  1.00  0.00    -0.011 C 
ATOM     10  C   UNL     1     134.386  49.319  30.643  1.00  0.00     0.008 C 
BRANCH   9  11
ATOM     11  C   UNL     1     136.002  49.025  28.668  1.00  0.00    -0.002 C 
ATOM     12  C   UNL     1     137.499  48.929  28.314  1.00  0.00     0.005 C 
ATOM     13  C   UNL     1     135.348  49.720  27.419  1.00  0.00    -0.026 C 
ATOM     14  C   UNL     1     137.622  49.068  26.801  1.00  0.00     0.005 C 
ATOM     15  C   UNL     1     136.196  49.142  26.252  1.00  0.00    -0.001 C 
ATOM     16  C   UNL     1     135.448  51.289  27.491  1.00  0.00     0.007 C 
ATOM     17  C   UNL     1     133.876  49.257  27.232  1.00  0.00     0.012 C 
ATOM     18  C   UNL     1     136.116  49.888  24.872  1.00  0.00     0.004 C 
ATOM     19  C   UNL     1     135.887  52.004  26.198  1.00  0.00     0.005 C 
ATOM     20  C   UNL     1     135.404  51.268  24.939  1.00  0.00     0.003 C 
ATOM     21  C   UNL     1     135.451  49.016  23.800  1.00  0.00     0.085 C 
ATOM     22  C   UNL     1     135.546  52.086  23.595  1.00  0.00    -0.000 C 
ATOM     23  C   UNL     1     135.412  49.721  22.479  1.00  0.00     0.159 C 
ATOM     24  C   UNL     1     135.168  51.186  22.407  1.00  0.00     0.005 C 
ATOM     25  C   UNL     1     134.572  53.310  23.630  1.00  0.00     0.020 C 
ATOM     26  C   UNL     1     136.996  52.596  23.382  1.00  0.00     0.017 C 
ATOM     27  O   UNL     1     135.510  49.037  21.423  1.00  0.00    -0.295 OA
ATOM     28  C   UNL     1     134.674  51.710  21.268  1.00  0.00     0.055 C 
ATOM     29  C   UNL     1     134.505  54.071  22.299  1.00  0.00     0.081 C 
ATOM     30  C   UNL     1     134.336  53.134  21.145  1.00  0.00     0.156 C 
ATOM     31  O   UNL     1     133.914  53.578  20.045  1.00  0.00    -0.295 OA
ENDBRANCH   9  11
ENDBRANCH   8   9
ENDBRANCH   1   8
TORSDOF 6
ENDMDL
