MODEL 1
REMARK VINA RESULT:    -4.754      0.000      0.000
REMARK INTER + INTRA:          -5.206
REMARK INTER:                  -5.170
REMARK INTRA:                  -0.035
REMARK UNBOUND:                -0.035
REMARK SMILES O=C([O-])c1ccc(O)cc1
REMARK SMILES IDX 4 1 5 2 10 3 6 4 9 5 7 6 2 7 1 8 3 9 8 10
REMARK H PARENT 8 11
REMARK Flexibility Score: inf
ROOT
ATOM      1  C   UNL     1     -15.052 -10.424 -15.310  1.00  0.00    -0.003 A 
ATOM      2  C   UNL     1     -15.613 -10.238 -14.034  1.00  0.00     0.014 A 
ATOM      3  C   UNL     1     -15.888 -10.809 -16.373  1.00  0.00     0.014 A 
ATOM      4  C   UNL     1     -16.982 -10.433 -13.827  1.00  0.00     0.047 A 
ATOM      5  C   UNL     1     -17.257 -11.003 -16.163  1.00  0.00     0.047 A 
ATOM      6  C   UNL     1     -17.808 -10.817 -14.892  1.00  0.00     0.115 A 
ENDROOT
BRANCH   1   7
ATOM      7  C   UNL     1     -13.602 -10.218 -15.526  1.00  0.00     0.071 C 
ATOM      8  O   UNL     1     -13.038 -10.666 -16.559  1.00  0.00    -0.545 OA
ATOM      9  O   UNL     1     -12.843  -9.524 -14.591  1.00  0.00    -0.545 OA
ENDBRANCH   1   7
BRANCH   6  10
ATOM     10  O   UNL     1     -19.173 -11.013 -14.697  1.00  0.00    -0.508 OA
ATOM     11  H   UNL     1     -19.863 -10.416 -15.137  1.00  0.00     0.293 HD
ENDBRANCH   6  10
TORSDOF 2
ENDMDL
MODEL 2
REMARK VINA RESULT:    -4.672     15.659     15.990
REMARK INTER + INTRA:          -5.117
REMARK INTER:                  -5.082
REMARK INTRA:                  -0.035
REMARK UNBOUND:                -0.035
REMARK SMILES O=C([O-])c1ccc(O)cc1
REMARK SMILES IDX 4 1 5 2 10 3 6 4 9 5 7 6 2 7 1 8 3 9 8 10
REMARK H PARENT 8 11
REMARK Flexibility Score: inf
ROOT
ATOM      1  C   UNL     1      -9.937 -25.446 -12.681  1.00  0.00    -0.003 A 
ATOM      2  C   UNL     1     -10.626 -26.456 -13.374  1.00  0.00     0.014 A 
ATOM      3  C   UNL     1     -10.461 -24.140 -12.680  1.00  0.00     0.014 A 
ATOM      4  C   UNL     1     -11.815 -26.167 -14.051  1.00  0.00     0.047 A 
ATOM      5  C   UNL     1     -11.650 -23.854 -13.357  1.00  0.00     0.047 A 
ATOM      6  C   UNL     1     -12.330 -24.863 -14.044  1.00  0.00     0.115 A 
ENDROOT
BRANCH   1   7
ATOM      7  C   UNL     1      -8.679 -25.755 -11.966  1.00  0.00     0.071 C 
ATOM      8  O   UNL     1      -7.903 -24.831 -11.606  1.00  0.00    -0.545 OA
ATOM      9  O   UNL     1      -8.337 -27.072 -11.680  1.00  0.00    -0.545 OA
ENDBRANCH   1   7
BRANCH   6  10
ATOM     10  O   UNL     1     -13.513 -24.564 -14.716  1.00  0.00    -0.508 OA
ATOM     11  H   UNL     1     -13.521 -24.337 -15.703  1.00  0.00     0.293 HD
ENDBRANCH   6  10
TORSDOF 2
ENDMDL
MODEL 3
REMARK VINA RESULT:    -4.615      1.233      2.232
REMARK INTER + INTRA:          -5.055
REMARK INTER:                  -5.025
REMARK INTRA:                  -0.030
REMARK UNBOUND:                -0.035
REMARK SMILES O=C([O-])c1ccc(O)cc1
REMARK SMILES IDX 4 1 5 2 10 3 6 4 9 5 7 6 2 7 1 8 3 9 8 10
REMARK H PARENT 8 11
REMARK Flexibility Score: inf
ROOT
ATOM      1  C   UNL     1     -14.887  -9.497 -14.824  1.00  0.00    -0.003 A 
ATOM      2  C   UNL     1     -14.896 -10.090 -16.099  1.00  0.00     0.014 A 
ATOM      3  C   UNL     1     -16.045  -9.572 -14.029  1.00  0.00     0.014 A 
ATOM      4  C   UNL     1     -16.040 -10.742 -16.569  1.00  0.00     0.047 A 
ATOM      5  C   UNL     1     -17.187 -10.226 -14.502  1.00  0.00     0.047 A 
ATOM      6  C   UNL     1     -17.190 -10.811 -15.770  1.00  0.00     0.115 A 
ENDROOT
BRANCH   1   7
ATOM      7  C   UNL     1     -13.675  -8.807 -14.330  1.00  0.00     0.071 C 
ATOM      8  O   UNL     1     -13.748  -7.640 -13.863  1.00  0.00    -0.545 OA
ATOM      9  O   UNL     1     -12.437  -9.439 -14.373  1.00  0.00    -0.545 OA
ENDBRANCH   1   7
BRANCH   6  10
ATOM     10  O   UNL     1     -18.334 -11.459 -16.229  1.00  0.00    -0.508 OA
ATOM     11  H   UNL     1     -18.560 -11.503 -17.215  1.00  0.00     0.293 HD
ENDBRANCH   6  10
TORSDOF 2
ENDMDL
MODEL 4
REMARK VINA RESULT:    -4.609     12.954     13.408
REMARK INTER + INTRA:          -5.048
REMARK INTER:                  -5.014
REMARK INTRA:                  -0.034
REMARK UNBOUND:                -0.035
REMARK SMILES O=C([O-])c1ccc(O)cc1
REMARK SMILES IDX 4 1 5 2 10 3 6 4 9 5 7 6 2 7 1 8 3 9 8 10
REMARK H PARENT 8 11
REMARK Flexibility Score: inf
ROOT
ATOM      1  C   UNL     1     -10.845 -19.879  -6.745  1.00  0.00    -0.003 A 
ATOM      2  C   UNL     1     -11.550 -19.433  -7.877  1.00  0.00     0.014 A 
ATOM      3  C   UNL     1     -11.567 -20.354  -5.635  1.00  0.00     0.014 A 
ATOM      4  C   UNL     1     -12.948 -19.461  -7.897  1.00  0.00     0.047 A 
ATOM      5  C   UNL     1     -12.965 -20.382  -5.659  1.00  0.00     0.047 A 
ATOM      6  C   UNL     1     -13.659 -19.936  -6.787  1.00  0.00     0.115 A 
ENDROOT
BRANCH   1   7
ATOM      7  C   UNL     1      -9.365 -19.847  -6.726  1.00  0.00     0.071 C 
ATOM      8  O   UNL     1      -8.733 -19.028  -7.444  1.00  0.00    -0.545 OA
ATOM      9  O   UNL     1      -8.653 -20.723  -5.915  1.00  0.00    -0.545 OA
ENDBRANCH   1   7
BRANCH   6  10
ATOM     10  O   UNL     1     -15.052 -19.969  -6.797  1.00  0.00    -0.508 OA
ATOM     11  H   UNL     1     -15.596 -19.626  -6.014  1.00  0.00     0.293 HD
ENDBRANCH   6  10
TORSDOF 2
ENDMDL
MODEL 5
REMARK VINA RESULT:    -4.596     12.950     13.332
REMARK INTER + INTRA:          -5.034
REMARK INTER:                  -5.000
REMARK INTRA:                  -0.034
REMARK UNBOUND:                -0.035
REMARK SMILES O=C([O-])c1ccc(O)cc1
REMARK SMILES IDX 4 1 5 2 10 3 6 4 9 5 7 6 2 7 1 8 3 9 8 10
REMARK H PARENT 8 11
REMARK Flexibility Score: inf
ROOT
ATOM      1  C   UNL     1     -10.867 -19.890  -6.765  1.00  0.00    -0.003 A 
ATOM      2  C   UNL     1     -11.567 -20.362  -5.641  1.00  0.00     0.014 A 
ATOM      3  C   UNL     1     -11.595 -19.439  -7.882  1.00  0.00     0.014 A 
ATOM      4  C   UNL     1     -12.965 -20.383  -5.634  1.00  0.00     0.047 A 
ATOM      5  C   UNL     1     -12.993 -19.460  -7.871  1.00  0.00     0.047 A 
ATOM      6  C   UNL     1     -13.682 -19.931  -6.751  1.00  0.00     0.115 A 
ENDROOT
BRANCH   1   7
ATOM      7  C   UNL     1      -9.387 -19.870  -6.770  1.00  0.00     0.071 C 
ATOM      8  O   UNL     1      -8.760 -19.051  -7.493  1.00  0.00    -0.545 OA
ATOM      9  O   UNL     1      -8.669 -20.755  -5.975  1.00  0.00    -0.545 OA
ENDBRANCH   1   7
BRANCH   6  10
ATOM     10  O   UNL     1     -15.075 -19.947  -6.754  1.00  0.00    -0.508 OA
ATOM     11  H   UNL     1     -15.606 -20.021  -5.895  1.00  0.00     0.293 HD
ENDBRANCH   6  10
TORSDOF 2
ENDMDL
MODEL 6
REMARK VINA RESULT:    -4.580      1.215      4.119
REMARK INTER + INTRA:          -5.017
REMARK INTER:                  -4.981
REMARK INTRA:                  -0.036
REMARK UNBOUND:                -0.035
REMARK SMILES O=C([O-])c1ccc(O)cc1
REMARK SMILES IDX 4 1 5 2 10 3 6 4 9 5 7 6 2 7 1 8 3 9 8 10
REMARK H PARENT 8 11
REMARK Flexibility Score: inf
ROOT
ATOM      1  C   UNL     1     -16.447 -10.554 -15.277  1.00  0.00    -0.003 A 
ATOM      2  C   UNL     1     -16.349  -9.951 -14.011  1.00  0.00     0.014 A 
ATOM      3  C   UNL     1     -15.286 -10.686 -16.062  1.00  0.00     0.014 A 
ATOM      4  C   UNL     1     -15.117  -9.490 -13.539  1.00  0.00     0.047 A 
ATOM      5  C   UNL     1     -14.055 -10.224 -15.587  1.00  0.00     0.047 A 
ATOM      6  C   UNL     1     -13.965  -9.625 -14.327  1.00  0.00     0.115 A 
ENDROOT
BRANCH   1   7
ATOM      7  C   UNL     1     -17.753 -11.041 -15.774  1.00  0.00     0.071 C 
ATOM      8  O   UNL     1     -18.804 -10.852 -15.106  1.00  0.00    -0.545 OA
ATOM      9  O   UNL     1     -17.838 -11.714 -16.987  1.00  0.00    -0.545 OA
ENDBRANCH   1   7
BRANCH   6  10
ATOM     10  O   UNL     1     -12.732  -9.169 -13.866  1.00  0.00    -0.508 OA
ATOM     11  H   UNL     1     -12.243  -8.410 -14.324  1.00  0.00     0.293 HD
ENDBRANCH   6  10
TORSDOF 2
ENDMDL
MODEL 7
REMARK VINA RESULT:    -4.362     12.370     12.879
REMARK INTER + INTRA:          -4.780
REMARK INTER:                  -4.749
REMARK INTRA:                  -0.031
REMARK UNBOUND:                -0.035
REMARK SMILES O=C([O-])c1ccc(O)cc1
REMARK SMILES IDX 4 1 5 2 10 3 6 4 9 5 7 6 2 7 1 8 3 9 8 10
REMARK H PARENT 8 11
REMARK Flexibility Score: inf
ROOT
ATOM      1  C   UNL     1     -12.189 -20.958  -9.011  1.00  0.00    -0.003 A 
ATOM      2  C   UNL     1     -13.423 -20.568  -8.462  1.00  0.00     0.014 A 
ATOM      3  C   UNL     1     -11.011 -20.342  -8.548  1.00  0.00     0.014 A 
ATOM      4  C   UNL     1     -13.478 -19.585  -7.469  1.00  0.00     0.047 A 
ATOM      5  C   UNL     1     -11.069 -19.360  -7.555  1.00  0.00     0.047 A 
ATOM      6  C   UNL     1     -12.300 -18.977  -7.014  1.00  0.00     0.115 A 
ENDROOT
BRANCH   1   7
ATOM      7  C   UNL     1     -12.134 -21.998 -10.062  1.00  0.00     0.071 C 
ATOM      8  O   UNL     1     -12.799 -23.062  -9.945  1.00  0.00    -0.545 OA
ATOM      9  O   UNL     1     -11.346 -21.817 -11.193  1.00  0.00    -0.545 OA
ENDBRANCH   1   7
BRANCH   6  10
ATOM     10  O   UNL     1     -12.343 -17.996  -6.025  1.00  0.00    -0.508 OA
ATOM     11  H   UNL     1     -11.532 -17.777  -5.460  1.00  0.00     0.293 HD
ENDBRANCH   6  10
TORSDOF 2
ENDMDL
MODEL 8
REMARK VINA RESULT:    -4.350     12.944     13.810
REMARK INTER + INTRA:          -4.767
REMARK INTER:                  -4.733
REMARK INTRA:                  -0.034
REMARK UNBOUND:                -0.035
REMARK SMILES O=C([O-])c1ccc(O)cc1
REMARK SMILES IDX 4 1 5 2 10 3 6 4 9 5 7 6 2 7 1 8 3 9 8 10
REMARK H PARENT 8 11
REMARK Flexibility Score: inf
ROOT
ATOM      1  C   UNL     1     -13.149 -20.378  -7.410  1.00  0.00    -0.003 A 
ATOM      2  C   UNL     1     -11.948 -20.048  -8.062  1.00  0.00     0.014 A 
ATOM      3  C   UNL     1     -13.116 -20.704  -6.042  1.00  0.00     0.014 A 
ATOM      4  C   UNL     1     -10.739 -20.045  -7.359  1.00  0.00     0.047 A 
ATOM      5  C   UNL     1     -11.905 -20.700  -5.342  1.00  0.00     0.047 A 
ATOM      6  C   UNL     1     -10.715 -20.371  -5.997  1.00  0.00     0.115 A 
ENDROOT
BRANCH   1   7
ATOM      7  C   UNL     1     -14.427 -20.381  -8.156  1.00  0.00     0.071 C 
ATOM      8  O   UNL     1     -14.439 -20.536  -9.406  1.00  0.00    -0.545 OA
ATOM      9  O   UNL     1     -15.634 -20.213  -7.486  1.00  0.00    -0.545 OA
ENDBRANCH   1   7
BRANCH   6  10
ATOM     10  O   UNL     1      -9.515 -20.371  -5.288  1.00  0.00    -0.508 OA
ATOM     11  H   UNL     1      -9.394 -20.928  -4.450  1.00  0.00     0.293 HD
ENDBRANCH   6  10
TORSDOF 2
ENDMDL
MODEL 9
REMARK VINA RESULT:    -4.213      1.769      2.418
REMARK INTER + INTRA:          -4.618
REMARK INTER:                  -4.588
REMARK INTRA:                  -0.030
REMARK UNBOUND:                -0.035
REMARK SMILES O=C([O-])c1ccc(O)cc1
REMARK SMILES IDX 4 1 5 2 10 3 6 4 9 5 7 6 2 7 1 8 3 9 8 10
REMARK H PARENT 8 11
REMARK Flexibility Score: inf
ROOT
ATOM      1  C   UNL     1     -13.588  -9.892 -15.214  1.00  0.00    -0.003 A 
ATOM      2  C   UNL     1     -14.606 -10.828 -14.961  1.00  0.00     0.014 A 
ATOM      3  C   UNL     1     -13.807  -8.541 -14.885  1.00  0.00     0.014 A 
ATOM      4  C   UNL     1     -15.817 -10.422 -14.392  1.00  0.00     0.047 A 
ATOM      5  C   UNL     1     -15.019  -8.138 -14.316  1.00  0.00     0.047 A 
ATOM      6  C   UNL     1     -16.026  -9.074 -14.068  1.00  0.00     0.115 A 
ENDROOT
BRANCH   1   7
ATOM      7  C   UNL     1     -12.308 -10.325 -15.816  1.00  0.00     0.071 C 
ATOM      8  O   UNL     1     -12.297 -11.032 -16.859  1.00  0.00    -0.545 OA
ATOM      9  O   UNL     1     -11.098  -9.956 -15.240  1.00  0.00    -0.545 OA
ENDBRANCH   1   7
BRANCH   6  10
ATOM     10  O   UNL     1     -17.229  -8.659 -13.500  1.00  0.00    -0.508 OA
ATOM     11  H   UNL     1     -17.919  -9.325 -13.173  1.00  0.00     0.293 HD
ENDBRANCH   6  10
TORSDOF 2
ENDMDL
