MODEL 1
REMARK VINA RESULT:    -3.755      0.000      0.000
REMARK INTER + INTRA:          -9.280
REMARK INTER:                  -6.829
REMARK INTRA:                  -2.452
REMARK UNBOUND:                -2.452
REMARK SMILES CCCCCCCCCCCCCC[C@H](C)C(=O)[O-]
REMARK SMILES IDX 9 1 10 2 11 3 12 4 13 5 14 6 15 7 16 8 17 9 18 10 19 11 8 12
REMARK SMILES IDX 7 13 6 14 5 15 4 16 3 17 2 18 1 19
REMARK H PARENT
REMARK Flexibility Score: inf
ROOT
ATOM      1  C   UNL     1       7.573   0.489  -7.932  1.00  0.00     0.000 C 
ENDROOT
BRANCH   1   2
ATOM      2  C   UNL     1       7.110  -0.523  -8.997  1.00  0.00     0.000 C 
BRANCH   2   3
ATOM      3  C   UNL     1       5.590  -0.757  -8.985  1.00  0.00     0.000 C 
BRANCH   3   4
ATOM      4  C   UNL     1       5.223  -2.247  -8.864  1.00  0.00     0.000 C 
BRANCH   4   5
ATOM      5  C   UNL     1       6.330  -3.077  -8.193  1.00  0.00     0.001 C 
BRANCH   5   6
ATOM      6  C   UNL     1       5.738  -4.089  -7.195  1.00  0.00     0.009 C 
BRANCH   6   7
ATOM      7  C   UNL     1       6.219  -3.851  -5.747  1.00  0.00     0.032 C 
ATOM      8  C   UNL     1       6.935  -2.501  -5.581  1.00  0.00     0.014 C 
BRANCH   7   9
ATOM      9  C   UNL     1       7.127  -4.973  -5.318  1.00  0.00     0.044 C 
ATOM     10  O   UNL     1       7.763  -5.646  -6.173  1.00  0.00    -0.550 OA
ATOM     11  O   UNL     1       7.235  -5.298  -3.973  1.00  0.00    -0.550 OA
ENDBRANCH   7   9
ENDBRANCH   6   7
ENDBRANCH   5   6
ENDBRANCH   4   5
ENDBRANCH   3   4
ENDBRANCH   2   3
ENDBRANCH   1   2
BRANCH   1  12
ATOM     12  C   UNL     1       7.804   1.924  -8.444  1.00  0.00     0.000 C 
BRANCH  12  13
ATOM     13  C   UNL     1       6.805   2.940  -7.859  1.00  0.00    -0.000 C 
BRANCH  13  14
ATOM     14  C   UNL     1       5.602   3.182  -8.785  1.00  0.00    -0.000 C 
BRANCH  14  15
ATOM     15  C   UNL     1       4.282   2.688  -8.176  1.00  0.00    -0.000 C 
BRANCH  15  16
ATOM     16  C   UNL     1       4.465   2.294  -6.702  1.00  0.00    -0.000 C 
BRANCH  16  17
ATOM     17  C   UNL     1       3.731   0.989  -6.337  1.00  0.00    -0.000 C 
BRANCH  17  18
ATOM     18  C   UNL     1       4.566   0.067  -5.429  1.00  0.00    -0.003 C 
ATOM     19  C   UNL     1       5.482   0.883  -4.519  1.00  0.00     0.004 C 
ENDBRANCH  17  18
ENDBRANCH  16  17
ENDBRANCH  15  16
ENDBRANCH  14  15
ENDBRANCH  13  14
ENDBRANCH  12  13
ENDBRANCH   1  12
TORSDOF 14
ENDMDL
MODEL 2
REMARK VINA RESULT:    -3.685      1.442      3.515
REMARK INTER + INTRA:          -9.153
REMARK INTER:                  -6.504
REMARK INTRA:                  -2.649
REMARK UNBOUND:                -2.452
REMARK SMILES CCCCCCCCCCCCCC[C@H](C)C(=O)[O-]
REMARK SMILES IDX 9 1 10 2 11 3 12 4 13 5 14 6 15 7 16 8 17 9 18 10 19 11 8 12
REMARK SMILES IDX 7 13 6 14 5 15 4 16 3 17 2 18 1 19
REMARK H PARENT
REMARK Flexibility Score: inf
ROOT
ATOM      1  C   UNL     1       4.200   2.209  -6.695  1.00  0.00     0.000 C 
ENDROOT
BRANCH   1   2
ATOM      2  C   UNL     1       4.150   0.828  -6.014  1.00  0.00     0.000 C 
BRANCH   2   3
ATOM      3  C   UNL     1       5.231   0.650  -4.935  1.00  0.00     0.000 C 
BRANCH   3   4
ATOM      4  C   UNL     1       6.214  -0.487  -5.268  1.00  0.00     0.000 C 
BRANCH   4   5
ATOM      5  C   UNL     1       5.607  -1.539  -6.210  1.00  0.00     0.001 C 
BRANCH   5   6
ATOM      6  C   UNL     1       6.699  -2.445  -6.810  1.00  0.00     0.009 C 
BRANCH   6   7
ATOM      7  C   UNL     1       6.502  -3.934  -6.452  1.00  0.00     0.032 C 
ATOM      8  C   UNL     1       6.624  -4.196  -4.943  1.00  0.00     0.014 C 
BRANCH   7   9
ATOM      9  C   UNL     1       7.497  -4.777  -7.205  1.00  0.00     0.044 C 
ATOM     10  O   UNL     1       7.107  -5.655  -8.019  1.00  0.00    -0.550 OA
ATOM     11  O   UNL     1       8.856  -4.616  -6.970  1.00  0.00    -0.550 OA
ENDBRANCH   7   9
ENDBRANCH   6   7
ENDBRANCH   5   6
ENDBRANCH   4   5
ENDBRANCH   3   4
ENDBRANCH   2   3
ENDBRANCH   1   2
BRANCH   1  12
ATOM     12  C   UNL     1       4.011   2.195  -8.225  1.00  0.00     0.000 C 
BRANCH  12  13
ATOM     13  C   UNL     1       4.077   0.780  -8.827  1.00  0.00    -0.000 C 
BRANCH  13  14
ATOM     14  C   UNL     1       5.065   0.687 -10.001  1.00  0.00    -0.000 C 
BRANCH  14  15
ATOM     15  C   UNL     1       6.404   0.052  -9.595  1.00  0.00    -0.000 C 
BRANCH  15  16
ATOM     16  C   UNL     1       7.474   1.126  -9.346  1.00  0.00    -0.000 C 
BRANCH  16  17
ATOM     17  C   UNL     1       8.102   1.029  -7.942  1.00  0.00    -0.000 C 
BRANCH  17  18
ATOM     18  C   UNL     1       7.845   2.281  -7.083  1.00  0.00    -0.003 C 
ATOM     19  C   UNL     1       7.584   3.501  -7.963  1.00  0.00     0.004 C 
ENDBRANCH  17  18
ENDBRANCH  16  17
ENDBRANCH  15  16
ENDBRANCH  14  15
ENDBRANCH  13  14
ENDBRANCH  12  13
ENDBRANCH   1  12
TORSDOF 14
ENDMDL
MODEL 3
REMARK VINA RESULT:    -3.666      1.171      2.757
REMARK INTER + INTRA:          -9.118
REMARK INTER:                  -6.899
REMARK INTRA:                  -2.219
REMARK UNBOUND:                -2.452
REMARK SMILES CCCCCCCCCCCCCC[C@H](C)C(=O)[O-]
REMARK SMILES IDX 9 1 10 2 11 3 12 4 13 5 14 6 15 7 16 8 17 9 18 10 19 11 8 12
REMARK SMILES IDX 7 13 6 14 5 15 4 16 3 17 2 18 1 19
REMARK H PARENT
REMARK Flexibility Score: inf
ROOT
ATOM      1  C   UNL     1       6.720  -0.396  -6.685  1.00  0.00     0.000 C 
ENDROOT
BRANCH   1   2
ATOM      2  C   UNL     1       6.561  -0.694  -8.188  1.00  0.00     0.000 C 
BRANCH   2   3
ATOM      3  C   UNL     1       5.171  -1.244  -8.549  1.00  0.00     0.000 C 
BRANCH   3   4
ATOM      4  C   UNL     1       5.238  -2.638  -9.198  1.00  0.00     0.000 C 
BRANCH   4   5
ATOM      5  C   UNL     1       6.505  -3.416  -8.803  1.00  0.00     0.001 C 
BRANCH   5   6
ATOM      6  C   UNL     1       6.201  -4.454  -7.706  1.00  0.00     0.009 C 
BRANCH   6   7
ATOM      7  C   UNL     1       7.261  -4.463  -6.583  1.00  0.00     0.032 C 
ATOM      8  C   UNL     1       8.267  -5.614  -6.734  1.00  0.00     0.014 C 
BRANCH   7   9
ATOM      9  C   UNL     1       6.583  -4.543  -5.241  1.00  0.00     0.044 C 
ATOM     10  O   UNL     1       5.366  -4.241  -5.118  1.00  0.00    -0.550 OA
ATOM     11  O   UNL     1       7.314  -4.911  -4.120  1.00  0.00    -0.550 OA
ENDBRANCH   7   9
ENDBRANCH   6   7
ENDBRANCH   5   6
ENDBRANCH   4   5
ENDBRANCH   3   4
ENDBRANCH   2   3
ENDBRANCH   1   2
BRANCH   1  12
ATOM     12  C   UNL     1       5.628  -0.994  -5.776  1.00  0.00     0.000 C 
BRANCH  12  13
ATOM     13  C   UNL     1       4.662   0.067  -5.218  1.00  0.00    -0.000 C 
BRANCH  13  14
ATOM     14  C   UNL     1       4.985   1.482  -5.725  1.00  0.00    -0.000 C 
BRANCH  14  15
ATOM     15  C   UNL     1       3.909   2.027  -6.675  1.00  0.00    -0.000 C 
BRANCH  15  16
ATOM     16  C   UNL     1       4.514   2.420  -8.032  1.00  0.00    -0.000 C 
BRANCH  16  17
ATOM     17  C   UNL     1       5.591   3.515  -7.911  1.00  0.00    -0.000 C 
BRANCH  17  18
ATOM     18  C   UNL     1       6.926   3.117  -8.567  1.00  0.00    -0.003 C 
ATOM     19  C   UNL     1       8.007   2.898  -7.513  1.00  0.00     0.004 C 
ENDBRANCH  17  18
ENDBRANCH  16  17
ENDBRANCH  15  16
ENDBRANCH  14  15
ENDBRANCH  13  14
ENDBRANCH  12  13
ENDBRANCH   1  12
TORSDOF 14
ENDMDL
MODEL 4
REMARK VINA RESULT:    -3.616      1.375      2.922
REMARK INTER + INTRA:          -9.026
REMARK INTER:                  -6.858
REMARK INTRA:                  -2.169
REMARK UNBOUND:                -2.452
REMARK SMILES CCCCCCCCCCCCCC[C@H](C)C(=O)[O-]
REMARK SMILES IDX 9 1 10 2 11 3 12 4 13 5 14 6 15 7 16 8 17 9 18 10 19 11 8 12
REMARK SMILES IDX 7 13 6 14 5 15 4 16 3 17 2 18 1 19
REMARK H PARENT
REMARK Flexibility Score: inf
ROOT
ATOM      1  C   UNL     1       5.580  -1.115  -5.615  1.00  0.00     0.000 C 
ENDROOT
BRANCH   1   2
ATOM      2  C   UNL     1       6.834  -0.551  -6.309  1.00  0.00     0.000 C 
BRANCH   2   3
ATOM      3  C   UNL     1       7.053  -1.126  -7.718  1.00  0.00     0.000 C 
BRANCH   3   4
ATOM      4  C   UNL     1       5.935  -2.096  -8.139  1.00  0.00     0.000 C 
BRANCH   4   5
ATOM      5  C   UNL     1       6.439  -3.536  -8.327  1.00  0.00     0.001 C 
BRANCH   5   6
ATOM      6  C   UNL     1       7.532  -3.881  -7.299  1.00  0.00     0.009 C 
BRANCH   6   7
ATOM      7  C   UNL     1       7.117  -5.025  -6.347  1.00  0.00     0.032 C 
ATOM      8  C   UNL     1       6.786  -4.522  -4.933  1.00  0.00     0.014 C 
BRANCH   7   9
ATOM      9  C   UNL     1       8.209  -6.059  -6.284  1.00  0.00     0.044 C 
ATOM     10  O   UNL     1       9.416  -5.727  -6.426  1.00  0.00    -0.550 OA
ATOM     11  O   UNL     1       7.883  -7.397  -6.110  1.00  0.00    -0.550 OA
ENDBRANCH   7   9
ENDBRANCH   6   7
ENDBRANCH   5   6
ENDBRANCH   4   5
ENDBRANCH   3   4
ENDBRANCH   2   3
ENDBRANCH   1   2
BRANCH   1  12
ATOM     12  C   UNL     1       4.492  -0.077  -5.276  1.00  0.00     0.000 C 
BRANCH  12  13
ATOM     13  C   UNL     1       4.870   1.353  -5.704  1.00  0.00    -0.000 C 
BRANCH  13  14
ATOM     14  C   UNL     1       3.944   1.903  -6.800  1.00  0.00    -0.000 C 
BRANCH  14  15
ATOM     15  C   UNL     1       4.175   1.226  -8.160  1.00  0.00    -0.000 C 
BRANCH  15  16
ATOM     16  C   UNL     1       5.175   2.023  -9.013  1.00  0.00    -0.000 C 
BRANCH  16  17
ATOM     17  C   UNL     1       5.297   3.494  -8.570  1.00  0.00    -0.000 C 
BRANCH  17  18
ATOM     18  C   UNL     1       6.697   3.841  -8.029  1.00  0.00    -0.003 C 
ATOM     19  C   UNL     1       7.623   2.629  -8.097  1.00  0.00     0.004 C 
ENDBRANCH  17  18
ENDBRANCH  16  17
ENDBRANCH  15  16
ENDBRANCH  14  15
ENDBRANCH  13  14
ENDBRANCH  12  13
ENDBRANCH   1  12
TORSDOF 14
ENDMDL
MODEL 5
REMARK VINA RESULT:    -3.465      1.460      2.210
REMARK INTER + INTRA:          -8.753
REMARK INTER:                  -6.179
REMARK INTRA:                  -2.574
REMARK UNBOUND:                -2.452
REMARK SMILES CCCCCCCCCCCCCC[C@H](C)C(=O)[O-]
REMARK SMILES IDX 9 1 10 2 11 3 12 4 13 5 14 6 15 7 16 8 17 9 18 10 19 11 8 12
REMARK SMILES IDX 7 13 6 14 5 15 4 16 3 17 2 18 1 19
REMARK H PARENT
REMARK Flexibility Score: inf
ROOT
ATOM      1  C   UNL     1       4.192  -0.477  -9.285  1.00  0.00     0.000 C 
ENDROOT
BRANCH   1   2
ATOM      2  C   UNL     1       5.628  -0.711  -9.791  1.00  0.00     0.000 C 
BRANCH   2   3
ATOM      3  C   UNL     1       5.996  -2.201  -9.890  1.00  0.00     0.000 C 
BRANCH   3   4
ATOM      4  C   UNL     1       4.841  -3.123  -9.462  1.00  0.00     0.000 C 
BRANCH   4   5
ATOM      5  C   UNL     1       5.243  -4.096  -8.341  1.00  0.00     0.001 C 
BRANCH   5   6
ATOM      6  C   UNL     1       6.677  -4.619  -8.546  1.00  0.00     0.009 C 
BRANCH   6   7
ATOM      7  C   UNL     1       7.628  -4.218  -7.397  1.00  0.00     0.032 C 
ATOM      8  C   UNL     1       9.067  -3.978  -7.882  1.00  0.00     0.014 C 
BRANCH   7   9
ATOM      9  C   UNL     1       7.614  -5.278  -6.328  1.00  0.00     0.044 C 
ATOM     10  O   UNL     1       7.607  -6.500  -6.636  1.00  0.00    -0.550 OA
ATOM     11  O   UNL     1       7.566  -4.909  -4.990  1.00  0.00    -0.550 OA
ENDBRANCH   7   9
ENDBRANCH   6   7
ENDBRANCH   5   6
ENDBRANCH   4   5
ENDBRANCH   3   4
ENDBRANCH   2   3
ENDBRANCH   1   2
BRANCH   1  12
ATOM     12  C   UNL     1       3.874   0.967  -8.849  1.00  0.00     0.000 C 
BRANCH  12  13
ATOM     13  C   UNL     1       5.122   1.867  -8.793  1.00  0.00    -0.000 C 
BRANCH  13  14
ATOM     14  C   UNL     1       5.252   2.610  -7.454  1.00  0.00    -0.000 C 
BRANCH  14  15
ATOM     15  C   UNL     1       4.361   2.007  -6.358  1.00  0.00    -0.000 C 
BRANCH  15  16
ATOM     16  C   UNL     1       5.179   1.120  -5.405  1.00  0.00    -0.000 C 
BRANCH  16  17
ATOM     17  C   UNL     1       4.631  -0.317  -5.310  1.00  0.00    -0.000 C 
BRANCH  17  18
ATOM     18  C   UNL     1       5.585  -1.362  -5.920  1.00  0.00    -0.003 C 
ATOM     19  C   UNL     1       6.920  -0.726  -6.298  1.00  0.00     0.004 C 
ENDBRANCH  17  18
ENDBRANCH  16  17
ENDBRANCH  15  16
ENDBRANCH  14  15
ENDBRANCH  13  14
ENDBRANCH  12  13
ENDBRANCH   1  12
TORSDOF 14
ENDMDL
MODEL 6
REMARK VINA RESULT:    -3.345      1.514      2.536
REMARK INTER + INTRA:          -8.534
REMARK INTER:                  -6.221
REMARK INTRA:                  -2.314
REMARK UNBOUND:                -2.452
REMARK SMILES CCCCCCCCCCCCCC[C@H](C)C(=O)[O-]
REMARK SMILES IDX 9 1 10 2 11 3 12 4 13 5 14 6 15 7 16 8 17 9 18 10 19 11 8 12
REMARK SMILES IDX 7 13 6 14 5 15 4 16 3 17 2 18 1 19
REMARK H PARENT
REMARK Flexibility Score: inf
ROOT
ATOM      1  C   UNL     1       8.547   1.524  -6.959  1.00  0.00     0.000 C 
ENDROOT
BRANCH   1   2
ATOM      2  C   UNL     1       7.696   0.262  -6.720  1.00  0.00     0.000 C 
BRANCH   2   3
ATOM      3  C   UNL     1       6.416   0.544  -5.916  1.00  0.00     0.000 C 
BRANCH   3   4
ATOM      4  C   UNL     1       5.660  -0.743  -5.541  1.00  0.00     0.000 C 
BRANCH   4   5
ATOM      5  C   UNL     1       6.557  -1.991  -5.582  1.00  0.00     0.001 C 
BRANCH   5   6
ATOM      6  C   UNL     1       6.000  -3.045  -6.558  1.00  0.00     0.009 C 
BRANCH   6   7
ATOM      7  C   UNL     1       6.408  -4.485  -6.177  1.00  0.00     0.032 C 
ATOM      8  C   UNL     1       6.837  -4.604  -4.706  1.00  0.00     0.014 C 
BRANCH   7   9
ATOM      9  C   UNL     1       7.517  -4.958  -7.078  1.00  0.00     0.044 C 
ATOM     10  O   UNL     1       7.326  -5.907  -7.885  1.00  0.00    -0.550 OA
ATOM     11  O   UNL     1       8.773  -4.374  -6.992  1.00  0.00    -0.550 OA
ENDBRANCH   7   9
ENDBRANCH   6   7
ENDBRANCH   5   6
ENDBRANCH   4   5
ENDBRANCH   3   4
ENDBRANCH   2   3
ENDBRANCH   1   2
BRANCH   1  12
ATOM     12  C   UNL     1       7.768   2.761  -7.449  1.00  0.00     0.000 C 
BRANCH  12  13
ATOM     13  C   UNL     1       7.502   2.743  -8.965  1.00  0.00    -0.000 C 
BRANCH  13  14
ATOM     14  C   UNL     1       6.074   3.191  -9.316  1.00  0.00    -0.000 C 
BRANCH  14  15
ATOM     15  C   UNL     1       5.213   3.442  -8.069  1.00  0.00    -0.000 C 
BRANCH  15  16
ATOM     16  C   UNL     1       4.085   2.404  -7.955  1.00  0.00    -0.000 C 
BRANCH  16  17
ATOM     17  C   UNL     1       3.982   1.497  -9.196  1.00  0.00    -0.000 C 
BRANCH  17  18
ATOM     18  C   UNL     1       4.132   0.002  -8.858  1.00  0.00    -0.003 C 
ATOM     19  C   UNL     1       5.442  -0.554  -9.411  1.00  0.00     0.004 C 
ENDBRANCH  17  18
ENDBRANCH  16  17
ENDBRANCH  15  16
ENDBRANCH  14  15
ENDBRANCH  13  14
ENDBRANCH  12  13
ENDBRANCH   1  12
TORSDOF 14
ENDMDL
MODEL 7
REMARK VINA RESULT:    -3.305      1.432      3.482
REMARK INTER + INTRA:          -8.461
REMARK INTER:                  -5.645
REMARK INTRA:                  -2.816
REMARK UNBOUND:                -2.452
REMARK SMILES CCCCCCCCCCCCCC[C@H](C)C(=O)[O-]
REMARK SMILES IDX 9 1 10 2 11 3 12 4 13 5 14 6 15 7 16 8 17 9 18 10 19 11 8 12
REMARK SMILES IDX 7 13 6 14 5 15 4 16 3 17 2 18 1 19
REMARK H PARENT
REMARK Flexibility Score: inf
ROOT
ATOM      1  C   UNL     1       4.075   1.740  -8.275  1.00  0.00     0.000 C 
ENDROOT
BRANCH   1   2
ATOM      2  C   UNL     1       4.183   0.290  -8.784  1.00  0.00     0.000 C 
BRANCH   2   3
ATOM      3  C   UNL     1       5.232   0.120  -9.896  1.00  0.00     0.000 C 
BRANCH   3   4
ATOM      4  C   UNL     1       5.809  -1.306  -9.951  1.00  0.00     0.000 C 
BRANCH   4   5
ATOM      5  C   UNL     1       4.804  -2.370  -9.480  1.00  0.00     0.001 C 
BRANCH   5   6
ATOM      6  C   UNL     1       5.354  -3.162  -8.279  1.00  0.00     0.009 C 
BRANCH   6   7
ATOM      7  C   UNL     1       6.693  -3.865  -8.591  1.00  0.00     0.032 C 
ATOM      8  C   UNL     1       6.533  -5.013  -9.601  1.00  0.00     0.014 C 
BRANCH   7   9
ATOM      9  C   UNL     1       7.310  -4.380  -7.318  1.00  0.00     0.044 C 
ATOM     10  O   UNL     1       6.790  -5.348  -6.700  1.00  0.00    -0.550 OA
ATOM     11  O   UNL     1       8.436  -3.759  -6.795  1.00  0.00    -0.550 OA
ENDBRANCH   7   9
ENDBRANCH   6   7
ENDBRANCH   5   6
ENDBRANCH   4   5
ENDBRANCH   3   4
ENDBRANCH   2   3
ENDBRANCH   1   2
BRANCH   1  12
ATOM     12  C   UNL     1       4.080   1.900  -6.742  1.00  0.00     0.000 C 
BRANCH  12  13
ATOM     13  C   UNL     1       4.149   0.555  -5.996  1.00  0.00    -0.000 C 
BRANCH  13  14
ATOM     14  C   UNL     1       5.435   0.410  -5.165  1.00  0.00    -0.000 C 
BRANCH  14  15
ATOM     15  C   UNL     1       6.299  -0.775  -5.620  1.00  0.00    -0.000 C 
BRANCH  15  16
ATOM     16  C   UNL     1       7.264  -0.359  -6.741  1.00  0.00    -0.000 C 
BRANCH  16  17
ATOM     17  C   UNL     1       7.751   1.097  -6.600  1.00  0.00    -0.000 C 
BRANCH  17  18
ATOM     18  C   UNL     1       7.827   1.836  -7.948  1.00  0.00    -0.003 C 
ATOM     19  C   UNL     1       7.431   3.302  -7.789  1.00  0.00     0.004 C 
ENDBRANCH  17  18
ENDBRANCH  16  17
ENDBRANCH  15  16
ENDBRANCH  14  15
ENDBRANCH  13  14
ENDBRANCH  12  13
ENDBRANCH   1  12
TORSDOF 14
ENDMDL
MODEL 8
REMARK VINA RESULT:    -3.281      1.453      3.781
REMARK INTER + INTRA:          -8.419
REMARK INTER:                  -6.084
REMARK INTRA:                  -2.335
REMARK UNBOUND:                -2.452
REMARK SMILES CCCCCCCCCCCCCC[C@H](C)C(=O)[O-]
REMARK SMILES IDX 9 1 10 2 11 3 12 4 13 5 14 6 15 7 16 8 17 9 18 10 19 11 8 12
REMARK SMILES IDX 7 13 6 14 5 15 4 16 3 17 2 18 1 19
REMARK H PARENT
REMARK Flexibility Score: inf
ROOT
ATOM      1  C   UNL     1       3.764   1.680  -6.690  1.00  0.00     0.000 C 
ENDROOT
BRANCH   1   2
ATOM      2  C   UNL     1       5.092   1.928  -5.949  1.00  0.00     0.000 C 
BRANCH   2   3
ATOM      3  C   UNL     1       5.565   0.709  -5.139  1.00  0.00     0.000 C 
BRANCH   3   4
ATOM      4  C   UNL     1       4.790  -0.572  -5.493  1.00  0.00     0.000 C 
BRANCH   4   5
ATOM      5  C   UNL     1       5.710  -1.791  -5.673  1.00  0.00     0.001 C 
BRANCH   5   6
ATOM      6  C   UNL     1       6.668  -1.594  -6.862  1.00  0.00     0.009 C 
BRANCH   6   7
ATOM      7  C   UNL     1       6.699  -2.812  -7.811  1.00  0.00     0.032 C 
ATOM      8  C   UNL     1       5.409  -2.947  -8.635  1.00  0.00     0.014 C 
BRANCH   7   9
ATOM      9  C   UNL     1       6.940  -4.071  -7.021  1.00  0.00     0.044 C 
ATOM     10  O   UNL     1       6.031  -4.934  -6.896  1.00  0.00    -0.550 OA
ATOM     11  O   UNL     1       8.161  -4.266  -6.389  1.00  0.00    -0.550 OA
ENDBRANCH   7   9
ENDBRANCH   6   7
ENDBRANCH   5   6
ENDBRANCH   4   5
ENDBRANCH   3   4
ENDBRANCH   2   3
ENDBRANCH   1   2
BRANCH   1  12
ATOM     12  C   UNL     1       3.831   1.814  -8.224  1.00  0.00     0.000 C 
BRANCH  12  13
ATOM     13  C   UNL     1       4.446   0.580  -8.909  1.00  0.00    -0.000 C 
BRANCH  13  14
ATOM     14  C   UNL     1       5.810   0.882  -9.550  1.00  0.00    -0.000 C 
BRANCH  14  15
ATOM     15  C   UNL     1       6.135   2.383  -9.563  1.00  0.00    -0.000 C 
BRANCH  15  16
ATOM     16  C   UNL     1       7.367   2.692  -8.699  1.00  0.00    -0.000 C 
BRANCH  16  17
ATOM     17  C   UNL     1       7.372   4.136  -8.161  1.00  0.00    -0.000 C 
BRANCH  17  18
ATOM     18  C   UNL     1       5.975   4.783  -8.172  1.00  0.00    -0.003 C 
ATOM     19  C   UNL     1       6.075   6.290  -8.397  1.00  0.00     0.004 C 
ENDBRANCH  17  18
ENDBRANCH  16  17
ENDBRANCH  15  16
ENDBRANCH  14  15
ENDBRANCH  13  14
ENDBRANCH  12  13
ENDBRANCH   1  12
TORSDOF 14
ENDMDL
MODEL 9
REMARK VINA RESULT:    -3.252      2.474      5.405
REMARK INTER + INTRA:          -8.366
REMARK INTER:                  -6.049
REMARK INTRA:                  -2.316
REMARK UNBOUND:                -2.452
REMARK SMILES CCCCCCCCCCCCCC[C@H](C)C(=O)[O-]
REMARK SMILES IDX 9 1 10 2 11 3 12 4 13 5 14 6 15 7 16 8 17 9 18 10 19 11 8 12
REMARK SMILES IDX 7 13 6 14 5 15 4 16 3 17 2 18 1 19
REMARK H PARENT
REMARK Flexibility Score: inf
ROOT
ATOM      1  C   UNL     1       9.262  -1.562  -8.343  1.00  0.00     0.000 C 
ENDROOT
BRANCH   1   2
ATOM      2  C   UNL     1       9.045  -0.783  -7.031  1.00  0.00     0.000 C 
BRANCH   2   3
ATOM      3  C   UNL     1       7.932   0.274  -7.136  1.00  0.00     0.000 C 
BRANCH   3   4
ATOM      4  C   UNL     1       7.477   0.509  -8.587  1.00  0.00     0.000 C 
BRANCH   4   5
ATOM      5  C   UNL     1       6.085   1.156  -8.675  1.00  0.00     0.001 C 
BRANCH   5   6
ATOM      6  C   UNL     1       5.047   0.353  -7.869  1.00  0.00     0.009 C 
BRANCH   6   7
ATOM      7  C   UNL     1       4.368   1.193  -6.766  1.00  0.00     0.032 C 
ATOM      8  C   UNL     1       4.789   2.671  -6.811  1.00  0.00     0.014 C 
BRANCH   7   9
ATOM      9  C   UNL     1       4.679   0.610  -5.413  1.00  0.00     0.044 C 
ATOM     10  O   UNL     1       5.335   1.271  -4.564  1.00  0.00    -0.550 OA
ATOM     11  O   UNL     1       4.277  -0.684  -5.110  1.00  0.00    -0.550 OA
ENDBRANCH   7   9
ENDBRANCH   6   7
ENDBRANCH   5   6
ENDBRANCH   4   5
ENDBRANCH   3   4
ENDBRANCH   2   3
ENDBRANCH   1   2
BRANCH   1  12
ATOM     12  C   UNL     1       9.357  -3.092  -8.191  1.00  0.00     0.000 C 
BRANCH  12  13
ATOM     13  C   UNL     1       8.234  -3.841  -8.931  1.00  0.00    -0.000 C 
BRANCH  13  14
ATOM     14  C   UNL     1       6.950  -3.003  -9.054  1.00  0.00    -0.000 C 
BRANCH  14  15
ATOM     15  C   UNL     1       5.845  -3.476  -8.099  1.00  0.00    -0.000 C 
BRANCH  15  16
ATOM     16  C   UNL     1       6.095  -2.972  -6.669  1.00  0.00    -0.000 C 
BRANCH  16  17
ATOM     17  C   UNL     1       5.624  -3.970  -5.593  1.00  0.00    -0.000 C 
BRANCH  17  18
ATOM     18  C   UNL     1       6.791  -4.601  -4.811  1.00  0.00    -0.003 C 
ATOM     19  C   UNL     1       7.585  -5.559  -5.696  1.00  0.00     0.004 C 
ENDBRANCH  17  18
ENDBRANCH  16  17
ENDBRANCH  15  16
ENDBRANCH  14  15
ENDBRANCH  13  14
ENDBRANCH  12  13
ENDBRANCH   1  12
TORSDOF 14
ENDMDL
