MODEL 1
REMARK VINA RESULT:    -4.169      0.000      0.000
REMARK INTER + INTRA:          -4.537
REMARK INTER:                  -4.413
REMARK INTRA:                  -0.124
REMARK UNBOUND:                -0.124
REMARK SMILES C=C(C)[C@@H]1CC=C(C)CC1
REMARK SMILES IDX 8 1 7 2 6 3 5 4 4 5 10 6 9 7 2 8 1 9 3 10
REMARK H PARENT
REMARK Flexibility Score: inf
ROOT
ATOM      1  C   UNL     1      -0.388  12.164  18.903  1.00  0.00     0.039 C 
ATOM      2  C   UNL     1       0.051  13.468  18.295  1.00  0.00    -0.077 C 
ATOM      3  C   UNL     1       1.340  13.614  17.919  1.00  0.00    -0.027 C 
ATOM      4  C   UNL     1       1.865  14.862  17.253  1.00  0.00     0.035 C 
ATOM      5  C   UNL     1       0.987  16.092  17.546  1.00  0.00     0.018 C 
ATOM      6  C   UNL     1      -0.491  15.748  17.303  1.00  0.00     0.013 C 
ATOM      7  C   UNL     1      -0.933  14.621  18.245  1.00  0.00     0.031 C 
ENDROOT
BRANCH   5   8
ATOM      8  C   UNL     1       1.426  17.301  16.731  1.00  0.00    -0.077 C 
ATOM      9  C   UNL     1       1.094  17.429  15.434  1.00  0.00     0.008 C 
ATOM     10  C   UNL     1       2.246  18.389  17.375  1.00  0.00     0.039 C 
ENDBRANCH   5   8
TORSDOF 1
ENDMDL
MODEL 2
REMARK VINA RESULT:    -4.116      2.604      3.427
REMARK INTER + INTRA:          -4.481
REMARK INTER:                  -4.359
REMARK INTRA:                  -0.121
REMARK UNBOUND:                -0.124
REMARK SMILES C=C(C)[C@@H]1CC=C(C)CC1
REMARK SMILES IDX 8 1 7 2 6 3 5 4 4 5 10 6 9 7 2 8 1 9 3 10
REMARK H PARENT
REMARK Flexibility Score: inf
ROOT
ATOM      1  C   UNL     1       0.037  12.708  18.626  1.00  0.00     0.039 C 
ATOM      2  C   UNL     1       0.783  13.164  17.403  1.00  0.00    -0.077 C 
ATOM      3  C   UNL     1       0.796  12.370  16.310  1.00  0.00    -0.027 C 
ATOM      4  C   UNL     1       1.470  12.763  15.018  1.00  0.00     0.035 C 
ATOM      5  C   UNL     1       2.563  13.826  15.231  1.00  0.00     0.018 C 
ATOM      6  C   UNL     1       2.016  14.969  16.101  1.00  0.00     0.013 C 
ATOM      7  C   UNL     1       1.606  14.435  17.479  1.00  0.00     0.031 C 
ENDROOT
BRANCH   5   8
ATOM      8  C   UNL     1       3.113  14.337  13.906  1.00  0.00    -0.077 C 
ATOM      9  C   UNL     1       4.223  13.809  13.360  1.00  0.00     0.008 C 
ATOM     10  C   UNL     1       2.410  15.452  13.176  1.00  0.00     0.039 C 
ENDBRANCH   5   8
TORSDOF 1
ENDMDL
MODEL 3
REMARK VINA RESULT:    -4.085      1.441      4.427
REMARK INTER + INTRA:          -4.448
REMARK INTER:                  -4.320
REMARK INTRA:                  -0.128
REMARK UNBOUND:                -0.124
REMARK SMILES C=C(C)[C@@H]1CC=C(C)CC1
REMARK SMILES IDX 8 1 7 2 6 3 5 4 4 5 10 6 9 7 2 8 1 9 3 10
REMARK H PARENT
REMARK Flexibility Score: inf
ROOT
ATOM      1  C   UNL     1       2.234  18.916  17.182  1.00  0.00     0.039 C 
ATOM      2  C   UNL     1       1.851  17.476  16.975  1.00  0.00    -0.077 C 
ATOM      3  C   UNL     1       2.171  16.570  17.925  1.00  0.00    -0.027 C 
ATOM      4  C   UNL     1       1.784  15.115  17.835  1.00  0.00     0.035 C 
ATOM      5  C   UNL     1       1.514  14.672  16.385  1.00  0.00     0.018 C 
ATOM      6  C   UNL     1       0.580  15.680  15.698  1.00  0.00     0.013 C 
ATOM      7  C   UNL     1       1.237  17.064  15.651  1.00  0.00     0.031 C 
ENDROOT
BRANCH   5   8
ATOM      8  C   UNL     1       0.959  13.255  16.326  1.00  0.00    -0.077 C 
ATOM      9  C   UNL     1       0.167  12.773  17.300  1.00  0.00     0.008 C 
ATOM     10  C   UNL     1       1.289  12.363  15.157  1.00  0.00     0.039 C 
ENDBRANCH   5   8
TORSDOF 1
ENDMDL
MODEL 4
REMARK VINA RESULT:    -4.052      2.343      4.612
REMARK INTER + INTRA:          -4.412
REMARK INTER:                  -4.289
REMARK INTRA:                  -0.123
REMARK UNBOUND:                -0.124
REMARK SMILES C=C(C)[C@@H]1CC=C(C)CC1
REMARK SMILES IDX 8 1 7 2 6 3 5 4 4 5 10 6 9 7 2 8 1 9 3 10
REMARK H PARENT
REMARK Flexibility Score: inf
ROOT
ATOM      1  C   UNL     1       3.259  13.494  13.340  1.00  0.00     0.039 C 
ATOM      2  C   UNL     1       2.352  13.421  14.538  1.00  0.00    -0.077 C 
ATOM      3  C   UNL     1       2.582  14.243  15.585  1.00  0.00    -0.027 C 
ATOM      4  C   UNL     1       1.699  14.283  16.807  1.00  0.00     0.035 C 
ATOM      5  C   UNL     1       0.900  12.979  16.992  1.00  0.00     0.018 C 
ATOM      6  C   UNL     1       0.229  12.588  15.666  1.00  0.00     0.013 C 
ATOM      7  C   UNL     1       1.291  12.339  14.589  1.00  0.00     0.031 C 
ENDROOT
BRANCH   5   8
ATOM      8  C   UNL     1      -0.111  13.097  18.124  1.00  0.00    -0.077 C 
ATOM      9  C   UNL     1      -0.247  12.125  19.044  1.00  0.00     0.008 C 
ATOM     10  C   UNL     1      -0.981  14.322  18.236  1.00  0.00     0.039 C 
ENDBRANCH   5   8
TORSDOF 1
ENDMDL
MODEL 5
REMARK VINA RESULT:    -3.987      0.555      1.633
REMARK INTER + INTRA:          -4.344
REMARK INTER:                  -4.221
REMARK INTRA:                  -0.123
REMARK UNBOUND:                -0.124
REMARK SMILES C=C(C)[C@@H]1CC=C(C)CC1
REMARK SMILES IDX 8 1 7 2 6 3 5 4 4 5 10 6 9 7 2 8 1 9 3 10
REMARK H PARENT
REMARK Flexibility Score: inf
ROOT
ATOM      1  C   UNL     1      -0.098  12.370  18.841  1.00  0.00     0.039 C 
ATOM      2  C   UNL     1       0.280  13.705  18.260  1.00  0.00    -0.077 C 
ATOM      3  C   UNL     1      -0.691  14.500  17.758  1.00  0.00    -0.027 C 
ATOM      4  C   UNL     1      -0.420  15.876  17.204  1.00  0.00     0.035 C 
ATOM      5  C   UNL     1       1.045  16.048  16.760  1.00  0.00     0.018 C 
ATOM      6  C   UNL     1       1.986  15.551  17.868  1.00  0.00     0.013 C 
ATOM      7  C   UNL     1       1.749  14.060  18.135  1.00  0.00     0.031 C 
ENDROOT
BRANCH   5   8
ATOM      8  C   UNL     1       1.346  17.488  16.366  1.00  0.00    -0.077 C 
ATOM      9  C   UNL     1       0.927  17.993  15.192  1.00  0.00     0.008 C 
ATOM     10  C   UNL     1       2.122  18.380  17.299  1.00  0.00     0.039 C 
ENDBRANCH   5   8
TORSDOF 1
ENDMDL
MODEL 6
REMARK VINA RESULT:    -3.851      1.240      4.462
REMARK INTER + INTRA:          -4.200
REMARK INTER:                  -4.072
REMARK INTRA:                  -0.128
REMARK UNBOUND:                -0.124
REMARK SMILES C=C(C)[C@@H]1CC=C(C)CC1
REMARK SMILES IDX 8 1 7 2 6 3 5 4 4 5 10 6 9 7 2 8 1 9 3 10
REMARK H PARENT
REMARK Flexibility Score: inf
ROOT
ATOM      1  C   UNL     1       2.141  18.693  17.024  1.00  0.00     0.039 C 
ATOM      2  C   UNL     1       1.665  17.267  17.033  1.00  0.00    -0.077 C 
ATOM      3  C   UNL     1       0.680  16.899  16.186  1.00  0.00    -0.027 C 
ATOM      4  C   UNL     1       0.171  15.483  16.082  1.00  0.00     0.035 C 
ATOM      5  C   UNL     1       0.457  14.667  17.356  1.00  0.00     0.018 C 
ATOM      6  C   UNL     1       1.926  14.846  17.771  1.00  0.00     0.013 C 
ATOM      7  C   UNL     1       2.211  16.320  18.084  1.00  0.00     0.031 C 
ENDROOT
BRANCH   5   8
ATOM      8  C   UNL     1       0.096  13.199  17.175  1.00  0.00    -0.077 C 
ATOM      9  C   UNL     1       0.184  12.601  15.973  1.00  0.00     0.008 C 
ATOM     10  C   UNL     1      -0.366  12.383  18.354  1.00  0.00     0.039 C 
ENDBRANCH   5   8
TORSDOF 1
ENDMDL
MODEL 7
REMARK VINA RESULT:    -3.847      2.747      3.563
REMARK INTER + INTRA:          -4.196
REMARK INTER:                  -4.070
REMARK INTRA:                  -0.126
REMARK UNBOUND:                -0.124
REMARK SMILES C=C(C)[C@@H]1CC=C(C)CC1
REMARK SMILES IDX 8 1 7 2 6 3 5 4 4 5 10 6 9 7 2 8 1 9 3 10
REMARK H PARENT
REMARK Flexibility Score: inf
ROOT
ATOM      1  C   UNL     1       1.125  10.856  13.751  1.00  0.00     0.039 C 
ATOM      2  C   UNL     1       1.239  12.163  14.486  1.00  0.00    -0.077 C 
ATOM      3  C   UNL     1       0.355  12.442  15.469  1.00  0.00    -0.027 C 
ATOM      4  C   UNL     1       0.419  13.700  16.298  1.00  0.00     0.035 C 
ATOM      5  C   UNL     1       1.184  14.830  15.585  1.00  0.00     0.018 C 
ATOM      6  C   UNL     1       2.516  14.293  15.039  1.00  0.00     0.013 C 
ATOM      7  C   UNL     1       2.258  13.182  14.014  1.00  0.00     0.031 C 
ENDROOT
BRANCH   5   8
ATOM      8  C   UNL     1       1.390  16.031  16.499  1.00  0.00    -0.077 C 
ATOM      9  C   UNL     1       1.821  15.880  17.764  1.00  0.00     0.008 C 
ATOM     10  C   UNL     1       1.118  17.422  15.990  1.00  0.00     0.039 C 
ENDBRANCH   5   8
TORSDOF 1
ENDMDL
MODEL 8
REMARK VINA RESULT:    -3.830      3.878      5.438
REMARK INTER + INTRA:          -4.178
REMARK INTER:                  -4.049
REMARK INTRA:                  -0.130
REMARK UNBOUND:                -0.124
REMARK SMILES C=C(C)[C@@H]1CC=C(C)CC1
REMARK SMILES IDX 8 1 7 2 6 3 5 4 4 5 10 6 9 7 2 8 1 9 3 10
REMARK H PARENT
REMARK Flexibility Score: inf
ROOT
ATOM      1  C   UNL     1       1.865  14.976  17.607  1.00  0.00     0.039 C 
ATOM      2  C   UNL     1       1.628  14.043  16.451  1.00  0.00    -0.077 C 
ATOM      3  C   UNL     1       0.509  13.286  16.439  1.00  0.00    -0.027 C 
ATOM      4  C   UNL     1       0.156  12.361  15.301  1.00  0.00     0.035 C 
ATOM      5  C   UNL     1       1.391  11.951  14.478  1.00  0.00     0.018 C 
ATOM      6  C   UNL     1       2.218  13.197  14.125  1.00  0.00     0.013 C 
ATOM      7  C   UNL     1       2.713  13.883  15.405  1.00  0.00     0.031 C 
ENDROOT
BRANCH   5   8
ATOM      8  C   UNL     1       1.001  11.162  13.236  1.00  0.00    -0.077 C 
ATOM      9  C   UNL     1      -0.235  10.650  13.092  1.00  0.00     0.008 C 
ATOM     10  C   UNL     1       2.004  10.944  12.133  1.00  0.00     0.039 C 
ENDBRANCH   5   8
TORSDOF 1
ENDMDL
MODEL 9
REMARK VINA RESULT:    -3.697      3.371      4.734
REMARK INTER + INTRA:          -4.037
REMARK INTER:                  -3.907
REMARK INTRA:                  -0.130
REMARK UNBOUND:                -0.124
REMARK SMILES C=C(C)[C@@H]1CC=C(C)CC1
REMARK SMILES IDX 8 1 7 2 6 3 5 4 4 5 10 6 9 7 2 8 1 9 3 10
REMARK H PARENT
REMARK Flexibility Score: inf
ROOT
ATOM      1  C   UNL     1       2.318  11.844  11.880  1.00  0.00     0.039 C 
ATOM      2  C   UNL     1       2.018  12.380  13.253  1.00  0.00    -0.077 C 
ATOM      3  C   UNL     1       2.681  13.473  13.689  1.00  0.00    -0.027 C 
ATOM      4  C   UNL     1       2.413  14.116  15.027  1.00  0.00     0.035 C 
ATOM      5  C   UNL     1       1.769  13.137  16.026  1.00  0.00     0.018 C 
ATOM      6  C   UNL     1       0.589  12.413  15.358  1.00  0.00     0.013 C 
ATOM      7  C   UNL     1       1.081  11.600  14.154  1.00  0.00     0.031 C 
ENDROOT
BRANCH   5   8
ATOM      8  C   UNL     1       1.347  13.841  17.308  1.00  0.00    -0.077 C 
ATOM      9  C   UNL     1       1.529  15.164  17.472  1.00  0.00     0.008 C 
ATOM     10  C   UNL     1       0.705  13.058  18.424  1.00  0.00     0.039 C 
ENDBRANCH   5   8
TORSDOF 1
ENDMDL
