MODEL 1
REMARK VINA RESULT:    -5.698      0.000      0.000
REMARK INTER + INTRA:          -7.083
REMARK INTER:                  -6.864
REMARK INTRA:                  -0.219
REMARK UNBOUND:                -0.219
REMARK SMILES NC(=O)C[C@@H]([NH3+])C(=O)[O-]
REMARK SMILES IDX 4 1 5 2 6 3 7 7 8 8 9 9 2 10 3 11 1 12
REMARK H PARENT 6 4 6 5 6 6 1 13 1 14
REMARK Flexibility Score: inf
ROOT
ATOM      1  C   UNL     1     159.929 159.673 158.959  1.00  0.00     0.171 C 
ENDROOT
BRANCH   1   2
ATOM      2  C   UNL     1     160.830 160.601 159.802  1.00  0.00     0.237 C 
BRANCH   2   3
ATOM      3  N   UNL     1     160.659 162.012 159.432  1.00  0.00    -0.350 N 
ATOM      4  H   UNL     1     160.197 162.553 160.198  1.00  0.00     0.345 HD
ATOM      5  H   UNL     1     161.594 162.439 159.234  1.00  0.00     0.345 HD
ATOM      6  H   UNL     1     160.078 162.082 158.564  1.00  0.00     0.345 HD
ENDBRANCH   2   3
BRANCH   2   7
ATOM      7  C   UNL     1     160.602 160.396 161.279  1.00  0.00     0.100 C 
ATOM      8  O   UNL     1     160.325 159.248 161.718  1.00  0.00    -0.544 OA
ATOM      9  O   UNL     1     160.642 161.471 162.159  1.00  0.00    -0.544 OA
ENDBRANCH   2   7
ENDBRANCH   1   2
BRANCH   1  10
ATOM     10  C   UNL     1     160.278 159.675 157.496  1.00  0.00     0.223 C 
ATOM     11  O   UNL     1     160.604 160.753 156.931  1.00  0.00    -0.275 OA
ATOM     12  N   UNL     1     160.262 158.461 156.746  1.00  0.00    -0.369 N 
ATOM     13  H   UNL     1     160.514 158.465 155.732  1.00  0.00     0.159 HD
ATOM     14  H   UNL     1     160.002 157.557 157.199  1.00  0.00     0.159 HD
ENDBRANCH   1  10
TORSDOF 4
ENDMDL
MODEL 2
REMARK VINA RESULT:    -5.683      2.558      4.441
REMARK INTER + INTRA:          -7.064
REMARK INTER:                  -6.848
REMARK INTRA:                  -0.216
REMARK UNBOUND:                -0.219
REMARK SMILES NC(=O)C[C@@H]([NH3+])C(=O)[O-]
REMARK SMILES IDX 4 1 5 2 6 3 7 7 8 8 9 9 2 10 3 11 1 12
REMARK H PARENT 6 4 6 5 6 6 1 13 1 14
REMARK Flexibility Score: inf
ROOT
ATOM      1  C   UNL     1     160.999 159.636 161.940  1.00  0.00     0.171 C 
ENDROOT
BRANCH   1   2
ATOM      2  C   UNL     1     160.228 160.634 161.050  1.00  0.00     0.237 C 
BRANCH   2   3
ATOM      3  N   UNL     1     160.557 162.027 161.382  1.00  0.00    -0.350 N 
ATOM      4  H   UNL     1     159.763 162.499 161.870  1.00  0.00     0.345 HD
ATOM      5  H   UNL     1     161.398 162.050 162.004  1.00  0.00     0.345 HD
ATOM      6  H   UNL     1     160.785 162.554 160.507  1.00  0.00     0.345 HD
ENDBRANCH   2   3
BRANCH   2   7
ATOM      7  C   UNL     1     160.456 160.356 159.585  1.00  0.00     0.100 C 
ATOM      8  O   UNL     1     160.575 159.168 159.183  1.00  0.00    -0.544 OA
ATOM      9  O   UNL     1     160.590 161.400 158.678  1.00  0.00    -0.544 OA
ENDBRANCH   2   7
ENDBRANCH   1   2
BRANCH   1  10
ATOM     10  C   UNL     1     160.639 159.736 163.397  1.00  0.00     0.223 C 
ATOM     11  O   UNL     1     160.064 160.769 163.831  1.00  0.00    -0.275 OA
ATOM     12  N   UNL     1     160.923 158.658 164.290  1.00  0.00    -0.369 N 
ATOM     13  H   UNL     1     160.662 158.728 165.299  1.00  0.00     0.159 HD
ATOM     14  H   UNL     1     161.391 157.791 163.947  1.00  0.00     0.159 HD
ENDBRANCH   1  10
TORSDOF 4
ENDMDL
MODEL 3
REMARK VINA RESULT:    -5.639      1.541      2.217
REMARK INTER + INTRA:          -7.012
REMARK INTER:                  -6.837
REMARK INTRA:                  -0.175
REMARK UNBOUND:                -0.219
REMARK SMILES NC(=O)C[C@@H]([NH3+])C(=O)[O-]
REMARK SMILES IDX 4 1 5 2 6 3 7 7 8 8 9 9 2 10 3 11 1 12
REMARK H PARENT 6 4 6 5 6 6 1 13 1 14
REMARK Flexibility Score: inf
ROOT
ATOM      1  C   UNL     1     161.143 161.354 159.064  1.00  0.00     0.171 C 
ENDROOT
BRANCH   1   2
ATOM      2  C   UNL     1     160.227 160.408 159.869  1.00  0.00     0.237 C 
BRANCH   2   3
ATOM      3  N   UNL     1     160.417 159.004 159.482  1.00  0.00    -0.350 N 
ATOM      4  H   UNL     1     159.531 158.587 159.116  1.00  0.00     0.345 HD
ATOM      5  H   UNL     1     161.152 158.941 158.740  1.00  0.00     0.345 HD
ATOM      6  H   UNL     1     160.741 158.450 160.309  1.00  0.00     0.345 HD
ENDBRANCH   2   3
BRANCH   2   7
ATOM      7  C   UNL     1     160.414 160.593 161.354  1.00  0.00     0.100 C 
ATOM      8  O   UNL     1     160.658 161.737 161.819  1.00  0.00    -0.544 OA
ATOM      9  O   UNL     1     160.373 159.502 162.215  1.00  0.00    -0.544 OA
ENDBRANCH   2   7
ENDBRANCH   1   2
BRANCH   1  10
ATOM     10  C   UNL     1     160.872 161.329 157.585  1.00  0.00     0.223 C 
ATOM     11  O   UNL     1     160.263 160.351 157.076  1.00  0.00    -0.275 OA
ATOM     12  N   UNL     1     161.282 162.416 156.754  1.00  0.00    -0.369 N 
ATOM     13  H   UNL     1     161.083 162.399 155.729  1.00  0.00     0.159 HD
ATOM     14  H   UNL     1     161.780 163.238 157.160  1.00  0.00     0.159 HD
ENDBRANCH   1  10
TORSDOF 4
ENDMDL
MODEL 4
REMARK VINA RESULT:    -5.625      2.543      4.850
REMARK INTER + INTRA:          -6.995
REMARK INTER:                  -6.777
REMARK INTRA:                  -0.218
REMARK UNBOUND:                -0.219
REMARK SMILES NC(=O)C[C@@H]([NH3+])C(=O)[O-]
REMARK SMILES IDX 4 1 5 2 6 3 7 7 8 8 9 9 2 10 3 11 1 12
REMARK H PARENT 6 4 6 5 6 6 1 13 1 14
REMARK Flexibility Score: inf
ROOT
ATOM      1  C   UNL     1     160.001 161.367 161.827  1.00  0.00     0.171 C 
ENDROOT
BRANCH   1   2
ATOM      2  C   UNL     1     160.829 160.344 161.020  1.00  0.00     0.237 C 
BRANCH   2   3
ATOM      3  N   UNL     1     160.531 158.963 161.423  1.00  0.00    -0.350 N 
ATOM      4  H   UNL     1     159.792 158.933 162.161  1.00  0.00     0.345 HD
ATOM      5  H   UNL     1     160.202 158.419 160.592  1.00  0.00     0.345 HD
ATOM      6  H   UNL     1     161.399 158.506 161.788  1.00  0.00     0.345 HD
ENDBRANCH   2   3
BRANCH   2   7
ATOM      7  C   UNL     1     160.638 160.530 159.536  1.00  0.00     0.100 C 
ATOM      8  O   UNL     1     160.503 161.688 159.060  1.00  0.00    -0.544 OA
ATOM      9  O   UNL     1     160.555 159.431 158.688  1.00  0.00    -0.544 OA
ENDBRANCH   2   7
ENDBRANCH   1   2
BRANCH   1  10
ATOM     10  C   UNL     1     160.229 161.279 163.311  1.00  0.00     0.223 C 
ATOM     11  O   UNL     1     161.006 160.403 163.775  1.00  0.00    -0.275 OA
ATOM     12  N   UNL     1     159.587 162.194 164.199  1.00  0.00    -0.369 N 
ATOM     13  H   UNL     1     159.756 162.136 165.228  1.00  0.00     0.159 HD
ATOM     14  H   UNL     1     158.946 162.932 163.832  1.00  0.00     0.159 HD
ENDBRANCH   1  10
TORSDOF 4
ENDMDL
MODEL 5
REMARK VINA RESULT:    -5.598      1.566      4.265
REMARK INTER + INTRA:          -6.962
REMARK INTER:                  -6.709
REMARK INTRA:                  -0.253
REMARK UNBOUND:                -0.219
REMARK SMILES NC(=O)C[C@@H]([NH3+])C(=O)[O-]
REMARK SMILES IDX 4 1 5 2 6 3 7 7 8 8 9 9 2 10 3 11 1 12
REMARK H PARENT 6 4 6 5 6 6 1 13 1 14
REMARK Flexibility Score: inf
ROOT
ATOM      1  C   UNL     1     160.639 160.877 159.903  1.00  0.00     0.171 C 
ENDROOT
BRANCH   1   2
ATOM      2  C   UNL     1     160.340 159.615 159.066  1.00  0.00     0.237 C 
BRANCH   2   3
ATOM      3  N   UNL     1     159.082 158.976 159.473  1.00  0.00    -0.350 N 
ATOM      4  H   UNL     1     158.367 159.024 158.712  1.00  0.00     0.345 HD
ATOM      5  H   UNL     1     159.258 157.972 159.708  1.00  0.00     0.345 HD
ATOM      6  H   UNL     1     158.705 159.449 160.328  1.00  0.00     0.345 HD
ENDBRANCH   2   3
BRANCH   2   7
ATOM      7  C   UNL     1     160.341 159.921 157.589  1.00  0.00     0.100 C 
ATOM      8  O   UNL     1     159.943 159.053 156.768  1.00  0.00    -0.544 OA
ATOM      9  O   UNL     1     160.826 161.134 157.117  1.00  0.00    -0.544 OA
ENDBRANCH   2   7
ENDBRANCH   1   2
BRANCH   1  10
ATOM     10  C   UNL     1     160.463 160.666 161.382  1.00  0.00     0.223 C 
ATOM     11  O   UNL     1     160.587 159.512 161.869  1.00  0.00    -0.275 OA
ATOM     12  N   UNL     1     160.177 161.770 162.242  1.00  0.00    -0.369 N 
ATOM     13  H   UNL     1     160.065 161.620 163.270  1.00  0.00     0.159 HD
ATOM     14  H   UNL     1     160.079 162.735 161.857  1.00  0.00     0.159 HD
ENDBRANCH   1  10
TORSDOF 4
ENDMDL
MODEL 6
REMARK VINA RESULT:    -5.540      1.938      3.947
REMARK INTER + INTRA:          -6.892
REMARK INTER:                  -6.637
REMARK INTRA:                  -0.256
REMARK UNBOUND:                -0.219
REMARK SMILES NC(=O)C[C@@H]([NH3+])C(=O)[O-]
REMARK SMILES IDX 4 1 5 2 6 3 7 7 8 8 9 9 2 10 3 11 1 12
REMARK H PARENT 6 4 6 5 6 6 1 13 1 14
REMARK Flexibility Score: inf
ROOT
ATOM      1  C   UNL     1     160.529 159.999 159.855  1.00  0.00     0.171 C 
ENDROOT
BRANCH   1   2
ATOM      2  C   UNL     1     160.717 161.314 159.070  1.00  0.00     0.237 C 
BRANCH   2   3
ATOM      3  N   UNL     1     161.933 162.027 159.484  1.00  0.00    -0.350 N 
ATOM      4  H   UNL     1     162.536 162.259 158.662  1.00  0.00     0.345 HD
ATOM      5  H   UNL     1     161.670 162.915 159.971  1.00  0.00     0.345 HD
ATOM      6  H   UNL     1     162.479 161.437 160.154  1.00  0.00     0.345 HD
ENDBRANCH   2   3
BRANCH   2   7
ATOM      7  C   UNL     1     160.709 161.072 157.581  1.00  0.00     0.100 C 
ATOM      8  O   UNL     1     160.366 159.948 157.130  1.00  0.00    -0.544 OA
ATOM      9  O   UNL     1     161.129 162.062 156.700  1.00  0.00    -0.544 OA
ENDBRANCH   2   7
ENDBRANCH   1   2
BRANCH   1  10
ATOM     10  C   UNL     1     160.591 160.182 161.347  1.00  0.00     0.223 C 
ATOM     11  O   UNL     1     160.407 161.324 161.846  1.00  0.00    -0.275 OA
ATOM     12  N   UNL     1     160.835 159.067 162.205  1.00  0.00    -0.369 N 
ATOM     13  H   UNL     1     160.867 159.197 163.241  1.00  0.00     0.159 HD
ATOM     14  H   UNL     1     160.981 158.112 161.810  1.00  0.00     0.159 HD
ENDBRANCH   1  10
TORSDOF 4
ENDMDL
MODEL 7
REMARK VINA RESULT:    -5.530      2.018      2.591
REMARK INTER + INTRA:          -6.880
REMARK INTER:                  -6.649
REMARK INTRA:                  -0.231
REMARK UNBOUND:                -0.219
REMARK SMILES NC(=O)C[C@@H]([NH3+])C(=O)[O-]
REMARK SMILES IDX 4 1 5 2 6 3 7 7 8 8 9 9 2 10 3 11 1 12
REMARK H PARENT 6 4 6 5 6 6 1 13 1 14
REMARK Flexibility Score: inf
ROOT
ATOM      1  C   UNL     1     160.408 161.162 160.830  1.00  0.00     0.171 C 
ENDROOT
BRANCH   1   2
ATOM      2  C   UNL     1     160.531 159.938 161.762  1.00  0.00     0.237 C 
BRANCH   2   3
ATOM      3  N   UNL     1     161.678 159.094 161.406  1.00  0.00    -0.350 N 
ATOM      4  H   UNL     1     161.868 158.378 162.144  1.00  0.00     0.345 HD
ATOM      5  H   UNL     1     161.486 158.604 160.502  1.00  0.00     0.345 HD
ATOM      6  H   UNL     1     162.530 159.689 161.280  1.00  0.00     0.345 HD
ENDBRANCH   2   3
BRANCH   2   7
ATOM      7  C   UNL     1     160.590 160.353 163.211  1.00  0.00     0.100 C 
ATOM      8  O   UNL     1     160.571 159.478 164.116  1.00  0.00    -0.544 OA
ATOM      9  O   UNL     1     160.613 161.698 163.563  1.00  0.00    -0.544 OA
ENDBRANCH   2   7
ENDBRANCH   1   2
BRANCH   1  10
ATOM     10  C   UNL     1     160.562 160.819 159.374  1.00  0.00     0.223 C 
ATOM     11  O   UNL     1     160.365 159.637 158.984  1.00  0.00    -0.275 OA
ATOM     12  N   UNL     1     160.910 161.827 158.425  1.00  0.00    -0.369 N 
ATOM     13  H   UNL     1     161.006 161.586 157.413  1.00  0.00     0.159 HD
ATOM     14  H   UNL     1     161.069 162.813 158.728  1.00  0.00     0.159 HD
ENDBRANCH   1  10
TORSDOF 4
ENDMDL
MODEL 8
REMARK VINA RESULT:    -5.442      2.207      2.661
REMARK INTER + INTRA:          -6.774
REMARK INTER:                  -6.425
REMARK INTRA:                  -0.349
REMARK UNBOUND:                -0.219
REMARK SMILES NC(=O)C[C@@H]([NH3+])C(=O)[O-]
REMARK SMILES IDX 4 1 5 2 6 3 7 7 8 8 9 9 2 10 3 11 1 12
REMARK H PARENT 6 4 6 5 6 6 1 13 1 14
REMARK Flexibility Score: inf
ROOT
ATOM      1  C   UNL     1     160.967 159.676 161.037  1.00  0.00     0.171 C 
ENDROOT
BRANCH   1   2
ATOM      2  C   UNL     1     160.639 160.972 161.809  1.00  0.00     0.237 C 
BRANCH   2   3
ATOM      3  N   UNL     1     159.566 161.737 161.160  1.00  0.00    -0.350 N 
ATOM      4  H   UNL     1     158.680 161.184 161.112  1.00  0.00     0.345 HD
ATOM      5  H   UNL     1     159.386 162.615 161.700  1.00  0.00     0.345 HD
ATOM      6  H   UNL     1     159.857 162.003 160.191  1.00  0.00     0.345 HD
ENDBRANCH   2   3
BRANCH   2   7
ATOM      7  C   UNL     1     160.304 160.683 163.252  1.00  0.00     0.100 C 
ATOM      8  O   UNL     1     160.077 161.634 164.046  1.00  0.00    -0.544 OA
ATOM      9  O   UNL     1     160.296 159.378 163.730  1.00  0.00    -0.544 OA
ENDBRANCH   2   7
ENDBRANCH   1   2
BRANCH   1  10
ATOM     10  C   UNL     1     159.980 159.368 159.945  1.00  0.00     0.223 C 
ATOM     11  O   UNL     1     158.798 159.046 160.240  1.00  0.00    -0.275 OA
ATOM     12  N   UNL     1     160.366 159.458 158.573  1.00  0.00    -0.369 N 
ATOM     13  H   UNL     1     159.674 159.253 157.818  1.00  0.00     0.159 HD
ATOM     14  H   UNL     1     161.338 159.731 158.309  1.00  0.00     0.159 HD
ENDBRANCH   1  10
TORSDOF 4
ENDMDL
MODEL 9
REMARK VINA RESULT:    -5.107      2.385      3.011
REMARK INTER + INTRA:          -6.371
REMARK INTER:                  -6.348
REMARK INTRA:                  -0.023
REMARK UNBOUND:                -0.219
REMARK SMILES NC(=O)C[C@@H]([NH3+])C(=O)[O-]
REMARK SMILES IDX 4 1 5 2 6 3 7 7 8 8 9 9 2 10 3 11 1 12
REMARK H PARENT 6 4 6 5 6 6 1 13 1 14
REMARK Flexibility Score: inf
ROOT
ATOM      1  C   UNL     1     159.755 161.479 161.137  1.00  0.00     0.171 C 
ENDROOT
BRANCH   1   2
ATOM      2  C   UNL     1     160.344 161.305 162.553  1.00  0.00     0.237 C 
BRANCH   2   3
ATOM      3  N   UNL     1     159.492 161.921 163.578  1.00  0.00    -0.350 N 
ATOM      4  H   UNL     1     159.987 161.985 164.497  1.00  0.00     0.345 HD
ATOM      5  H   UNL     1     159.218 162.884 163.274  1.00  0.00     0.345 HD
ATOM      6  H   UNL     1     158.618 161.357 163.699  1.00  0.00     0.345 HD
ENDBRANCH   2   3
BRANCH   2   7
ATOM      7  C   UNL     1     160.605 159.852 162.865  1.00  0.00     0.100 C 
ATOM      8  O   UNL     1     160.417 158.976 161.980  1.00  0.00    -0.544 OA
ATOM      9  O   UNL     1     161.002 159.461 164.139  1.00  0.00    -0.544 OA
ENDBRANCH   2   7
ENDBRANCH   1   2
BRANCH   1  10
ATOM     10  C   UNL     1     160.804 161.547 160.061  1.00  0.00     0.223 C 
ATOM     11  O   UNL     1     161.899 162.125 160.290  1.00  0.00    -0.275 OA
ATOM     12  N   UNL     1     160.576 160.943 158.788  1.00  0.00    -0.369 N 
ATOM     13  H   UNL     1     161.311 160.984 158.047  1.00  0.00     0.159 HD
ATOM     14  H   UNL     1     159.678 160.452 158.583  1.00  0.00     0.159 HD
ENDBRANCH   1  10
TORSDOF 4
ENDMDL
