MODEL 1
REMARK VINA RESULT:    -4.249      0.000      0.000
REMARK INTER + INTRA:          -4.630
REMARK INTER:                  -4.498
REMARK INTRA:                  -0.132
REMARK UNBOUND:                -0.132
REMARK SMILES C=C(C)[C@H]1CC=C(C)CC1
REMARK SMILES IDX 8 1 7 2 6 3 5 4 4 5 10 6 9 7 2 8 1 9 3 10
REMARK H PARENT
REMARK Flexibility Score: inf
ROOT
ATOM      1  C   UNL     1     162.530 165.386 203.729  1.00  0.00     0.039 C 
ATOM      2  C   UNL     1     163.174 164.614 202.609  1.00  0.00    -0.077 C 
ATOM      3  C   UNL     1     164.164 163.742 202.899  1.00  0.00    -0.027 C 
ATOM      4  C   UNL     1     164.907 162.962 201.844  1.00  0.00     0.035 C 
ATOM      5  C   UNL     1     164.099 162.828 200.542  1.00  0.00     0.018 C 
ATOM      6  C   UNL     1     163.547 164.201 200.128  1.00  0.00     0.013 C 
ATOM      7  C   UNL     1     162.603 164.739 201.210  1.00  0.00     0.031 C 
ENDROOT
BRANCH   5   8
ATOM      8  C   UNL     1     164.934 162.204 199.432  1.00  0.00    -0.077 C 
ATOM      9  C   UNL     1     166.249 162.001 199.613  1.00  0.00     0.008 C 
ATOM     10  C   UNL     1     164.319 161.811 198.111  1.00  0.00     0.039 C 
ENDBRANCH   5   8
TORSDOF 1
ENDMDL
MODEL 2
REMARK VINA RESULT:    -4.248      5.862      7.664
REMARK INTER + INTRA:          -4.628
REMARK INTER:                  -4.508
REMARK INTRA:                  -0.120
REMARK UNBOUND:                -0.132
REMARK SMILES C=C(C)[C@H]1CC=C(C)CC1
REMARK SMILES IDX 8 1 7 2 6 3 5 4 4 5 10 6 9 7 2 8 1 9 3 10
REMARK H PARENT
REMARK Flexibility Score: inf
ROOT
ATOM      1  C   UNL     1     168.631 169.746 198.442  1.00  0.00     0.039 C 
ATOM      2  C   UNL     1     167.562 169.631 199.495  1.00  0.00    -0.077 C 
ATOM      3  C   UNL     1     166.322 170.093 199.223  1.00  0.00    -0.027 C 
ATOM      4  C   UNL     1     165.199 170.072 200.229  1.00  0.00     0.035 C 
ATOM      5  C   UNL     1     165.422 169.021 201.330  1.00  0.00     0.018 C 
ATOM      6  C   UNL     1     166.848 169.144 201.887  1.00  0.00     0.013 C 
ATOM      7  C   UNL     1     167.874 168.883 200.777  1.00  0.00     0.031 C 
ENDROOT
BRANCH   5   8
ATOM      8  C   UNL     1     164.379 169.141 202.432  1.00  0.00    -0.077 C 
ATOM      9  C   UNL     1     163.371 168.257 202.504  1.00  0.00     0.008 C 
ATOM     10  C   UNL     1     164.439 170.249 203.455  1.00  0.00     0.039 C 
ENDBRANCH   5   8
TORSDOF 1
ENDMDL
MODEL 3
REMARK VINA RESULT:    -4.235      1.992      4.164
REMARK INTER + INTRA:          -4.615
REMARK INTER:                  -4.495
REMARK INTRA:                  -0.120
REMARK UNBOUND:                -0.132
REMARK SMILES C=C(C)[C@H]1CC=C(C)CC1
REMARK SMILES IDX 8 1 7 2 6 3 5 4 4 5 10 6 9 7 2 8 1 9 3 10
REMARK H PARENT
REMARK Flexibility Score: inf
ROOT
ATOM      1  C   UNL     1     163.373 162.249 198.430  1.00  0.00     0.039 C 
ATOM      2  C   UNL     1     164.443 162.377 199.480  1.00  0.00    -0.077 C 
ATOM      3  C   UNL     1     165.680 161.899 199.218  1.00  0.00    -0.027 C 
ATOM      4  C   UNL     1     166.803 161.932 200.223  1.00  0.00     0.035 C 
ATOM      5  C   UNL     1     166.589 163.009 201.301  1.00  0.00     0.018 C 
ATOM      6  C   UNL     1     165.162 162.910 201.861  1.00  0.00     0.013 C 
ATOM      7  C   UNL     1     164.138 163.156 200.745  1.00  0.00     0.031 C 
ENDROOT
BRANCH   5   8
ATOM      8  C   UNL     1     167.631 162.904 202.406  1.00  0.00    -0.077 C 
ATOM      9  C   UNL     1     168.640 163.788 202.466  1.00  0.00     0.008 C 
ATOM     10  C   UNL     1     167.569 161.811 203.445  1.00  0.00     0.039 C 
ENDBRANCH   5   8
TORSDOF 1
ENDMDL
MODEL 4
REMARK VINA RESULT:    -4.221      6.336      7.163
REMARK INTER + INTRA:          -4.600
REMARK INTER:                  -4.473
REMARK INTRA:                  -0.127
REMARK UNBOUND:                -0.132
REMARK SMILES C=C(C)[C@H]1CC=C(C)CC1
REMARK SMILES IDX 8 1 7 2 6 3 5 4 4 5 10 6 9 7 2 8 1 9 3 10
REMARK H PARENT
REMARK Flexibility Score: inf
ROOT
ATOM      1  C   UNL     1     169.482 166.532 203.765  1.00  0.00     0.039 C 
ATOM      2  C   UNL     1     168.858 167.319 202.645  1.00  0.00    -0.077 C 
ATOM      3  C   UNL     1     167.868 168.194 202.930  1.00  0.00    -0.027 C 
ATOM      4  C   UNL     1     167.145 168.989 201.873  1.00  0.00     0.035 C 
ATOM      5  C   UNL     1     167.972 169.132 200.583  1.00  0.00     0.018 C 
ATOM      6  C   UNL     1     168.521 167.760 200.162  1.00  0.00     0.013 C 
ATOM      7  C   UNL     1     169.447 167.205 201.252  1.00  0.00     0.031 C 
ENDROOT
BRANCH   5   8
ATOM      8  C   UNL     1     167.156 169.773 199.469  1.00  0.00    -0.077 C 
ATOM      9  C   UNL     1     167.758 170.169 198.337  1.00  0.00     0.008 C 
ATOM     10  C   UNL     1     165.668 169.989 199.608  1.00  0.00     0.039 C 
ENDBRANCH   5   8
TORSDOF 1
ENDMDL
MODEL 5
REMARK VINA RESULT:    -4.185      1.928      3.265
REMARK INTER + INTRA:          -4.562
REMARK INTER:                  -4.432
REMARK INTRA:                  -0.130
REMARK UNBOUND:                -0.132
REMARK SMILES C=C(C)[C@H]1CC=C(C)CC1
REMARK SMILES IDX 8 1 7 2 6 3 5 4 4 5 10 6 9 7 2 8 1 9 3 10
REMARK H PARENT
REMARK Flexibility Score: inf
ROOT
ATOM      1  C   UNL     1     167.637 162.591 203.155  1.00  0.00     0.039 C 
ATOM      2  C   UNL     1     166.782 162.577 201.917  1.00  0.00    -0.077 C 
ATOM      3  C   UNL     1     167.298 162.089 200.768  1.00  0.00    -0.027 C 
ATOM      4  C   UNL     1     166.539 162.080 199.465  1.00  0.00     0.035 C 
ATOM      5  C   UNL     1     165.017 162.148 199.677  1.00  0.00     0.018 C 
ATOM      6  C   UNL     1     164.677 163.271 200.668  1.00  0.00     0.013 C 
ATOM      7  C   UNL     1     165.325 162.988 202.029  1.00  0.00     0.031 C 
ENDROOT
BRANCH   5   8
ATOM      8  C   UNL     1     164.281 162.326 198.356  1.00  0.00    -0.077 C 
ATOM      9  C   UNL     1     164.787 161.804 197.227  1.00  0.00     0.008 C 
ATOM     10  C   UNL     1     162.984 163.095 198.275  1.00  0.00     0.039 C 
ENDBRANCH   5   8
TORSDOF 1
ENDMDL
MODEL 6
REMARK VINA RESULT:    -4.147      6.229      6.903
REMARK INTER + INTRA:          -4.521
REMARK INTER:                  -4.392
REMARK INTRA:                  -0.130
REMARK UNBOUND:                -0.132
REMARK SMILES C=C(C)[C@H]1CC=C(C)CC1
REMARK SMILES IDX 8 1 7 2 6 3 5 4 4 5 10 6 9 7 2 8 1 9 3 10
REMARK H PARENT
REMARK Flexibility Score: inf
ROOT
ATOM      1  C   UNL     1     164.204 169.410 203.096  1.00  0.00     0.039 C 
ATOM      2  C   UNL     1     165.087 169.437 201.879  1.00  0.00    -0.077 C 
ATOM      3  C   UNL     1     164.586 169.907 200.716  1.00  0.00    -0.027 C 
ATOM      4  C   UNL     1     165.373 169.925 199.429  1.00  0.00     0.035 C 
ATOM      5  C   UNL     1     166.892 169.895 199.676  1.00  0.00     0.018 C 
ATOM      6  C   UNL     1     167.235 168.785 200.681  1.00  0.00     0.013 C 
ATOM      7  C   UNL     1     166.550 169.060 202.025  1.00  0.00     0.031 C 
ENDROOT
BRANCH   5   8
ATOM      8  C   UNL     1     167.662 169.726 198.373  1.00  0.00    -0.077 C 
ATOM      9  C   UNL     1     168.887 169.178 198.382  1.00  0.00     0.008 C 
ATOM     10  C   UNL     1     167.083 170.174 197.053  1.00  0.00     0.039 C 
ENDBRANCH   5   8
TORSDOF 1
ENDMDL
MODEL 7
REMARK VINA RESULT:    -4.133      5.753      7.447
REMARK INTER + INTRA:          -4.507
REMARK INTER:                  -4.379
REMARK INTRA:                  -0.128
REMARK UNBOUND:                -0.132
REMARK SMILES C=C(C)[C@H]1CC=C(C)CC1
REMARK SMILES IDX 8 1 7 2 6 3 5 4 4 5 10 6 9 7 2 8 1 9 3 10
REMARK H PARENT
REMARK Flexibility Score: inf
ROOT
ATOM      1  C   UNL     1     168.540 169.768 198.578  1.00  0.00     0.039 C 
ATOM      2  C   UNL     1     167.432 169.588 199.580  1.00  0.00    -0.077 C 
ATOM      3  C   UNL     1     167.720 169.055 200.788  1.00  0.00    -0.027 C 
ATOM      4  C   UNL     1     166.673 168.786 201.839  1.00  0.00     0.035 C 
ATOM      5  C   UNL     1     165.414 169.649 201.640  1.00  0.00     0.018 C 
ATOM      6  C   UNL     1     164.959 169.578 200.175  1.00  0.00     0.013 C 
ATOM      7  C   UNL     1     166.053 170.132 199.254  1.00  0.00     0.031 C 
ENDROOT
BRANCH   5   8
ATOM      8  C   UNL     1     164.301 169.233 202.592  1.00  0.00    -0.077 C 
ATOM      9  C   UNL     1     163.442 168.263 202.240  1.00  0.00     0.008 C 
ATOM     10  C   UNL     1     164.125 169.898 203.936  1.00  0.00     0.039 C 
ENDBRANCH   5   8
TORSDOF 1
ENDMDL
MODEL 8
REMARK VINA RESULT:    -4.054      3.384      5.193
REMARK INTER + INTRA:          -4.423
REMARK INTER:                  -4.296
REMARK INTRA:                  -0.127
REMARK UNBOUND:                -0.132
REMARK SMILES C=C(C)[C@H]1CC=C(C)CC1
REMARK SMILES IDX 8 1 7 2 6 3 5 4 4 5 10 6 9 7 2 8 1 9 3 10
REMARK H PARENT
REMARK Flexibility Score: inf
ROOT
ATOM      1  C   UNL     1     162.793 164.506 203.425  1.00  0.00     0.039 C 
ATOM      2  C   UNL     1     163.016 165.666 202.492  1.00  0.00    -0.077 C 
ATOM      3  C   UNL     1     162.717 165.521 201.183  1.00  0.00    -0.027 C 
ATOM      4  C   UNL     1     162.954 166.605 200.162  1.00  0.00     0.035 C 
ATOM      5  C   UNL     1     163.028 168.002 200.801  1.00  0.00     0.018 C 
ATOM      6  C   UNL     1     163.975 167.972 202.011  1.00  0.00     0.013 C 
ATOM      7  C   UNL     1     163.444 167.001 203.073  1.00  0.00     0.031 C 
ENDROOT
BRANCH   5   8
ATOM      8  C   UNL     1     163.452 169.055 199.787  1.00  0.00    -0.077 C 
ATOM      9  C   UNL     1     162.835 169.129 198.596  1.00  0.00     0.008 C 
ATOM     10  C   UNL     1     164.570 170.026 200.080  1.00  0.00     0.039 C 
ENDBRANCH   5   8
TORSDOF 1
ENDMDL
MODEL 9
REMARK VINA RESULT:    -4.041      6.531      7.091
REMARK INTER + INTRA:          -4.409
REMARK INTER:                  -4.279
REMARK INTRA:                  -0.130
REMARK UNBOUND:                -0.132
REMARK SMILES C=C(C)[C@H]1CC=C(C)CC1
REMARK SMILES IDX 8 1 7 2 6 3 5 4 4 5 10 6 9 7 2 8 1 9 3 10
REMARK H PARENT
REMARK Flexibility Score: inf
ROOT
ATOM      1  C   UNL     1     169.256 166.958 203.227  1.00  0.00     0.039 C 
ATOM      2  C   UNL     1     168.959 167.501 201.855  1.00  0.00    -0.077 C 
ATOM      3  C   UNL     1     169.556 166.937 200.783  1.00  0.00    -0.027 C 
ATOM      4  C   UNL     1     169.364 167.443 199.375  1.00  0.00     0.035 C 
ATOM      5  C   UNL     1     168.061 168.245 199.217  1.00  0.00     0.018 C 
ATOM      6  C   UNL     1     167.946 169.281 200.346  1.00  0.00     0.013 C 
ATOM      7  C   UNL     1     167.898 168.575 201.707  1.00  0.00     0.031 C 
ENDROOT
BRANCH   5   8
ATOM      8  C   UNL     1     167.976 168.902 197.846  1.00  0.00    -0.077 C 
ATOM      9  C   UNL     1     167.514 170.157 197.728  1.00  0.00     0.008 C 
ATOM     10  C   UNL     1     168.393 168.167 196.595  1.00  0.00     0.039 C 
ENDBRANCH   5   8
TORSDOF 1
ENDMDL
