MODEL 1
REMARK VINA RESULT:    -2.619      0.000      0.000
REMARK INTER + INTRA:          -2.619
REMARK INTER:                  -2.619
REMARK INTRA:                   0.000
REMARK UNBOUND:                 0.000
REMARK SMILES CC(=O)[O-]
REMARK SMILES IDX 1 1 2 2 3 3 4 4
REMARK H PARENT
REMARK Flexibility Score: inf
ROOT
ATOM      1  C   UNL     1     -15.971 -27.067   8.953  1.00  0.00     0.063 C 
ATOM      2  C   UNL     1     -14.932 -26.021   9.178  1.00  0.00     0.038 C 
ATOM      3  O   UNL     1     -15.245 -24.802   9.147  1.00  0.00    -0.550 OA
ATOM      4  O   UNL     1     -13.606 -26.387   9.370  1.00  0.00    -0.550 OA
ENDROOT
TORSDOF 0
ENDMDL
MODEL 2
REMARK VINA RESULT:    -2.600      0.191      1.630
REMARK INTER + INTRA:          -2.600
REMARK INTER:                  -2.600
REMARK INTRA:                   0.000
REMARK UNBOUND:                 0.000
REMARK SMILES CC(=O)[O-]
REMARK SMILES IDX 1 1 2 2 3 3 4 4
REMARK H PARENT
REMARK Flexibility Score: inf
ROOT
ATOM      1  C   UNL     1     -15.835 -27.259   9.185  1.00  0.00     0.063 C 
ATOM      2  C   UNL     1     -14.839 -26.150   9.240  1.00  0.00     0.038 C 
ATOM      3  O   UNL     1     -13.623 -26.402   9.445  1.00  0.00    -0.550 OA
ATOM      4  O   UNL     1     -15.259 -24.832   9.119  1.00  0.00    -0.550 OA
ENDROOT
TORSDOF 0
ENDMDL
MODEL 3
REMARK VINA RESULT:    -2.542      1.905      2.164
REMARK INTER + INTRA:          -2.542
REMARK INTER:                  -2.542
REMARK INTRA:                   0.000
REMARK UNBOUND:                 0.000
REMARK SMILES CC(=O)[O-]
REMARK SMILES IDX 1 1 2 2 3 3 4 4
REMARK H PARENT
REMARK Flexibility Score: inf
ROOT
ATOM      1  C   UNL     1     -12.888 -27.824   8.619  1.00  0.00     0.063 C 
ATOM      2  C   UNL     1     -13.453 -26.867   9.613  1.00  0.00     0.038 C 
ATOM      3  O   UNL     1     -14.229 -25.949   9.238  1.00  0.00    -0.550 OA
ATOM      4  O   UNL     1     -13.083 -26.952  10.950  1.00  0.00    -0.550 OA
ENDROOT
TORSDOF 0
ENDMDL
MODEL 4
REMARK VINA RESULT:    -2.506      1.768      2.402
REMARK INTER + INTRA:          -2.506
REMARK INTER:                  -2.506
REMARK INTRA:                   0.000
REMARK UNBOUND:                 0.000
REMARK SMILES CC(=O)[O-]
REMARK SMILES IDX 1 1 2 2 3 3 4 4
REMARK H PARENT
REMARK Flexibility Score: inf
ROOT
ATOM      1  C   UNL     1     -13.090 -27.674   8.535  1.00  0.00     0.063 C 
ATOM      2  C   UNL     1     -13.659 -26.762   9.568  1.00  0.00     0.038 C 
ATOM      3  O   UNL     1     -13.452 -26.982  10.790  1.00  0.00    -0.550 OA
ATOM      4  O   UNL     1     -14.465 -25.696   9.187  1.00  0.00    -0.550 OA
ENDROOT
TORSDOF 0
ENDMDL
MODEL 5
REMARK VINA RESULT:    -2.480      9.206      9.597
REMARK INTER + INTRA:          -2.480
REMARK INTER:                  -2.480
REMARK INTRA:                   0.000
REMARK UNBOUND:                 0.000
REMARK SMILES CC(=O)[O-]
REMARK SMILES IDX 1 1 2 2 3 3 4 4
REMARK H PARENT
REMARK Flexibility Score: inf
ROOT
ATOM      1  C   UNL     1      -8.102 -20.718  13.414  1.00  0.00     0.063 C 
ATOM      2  C   UNL     1      -8.569 -19.824  12.315  1.00  0.00     0.038 C 
ATOM      3  O   UNL     1      -9.765 -19.872  11.927  1.00  0.00    -0.550 OA
ATOM      4  O   UNL     1      -7.672 -18.975  11.680  1.00  0.00    -0.550 OA
ENDROOT
TORSDOF 0
ENDMDL
MODEL 6
REMARK VINA RESULT:    -2.475      9.148      9.589
REMARK INTER + INTRA:          -2.475
REMARK INTER:                  -2.475
REMARK INTRA:                   0.000
REMARK UNBOUND:                 0.000
REMARK SMILES CC(=O)[O-]
REMARK SMILES IDX 1 1 2 2 3 3 4 4
REMARK H PARENT
REMARK Flexibility Score: inf
ROOT
ATOM      1  C   UNL     1      -7.563 -19.225  11.979  1.00  0.00     0.063 C 
ATOM      2  C   UNL     1      -8.839 -19.802  12.491  1.00  0.00     0.038 C 
ATOM      3  O   UNL     1      -9.859 -19.833  11.755  1.00  0.00    -0.550 OA
ATOM      4  O   UNL     1      -8.919 -20.259  13.800  1.00  0.00    -0.550 OA
ENDROOT
TORSDOF 0
ENDMDL
MODEL 7
REMARK VINA RESULT:    -2.444      1.329      1.329
REMARK INTER + INTRA:          -2.444
REMARK INTER:                  -2.444
REMARK INTRA:                   0.000
REMARK UNBOUND:                 0.000
REMARK SMILES CC(=O)[O-]
REMARK SMILES IDX 1 1 2 2 3 3 4 4
REMARK H PARENT
REMARK Flexibility Score: inf
ROOT
ATOM      1  C   UNL     1     -14.647 -28.033   9.319  1.00  0.00     0.063 C 
ATOM      2  C   UNL     1     -13.900 -26.746   9.220  1.00  0.00     0.038 C 
ATOM      3  O   UNL     1     -14.523 -25.652   9.217  1.00  0.00    -0.550 OA
ATOM      4  O   UNL     1     -12.518 -26.752   9.077  1.00  0.00    -0.550 OA
ENDROOT
TORSDOF 0
ENDMDL
MODEL 8
REMARK VINA RESULT:    -2.441      1.405      2.122
REMARK INTER + INTRA:          -2.441
REMARK INTER:                  -2.441
REMARK INTRA:                   0.000
REMARK UNBOUND:                 0.000
REMARK SMILES CC(=O)[O-]
REMARK SMILES IDX 1 1 2 2 3 3 4 4
REMARK H PARENT
REMARK Flexibility Score: inf
ROOT
ATOM      1  C   UNL     1     -14.489 -28.108   9.353  1.00  0.00     0.063 C 
ATOM      2  C   UNL     1     -13.787 -26.799   9.213  1.00  0.00     0.038 C 
ATOM      3  O   UNL     1     -12.531 -26.759   9.152  1.00  0.00    -0.550 OA
ATOM      4  O   UNL     1     -14.516 -25.617   9.203  1.00  0.00    -0.550 OA
ENDROOT
TORSDOF 0
ENDMDL
MODEL 9
REMARK VINA RESULT:    -2.204      3.533      4.237
REMARK INTER + INTRA:          -2.204
REMARK INTER:                  -2.204
REMARK INTRA:                   0.000
REMARK UNBOUND:                 0.000
REMARK SMILES CC(=O)[O-]
REMARK SMILES IDX 1 1 2 2 3 3 4 4
REMARK H PARENT
REMARK Flexibility Score: inf
ROOT
ATOM      1  C   UNL     1     -12.990 -28.256  12.926  1.00  0.00     0.063 C 
ATOM      2  C   UNL     1     -12.620 -27.815  11.551  1.00  0.00     0.038 C 
ATOM      3  O   UNL     1     -11.659 -28.361  10.949  1.00  0.00    -0.550 OA
ATOM      4  O   UNL     1     -13.300 -26.763  10.951  1.00  0.00    -0.550 OA
ENDROOT
TORSDOF 0
ENDMDL
