MODEL 1
REMARK VINA RESULT:    -3.523      0.000      0.000
REMARK INTER + INTRA:          -5.016
REMARK INTER:                  -4.759
REMARK INTRA:                  -0.257
REMARK UNBOUND:                -0.257
REMARK SMILES CCCCCCCC(=O)[O-]
REMARK SMILES IDX 5 1 6 2 7 3 8 4 9 5 10 6 4 7 3 8 2 9 1 10
REMARK H PARENT
REMARK Flexibility Score: inf
ROOT
ATOM      1  C   UNL     1      10.978  -9.884  12.161  1.00  0.00     0.000 C 
ENDROOT
BRANCH   1   2
ATOM      2  C   UNL     1      11.658 -10.298  13.477  1.00  0.00     0.006 C 
BRANCH   2   3
ATOM      3  C   UNL     1      10.666 -10.913  14.473  1.00  0.00     0.053 C 
BRANCH   3   4
ATOM      4  C   UNL     1      11.299 -11.170  15.806  1.00  0.00     0.041 C 
ATOM      5  O   UNL     1      12.532 -10.970  15.969  1.00  0.00    -0.550 OA
ATOM      6  O   UNL     1      10.525 -11.601  16.875  1.00  0.00    -0.550 OA
ENDBRANCH   3   4
ENDBRANCH   2   3
ENDBRANCH   1   2
BRANCH   1   7
ATOM      7  C   UNL     1       9.478 -10.219  12.138  1.00  0.00     0.000 C 
BRANCH   7   8
ATOM      8  C   UNL     1       8.729  -9.514  10.997  1.00  0.00    -0.000 C 
BRANCH   8   9
ATOM      9  C   UNL     1       9.665  -8.573  10.229  1.00  0.00    -0.003 C 
ATOM     10  C   UNL     1       9.040  -8.131   8.908  1.00  0.00     0.004 C 
ENDBRANCH   8   9
ENDBRANCH   7   8
ENDBRANCH   1   7
TORSDOF 6
ENDMDL
MODEL 2
REMARK VINA RESULT:    -3.323      3.072      6.114
REMARK INTER + INTRA:          -4.745
REMARK INTER:                  -4.550
REMARK INTRA:                  -0.196
REMARK UNBOUND:                -0.257
REMARK SMILES CCCCCCCC(=O)[O-]
REMARK SMILES IDX 5 1 6 2 7 3 8 4 9 5 10 6 4 7 3 8 2 9 1 10
REMARK H PARENT
REMARK Flexibility Score: inf
ROOT
ATOM      1  C   UNL     1      11.789 -10.691  14.583  1.00  0.00     0.000 C 
ENDROOT
BRANCH   1   2
ATOM      2  C   UNL     1      10.539 -10.553  13.697  1.00  0.00     0.006 C 
BRANCH   2   3
ATOM      3  C   UNL     1      10.810  -9.717  12.440  1.00  0.00     0.053 C 
BRANCH   3   4
ATOM      4  C   UNL     1       9.586  -9.578  11.586  1.00  0.00     0.041 C 
ATOM      5  O   UNL     1       8.555 -10.252  11.846  1.00  0.00    -0.550 OA
ATOM      6  O   UNL     1       9.574  -8.682  10.525  1.00  0.00    -0.550 OA
ENDBRANCH   3   4
ENDBRANCH   2   3
ENDBRANCH   1   2
BRANCH   1   7
ATOM      7  C   UNL     1      11.542 -10.237  16.031  1.00  0.00     0.000 C 
BRANCH   7   8
ATOM      8  C   UNL     1      12.711 -10.577  16.967  1.00  0.00    -0.000 C 
BRANCH   8   9
ATOM      9  C   UNL     1      12.739 -12.077  17.286  1.00  0.00    -0.003 C 
ATOM     10  C   UNL     1      11.521 -12.489  18.108  1.00  0.00     0.004 C 
ENDBRANCH   8   9
ENDBRANCH   7   8
ENDBRANCH   1   7
TORSDOF 6
ENDMDL
MODEL 3
REMARK VINA RESULT:    -3.299      2.080      3.186
REMARK INTER + INTRA:          -4.714
REMARK INTER:                  -4.484
REMARK INTRA:                  -0.230
REMARK UNBOUND:                -0.257
REMARK SMILES CCCCCCCC(=O)[O-]
REMARK SMILES IDX 5 1 6 2 7 3 8 4 9 5 10 6 4 7 3 8 2 9 1 10
REMARK H PARENT
REMARK Flexibility Score: inf
ROOT
ATOM      1  C   UNL     1      11.099 -10.962  15.624  1.00  0.00     0.000 C 
ENDROOT
BRANCH   1   2
ATOM      2  C   UNL     1      12.631 -11.099  15.636  1.00  0.00     0.006 C 
BRANCH   2   3
ATOM      3  C   UNL     1      13.244 -10.632  16.963  1.00  0.00     0.053 C 
BRANCH   3   4
ATOM      4  C   UNL     1      13.764 -11.779  17.773  1.00  0.00     0.041 C 
ATOM      5  O   UNL     1      14.576 -12.597  17.263  1.00  0.00    -0.550 OA
ATOM      6  O   UNL     1      13.378 -11.930  19.098  1.00  0.00    -0.550 OA
ENDBRANCH   3   4
ENDBRANCH   2   3
ENDBRANCH   1   2
BRANCH   1   7
ATOM      7  C   UNL     1      10.517 -10.946  14.201  1.00  0.00     0.000 C 
BRANCH   7   8
ATOM      8  C   UNL     1      11.371 -10.130  13.220  1.00  0.00    -0.000 C 
BRANCH   8   9
ATOM      9  C   UNL     1      10.494  -9.476  12.145  1.00  0.00    -0.003 C 
ATOM     10  C   UNL     1       9.179 -10.230  11.972  1.00  0.00     0.004 C 
ENDBRANCH   8   9
ENDBRANCH   7   8
ENDBRANCH   1   7
TORSDOF 6
ENDMDL
MODEL 4
REMARK VINA RESULT:    -3.039      8.298      8.575
REMARK INTER + INTRA:          -4.363
REMARK INTER:                  -4.115
REMARK INTRA:                  -0.247
REMARK UNBOUND:                -0.257
REMARK SMILES CCCCCCCC(=O)[O-]
REMARK SMILES IDX 5 1 6 2 7 3 8 4 9 5 10 6 4 7 3 8 2 9 1 10
REMARK H PARENT
REMARK Flexibility Score: inf
ROOT
ATOM      1  C   UNL     1      11.139  -3.594  17.005  1.00  0.00     0.000 C 
ENDROOT
BRANCH   1   2
ATOM      2  C   UNL     1      12.672  -3.460  16.978  1.00  0.00     0.006 C 
BRANCH   2   3
ATOM      3  C   UNL     1      13.188  -2.498  18.056  1.00  0.00     0.053 C 
BRANCH   3   4
ATOM      4  C   UNL     1      14.156  -3.167  18.984  1.00  0.00     0.041 C 
ATOM      5  O   UNL     1      14.983  -2.479  19.639  1.00  0.00    -0.550 OA
ATOM      6  O   UNL     1      14.125  -4.545  19.149  1.00  0.00    -0.550 OA
ENDBRANCH   3   4
ENDBRANCH   2   3
ENDBRANCH   1   2
BRANCH   1   7
ATOM      7  C   UNL     1      10.496  -3.315  15.637  1.00  0.00     0.000 C 
BRANCH   7   8
ATOM      8  C   UNL     1      10.373  -1.815  15.334  1.00  0.00    -0.000 C 
BRANCH   8   9
ATOM      9  C   UNL     1       8.909  -1.422  15.099  1.00  0.00    -0.003 C 
ATOM     10  C   UNL     1       8.109  -2.589  14.528  1.00  0.00     0.004 C 
ENDBRANCH   8   9
ENDBRANCH   7   8
ENDBRANCH   1   7
TORSDOF 6
ENDMDL
MODEL 5
REMARK VINA RESULT:    -3.006      8.227      8.498
REMARK INTER + INTRA:          -4.318
REMARK INTER:                  -4.063
REMARK INTRA:                  -0.255
REMARK UNBOUND:                -0.257
REMARK SMILES CCCCCCCC(=O)[O-]
REMARK SMILES IDX 5 1 6 2 7 3 8 4 9 5 10 6 4 7 3 8 2 9 1 10
REMARK H PARENT
REMARK Flexibility Score: inf
ROOT
ATOM      1  C   UNL     1      10.470  -3.475  15.894  1.00  0.00     0.000 C 
ENDROOT
BRANCH   1   2
ATOM      2  C   UNL     1      11.485  -3.774  17.011  1.00  0.00     0.006 C 
BRANCH   2   3
ATOM      3  C   UNL     1      12.628  -2.750  17.044  1.00  0.00     0.053 C 
BRANCH   3   4
ATOM      4  C   UNL     1      13.455  -2.876  18.287  1.00  0.00     0.041 C 
ATOM      5  O   UNL     1      13.873  -4.006  18.656  1.00  0.00    -0.550 OA
ATOM      6  O   UNL     1      13.790  -1.746  19.020  1.00  0.00    -0.550 OA
ENDBRANCH   3   4
ENDBRANCH   2   3
ENDBRANCH   1   2
BRANCH   1   7
ATOM      7  C   UNL     1      10.383  -1.978  15.558  1.00  0.00     0.000 C 
BRANCH   7   8
ATOM      8  C   UNL     1       8.975  -1.549  15.119  1.00  0.00    -0.000 C 
BRANCH   8   9
ATOM      9  C   UNL     1       8.231  -2.713  14.454  1.00  0.00    -0.003 C 
ATOM     10  C   UNL     1       6.796  -2.815  14.964  1.00  0.00     0.004 C 
ENDBRANCH   8   9
ENDBRANCH   7   8
ENDBRANCH   1   7
TORSDOF 6
ENDMDL
MODEL 6
REMARK VINA RESULT:    -2.928      5.203      6.292
REMARK INTER + INTRA:          -4.212
REMARK INTER:                  -3.700
REMARK INTRA:                  -0.513
REMARK UNBOUND:                -0.257
REMARK SMILES CCCCCCCC(=O)[O-]
REMARK SMILES IDX 5 1 6 2 7 3 8 4 9 5 10 6 4 7 3 8 2 9 1 10
REMARK H PARENT
REMARK Flexibility Score: inf
ROOT
ATOM      1  C   UNL     1      12.857 -10.953  16.455  1.00  0.00     0.000 C 
ENDROOT
BRANCH   1   2
ATOM      2  C   UNL     1      13.990 -11.197  17.467  1.00  0.00     0.006 C 
BRANCH   2   3
ATOM      3  C   UNL     1      14.131 -12.681  17.831  1.00  0.00     0.053 C 
BRANCH   3   4
ATOM      4  C   UNL     1      13.961 -13.568  16.636  1.00  0.00     0.041 C 
ATOM      5  O   UNL     1      14.855 -13.614  15.750  1.00  0.00    -0.550 OA
ATOM      6  O   UNL     1      12.830 -14.366  16.515  1.00  0.00    -0.550 OA
ENDBRANCH   3   4
ENDBRANCH   2   3
ENDBRANCH   1   2
BRANCH   1   7
ATOM      7  C   UNL     1      11.867  -9.875  16.923  1.00  0.00     0.000 C 
BRANCH   7   8
ATOM      8  C   UNL     1      11.145 -10.257  18.224  1.00  0.00    -0.000 C 
BRANCH   8   9
ATOM      9  C   UNL     1      10.347 -11.554  18.046  1.00  0.00    -0.003 C 
ATOM     10  C   UNL     1      10.639 -12.541  19.172  1.00  0.00     0.004 C 
ENDBRANCH   8   9
ENDBRANCH   7   8
ENDBRANCH   1   7
TORSDOF 6
ENDMDL
MODEL 7
REMARK VINA RESULT:    -2.927      8.487      9.393
REMARK INTER + INTRA:          -4.212
REMARK INTER:                  -3.913
REMARK INTRA:                  -0.299
REMARK UNBOUND:                -0.257
REMARK SMILES CCCCCCCC(=O)[O-]
REMARK SMILES IDX 5 1 6 2 7 3 8 4 9 5 10 6 4 7 3 8 2 9 1 10
REMARK H PARENT
REMARK Flexibility Score: inf
ROOT
ATOM      1  C   UNL     1      10.068  -1.784  15.415  1.00  0.00     0.000 C 
ENDROOT
BRANCH   1   2
ATOM      2  C   UNL     1       8.611  -1.519  14.998  1.00  0.00     0.006 C 
BRANCH   2   3
ATOM      3  C   UNL     1       7.927  -2.779  14.451  1.00  0.00     0.053 C 
BRANCH   3   4
ATOM      4  C   UNL     1       6.466  -2.809  14.780  1.00  0.00     0.041 C 
ATOM      5  O   UNL     1       5.669  -3.471  14.064  1.00  0.00    -0.550 OA
ATOM      6  O   UNL     1       5.988  -2.132  15.895  1.00  0.00    -0.550 OA
ENDBRANCH   3   4
ENDBRANCH   2   3
ENDBRANCH   1   2
BRANCH   1   7
ATOM      7  C   UNL     1      10.422  -3.280  15.413  1.00  0.00     0.000 C 
BRANCH   7   8
ATOM      8  C   UNL     1      10.797  -3.802  16.808  1.00  0.00    -0.000 C 
BRANCH   8   9
ATOM      9  C   UNL     1      11.784  -2.855  17.499  1.00  0.00    -0.003 C 
ATOM     10  C   UNL     1      13.228  -3.237  17.185  1.00  0.00     0.004 C 
ENDBRANCH   8   9
ENDBRANCH   7   8
ENDBRANCH   1   7
TORSDOF 6
ENDMDL
MODEL 8
REMARK VINA RESULT:    -2.910      8.943     10.070
REMARK INTER + INTRA:          -4.188
REMARK INTER:                  -3.940
REMARK INTRA:                  -0.248
REMARK UNBOUND:                -0.257
REMARK SMILES CCCCCCCC(=O)[O-]
REMARK SMILES IDX 5 1 6 2 7 3 8 4 9 5 10 6 4 7 3 8 2 9 1 10
REMARK H PARENT
REMARK Flexibility Score: inf
ROOT
ATOM      1  C   UNL     1      11.663  -3.528  17.002  1.00  0.00     0.000 C 
ENDROOT
BRANCH   1   2
ATOM      2  C   UNL     1      10.920  -2.513  16.116  1.00  0.00     0.006 C 
BRANCH   2   3
ATOM      3  C   UNL     1      10.019  -3.200  15.081  1.00  0.00     0.053 C 
BRANCH   3   4
ATOM      4  C   UNL     1       8.789  -2.395  14.790  1.00  0.00     0.041 C 
ATOM      5  O   UNL     1       7.688  -2.973  14.591  1.00  0.00    -0.550 OA
ATOM      6  O   UNL     1       8.852  -1.008  14.769  1.00  0.00    -0.550 OA
ENDBRANCH   3   4
ENDBRANCH   2   3
ENDBRANCH   1   2
BRANCH   1   7
ATOM      7  C   UNL     1      13.168  -3.233  17.106  1.00  0.00     0.000 C 
BRANCH   7   8
ATOM      8  C   UNL     1      13.675  -3.240  18.556  1.00  0.00    -0.000 C 
BRANCH   8   9
ATOM      9  C   UNL     1      13.777  -1.812  19.106  1.00  0.00    -0.003 C 
ATOM     10  C   UNL     1      12.556  -1.458  19.950  1.00  0.00     0.004 C 
ENDBRANCH   8   9
ENDBRANCH   7   8
ENDBRANCH   1   7
TORSDOF 6
ENDMDL
MODEL 9
REMARK VINA RESULT:    -2.849      5.252      6.664
REMARK INTER + INTRA:          -4.106
REMARK INTER:                  -3.516
REMARK INTRA:                  -0.590
REMARK UNBOUND:                -0.257
REMARK SMILES CCCCCCCC(=O)[O-]
REMARK SMILES IDX 5 1 6 2 7 3 8 4 9 5 10 6 4 7 3 8 2 9 1 10
REMARK H PARENT
REMARK Flexibility Score: inf
ROOT
ATOM      1  C   UNL     1      12.693 -11.104  16.328  1.00  0.00     0.000 C 
ENDROOT
BRANCH   1   2
ATOM      2  C   UNL     1      11.909 -12.416  16.503  1.00  0.00     0.006 C 
BRANCH   2   3
ATOM      3  C   UNL     1      12.390 -13.220  17.719  1.00  0.00     0.053 C 
BRANCH   3   4
ATOM      4  C   UNL     1      13.768 -13.771  17.515  1.00  0.00     0.041 C 
ATOM      5  O   UNL     1      14.582 -13.810  18.475  1.00  0.00    -0.550 OA
ATOM      6  O   UNL     1      14.143 -14.269  16.274  1.00  0.00    -0.550 OA
ENDBRANCH   3   4
ENDBRANCH   2   3
ENDBRANCH   1   2
BRANCH   1   7
ATOM      7  C   UNL     1      11.941  -9.886  16.889  1.00  0.00     0.000 C 
BRANCH   7   8
ATOM      8  C   UNL     1      12.410  -9.497  18.299  1.00  0.00    -0.000 C 
BRANCH   8   9
ATOM      9  C   UNL     1      13.883  -9.869  18.507  1.00  0.00    -0.003 C 
ATOM     10  C   UNL     1      14.094 -10.555  19.854  1.00  0.00     0.004 C 
ENDBRANCH   8   9
ENDBRANCH   7   8
ENDBRANCH   1   7
TORSDOF 6
ENDMDL
