MODEL 1
REMARK VINA RESULT:    -9.601      0.000      0.000
REMARK INTER + INTRA:         -17.060
REMARK INTER:                 -15.775
REMARK INTRA:                  -1.285
REMARK UNBOUND:                -1.285
REMARK SMILES C[C@@H]1O[C@H](OC[C@H]2O[C@H](Oc3c(-c4ccc(O)c(O)c4)oc4cc(O)cc(O)c4c3=O)[C@@H](O)[C@H](O)[C@H]2O)[C@@H](O)[C@@H](O)[C@H]1O
REMARK SMILES IDX 7 1 36 2 34 3 32 4 9 5 8 6 6 7 5 8 4 9 1 10 2 11 42 12 3 13
REMARK SMILES IDX 40 14 38 15 43 16 41 18 39 20 37 22 35 24 10 26 11 27 12 28
REMARK SMILES IDX 30 29 21 30 29 31 31 32 22 33 27 34 23 35 26 36 24 37 13 38
REMARK SMILES IDX 20 39 14 40 18 41 15 42 16 43 19 44 17 46 28 48 25 50 33 52
REMARK H PARENT 43 17 41 19 39 21 37 23 35 25 19 45 17 47 28 49 25 51 33 53
REMARK Flexibility Score: inf
ROOT
ATOM      1  C   UNL     1      -6.003 -30.661  50.560  1.00  0.00     0.180 C 
ATOM      2  C   UNL     1      -7.227 -29.814  51.008  1.00  0.00     0.177 C 
ATOM      3  C   UNL     1      -7.905 -29.143  49.780  1.00  0.00     0.180 C 
ATOM      4  C   UNL     1      -7.226 -29.528  48.447  1.00  0.00     0.214 C 
ATOM      5  C   UNL     1      -6.951 -31.054  48.408  1.00  0.00     0.339 C 
ATOM      6  O   UNL     1      -6.381 -31.616  49.592  1.00  0.00    -0.332 OA
ENDROOT
BRANCH   1   7
ATOM      7  C   UNL     1      -5.334 -31.400  51.737  1.00  0.00     0.198 C 
BRANCH   7   8
ATOM      8  O   UNL     1      -5.503 -32.814  51.624  1.00  0.00    -0.347 OA
BRANCH   8   9
ATOM      9  C   UNL     1      -4.410 -33.542  52.169  1.00  0.00     0.281 C 
ATOM     10  C   UNL     1      -4.660 -34.354  55.366  1.00  0.00     0.041 C 
ATOM     11  C   UNL     1      -3.549 -33.926  54.408  1.00  0.00     0.150 C 
ATOM     12  C   UNL     1      -2.766 -35.130  53.826  1.00  0.00     0.174 C 
ATOM     13  O   UNL     1      -4.040 -33.004  53.441  1.00  0.00    -0.344 OA
ATOM     14  C   UNL     1      -3.522 -35.894  52.697  1.00  0.00     0.179 C 
ATOM     15  C   UNL     1      -4.689 -35.066  52.111  1.00  0.00     0.202 C 
BRANCH  12  16
ATOM     16  O   UNL     1      -1.482 -34.729  53.413  1.00  0.00    -0.388 OA
ATOM     17  H   UNL     1      -1.586 -34.154  52.608  1.00  0.00     0.211 HD
ENDBRANCH  12  16
BRANCH  14  18
ATOM     18  O   UNL     1      -2.634 -36.354  51.700  1.00  0.00    -0.387 OA
ATOM     19  H   UNL     1      -1.761 -36.510  52.127  1.00  0.00     0.211 HD
ENDBRANCH  14  18
BRANCH  15  20
ATOM     20  O   UNL     1      -5.005 -35.502  50.806  1.00  0.00    -0.385 OA
ATOM     21  H   UNL     1      -4.248 -36.024  50.464  1.00  0.00     0.211 HD
ENDBRANCH  15  20
ENDBRANCH   8   9
ENDBRANCH   7   8
ENDBRANCH   1   7
BRANCH   2  22
ATOM     22  O   UNL     1      -8.163 -30.591  51.716  1.00  0.00    -0.387 OA
ATOM     23  H   UNL     1      -8.470 -31.321  51.115  1.00  0.00     0.211 HD
ENDBRANCH   2  22
BRANCH   3  24
ATOM     24  O   UNL     1      -7.870 -27.738  49.902  1.00  0.00    -0.387 OA
ATOM     25  H   UNL     1      -8.765 -27.449  50.179  1.00  0.00     0.211 HD
ENDBRANCH   3  24
BRANCH   5  26
ATOM     26  O   UNL     1      -6.127 -31.337  47.274  1.00  0.00    -0.454 OA
BRANCH  26  27
ATOM     27  C   UNL     1      -6.606 -31.543  45.968  1.00  0.00     0.214 A 
ATOM     28  C   UNL     1      -6.127 -30.757  44.908  1.00  0.00     0.180 A 
ATOM     29  C   UNL     1      -7.586 -32.506  45.718  1.00  0.00     0.239 A 
ATOM     30  O   UNL     1      -6.585 -30.953  43.674  1.00  0.00    -0.452 OA
ATOM     31  C   UNL     1      -8.054 -32.690  44.398  1.00  0.00     0.111 A 
ATOM     32  O   UNL     1      -8.037 -33.177  46.683  1.00  0.00    -0.285 OA
ATOM     33  C   UNL     1      -7.514 -31.858  43.383  1.00  0.00     0.146 A 
ATOM     34  C   UNL     1      -9.028 -33.658  44.057  1.00  0.00     0.134 A 
ATOM     35  C   UNL     1      -7.949 -31.989  42.063  1.00  0.00     0.094 A 
ATOM     36  C   UNL     1      -9.457 -33.768  42.724  1.00  0.00     0.093 A 
ATOM     37  C   UNL     1      -8.939 -32.921  41.735  1.00  0.00     0.123 A 
BRANCH  28  38
ATOM     38  C   UNL     1      -5.078 -29.748  45.127  1.00  0.00     0.025 A 
ATOM     39  C   UNL     1      -3.725 -30.130  45.073  1.00  0.00     0.062 A 
ATOM     40  C   UNL     1      -5.399 -28.399  45.332  1.00  0.00     0.016 A 
ATOM     41  C   UNL     1      -2.708 -29.181  45.278  1.00  0.00     0.158 A 
ATOM     42  C   UNL     1      -4.383 -27.457  45.537  1.00  0.00     0.051 A 
ATOM     43  C   UNL     1      -3.042 -27.842  45.505  1.00  0.00     0.157 A 
BRANCH  41  44
ATOM     44  O   UNL     1      -1.366 -29.562  45.253  1.00  0.00    -0.504 OA
ATOM     45  H   UNL     1      -0.795 -29.551  46.101  1.00  0.00     0.293 HD
ENDBRANCH  41  44
BRANCH  43  46
ATOM     46  O   UNL     1      -2.036 -26.894  45.694  1.00  0.00    -0.504 OA
ATOM     47  H   UNL     1      -1.390 -26.633  44.950  1.00  0.00     0.293 HD
ENDBRANCH  43  46
ENDBRANCH  28  38
BRANCH  34  48
ATOM     48  O   UNL     1      -9.559 -34.516  45.014  1.00  0.00    -0.507 OA
ATOM     49  H   UNL     1     -10.457 -34.366  45.447  1.00  0.00     0.293 HD
ENDBRANCH  34  48
BRANCH  37  50
ATOM     50  O   UNL     1      -9.422 -33.021  40.427  1.00  0.00    -0.508 OA
ATOM     51  H   UNL     1     -10.013 -33.788  40.142  1.00  0.00     0.293 HD
ENDBRANCH  37  50
ENDBRANCH  26  27
ENDBRANCH   5  26
BRANCH   4  52
ATOM     52  O   UNL     1      -8.069 -29.158  47.377  1.00  0.00    -0.384 OA
ATOM     53  H   UNL     1      -8.802 -29.826  47.347  1.00  0.00     0.211 HD
ENDBRANCH   4  52
TORSDOF 16
ENDMDL
MODEL 2
REMARK VINA RESULT:    -9.496      3.925      8.154
REMARK INTER + INTRA:         -16.887
REMARK INTER:                 -14.521
REMARK INTRA:                  -2.366
REMARK UNBOUND:                -1.285
REMARK SMILES C[C@@H]1O[C@H](OC[C@H]2O[C@H](Oc3c(-c4ccc(O)c(O)c4)oc4cc(O)cc(O)c4c3=O)[C@@H](O)[C@H](O)[C@H]2O)[C@@H](O)[C@@H](O)[C@H]1O
REMARK SMILES IDX 7 1 36 2 34 3 32 4 9 5 8 6 6 7 5 8 4 9 1 10 2 11 42 12 3 13
REMARK SMILES IDX 40 14 38 15 43 16 41 18 39 20 37 22 35 24 10 26 11 27 12 28
REMARK SMILES IDX 30 29 21 30 29 31 31 32 22 33 27 34 23 35 26 36 24 37 13 38
REMARK SMILES IDX 20 39 14 40 18 41 15 42 16 43 19 44 17 46 28 48 25 50 33 52
REMARK H PARENT 43 17 41 19 39 21 37 23 35 25 19 45 17 47 28 49 25 51 33 53
REMARK Flexibility Score: inf
ROOT
ATOM      1  C   UNL     1     -10.265 -34.990  45.315  1.00  0.00     0.180 C 
ATOM      2  C   UNL     1      -9.816 -35.603  43.959  1.00  0.00     0.177 C 
ATOM      3  C   UNL     1      -9.235 -34.502  43.027  1.00  0.00     0.180 C 
ATOM      4  C   UNL     1      -9.208 -33.113  43.702  1.00  0.00     0.214 C 
ATOM      5  C   UNL     1      -8.664 -33.230  45.150  1.00  0.00     0.339 C 
ATOM      6  O   UNL     1      -9.198 -34.302  45.932  1.00  0.00    -0.332 OA
ENDROOT
BRANCH   1   7
ATOM      7  C   UNL     1     -10.789 -36.055  46.300  1.00  0.00     0.198 C 
BRANCH   7   8
ATOM      8  O   UNL     1      -9.971 -36.128  47.468  1.00  0.00    -0.347 OA
BRANCH   8   9
ATOM      9  C   UNL     1      -9.858 -37.451  47.977  1.00  0.00     0.281 C 
ATOM     10  C   UNL     1     -12.067 -39.633  46.837  1.00  0.00     0.041 C 
ATOM     11  C   UNL     1     -11.359 -39.353  48.161  1.00  0.00     0.150 C 
ATOM     12  C   UNL     1     -10.104 -40.237  48.367  1.00  0.00     0.174 C 
ATOM     13  O   UNL     1     -11.147 -37.956  48.336  1.00  0.00    -0.344 OA
ATOM     14  C   UNL     1      -8.862 -39.778  47.542  1.00  0.00     0.179 C 
ATOM     15  C   UNL     1      -9.007 -38.329  47.025  1.00  0.00     0.202 C 
BRANCH  12  16
ATOM     16  O   UNL     1      -9.803 -40.354  49.737  1.00  0.00    -0.388 OA
ATOM     17  H   UNL     1      -9.942 -39.464  50.158  1.00  0.00     0.211 HD
ENDBRANCH  12  16
BRANCH  14  18
ATOM     18  O   UNL     1      -7.663 -39.977  48.260  1.00  0.00    -0.387 OA
ATOM     19  H   UNL     1      -6.975 -40.266  47.618  1.00  0.00     0.211 HD
ENDBRANCH  14  18
BRANCH  15  20
ATOM     20  O   UNL     1      -7.740 -37.762  46.765  1.00  0.00    -0.385 OA
ATOM     21  H   UNL     1      -7.555 -37.092  47.457  1.00  0.00     0.211 HD
ENDBRANCH  15  20
ENDBRANCH   8   9
ENDBRANCH   7   8
ENDBRANCH   1   7
BRANCH   2  22
ATOM     22  O   UNL     1      -8.873 -36.632  44.143  1.00  0.00    -0.387 OA
ATOM     23  H   UNL     1      -7.977 -36.269  43.913  1.00  0.00     0.211 HD
ENDBRANCH   2  22
BRANCH   3  24
ATOM     24  O   UNL     1      -9.998 -34.402  41.844  1.00  0.00    -0.387 OA
ATOM     25  H   UNL     1      -9.603 -35.020  41.193  1.00  0.00     0.211 HD
ENDBRANCH   3  24
BRANCH   5  26
ATOM     26  O   UNL     1      -8.864 -31.979  45.812  1.00  0.00    -0.454 OA
BRANCH  26  27
ATOM     27  C   UNL     1      -7.889 -31.311  46.571  1.00  0.00     0.214 A 
ATOM     28  C   UNL     1      -8.159 -30.940  47.898  1.00  0.00     0.180 A 
ATOM     29  C   UNL     1      -6.656 -30.978  46.004  1.00  0.00     0.239 A 
ATOM     30  O   UNL     1      -7.233 -30.304  48.612  1.00  0.00    -0.452 OA
ATOM     31  C   UNL     1      -5.695 -30.301  46.787  1.00  0.00     0.111 A 
ATOM     32  O   UNL     1      -6.441 -31.280  44.801  1.00  0.00    -0.285 OA
ATOM     33  C   UNL     1      -6.045 -29.967  48.122  1.00  0.00     0.146 A 
ATOM     34  C   UNL     1      -4.416 -29.948  46.296  1.00  0.00     0.134 A 
ATOM     35  C   UNL     1      -5.137 -29.288  48.935  1.00  0.00     0.094 A 
ATOM     36  C   UNL     1      -3.520 -29.259  47.129  1.00  0.00     0.093 A 
ATOM     37  C   UNL     1      -3.887 -28.907  48.436  1.00  0.00     0.123 A 
BRANCH  28  38
ATOM     38  C   UNL     1      -9.435 -31.292  48.538  1.00  0.00     0.025 A 
ATOM     39  C   UNL     1      -9.791 -32.646  48.681  1.00  0.00     0.062 A 
ATOM     40  C   UNL     1     -10.282 -30.305  49.063  1.00  0.00     0.016 A 
ATOM     41  C   UNL     1     -11.006 -33.003  49.291  1.00  0.00     0.158 A 
ATOM     42  C   UNL     1     -11.492 -30.665  49.669  1.00  0.00     0.051 A 
ATOM     43  C   UNL     1     -11.853 -32.008  49.789  1.00  0.00     0.157 A 
BRANCH  41  44
ATOM     44  O   UNL     1     -11.374 -34.344  49.408  1.00  0.00    -0.504 OA
ATOM     45  H   UNL     1     -11.377 -34.967  48.597  1.00  0.00     0.293 HD
ENDBRANCH  41  44
BRANCH  43  46
ATOM     46  O   UNL     1     -13.053 -32.358  50.409  1.00  0.00    -0.504 OA
ATOM     47  H   UNL     1     -13.184 -33.259  50.866  1.00  0.00     0.293 HD
ENDBRANCH  43  46
ENDBRANCH  28  38
BRANCH  34  48
ATOM     48  O   UNL     1      -4.020 -30.285  45.006  1.00  0.00    -0.507 OA
ATOM     49  H   UNL     1      -3.643 -31.190  44.767  1.00  0.00     0.293 HD
ENDBRANCH  34  48
BRANCH  37  50
ATOM     50  O   UNL     1      -2.994 -28.177  49.225  1.00  0.00    -0.508 OA
ATOM     51  H   UNL     1      -2.028 -28.455  49.320  1.00  0.00     0.293 HD
ENDBRANCH  37  50
ENDBRANCH  26  27
ENDBRANCH   5  26
BRANCH   4  52
ATOM     52  O   UNL     1      -8.390 -32.248  42.944  1.00  0.00    -0.384 OA
ATOM     53  H   UNL     1      -7.841 -32.823  42.349  1.00  0.00     0.211 HD
ENDBRANCH   4  52
TORSDOF 16
ENDMDL
MODEL 3
REMARK VINA RESULT:    -9.248      3.289      7.435
REMARK INTER + INTRA:         -16.481
REMARK INTER:                 -15.380
REMARK INTRA:                  -1.101
REMARK UNBOUND:                -1.285
REMARK SMILES C[C@@H]1O[C@H](OC[C@H]2O[C@H](Oc3c(-c4ccc(O)c(O)c4)oc4cc(O)cc(O)c4c3=O)[C@@H](O)[C@H](O)[C@H]2O)[C@@H](O)[C@@H](O)[C@H]1O
REMARK SMILES IDX 7 1 36 2 34 3 32 4 9 5 8 6 6 7 5 8 4 9 1 10 2 11 42 12 3 13
REMARK SMILES IDX 40 14 38 15 43 16 41 18 39 20 37 22 35 24 10 26 11 27 12 28
REMARK SMILES IDX 30 29 21 30 29 31 31 32 22 33 27 34 23 35 26 36 24 37 13 38
REMARK SMILES IDX 20 39 14 40 18 41 15 42 16 43 19 44 17 46 28 48 25 50 33 52
REMARK H PARENT 43 17 41 19 39 21 37 23 35 25 19 45 17 47 28 49 25 51 33 53
REMARK Flexibility Score: inf
ROOT
ATOM      1  C   UNL     1      -7.244 -32.254  47.631  1.00  0.00     0.180 C 
ATOM      2  C   UNL     1      -7.372 -31.990  49.157  1.00  0.00     0.177 C 
ATOM      3  C   UNL     1      -8.853 -32.129  49.612  1.00  0.00     0.180 C 
ATOM      4  C   UNL     1      -9.790 -32.539  48.455  1.00  0.00     0.214 C 
ATOM      5  C   UNL     1      -9.151 -33.685  47.628  1.00  0.00     0.339 C 
ATOM      6  O   UNL     1      -7.771 -33.520  47.294  1.00  0.00    -0.332 OA
ENDROOT
BRANCH   1   7
ATOM      7  C   UNL     1      -5.782 -32.192  47.142  1.00  0.00     0.198 C 
BRANCH   7   8
ATOM      8  O   UNL     1      -5.692 -31.586  45.852  1.00  0.00    -0.347 OA
BRANCH   8   9
ATOM      9  C   UNL     1      -5.571 -30.171  45.918  1.00  0.00     0.281 C 
ATOM     10  C   UNL     1      -2.570 -28.942  45.267  1.00  0.00     0.041 C 
ATOM     11  C   UNL     1      -3.726 -28.617  46.211  1.00  0.00     0.150 C 
ATOM     12  C   UNL     1      -4.658 -27.512  45.656  1.00  0.00     0.174 C 
ATOM     13  O   UNL     1      -4.386 -29.807  46.631  1.00  0.00    -0.344 OA
ATOM     14  C   UNL     1      -5.632 -28.003  44.542  1.00  0.00     0.179 C 
ATOM     15  C   UNL     1      -5.759 -29.543  44.513  1.00  0.00     0.202 C 
BRANCH  12  16
ATOM     16  O   UNL     1      -5.347 -26.876  46.705  1.00  0.00    -0.388 OA
ATOM     17  H   UNL     1      -5.958 -27.543  47.119  1.00  0.00     0.211 HD
ENDBRANCH  12  16
BRANCH  14  18
ATOM     18  O   UNL     1      -6.887 -27.361  44.632  1.00  0.00    -0.387 OA
ATOM     19  H   UNL     1      -6.721 -26.402  44.787  1.00  0.00     0.211 HD
ENDBRANCH  14  18
BRANCH  15  20
ATOM     20  O   UNL     1      -6.975 -29.934  43.911  1.00  0.00    -0.385 OA
ATOM     21  H   UNL     1      -7.463 -30.504  44.545  1.00  0.00     0.211 HD
ENDBRANCH  15  20
ENDBRANCH   8   9
ENDBRANCH   7   8
ENDBRANCH   1   7
BRANCH   2  22
ATOM     22  O   UNL     1      -6.550 -32.855  49.903  1.00  0.00    -0.387 OA
ATOM     23  H   UNL     1      -6.610 -32.585  50.858  1.00  0.00     0.211 HD
ENDBRANCH   2  22
BRANCH   3  24
ATOM     24  O   UNL     1      -9.322 -30.911  50.149  1.00  0.00    -0.387 OA
ATOM     25  H   UNL     1      -9.970 -31.135  50.850  1.00  0.00     0.211 HD
ENDBRANCH   3  24
BRANCH   5  26
ATOM     26  O   UNL     1      -9.931 -33.881  46.446  1.00  0.00    -0.454 OA
BRANCH  26  27
ATOM     27  C   UNL     1     -10.353 -35.132  45.963  1.00  0.00     0.214 A 
ATOM     28  C   UNL     1     -10.245 -35.433  44.596  1.00  0.00     0.180 A 
ATOM     29  C   UNL     1     -10.913 -36.072  46.830  1.00  0.00     0.239 A 
ATOM     30  O   UNL     1     -10.648 -36.618  44.143  1.00  0.00    -0.452 OA
ATOM     31  C   UNL     1     -11.334 -37.320  46.319  1.00  0.00     0.111 A 
ATOM     32  O   UNL     1     -11.042 -35.775  48.047  1.00  0.00    -0.285 OA
ATOM     33  C   UNL     1     -11.186 -37.548  44.925  1.00  0.00     0.146 A 
ATOM     34  C   UNL     1     -11.892 -38.334  47.132  1.00  0.00     0.134 A 
ATOM     35  C   UNL     1     -11.595 -38.759  44.366  1.00  0.00     0.094 A 
ATOM     36  C   UNL     1     -12.303 -39.543  46.547  1.00  0.00     0.093 A 
ATOM     37  C   UNL     1     -12.180 -39.746  45.166  1.00  0.00     0.123 A 
BRANCH  28  38
ATOM     38  C   UNL     1      -9.639 -34.478  43.655  1.00  0.00     0.025 A 
ATOM     39  C   UNL     1     -10.205 -34.306  42.379  1.00  0.00     0.062 A 
ATOM     40  C   UNL     1      -8.540 -33.691  44.027  1.00  0.00     0.016 A 
ATOM     41  C   UNL     1      -9.641 -33.398  41.466  1.00  0.00     0.158 A 
ATOM     42  C   UNL     1      -7.980 -32.788  43.114  1.00  0.00     0.051 A 
ATOM     43  C   UNL     1      -8.530 -32.636  41.840  1.00  0.00     0.157 A 
BRANCH  41  44
ATOM     44  O   UNL     1     -10.184 -33.246  40.189  1.00  0.00    -0.504 OA
ATOM     45  H   UNL     1      -9.587 -33.211  39.359  1.00  0.00     0.293 HD
ENDBRANCH  41  44
BRANCH  43  46
ATOM     46  O   UNL     1      -7.976 -31.722  40.942  1.00  0.00    -0.504 OA
ATOM     47  H   UNL     1      -8.401 -30.812  40.764  1.00  0.00     0.293 HD
ENDBRANCH  43  46
ENDBRANCH  28  38
BRANCH  34  48
ATOM     48  O   UNL     1     -12.024 -38.166  48.506  1.00  0.00    -0.507 OA
ATOM     49  H   UNL     1     -12.369 -37.315  48.924  1.00  0.00     0.293 HD
ENDBRANCH  34  48
BRANCH  37  50
ATOM     50  O   UNL     1     -12.645 -40.938  44.605  1.00  0.00    -0.508 OA
ATOM     51  H   UNL     1     -12.944 -40.984  43.642  1.00  0.00     0.293 HD
ENDBRANCH  37  50
ENDBRANCH  26  27
ENDBRANCH   5  26
BRANCH   4  52
ATOM     52  O   UNL     1     -11.027 -32.956  48.990  1.00  0.00    -0.384 OA
ATOM     53  H   UNL     1     -10.840 -33.746  49.560  1.00  0.00     0.211 HD
ENDBRANCH   4  52
TORSDOF 16
ENDMDL
MODEL 4
REMARK VINA RESULT:    -9.232      2.499      5.735
REMARK INTER + INTRA:         -16.453
REMARK INTER:                 -14.936
REMARK INTRA:                  -1.517
REMARK UNBOUND:                -1.285
REMARK SMILES C[C@@H]1O[C@H](OC[C@H]2O[C@H](Oc3c(-c4ccc(O)c(O)c4)oc4cc(O)cc(O)c4c3=O)[C@@H](O)[C@H](O)[C@H]2O)[C@@H](O)[C@@H](O)[C@H]1O
REMARK SMILES IDX 7 1 36 2 34 3 32 4 9 5 8 6 6 7 5 8 4 9 1 10 2 11 42 12 3 13
REMARK SMILES IDX 40 14 38 15 43 16 41 18 39 20 37 22 35 24 10 26 11 27 12 28
REMARK SMILES IDX 30 29 21 30 29 31 31 32 22 33 27 34 23 35 26 36 24 37 13 38
REMARK SMILES IDX 20 39 14 40 18 41 15 42 16 43 19 44 17 46 28 48 25 50 33 52
REMARK H PARENT 43 17 41 19 39 21 37 23 35 25 19 45 17 47 28 49 25 51 33 53
REMARK Flexibility Score: inf
ROOT
ATOM      1  C   UNL     1      -6.126 -31.144  50.548  1.00  0.00     0.180 C 
ATOM      2  C   UNL     1      -7.640 -31.301  50.869  1.00  0.00     0.177 C 
ATOM      3  C   UNL     1      -8.385 -29.953  50.653  1.00  0.00     0.180 C 
ATOM      4  C   UNL     1      -7.450 -28.838  50.135  1.00  0.00     0.214 C 
ATOM      5  C   UNL     1      -6.546 -29.382  48.999  1.00  0.00     0.339 C 
ATOM      6  O   UNL     1      -5.938 -30.654  49.239  1.00  0.00    -0.332 OA
ENDROOT
BRANCH   1   7
ATOM      7  C   UNL     1      -5.354 -32.473  50.685  1.00  0.00     0.198 C 
BRANCH   7   8
ATOM      8  O   UNL     1      -5.557 -33.061  51.970  1.00  0.00    -0.347 OA
BRANCH   8   9
ATOM      9  C   UNL     1      -4.406 -33.746  52.447  1.00  0.00     0.281 C 
ATOM     10  C   UNL     1      -4.533 -34.777  55.588  1.00  0.00     0.041 C 
ATOM     11  C   UNL     1      -3.474 -34.214  54.642  1.00  0.00     0.150 C 
ATOM     12  C   UNL     1      -2.624 -35.320  53.969  1.00  0.00     0.174 C 
ATOM     13  O   UNL     1      -4.046 -33.267  53.746  1.00  0.00    -0.344 OA
ATOM     14  C   UNL     1      -3.351 -36.060  52.805  1.00  0.00     0.179 C 
ATOM     15  C   UNL     1      -4.582 -35.278  52.294  1.00  0.00     0.202 C 
BRANCH  12  16
ATOM     16  O   UNL     1      -1.379 -34.806  53.561  1.00  0.00    -0.388 OA
ATOM     17  H   UNL     1      -1.199 -33.985  54.092  1.00  0.00     0.211 HD
ENDBRANCH  12  16
BRANCH  14  18
ATOM     18  O   UNL     1      -2.455 -36.393  51.765  1.00  0.00    -0.387 OA
ATOM     19  H   UNL     1      -2.896 -37.063  51.194  1.00  0.00     0.211 HD
ENDBRANCH  14  18
BRANCH  15  20
ATOM     20  O   UNL     1      -4.896 -35.650  50.969  1.00  0.00    -0.385 OA
ATOM     21  H   UNL     1      -5.784 -36.071  50.969  1.00  0.00     0.211 HD
ENDBRANCH  15  20
ENDBRANCH   8   9
ENDBRANCH   7   8
ENDBRANCH   1   7
BRANCH   2  22
ATOM     22  O   UNL     1      -8.231 -32.314  50.090  1.00  0.00    -0.387 OA
ATOM     23  H   UNL     1      -9.051 -32.620  50.561  1.00  0.00     0.211 HD
ENDBRANCH   2  22
BRANCH   3  24
ATOM     24  O   UNL     1      -8.969 -29.513  51.860  1.00  0.00    -0.387 OA
ATOM     25  H   UNL     1      -9.911 -29.783  51.841  1.00  0.00     0.211 HD
ENDBRANCH   3  24
BRANCH   5  26
ATOM     26  O   UNL     1      -5.550 -28.400  48.703  1.00  0.00    -0.454 OA
BRANCH  26  27
ATOM     27  C   UNL     1      -4.194 -28.682  48.461  1.00  0.00     0.214 A 
ATOM     28  C   UNL     1      -3.792 -29.205  47.221  1.00  0.00     0.180 A 
ATOM     29  C   UNL     1      -3.240 -28.479  49.460  1.00  0.00     0.239 A 
ATOM     30  O   UNL     1      -2.508 -29.473  46.997  1.00  0.00    -0.452 OA
ATOM     31  C   UNL     1      -1.885 -28.777  49.193  1.00  0.00     0.111 A 
ATOM     32  O   UNL     1      -3.618 -28.050  50.582  1.00  0.00    -0.285 OA
ATOM     33  C   UNL     1      -1.561 -29.296  47.913  1.00  0.00     0.146 A 
ATOM     34  C   UNL     1      -0.855 -28.580  50.143  1.00  0.00     0.134 A 
ATOM     35  C   UNL     1      -0.240 -29.617  47.600  1.00  0.00     0.094 A 
ATOM     36  C   UNL     1       0.467 -28.916  49.810  1.00  0.00     0.093 A 
ATOM     37  C   UNL     1       0.771 -29.456  48.553  1.00  0.00     0.123 A 
BRANCH  28  38
ATOM     38  C   UNL     1      -4.764 -29.410  46.135  1.00  0.00     0.025 A 
ATOM     39  C   UNL     1      -5.423 -28.301  45.573  1.00  0.00     0.062 A 
ATOM     40  C   UNL     1      -5.004 -30.687  45.607  1.00  0.00     0.016 A 
ATOM     41  C   UNL     1      -6.354 -28.477  44.534  1.00  0.00     0.158 A 
ATOM     42  C   UNL     1      -5.932 -30.857  44.573  1.00  0.00     0.051 A 
ATOM     43  C   UNL     1      -6.602 -29.759  44.033  1.00  0.00     0.157 A 
BRANCH  41  44
ATOM     44  O   UNL     1      -7.030 -27.382  43.995  1.00  0.00    -0.504 OA
ATOM     45  H   UNL     1      -7.682 -27.493  43.214  1.00  0.00     0.293 HD
ENDBRANCH  41  44
BRANCH  43  46
ATOM     46  O   UNL     1      -7.514 -29.936  42.991  1.00  0.00    -0.504 OA
ATOM     47  H   UNL     1      -7.539 -30.789  42.433  1.00  0.00     0.293 HD
ENDBRANCH  43  46
ENDBRANCH  28  38
BRANCH  34  48
ATOM     48  O   UNL     1      -1.123 -28.042  51.397  1.00  0.00    -0.507 OA
ATOM     49  H   UNL     1      -1.941 -28.286  51.935  1.00  0.00     0.293 HD
ENDBRANCH  34  48
BRANCH  37  50
ATOM     50  O   UNL     1       2.088 -29.828  48.267  1.00  0.00    -0.508 OA
ATOM     51  H   UNL     1       2.382 -30.038  47.325  1.00  0.00     0.293 HD
ENDBRANCH  37  50
ENDBRANCH  26  27
ENDBRANCH   5  26
BRANCH   4  52
ATOM     52  O   UNL     1      -8.233 -27.763  49.662  1.00  0.00    -0.384 OA
ATOM     53  H   UNL     1      -8.887 -28.147  49.023  1.00  0.00     0.211 HD
ENDBRANCH   4  52
TORSDOF 16
ENDMDL
MODEL 5
REMARK VINA RESULT:    -8.949      3.676      7.012
REMARK INTER + INTRA:         -15.989
REMARK INTER:                 -13.411
REMARK INTRA:                  -2.578
REMARK UNBOUND:                -1.285
REMARK SMILES C[C@@H]1O[C@H](OC[C@H]2O[C@H](Oc3c(-c4ccc(O)c(O)c4)oc4cc(O)cc(O)c4c3=O)[C@@H](O)[C@H](O)[C@H]2O)[C@@H](O)[C@@H](O)[C@H]1O
REMARK SMILES IDX 7 1 36 2 34 3 32 4 9 5 8 6 6 7 5 8 4 9 1 10 2 11 42 12 3 13
REMARK SMILES IDX 40 14 38 15 43 16 41 18 39 20 37 22 35 24 10 26 11 27 12 28
REMARK SMILES IDX 30 29 21 30 29 31 31 32 22 33 27 34 23 35 26 36 24 37 13 38
REMARK SMILES IDX 20 39 14 40 18 41 15 42 16 43 19 44 17 46 28 48 25 50 33 52
REMARK H PARENT 43 17 41 19 39 21 37 23 35 25 19 45 17 47 28 49 25 51 33 53
REMARK Flexibility Score: inf
ROOT
ATOM      1  C   UNL     1      -8.425 -31.522  47.377  1.00  0.00     0.180 C 
ATOM      2  C   UNL     1      -8.334 -31.382  48.923  1.00  0.00     0.177 C 
ATOM      3  C   UNL     1      -9.487 -32.168  49.610  1.00  0.00     0.180 C 
ATOM      4  C   UNL     1     -10.379 -32.914  48.595  1.00  0.00     0.214 C 
ATOM      5  C   UNL     1      -9.502 -33.643  47.544  1.00  0.00     0.339 C 
ATOM      6  O   UNL     1      -8.424 -32.880  46.995  1.00  0.00    -0.332 OA
ENDROOT
BRANCH   1   7
ATOM      7  C   UNL     1      -7.263 -30.812  46.651  1.00  0.00     0.198 C 
BRANCH   7   8
ATOM      8  O   UNL     1      -6.204 -31.723  46.353  1.00  0.00    -0.347 OA
BRANCH   8   9
ATOM      9  C   UNL     1      -4.985 -31.063  46.043  1.00  0.00     0.281 C 
ATOM     10  C   UNL     1      -5.255 -27.934  45.006  1.00  0.00     0.041 C 
ATOM     11  C   UNL     1      -4.369 -29.138  44.693  1.00  0.00     0.150 C 
ATOM     12  C   UNL     1      -3.027 -29.111  45.466  1.00  0.00     0.174 C 
ATOM     13  O   UNL     1      -5.105 -30.352  44.808  1.00  0.00    -0.344 OA
ATOM     14  C   UNL     1      -3.150 -29.520  46.966  1.00  0.00     0.179 C 
ATOM     15  C   UNL     1      -4.476 -30.256  47.265  1.00  0.00     0.202 C 
BRANCH  12  16
ATOM     16  O   UNL     1      -2.056 -29.879  44.796  1.00  0.00    -0.388 OA
ATOM     17  H   UNL     1      -2.153 -29.710  43.821  1.00  0.00     0.211 HD
ENDBRANCH  12  16
BRANCH  14  18
ATOM     18  O   UNL     1      -2.020 -30.250  47.397  1.00  0.00    -0.387 OA
ATOM     19  H   UNL     1      -2.296 -31.189  47.507  1.00  0.00     0.211 HD
ENDBRANCH  14  18
BRANCH  15  20
ATOM     20  O   UNL     1      -4.354 -31.057  48.421  1.00  0.00    -0.385 OA
ATOM     21  H   UNL     1      -4.802 -31.914  48.250  1.00  0.00     0.211 HD
ENDBRANCH  15  20
ENDBRANCH   8   9
ENDBRANCH   7   8
ENDBRANCH   1   7
BRANCH   2  22
ATOM     22  O   UNL     1      -7.088 -31.820  49.410  1.00  0.00    -0.387 OA
ATOM     23  H   UNL     1      -6.743 -32.512  48.785  1.00  0.00     0.211 HD
ENDBRANCH   2  22
BRANCH   3  24
ATOM     24  O   UNL     1     -10.305 -31.293  50.356  1.00  0.00    -0.387 OA
ATOM     25  H   UNL     1     -10.941 -30.887  49.730  1.00  0.00     0.211 HD
ENDBRANCH   3  24
BRANCH   5  26
ATOM     26  O   UNL     1     -10.352 -34.128  46.501  1.00  0.00    -0.454 OA
BRANCH  26  27
ATOM     27  C   UNL     1     -10.343 -35.444  46.009  1.00  0.00     0.214 A 
ATOM     28  C   UNL     1     -10.041 -35.691  44.660  1.00  0.00     0.180 A 
ATOM     29  C   UNL     1     -10.666 -36.515  46.845  1.00  0.00     0.239 A 
ATOM     30  O   UNL     1     -10.036 -36.938  44.197  1.00  0.00    -0.452 OA
ATOM     31  C   UNL     1     -10.655 -37.827  46.324  1.00  0.00     0.111 A 
ATOM     32  O   UNL     1     -10.975 -36.278  48.042  1.00  0.00    -0.285 OA
ATOM     33  C   UNL     1     -10.334 -37.992  44.950  1.00  0.00     0.146 A 
ATOM     34  C   UNL     1     -10.950 -38.967  47.108  1.00  0.00     0.134 A 
ATOM     35  C   UNL     1     -10.319 -39.265  44.382  1.00  0.00     0.094 A 
ATOM     36  C   UNL     1     -10.936 -40.239  46.514  1.00  0.00     0.093 A 
ATOM     37  C   UNL     1     -10.647 -40.387  45.150  1.00  0.00     0.123 A 
BRANCH  28  38
ATOM     38  C   UNL     1      -9.672 -34.592  43.753  1.00  0.00     0.025 A 
ATOM     39  C   UNL     1      -8.520 -33.829  44.019  1.00  0.00     0.062 A 
ATOM     40  C   UNL     1     -10.414 -34.327  42.594  1.00  0.00     0.016 A 
ATOM     41  C   UNL     1      -8.150 -32.776  43.164  1.00  0.00     0.158 A 
ATOM     42  C   UNL     1     -10.043 -33.276  41.745  1.00  0.00     0.051 A 
ATOM     43  C   UNL     1      -8.913 -32.506  42.024  1.00  0.00     0.157 A 
BRANCH  41  44
ATOM     44  O   UNL     1      -7.025 -31.999  43.441  1.00  0.00    -0.504 OA
ATOM     45  H   UNL     1      -6.673 -31.315  42.767  1.00  0.00     0.293 HD
ENDBRANCH  41  44
BRANCH  43  46
ATOM     46  O   UNL     1      -8.541 -31.471  41.163  1.00  0.00    -0.504 OA
ATOM     47  H   UNL     1      -7.587 -31.113  41.128  1.00  0.00     0.293 HD
ENDBRANCH  43  46
ENDBRANCH  28  38
BRANCH  34  48
ATOM     48  O   UNL     1     -11.237 -38.855  48.464  1.00  0.00    -0.507 OA
ATOM     49  H   UNL     1     -10.911 -38.088  49.033  1.00  0.00     0.293 HD
ENDBRANCH  34  48
BRANCH  37  50
ATOM     50  O   UNL     1     -10.690 -41.660  44.575  1.00  0.00    -0.508 OA
ATOM     51  H   UNL     1      -9.887 -42.052  44.106  1.00  0.00     0.293 HD
ENDBRANCH  37  50
ENDBRANCH  26  27
ENDBRANCH   5  26
BRANCH   4  52
ATOM     52  O   UNL     1     -11.184 -33.846  49.286  1.00  0.00    -0.384 OA
ATOM     53  H   UNL     1     -10.579 -34.355  49.886  1.00  0.00     0.211 HD
ENDBRANCH   4  52
TORSDOF 16
ENDMDL
MODEL 6
REMARK VINA RESULT:    -8.797      3.465      4.869
REMARK INTER + INTRA:         -15.738
REMARK INTER:                 -14.011
REMARK INTRA:                  -1.728
REMARK UNBOUND:                -1.285
REMARK SMILES C[C@@H]1O[C@H](OC[C@H]2O[C@H](Oc3c(-c4ccc(O)c(O)c4)oc4cc(O)cc(O)c4c3=O)[C@@H](O)[C@H](O)[C@H]2O)[C@@H](O)[C@@H](O)[C@H]1O
REMARK SMILES IDX 7 1 36 2 34 3 32 4 9 5 8 6 6 7 5 8 4 9 1 10 2 11 42 12 3 13
REMARK SMILES IDX 40 14 38 15 43 16 41 18 39 20 37 22 35 24 10 26 11 27 12 28
REMARK SMILES IDX 30 29 21 30 29 31 31 32 22 33 27 34 23 35 26 36 24 37 13 38
REMARK SMILES IDX 20 39 14 40 18 41 15 42 16 43 19 44 17 46 28 48 25 50 33 52
REMARK H PARENT 43 17 41 19 39 21 37 23 35 25 19 45 17 47 28 49 25 51 33 53
REMARK Flexibility Score: inf
ROOT
ATOM      1  C   UNL     1      -9.244 -30.923  49.387  1.00  0.00     0.180 C 
ATOM      2  C   UNL     1      -8.773 -29.708  50.235  1.00  0.00     0.177 C 
ATOM      3  C   UNL     1      -7.254 -29.451  50.024  1.00  0.00     0.180 C 
ATOM      4  C   UNL     1      -6.628 -30.423  49.001  1.00  0.00     0.214 C 
ATOM      5  C   UNL     1      -7.543 -30.556  47.756  1.00  0.00     0.339 C 
ATOM      6  O   UNL     1      -8.937 -30.731  48.022  1.00  0.00    -0.332 OA
ENDROOT
BRANCH   1   7
ATOM      7  C   UNL     1     -10.760 -31.179  49.512  1.00  0.00     0.198 C 
BRANCH   7   8
ATOM      8  O   UNL     1     -11.061 -32.571  49.409  1.00  0.00    -0.347 OA
BRANCH   8   9
ATOM      9  C   UNL     1     -11.563 -33.115  50.623  1.00  0.00     0.281 C 
ATOM     10  C   UNL     1     -13.531 -31.130  52.393  1.00  0.00     0.041 C 
ATOM     11  C   UNL     1     -12.461 -32.182  52.680  1.00  0.00     0.150 C 
ATOM     12  C   UNL     1     -13.060 -33.581  52.971  1.00  0.00     0.174 C 
ATOM     13  O   UNL     1     -11.447 -32.159  51.680  1.00  0.00    -0.344 OA
ATOM     14  C   UNL     1     -13.547 -34.341  51.700  1.00  0.00     0.179 C 
ATOM     15  C   UNL     1     -12.964 -33.740  50.400  1.00  0.00     0.202 C 
BRANCH  12  16
ATOM     16  O   UNL     1     -12.161 -34.355  53.727  1.00  0.00    -0.388 OA
ATOM     17  H   UNL     1     -12.601 -35.223  53.930  1.00  0.00     0.211 HD
ENDBRANCH  12  16
BRANCH  14  18
ATOM     18  O   UNL     1     -13.310 -35.729  51.805  1.00  0.00    -0.387 OA
ATOM     19  H   UNL     1     -13.936 -36.186  51.198  1.00  0.00     0.211 HD
ENDBRANCH  14  18
BRANCH  15  20
ATOM     20  O   UNL     1     -12.963 -34.697  49.363  1.00  0.00    -0.385 OA
ATOM     21  H   UNL     1     -13.080 -34.227  48.509  1.00  0.00     0.211 HD
ENDBRANCH  15  20
ENDBRANCH   8   9
ENDBRANCH   7   8
ENDBRANCH   1   7
BRANCH   2  22
ATOM     22  O   UNL     1      -9.511 -28.548  49.931  1.00  0.00    -0.387 OA
ATOM     23  H   UNL     1      -9.894 -28.200  50.779  1.00  0.00     0.211 HD
ENDBRANCH   2  22
BRANCH   3  24
ATOM     24  O   UNL     1      -6.556 -29.583  51.243  1.00  0.00    -0.387 OA
ATOM     25  H   UNL     1      -5.947 -30.345  51.146  1.00  0.00     0.211 HD
ENDBRANCH   3  24
BRANCH   5  26
ATOM     26  O   UNL     1      -7.051 -31.623  46.943  1.00  0.00    -0.454 OA
BRANCH  26  27
ATOM     27  C   UNL     1      -7.453 -31.872  45.619  1.00  0.00     0.214 A 
ATOM     28  C   UNL     1      -6.912 -31.120  44.564  1.00  0.00     0.180 A 
ATOM     29  C   UNL     1      -8.418 -32.844  45.344  1.00  0.00     0.239 A 
ATOM     30  O   UNL     1      -7.298 -31.357  43.312  1.00  0.00    -0.452 OA
ATOM     31  C   UNL     1      -8.809 -33.070  44.005  1.00  0.00     0.111 A 
ATOM     32  O   UNL     1      -8.926 -33.483  46.302  1.00  0.00    -0.285 OA
ATOM     33  C   UNL     1      -8.210 -32.271  42.997  1.00  0.00     0.146 A 
ATOM     34  C   UNL     1      -9.763 -34.049  43.640  1.00  0.00     0.134 A 
ATOM     35  C   UNL     1      -8.568 -32.446  41.659  1.00  0.00     0.094 A 
ATOM     36  C   UNL     1     -10.113 -34.204  42.289  1.00  0.00     0.093 A 
ATOM     37  C   UNL     1      -9.538 -33.389  41.304  1.00  0.00     0.123 A 
BRANCH  28  38
ATOM     38  C   UNL     1      -5.877 -30.104  44.810  1.00  0.00     0.025 A 
ATOM     39  C   UNL     1      -4.521 -30.482  44.821  1.00  0.00     0.062 A 
ATOM     40  C   UNL     1      -6.211 -28.753  44.978  1.00  0.00     0.016 A 
ATOM     41  C   UNL     1      -3.517 -29.526  45.054  1.00  0.00     0.158 A 
ATOM     42  C   UNL     1      -5.207 -27.804  45.211  1.00  0.00     0.051 A 
ATOM     43  C   UNL     1      -3.865 -28.185  45.243  1.00  0.00     0.157 A 
BRANCH  41  44
ATOM     44  O   UNL     1      -2.174 -29.902  45.093  1.00  0.00    -0.504 OA
ATOM     45  H   UNL     1      -1.812 -30.501  45.839  1.00  0.00     0.293 HD
ENDBRANCH  41  44
BRANCH  43  46
ATOM     46  O   UNL     1      -2.870 -27.229  45.459  1.00  0.00    -0.504 OA
ATOM     47  H   UNL     1      -2.995 -26.251  45.202  1.00  0.00     0.293 HD
ENDBRANCH  43  46
ENDBRANCH  28  38
BRANCH  34  48
ATOM     48  O   UNL     1     -10.349 -34.876  44.592  1.00  0.00    -0.507 OA
ATOM     49  H   UNL     1     -11.103 -34.575  45.190  1.00  0.00     0.293 HD
ENDBRANCH  34  48
BRANCH  37  50
ATOM     50  O   UNL     1      -9.944 -33.531  39.975  1.00  0.00    -0.508 OA
ATOM     51  H   UNL     1     -10.809 -33.130  39.643  1.00  0.00     0.293 HD
ENDBRANCH  37  50
ENDBRANCH  26  27
ENDBRANCH   5  26
BRANCH   4  52
ATOM     52  O   UNL     1      -5.358 -29.938  48.622  1.00  0.00    -0.384 OA
ATOM     53  H   UNL     1      -5.489 -29.421  47.784  1.00  0.00     0.211 HD
ENDBRANCH   4  52
TORSDOF 16
ENDMDL
MODEL 7
REMARK VINA RESULT:    -8.706      3.258      7.827
REMARK INTER + INTRA:         -15.589
REMARK INTER:                 -12.248
REMARK INTRA:                  -3.341
REMARK UNBOUND:                -1.285
REMARK SMILES C[C@@H]1O[C@H](OC[C@H]2O[C@H](Oc3c(-c4ccc(O)c(O)c4)oc4cc(O)cc(O)c4c3=O)[C@@H](O)[C@H](O)[C@H]2O)[C@@H](O)[C@@H](O)[C@H]1O
REMARK SMILES IDX 7 1 36 2 34 3 32 4 9 5 8 6 6 7 5 8 4 9 1 10 2 11 42 12 3 13
REMARK SMILES IDX 40 14 38 15 43 16 41 18 39 20 37 22 35 24 10 26 11 27 12 28
REMARK SMILES IDX 30 29 21 30 29 31 31 32 22 33 27 34 23 35 26 36 24 37 13 38
REMARK SMILES IDX 20 39 14 40 18 41 15 42 16 43 19 44 17 46 28 48 25 50 33 52
REMARK H PARENT 43 17 41 19 39 21 37 23 35 25 19 45 17 47 28 49 25 51 33 53
REMARK Flexibility Score: inf
ROOT
ATOM      1  C   UNL     1      -7.273 -30.137  46.913  1.00  0.00     0.180 C 
ATOM      2  C   UNL     1      -7.568 -31.088  45.718  1.00  0.00     0.177 C 
ATOM      3  C   UNL     1      -6.559 -30.839  44.561  1.00  0.00     0.180 C 
ATOM      4  C   UNL     1      -5.508 -29.764  44.916  1.00  0.00     0.214 C 
ATOM      5  C   UNL     1      -4.961 -30.000  46.348  1.00  0.00     0.339 C 
ATOM      6  O   UNL     1      -5.940 -30.281  47.351  1.00  0.00    -0.332 OA
ENDROOT
BRANCH   1   7
ATOM      7  C   UNL     1      -8.210 -30.390  48.113  1.00  0.00     0.198 C 
BRANCH   7   8
ATOM      8  O   UNL     1      -7.900 -31.625  48.760  1.00  0.00    -0.347 OA
BRANCH   8   9
ATOM      9  C   UNL     1      -8.951 -32.081  49.602  1.00  0.00     0.281 C 
ATOM     10  C   UNL     1     -10.980 -29.748  50.777  1.00  0.00     0.041 C 
ATOM     11  C   UNL     1     -10.371 -31.054  51.285  1.00  0.00     0.150 C 
ATOM     12  C   UNL     1     -11.325 -32.263  51.120  1.00  0.00     0.174 C 
ATOM     13  O   UNL     1      -9.063 -31.243  50.754  1.00  0.00    -0.344 OA
ATOM     14  C   UNL     1     -11.415 -32.806  49.661  1.00  0.00     0.179 C 
ATOM     15  C   UNL     1     -10.245 -32.311  48.780  1.00  0.00     0.202 C 
BRANCH  12  16
ATOM     16  O   UNL     1     -10.994 -33.280  52.034  1.00  0.00    -0.388 OA
ATOM     17  H   UNL     1     -11.595 -33.190  52.822  1.00  0.00     0.211 HD
ENDBRANCH  12  16
BRANCH  14  18
ATOM     18  O   UNL     1     -11.547 -34.212  49.641  1.00  0.00    -0.387 OA
ATOM     19  H   UNL     1     -12.191 -34.462  50.343  1.00  0.00     0.211 HD
ENDBRANCH  14  18
BRANCH  15  20
ATOM     20  O   UNL     1     -10.037 -33.183  47.689  1.00  0.00    -0.385 OA
ATOM     21  H   UNL     1     -10.905 -33.560  47.426  1.00  0.00     0.211 HD
ENDBRANCH  15  20
ENDBRANCH   8   9
ENDBRANCH   7   8
ENDBRANCH   1   7
BRANCH   2  22
ATOM     22  O   UNL     1      -7.535 -32.439  46.111  1.00  0.00    -0.387 OA
ATOM     23  H   UNL     1      -7.930 -32.501  47.021  1.00  0.00     0.211 HD
ENDBRANCH   2  22
BRANCH   3  24
ATOM     24  O   UNL     1      -7.235 -30.426  43.394  1.00  0.00    -0.387 OA
ATOM     25  H   UNL     1      -6.701 -29.711  42.988  1.00  0.00     0.211 HD
ENDBRANCH   3  24
BRANCH   5  26
ATOM     26  O   UNL     1      -4.171 -28.869  46.723  1.00  0.00    -0.454 OA
BRANCH  26  27
ATOM     27  C   UNL     1      -2.932 -28.942  47.384  1.00  0.00     0.214 A 
ATOM     28  C   UNL     1      -2.879 -28.948  48.787  1.00  0.00     0.180 A 
ATOM     29  C   UNL     1      -1.742 -28.975  46.653  1.00  0.00     0.239 A 
ATOM     30  O   UNL     1      -1.704 -29.015  49.408  1.00  0.00    -0.452 OA
ATOM     31  C   UNL     1      -0.510 -29.043  47.341  1.00  0.00     0.111 A 
ATOM     32  O   UNL     1      -1.800 -28.928  45.397  1.00  0.00    -0.285 OA
ATOM     33  C   UNL     1      -0.544 -29.050  48.761  1.00  0.00     0.146 A 
ATOM     34  C   UNL     1       0.738 -29.101  46.677  1.00  0.00     0.134 A 
ATOM     35  C   UNL     1       0.644 -29.105  49.490  1.00  0.00     0.094 A 
ATOM     36  C   UNL     1       1.922 -29.148  47.431  1.00  0.00     0.093 A 
ATOM     37  C   UNL     1       1.878 -29.125  48.831  1.00  0.00     0.123 A 
BRANCH  28  38
ATOM     38  C   UNL     1      -4.111 -28.939  49.591  1.00  0.00     0.025 A 
ATOM     39  C   UNL     1      -4.550 -30.127  50.204  1.00  0.00     0.062 A 
ATOM     40  C   UNL     1      -4.828 -27.753  49.808  1.00  0.00     0.016 A 
ATOM     41  C   UNL     1      -5.725 -30.138  50.977  1.00  0.00     0.158 A 
ATOM     42  C   UNL     1      -5.998 -27.769  50.578  1.00  0.00     0.051 A 
ATOM     43  C   UNL     1      -6.444 -28.954  51.166  1.00  0.00     0.157 A 
BRANCH  41  44
ATOM     44  O   UNL     1      -6.178 -31.321  51.562  1.00  0.00    -0.504 OA
ATOM     45  H   UNL     1      -5.672 -32.201  51.441  1.00  0.00     0.293 HD
ENDBRANCH  41  44
BRANCH  43  46
ATOM     46  O   UNL     1      -7.601 -28.957  51.946  1.00  0.00    -0.504 OA
ATOM     47  H   UNL     1      -8.012 -29.819  52.302  1.00  0.00     0.293 HD
ENDBRANCH  43  46
ENDBRANCH  28  38
BRANCH  34  48
ATOM     48  O   UNL     1       0.815 -29.129  45.289  1.00  0.00    -0.507 OA
ATOM     49  H   UNL     1       0.864 -28.294  44.725  1.00  0.00     0.293 HD
ENDBRANCH  34  48
BRANCH  37  50
ATOM     50  O   UNL     1       3.074 -29.122  49.554  1.00  0.00    -0.508 OA
ATOM     51  H   UNL     1       3.779 -28.417  49.400  1.00  0.00     0.293 HD
ENDBRANCH  37  50
ENDBRANCH  26  27
ENDBRANCH   5  26
BRANCH   4  52
ATOM     52  O   UNL     1      -4.456 -29.820  43.977  1.00  0.00    -0.384 OA
ATOM     53  H   UNL     1      -4.006 -30.696  44.106  1.00  0.00     0.211 HD
ENDBRANCH   4  52
TORSDOF 16
ENDMDL
MODEL 8
REMARK VINA RESULT:    -8.627      2.971      5.333
REMARK INTER + INTRA:         -15.460
REMARK INTER:                 -13.580
REMARK INTRA:                  -1.880
REMARK UNBOUND:                -1.285
REMARK SMILES C[C@@H]1O[C@H](OC[C@H]2O[C@H](Oc3c(-c4ccc(O)c(O)c4)oc4cc(O)cc(O)c4c3=O)[C@@H](O)[C@H](O)[C@H]2O)[C@@H](O)[C@@H](O)[C@H]1O
REMARK SMILES IDX 7 1 36 2 34 3 32 4 9 5 8 6 6 7 5 8 4 9 1 10 2 11 42 12 3 13
REMARK SMILES IDX 40 14 38 15 43 16 41 18 39 20 37 22 35 24 10 26 11 27 12 28
REMARK SMILES IDX 30 29 21 30 29 31 31 32 22 33 27 34 23 35 26 36 24 37 13 38
REMARK SMILES IDX 20 39 14 40 18 41 15 42 16 43 19 44 17 46 28 48 25 50 33 52
REMARK H PARENT 43 17 41 19 39 21 37 23 35 25 19 45 17 47 28 49 25 51 33 53
REMARK Flexibility Score: inf
ROOT
ATOM      1  C   UNL     1      -5.706 -30.907  50.610  1.00  0.00     0.180 C 
ATOM      2  C   UNL     1      -4.508 -30.049  51.105  1.00  0.00     0.177 C 
ATOM      3  C   UNL     1      -4.889 -28.541  51.128  1.00  0.00     0.180 C 
ATOM      4  C   UNL     1      -6.355 -28.297  50.707  1.00  0.00     0.214 C 
ATOM      5  C   UNL     1      -7.291 -29.315  51.409  1.00  0.00     0.339 C 
ATOM      6  O   UNL     1      -6.851 -30.675  51.402  1.00  0.00    -0.332 OA
ENDROOT
BRANCH   1   7
ATOM      7  C   UNL     1      -5.398 -32.418  50.631  1.00  0.00     0.198 C 
BRANCH   7   8
ATOM      8  O   UNL     1      -5.581 -32.966  51.938  1.00  0.00    -0.347 OA
BRANCH   8   9
ATOM      9  C   UNL     1      -4.440 -33.678  52.398  1.00  0.00     0.281 C 
ATOM     10  C   UNL     1      -4.550 -34.713  55.538  1.00  0.00     0.041 C 
ATOM     11  C   UNL     1      -3.490 -34.172  54.580  1.00  0.00     0.150 C 
ATOM     12  C   UNL     1      -2.675 -35.296  53.894  1.00  0.00     0.174 C 
ATOM     13  O   UNL     1      -4.053 -33.210  53.693  1.00  0.00    -0.344 OA
ATOM     14  C   UNL     1      -3.433 -36.016  52.738  1.00  0.00     0.179 C 
ATOM     15  C   UNL     1      -4.653 -35.205  52.245  1.00  0.00     0.202 C 
BRANCH  12  16
ATOM     16  O   UNL     1      -1.424 -34.810  53.471  1.00  0.00    -0.388 OA
ATOM     17  H   UNL     1      -1.556 -34.337  52.606  1.00  0.00     0.211 HD
ENDBRANCH  12  16
BRANCH  14  18
ATOM     18  O   UNL     1      -2.559 -36.367  51.686  1.00  0.00    -0.387 OA
ATOM     19  H   UNL     1      -1.989 -35.587  51.498  1.00  0.00     0.211 HD
ENDBRANCH  14  18
BRANCH  15  20
ATOM     20  O   UNL     1      -4.993 -35.567  50.923  1.00  0.00    -0.385 OA
ATOM     21  H   UNL     1      -5.951 -35.780  50.898  1.00  0.00     0.211 HD
ENDBRANCH  15  20
ENDBRANCH   8   9
ENDBRANCH   7   8
ENDBRANCH   1   7
BRANCH   2  22
ATOM     22  O   UNL     1      -4.069 -30.459  52.378  1.00  0.00    -0.387 OA
ATOM     23  H   UNL     1      -3.412 -31.195  52.252  1.00  0.00     0.211 HD
ENDBRANCH   2  22
BRANCH   3  24
ATOM     24  O   UNL     1      -4.053 -27.807  50.260  1.00  0.00    -0.387 OA
ATOM     25  H   UNL     1      -3.797 -28.407  49.528  1.00  0.00     0.211 HD
ENDBRANCH   3  24
BRANCH   5  26
ATOM     26  O   UNL     1      -8.593 -29.208  50.829  1.00  0.00    -0.454 OA
BRANCH  26  27
ATOM     27  C   UNL     1      -9.463 -30.290  50.608  1.00  0.00     0.214 A 
ATOM     28  C   UNL     1      -9.549 -30.878  49.336  1.00  0.00     0.180 A 
ATOM     29  C   UNL     1     -10.273 -30.768  51.641  1.00  0.00     0.239 A 
ATOM     30  O   UNL     1     -10.376 -31.900  49.131  1.00  0.00    -0.452 OA
ATOM     31  C   UNL     1     -11.143 -31.853  51.391  1.00  0.00     0.111 A 
ATOM     32  O   UNL     1     -10.217 -30.206  52.766  1.00  0.00    -0.285 OA
ATOM     33  C   UNL     1     -11.166 -32.394  50.079  1.00  0.00     0.146 A 
ATOM     34  C   UNL     1     -11.980 -32.410  52.387  1.00  0.00     0.134 A 
ATOM     35  C   UNL     1     -12.014 -33.460  49.776  1.00  0.00     0.094 A 
ATOM     36  C   UNL     1     -12.831 -33.477  52.057  1.00  0.00     0.093 A 
ATOM     37  C   UNL     1     -12.868 -33.984  50.751  1.00  0.00     0.123 A 
BRANCH  28  38
ATOM     38  C   UNL     1      -8.696 -30.418  48.230  1.00  0.00     0.025 A 
ATOM     39  C   UNL     1      -8.662 -29.051  47.900  1.00  0.00     0.062 A 
ATOM     40  C   UNL     1      -7.867 -31.310  47.533  1.00  0.00     0.016 A 
ATOM     41  C   UNL     1      -7.852 -28.592  46.846  1.00  0.00     0.158 A 
ATOM     42  C   UNL     1      -7.063 -30.848  46.484  1.00  0.00     0.051 A 
ATOM     43  C   UNL     1      -7.048 -29.495  46.143  1.00  0.00     0.157 A 
BRANCH  41  44
ATOM     44  O   UNL     1      -7.838 -27.241  46.498  1.00  0.00    -0.504 OA
ATOM     45  H   UNL     1      -7.609 -26.939  45.548  1.00  0.00     0.293 HD
ENDBRANCH  41  44
BRANCH  43  46
ATOM     46  O   UNL     1      -6.231 -29.042  45.107  1.00  0.00    -0.504 OA
ATOM     47  H   UNL     1      -5.236 -29.260  45.067  1.00  0.00     0.293 HD
ENDBRANCH  43  46
ENDBRANCH  28  38
BRANCH  34  48
ATOM     48  O   UNL     1     -11.965 -31.932  53.693  1.00  0.00    -0.507 OA
ATOM     49  H   UNL     1     -11.172 -32.040  54.307  1.00  0.00     0.293 HD
ENDBRANCH  34  48
BRANCH  37  50
ATOM     50  O   UNL     1     -13.761 -35.013  50.441  1.00  0.00    -0.508 OA
ATOM     51  H   UNL     1     -13.464 -35.831  49.930  1.00  0.00     0.293 HD
ENDBRANCH  37  50
ENDBRANCH  26  27
ENDBRANCH   5  26
BRANCH   4  52
ATOM     52  O   UNL     1      -6.721 -26.979  51.056  1.00  0.00    -0.384 OA
ATOM     53  H   UNL     1      -7.625 -26.825  50.678  1.00  0.00     0.211 HD
ENDBRANCH   4  52
TORSDOF 16
ENDMDL
MODEL 9
REMARK VINA RESULT:    -8.579      2.794      7.186
REMARK INTER + INTRA:         -15.381
REMARK INTER:                 -12.994
REMARK INTRA:                  -2.387
REMARK UNBOUND:                -1.285
REMARK SMILES C[C@@H]1O[C@H](OC[C@H]2O[C@H](Oc3c(-c4ccc(O)c(O)c4)oc4cc(O)cc(O)c4c3=O)[C@@H](O)[C@H](O)[C@H]2O)[C@@H](O)[C@@H](O)[C@H]1O
REMARK SMILES IDX 7 1 36 2 34 3 32 4 9 5 8 6 6 7 5 8 4 9 1 10 2 11 42 12 3 13
REMARK SMILES IDX 40 14 38 15 43 16 41 18 39 20 37 22 35 24 10 26 11 27 12 28
REMARK SMILES IDX 30 29 21 30 29 31 31 32 22 33 27 34 23 35 26 36 24 37 13 38
REMARK SMILES IDX 20 39 14 40 18 41 15 42 16 43 19 44 17 46 28 48 25 50 33 52
REMARK H PARENT 43 17 41 19 39 21 37 23 35 25 19 45 17 47 28 49 25 51 33 53
REMARK Flexibility Score: inf
ROOT
ATOM      1  C   UNL     1      -4.067 -29.328  46.715  1.00  0.00     0.180 C 
ATOM      2  C   UNL     1      -4.106 -28.033  45.857  1.00  0.00     0.177 C 
ATOM      3  C   UNL     1      -5.575 -27.613  45.570  1.00  0.00     0.180 C 
ATOM      4  C   UNL     1      -6.600 -28.550  46.246  1.00  0.00     0.214 C 
ATOM      5  C   UNL     1      -6.178 -28.838  47.710  1.00  0.00     0.339 C 
ATOM      6  O   UNL     1      -4.799 -29.161  47.910  1.00  0.00    -0.332 OA
ENDROOT
BRANCH   1   7
ATOM      7  C   UNL     1      -2.629 -29.750  47.082  1.00  0.00     0.198 C 
BRANCH   7   8
ATOM      8  O   UNL     1      -1.910 -28.672  47.684  1.00  0.00    -0.347 OA
BRANCH   8   9
ATOM      9  C   UNL     1      -1.817 -28.796  49.096  1.00  0.00     0.281 C 
ATOM     10  C   UNL     1       0.919 -27.556  50.482  1.00  0.00     0.041 C 
ATOM     11  C   UNL     1       0.002 -28.757  50.707  1.00  0.00     0.150 C 
ATOM     12  C   UNL     1      -1.064 -28.498  51.801  1.00  0.00     0.174 C 
ATOM     13  O   UNL     1      -0.511 -29.242  49.471  1.00  0.00    -0.344 OA
ATOM     14  C   UNL     1      -2.254 -27.607  51.331  1.00  0.00     0.179 C 
ATOM     15  C   UNL     1      -2.340 -27.513  49.791  1.00  0.00     0.202 C 
BRANCH  12  16
ATOM     16  O   UNL     1      -1.511 -29.714  52.351  1.00  0.00    -0.388 OA
ATOM     17  H   UNL     1      -0.862 -30.422  52.095  1.00  0.00     0.211 HD
ENDBRANCH  12  16
BRANCH  14  18
ATOM     18  O   UNL     1      -3.472 -28.020  51.915  1.00  0.00    -0.387 OA
ATOM     19  H   UNL     1      -4.021 -27.216  52.060  1.00  0.00     0.211 HD
ENDBRANCH  14  18
BRANCH  15  20
ATOM     20  O   UNL     1      -3.651 -27.181  49.383  1.00  0.00    -0.385 OA
ATOM     21  H   UNL     1      -4.016 -27.938  48.875  1.00  0.00     0.211 HD
ENDBRANCH  15  20
ENDBRANCH   8   9
ENDBRANCH   7   8
ENDBRANCH   1   7
BRANCH   2  22
ATOM     22  O   UNL     1      -3.411 -26.979  46.479  1.00  0.00    -0.387 OA
ATOM     23  H   UNL     1      -3.426 -26.198  45.864  1.00  0.00     0.211 HD
ENDBRANCH   2  22
BRANCH   3  24
ATOM     24  O   UNL     1      -5.827 -27.613  44.182  1.00  0.00    -0.387 OA
ATOM     25  H   UNL     1      -5.289 -26.893  43.789  1.00  0.00     0.211 HD
ENDBRANCH   3  24
BRANCH   5  26
ATOM     26  O   UNL     1      -7.014 -29.876  48.227  1.00  0.00    -0.454 OA
BRANCH  26  27
ATOM     27  C   UNL     1      -6.555 -30.982  48.963  1.00  0.00     0.214 A 
ATOM     28  C   UNL     1      -6.855 -32.286  48.537  1.00  0.00     0.180 A 
ATOM     29  C   UNL     1      -5.828 -30.796  50.140  1.00  0.00     0.239 A 
ATOM     30  O   UNL     1      -6.421 -33.331  49.239  1.00  0.00    -0.452 OA
ATOM     31  C   UNL     1      -5.383 -31.924  50.864  1.00  0.00     0.111 A 
ATOM     32  O   UNL     1      -5.601 -29.622  50.534  1.00  0.00    -0.285 OA
ATOM     33  C   UNL     1      -5.724 -33.208  50.364  1.00  0.00     0.146 A 
ATOM     34  C   UNL     1      -4.624 -31.823  52.054  1.00  0.00     0.134 A 
ATOM     35  C   UNL     1      -5.319 -34.357  51.045  1.00  0.00     0.094 A 
ATOM     36  C   UNL     1      -4.233 -32.991  52.728  1.00  0.00     0.093 A 
ATOM     37  C   UNL     1      -4.600 -34.253  52.241  1.00  0.00     0.123 A 
BRANCH  28  38
ATOM     38  C   UNL     1      -7.598 -32.524  47.290  1.00  0.00     0.025 A 
ATOM     39  C   UNL     1      -7.079 -32.051  46.071  1.00  0.00     0.062 A 
ATOM     40  C   UNL     1      -8.788 -33.266  47.284  1.00  0.00     0.016 A 
ATOM     41  C   UNL     1      -7.774 -32.269  44.868  1.00  0.00     0.158 A 
ATOM     42  C   UNL     1      -9.477 -33.480  46.084  1.00  0.00     0.051 A 
ATOM     43  C   UNL     1      -8.972 -32.990  44.879  1.00  0.00     0.157 A 
BRANCH  41  44
ATOM     44  O   UNL     1      -7.276 -31.776  43.662  1.00  0.00    -0.504 OA
ATOM     45  H   UNL     1      -7.899 -31.548  42.883  1.00  0.00     0.293 HD
ENDBRANCH  41  44
BRANCH  43  46
ATOM     46  O   UNL     1      -9.658 -33.222  43.685  1.00  0.00    -0.504 OA
ATOM     47  H   UNL     1      -9.509 -34.064  43.130  1.00  0.00     0.293 HD
ENDBRANCH  43  46
ENDBRANCH  28  38
BRANCH  34  48
ATOM     48  O   UNL     1      -4.240 -30.586  52.561  1.00  0.00    -0.507 OA
ATOM     49  H   UNL     1      -4.518 -29.711  52.143  1.00  0.00     0.293 HD
ENDBRANCH  34  48
BRANCH  37  50
ATOM     50  O   UNL     1      -4.240 -35.396  52.960  1.00  0.00    -0.508 OA
ATOM     51  H   UNL     1      -3.330 -35.819  52.853  1.00  0.00     0.293 HD
ENDBRANCH  37  50
ENDBRANCH  26  27
ENDBRANCH   5  26
BRANCH   4  52
ATOM     52  O   UNL     1      -7.872 -27.939  46.218  1.00  0.00    -0.384 OA
ATOM     53  H   UNL     1      -7.927 -27.435  45.365  1.00  0.00     0.211 HD
ENDBRANCH   4  52
TORSDOF 16
ENDMDL
