MODEL 1
REMARK VINA RESULT:    -5.804      0.000      0.000
REMARK INTER + INTRA:          -6.250
REMARK INTER:                  -6.483
REMARK INTRA:                   0.233
REMARK UNBOUND:                 0.233
REMARK SMILES C=C(C)[C@H]1CC[C@@]2(C(=O)[O-])CC[C@@]3(C)[C@H](CC[C@H]4[C@@]5(C)CCC(=O)C(C)(C)[C@H]5CC[C@]43C)[C@H]12
REMARK SMILES IDX 7 1 6 2 33 3 11 4 5 5 15 6 4 7 12 8 16 9 13 10 17 11 31 12
REMARK SMILES IDX 14 13 18 14 30 15 32 16 19 17 29 18 21 19 20 20 28 21 22 22
REMARK SMILES IDX 25 23 23 24 26 25 27 26 24 27 8 28 9 29 10 30 2 31 3 32 1 33
REMARK H PARENT
REMARK Flexibility Score: inf
ROOT
ATOM      1  C   UNL     1      14.990  26.521  29.007  1.00  0.00     0.014 C 
ATOM      2  C   UNL     1      14.216  25.238  28.645  1.00  0.00     0.014 C 
ATOM      3  C   UNL     1      14.925  26.438  30.538  1.00  0.00     0.012 C 
ATOM      4  C   UNL     1      14.314  27.852  28.538  1.00  0.00     0.014 C 
ATOM      5  C   UNL     1      14.644  24.190  29.699  1.00  0.00     0.009 C 
ATOM      6  C   UNL     1      15.607  27.606  31.291  1.00  0.00     0.000 C 
ATOM      7  C   UNL     1      15.208  24.978  30.909  1.00  0.00     0.018 C 
ATOM      8  C   UNL     1      13.946  28.866  29.660  1.00  0.00     0.008 C 
ATOM      9  C   UNL     1      17.119  27.665  31.130  1.00  0.00     0.005 C 
ATOM     10  C   UNL     1      14.875  28.977  30.961  1.00  0.00    -0.024 C 
ATOM     11  C   UNL     1      17.742  28.750  31.997  1.00  0.00     0.005 C 
ATOM     12  C   UNL     1      15.890  30.248  30.878  1.00  0.00    -0.024 C 
ATOM     13  C   UNL     1      13.875  29.180  32.156  1.00  0.00     0.012 C 
ATOM     14  C   UNL     1      17.025  30.151  32.001  1.00  0.00     0.002 C 
ATOM     15  C   UNL     1      16.577  30.378  29.472  1.00  0.00     0.008 C 
ATOM     16  C   UNL     1      15.037  31.549  31.066  1.00  0.00     0.012 C 
ATOM     17  C   UNL     1      18.064  31.388  32.036  1.00  0.00    -0.025 C 
ATOM     18  C   UNL     1      18.047  30.853  29.489  1.00  0.00     0.006 C 
ATOM     19  C   UNL     1      19.409  31.019  32.763  1.00  0.00     0.015 C 
ATOM     20  C   UNL     1      17.449  32.544  32.901  1.00  0.00     0.012 C 
ATOM     21  C   UNL     1      18.373  31.917  30.575  1.00  0.00     0.008 C 
ATOM     22  C   UNL     1      20.375  32.200  32.918  1.00  0.00     0.077 C 
ATOM     23  C   UNL     1      19.810  32.584  30.361  1.00  0.00     0.027 C 
ATOM     24  C   UNL     1      20.410  33.061  31.685  1.00  0.00     0.138 C 
ATOM     25  C   UNL     1      19.657  33.795  29.402  1.00  0.00     0.020 C 
ATOM     26  C   UNL     1      20.850  31.626  29.721  1.00  0.00     0.020 C 
ATOM     27  O   UNL     1      21.012  34.124  31.745  1.00  0.00    -0.299 OA
ENDROOT
BRANCH   1  28
ATOM     28  C   UNL     1      16.382  26.369  28.373  1.00  0.00     0.048 C 
ATOM     29  O   UNL     1      17.133  27.373  28.240  1.00  0.00    -0.550 OA
ATOM     30  O   UNL     1      16.788  25.176  27.788  1.00  0.00    -0.550 OA
ENDBRANCH   1  28
BRANCH   7  31
ATOM     31  C   UNL     1      14.600  24.570  32.250  1.00  0.00    -0.077 C 
ATOM     32  C   UNL     1      13.952  25.611  33.125  1.00  0.00     0.039 C 
ATOM     33  C   UNL     1      14.611  23.294  32.673  1.00  0.00     0.008 C 
ENDBRANCH   7  31
TORSDOF 2
ENDMDL
MODEL 2
REMARK VINA RESULT:    -5.236      2.892      4.652
REMARK INTER + INTRA:          -5.616
REMARK INTER:                  -5.529
REMARK INTRA:                  -0.087
REMARK UNBOUND:                 0.233
REMARK SMILES C=C(C)[C@H]1CC[C@@]2(C(=O)[O-])CC[C@@]3(C)[C@H](CC[C@H]4[C@@]5(C)CCC(=O)C(C)(C)[C@H]5CC[C@]43C)[C@H]12
REMARK SMILES IDX 7 1 6 2 33 3 11 4 5 5 15 6 4 7 12 8 16 9 13 10 17 11 31 12
REMARK SMILES IDX 14 13 18 14 30 15 32 16 19 17 29 18 21 19 20 20 28 21 22 22
REMARK SMILES IDX 25 23 23 24 26 25 27 26 24 27 8 28 9 29 10 30 2 31 3 32 1 33
REMARK H PARENT
REMARK Flexibility Score: inf
ROOT
ATOM      1  C   UNL     1      17.458  29.361  29.202  1.00  0.00     0.014 C 
ATOM      2  C   UNL     1      16.026  28.915  28.847  1.00  0.00     0.014 C 
ATOM      3  C   UNL     1      17.348  29.386  30.732  1.00  0.00     0.012 C 
ATOM      4  C   UNL     1      17.849  30.787  28.693  1.00  0.00     0.014 C 
ATOM      5  C   UNL     1      15.638  27.881  29.930  1.00  0.00     0.009 C 
ATOM      6  C   UNL     1      18.634  29.819  31.479  1.00  0.00     0.000 C 
ATOM      7  C   UNL     1      16.580  28.124  31.137  1.00  0.00     0.018 C 
ATOM      8  C   UNL     1      18.249  31.819  29.788  1.00  0.00     0.008 C 
ATOM      9  C   UNL     1      19.797  28.847  31.350  1.00  0.00     0.005 C 
ATOM     10  C   UNL     1      19.009  31.318  31.107  1.00  0.00    -0.024 C 
ATOM     11  C   UNL     1      20.983  29.261  32.211  1.00  0.00     0.005 C 
ATOM     12  C   UNL     1      20.614  31.580  31.022  1.00  0.00    -0.024 C 
ATOM     13  C   UNL     1      18.398  32.172  32.275  1.00  0.00     0.012 C 
ATOM     14  C   UNL     1      21.388  30.781  32.172  1.00  0.00     0.002 C 
ATOM     15  C   UNL     1      21.217  31.177  29.630  1.00  0.00     0.008 C 
ATOM     16  C   UNL     1      20.851  33.122  31.167  1.00  0.00     0.012 C 
ATOM     17  C   UNL     1      22.988  31.006  32.207  1.00  0.00    -0.025 C 
ATOM     18  C   UNL     1      22.627  30.547  29.671  1.00  0.00     0.006 C 
ATOM     19  C   UNL     1      23.737  29.853  32.971  1.00  0.00     0.015 C 
ATOM     20  C   UNL     1      23.301  32.300  33.037  1.00  0.00     0.012 C 
ATOM     21  C   UNL     1      23.577  31.149  30.743  1.00  0.00     0.008 C 
ATOM     22  C   UNL     1      25.245  30.088  33.125  1.00  0.00     0.077 C 
ATOM     23  C   UNL     1      25.092  30.677  30.550  1.00  0.00     0.027 C 
ATOM     24  C   UNL     1      25.852  30.669  31.877  1.00  0.00     0.138 C 
ATOM     25  C   UNL     1      25.793  31.652  29.565  1.00  0.00     0.020 C 
ATOM     26  C   UNL     1      25.226  29.252  29.951  1.00  0.00     0.020 C 
ATOM     27  O   UNL     1      27.011  31.057  31.931  1.00  0.00    -0.299 OA
ENDROOT
BRANCH   1  28
ATOM     28  C   UNL     1      18.393  28.298  28.602  1.00  0.00     0.048 C 
ATOM     29  O   UNL     1      19.555  28.612  28.229  1.00  0.00    -0.550 OA
ATOM     30  O   UNL     1      17.943  27.018  28.307  1.00  0.00    -0.550 OA
ENDBRANCH   1  28
BRANCH   7  31
ATOM     31  C   UNL     1      15.849  28.266  32.471  1.00  0.00    -0.077 C 
ATOM     32  C   UNL     1      15.660  29.632  33.078  1.00  0.00     0.039 C 
ATOM     33  C   UNL     1      15.352  27.200  33.123  1.00  0.00     0.008 C 
ENDBRANCH   7  31
TORSDOF 2
ENDMDL
MODEL 3
REMARK VINA RESULT:    -5.104      2.799      8.209
REMARK INTER + INTRA:          -5.468
REMARK INTER:                  -5.426
REMARK INTRA:                  -0.043
REMARK UNBOUND:                 0.233
REMARK SMILES C=C(C)[C@H]1CC[C@@]2(C(=O)[O-])CC[C@@]3(C)[C@H](CC[C@H]4[C@@]5(C)CCC(=O)C(C)(C)[C@H]5CC[C@]43C)[C@H]12
REMARK SMILES IDX 7 1 6 2 33 3 11 4 5 5 15 6 4 7 12 8 16 9 13 10 17 11 31 12
REMARK SMILES IDX 14 13 18 14 30 15 32 16 19 17 29 18 21 19 20 20 28 21 22 22
REMARK SMILES IDX 25 23 23 24 26 25 27 26 24 27 8 28 9 29 10 30 2 31 3 32 1 33
REMARK H PARENT
REMARK Flexibility Score: inf
ROOT
ATOM      1  C   UNL     1      22.798  33.159  30.727  1.00  0.00     0.014 C 
ATOM      2  C   UNL     1      24.191  33.815  30.675  1.00  0.00     0.014 C 
ATOM      3  C   UNL     1      23.208  31.705  30.999  1.00  0.00     0.012 C 
ATOM      4  C   UNL     1      21.991  33.220  29.389  1.00  0.00     0.014 C 
ATOM      5  C   UNL     1      25.021  33.103  31.769  1.00  0.00     0.009 C 
ATOM      6  C   UNL     1      22.037  30.698  31.105  1.00  0.00     0.000 C 
ATOM      7  C   UNL     1      24.315  31.753  32.057  1.00  0.00     0.018 C 
ATOM      8  C   UNL     1      21.593  31.851  28.765  1.00  0.00     0.008 C 
ATOM      9  C   UNL     1      21.131  30.908  32.309  1.00  0.00     0.005 C 
ATOM     10  C   UNL     1      21.256  30.613  29.724  1.00  0.00    -0.024 C 
ATOM     11  C   UNL     1      20.082  29.811  32.430  1.00  0.00     0.005 C 
ATOM     12  C   UNL     1      19.651  30.399  29.902  1.00  0.00    -0.024 C 
ATOM     13  C   UNL     1      21.876  29.362  29.004  1.00  0.00     0.012 C 
ATOM     14  C   UNL     1      19.335  29.397  31.109  1.00  0.00     0.002 C 
ATOM     15  C   UNL     1      18.888  31.748  30.150  1.00  0.00     0.008 C 
ATOM     16  C   UNL     1      19.097  29.828  28.552  1.00  0.00     0.012 C 
ATOM     17  C   UNL     1      17.769  29.079  31.346  1.00  0.00    -0.025 C 
ATOM     18  C   UNL     1      17.702  31.673  31.137  1.00  0.00     0.006 C 
ATOM     19  C   UNL     1      17.481  28.541  32.795  1.00  0.00     0.015 C 
ATOM     20  C   UNL     1      17.339  27.907  30.395  1.00  0.00     0.012 C 
ATOM     21  C   UNL     1      16.877  30.357  31.062  1.00  0.00     0.008 C 
ATOM     22  C   UNL     1      16.023  28.120  33.022  1.00  0.00     0.077 C 
ATOM     23  C   UNL     1      15.507  30.450  31.880  1.00  0.00     0.027 C 
ATOM     24  C   UNL     1      15.057  29.076  32.379  1.00  0.00     0.138 C 
ATOM     25  C   UNL     1      14.413  31.040  30.949  1.00  0.00     0.020 C 
ATOM     26  C   UNL     1      15.589  31.372  33.125  1.00  0.00     0.020 C 
ATOM     27  O   UNL     1      13.875  28.761  32.346  1.00  0.00    -0.299 OA
ENDROOT
BRANCH   1  28
ATOM     28  C   UNL     1      22.034  33.874  31.853  1.00  0.00     0.048 C 
ATOM     29  O   UNL     1      22.602  34.119  32.951  1.00  0.00    -0.550 OA
ATOM     30  O   UNL     1      20.670  34.123  31.760  1.00  0.00    -0.550 OA
ENDBRANCH   1  28
BRANCH   7  31
ATOM     31  C   UNL     1      25.249  30.545  32.007  1.00  0.00    -0.077 C 
ATOM     32  C   UNL     1      25.888  30.147  30.702  1.00  0.00     0.039 C 
ATOM     33  C   UNL     1      25.534  29.825  33.106  1.00  0.00     0.008 C 
ENDBRANCH   7  31
TORSDOF 2
ENDMDL
MODEL 4
REMARK VINA RESULT:    -4.637      1.793      2.921
REMARK INTER + INTRA:          -4.946
REMARK INTER:                  -4.924
REMARK INTRA:                  -0.022
REMARK UNBOUND:                 0.233
REMARK SMILES C=C(C)[C@H]1CC[C@@]2(C(=O)[O-])CC[C@@]3(C)[C@H](CC[C@H]4[C@@]5(C)CCC(=O)C(C)(C)[C@H]5CC[C@]43C)[C@H]12
REMARK SMILES IDX 7 1 6 2 33 3 11 4 5 5 15 6 4 7 12 8 16 9 13 10 17 11 31 12
REMARK SMILES IDX 14 13 18 14 30 15 32 16 19 17 29 18 21 19 20 20 28 21 22 22
REMARK SMILES IDX 25 23 23 24 26 25 27 26 24 27 8 28 9 29 10 30 2 31 3 32 1 33
REMARK H PARENT
REMARK Flexibility Score: inf
ROOT
ATOM      1  C   UNL     1      16.377  28.572  29.158  1.00  0.00     0.014 C 
ATOM      2  C   UNL     1      15.184  27.667  28.794  1.00  0.00     0.014 C 
ATOM      3  C   UNL     1      16.262  28.547  30.688  1.00  0.00     0.012 C 
ATOM      4  C   UNL     1      16.260  30.050  28.660  1.00  0.00     0.014 C 
ATOM      5  C   UNL     1      15.169  26.555  29.869  1.00  0.00     0.009 C 
ATOM      6  C   UNL     1      17.321  29.387  31.443  1.00  0.00     0.000 C 
ATOM      7  C   UNL     1      15.969  27.095  31.082  1.00  0.00     0.018 C 
ATOM      8  C   UNL     1      16.282  31.148  29.762  1.00  0.00     0.008 C 
ATOM      9  C   UNL     1      18.746  28.871  31.314  1.00  0.00     0.005 C 
ATOM     10  C   UNL     1      17.163  30.927  31.082  1.00  0.00    -0.024 C 
ATOM     11  C   UNL     1      19.717  29.658  32.183  1.00  0.00     0.005 C 
ATOM     12  C   UNL     1      18.584  31.721  31.007  1.00  0.00    -0.024 C 
ATOM     13  C   UNL     1      16.295  31.513  32.253  1.00  0.00     0.012 C 
ATOM     14  C   UNL     1      19.581  31.225  32.155  1.00  0.00     0.002 C 
ATOM     15  C   UNL     1      19.291  31.557  29.615  1.00  0.00     0.008 C 
ATOM     16  C   UNL     1      18.279  33.250  31.162  1.00  0.00     0.012 C 
ATOM     17  C   UNL     1      21.008  31.982  32.199  1.00  0.00    -0.025 C 
ATOM     18  C   UNL     1      20.831  31.446  29.658  1.00  0.00     0.006 C 
ATOM     19  C   UNL     1      22.103  31.148  32.960  1.00  0.00     0.015 C 
ATOM     20  C   UNL     1      20.858  33.299  33.038  1.00  0.00     0.012 C 
ATOM     21  C   UNL     1      21.516  32.328  30.739  1.00  0.00     0.008 C 
ATOM     22  C   UNL     1      23.440  31.882  33.122  1.00  0.00     0.077 C 
ATOM     23  C   UNL     1      23.102  32.402  30.550  1.00  0.00     0.027 C 
ATOM     24  C   UNL     1      23.815  32.644  31.881  1.00  0.00     0.138 C 
ATOM     25  C   UNL     1      23.431  33.565  29.575  1.00  0.00     0.020 C 
ATOM     26  C   UNL     1      23.715  31.112  29.943  1.00  0.00     0.020 C 
ATOM     27  O   UNL     1      24.773  33.403  31.942  1.00  0.00    -0.299 OA
ENDROOT
BRANCH   1  28
ATOM     28  C   UNL     1      17.620  27.896  28.557  1.00  0.00     0.048 C 
ATOM     29  O   UNL     1      18.473  28.578  27.927  1.00  0.00    -0.550 OA
ATOM     30  O   UNL     1      17.762  26.514  28.545  1.00  0.00    -0.550 OA
ENDBRANCH   1  28
BRANCH   7  31
ATOM     31  C   UNL     1      15.230  26.971  32.413  1.00  0.00    -0.077 C 
ATOM     32  C   UNL     1      14.923  25.606  32.972  1.00  0.00     0.039 C 
ATOM     33  C   UNL     1      14.854  28.052  33.118  1.00  0.00     0.008 C 
ENDBRANCH   7  31
TORSDOF 2
ENDMDL
MODEL 5
REMARK VINA RESULT:    -4.073      3.173      8.162
REMARK INTER + INTRA:          -4.317
REMARK INTER:                  -4.294
REMARK INTRA:                  -0.023
REMARK UNBOUND:                 0.233
REMARK SMILES C=C(C)[C@H]1CC[C@@]2(C(=O)[O-])CC[C@@]3(C)[C@H](CC[C@H]4[C@@]5(C)CCC(=O)C(C)(C)[C@H]5CC[C@]43C)[C@H]12
REMARK SMILES IDX 7 1 6 2 33 3 11 4 5 5 15 6 4 7 12 8 16 9 13 10 17 11 31 12
REMARK SMILES IDX 14 13 18 14 30 15 32 16 19 17 29 18 21 19 20 20 28 21 22 22
REMARK SMILES IDX 25 23 23 24 26 25 27 26 24 27 8 28 9 29 10 30 2 31 3 32 1 33
REMARK H PARENT
REMARK Flexibility Score: inf
ROOT
ATOM      1  C   UNL     1      23.884  29.609  30.850  1.00  0.00     0.014 C 
ATOM      2  C   UNL     1      25.420  29.705  30.915  1.00  0.00     0.014 C 
ATOM      3  C   UNL     1      23.536  31.100  30.741  1.00  0.00     0.012 C 
ATOM      4  C   UNL     1      23.206  29.018  32.129  1.00  0.00     0.014 C 
ATOM      5  C   UNL     1      25.802  30.846  29.942  1.00  0.00     0.009 C 
ATOM      6  C   UNL     1      22.023  31.421  30.667  1.00  0.00     0.000 C 
ATOM      7  C   UNL     1      24.529  31.709  29.746  1.00  0.00     0.018 C 
ATOM      8  C   UNL     1      22.191  29.946  32.858  1.00  0.00     0.008 C 
ATOM      9  C   UNL     1      21.336  30.934  29.400  1.00  0.00     0.005 C 
ATOM     10  C   UNL     1      21.297  30.965  32.004  1.00  0.00    -0.024 C 
ATOM     11  C   UNL     1      19.886  31.395  29.327  1.00  0.00     0.005 C 
ATOM     12  C   UNL     1      19.790  30.396  31.759  1.00  0.00    -0.024 C 
ATOM     13  C   UNL     1      21.230  32.272  32.874  1.00  0.00     0.012 C 
ATOM     14  C   UNL     1      19.030  31.247  30.638  1.00  0.00     0.002 C 
ATOM     15  C   UNL     1      19.779  28.883  31.342  1.00  0.00     0.008 C 
ATOM     16  C   UNL     1      19.026  30.475  33.125  1.00  0.00     0.012 C 
ATOM     17  C   UNL     1      17.507  30.793  30.347  1.00  0.00    -0.025 C 
ATOM     18  C   UNL     1      18.708  28.485  30.303  1.00  0.00     0.006 C 
ATOM     19  C   UNL     1      16.996  31.281  28.941  1.00  0.00     0.015 C 
ATOM     20  C   UNL     1      16.560  31.499  31.380  1.00  0.00     0.012 C 
ATOM     21  C   UNL     1      17.348  29.221  30.458  1.00  0.00     0.008 C 
ATOM     22  C   UNL     1      15.518  30.969  28.676  1.00  0.00     0.077 C 
ATOM     23  C   UNL     1      16.197  28.569  29.560  1.00  0.00     0.027 C 
ATOM     24  C   UNL     1      15.137  29.600  29.170  1.00  0.00     0.138 C 
ATOM     25  C   UNL     1      15.526  27.426  30.368  1.00  0.00     0.020 C 
ATOM     26  C   UNL     1      16.719  27.945  28.239  1.00  0.00     0.020 C 
ATOM     27  O   UNL     1      13.951  29.300  29.168  1.00  0.00    -0.299 OA
ENDROOT
BRANCH   1  28
ATOM     28  C   UNL     1      23.565  28.743  29.620  1.00  0.00     0.048 C 
ATOM     29  O   UNL     1      22.488  28.092  29.563  1.00  0.00    -0.550 OA
ATOM     30  O   UNL     1      24.507  28.523  28.623  1.00  0.00    -0.550 OA
ENDBRANCH   1  28
BRANCH   7  31
ATOM     31  C   UNL     1      24.758  33.204  29.962  1.00  0.00    -0.077 C 
ATOM     32  C   UNL     1      26.055  33.683  30.560  1.00  0.00     0.039 C 
ATOM     33  C   UNL     1      23.833  34.118  29.620  1.00  0.00     0.008 C 
ENDBRANCH   7  31
TORSDOF 2
ENDMDL
MODEL 6
REMARK VINA RESULT:    -3.754      3.663      6.709
REMARK INTER + INTRA:          -3.960
REMARK INTER:                  -3.768
REMARK INTRA:                  -0.192
REMARK UNBOUND:                 0.233
REMARK SMILES C=C(C)[C@H]1CC[C@@]2(C(=O)[O-])CC[C@@]3(C)[C@H](CC[C@H]4[C@@]5(C)CCC(=O)C(C)(C)[C@H]5CC[C@]43C)[C@H]12
REMARK SMILES IDX 7 1 6 2 33 3 11 4 5 5 15 6 4 7 12 8 16 9 13 10 17 11 31 12
REMARK SMILES IDX 14 13 18 14 30 15 32 16 19 17 29 18 21 19 20 20 28 21 22 22
REMARK SMILES IDX 25 23 23 24 26 25 27 26 24 27 8 28 9 29 10 30 2 31 3 32 1 33
REMARK H PARENT
REMARK Flexibility Score: inf
ROOT
ATOM      1  C   UNL     1      18.347  31.150  30.907  1.00  0.00     0.014 C 
ATOM      2  C   UNL     1      16.823  30.989  30.742  1.00  0.00     0.014 C 
ATOM      3  C   UNL     1      18.820  29.875  30.196  1.00  0.00     0.012 C 
ATOM      4  C   UNL     1      18.855  31.129  32.386  1.00  0.00     0.014 C 
ATOM      5  C   UNL     1      16.625  30.391  29.329  1.00  0.00     0.009 C 
ATOM      6  C   UNL     1      20.353  29.665  30.167  1.00  0.00     0.000 C 
ATOM      7  C   UNL     1      17.974  29.744  28.924  1.00  0.00     0.018 C 
ATOM      8  C   UNL     1      19.868  30.003  32.747  1.00  0.00     0.008 C 
ATOM      9  C   UNL     1      21.115  30.686  29.334  1.00  0.00     0.005 C 
ATOM     10  C   UNL     1      20.915  29.499  31.644  1.00  0.00    -0.024 C 
ATOM     11  C   UNL     1      22.596  30.350  29.237  1.00  0.00     0.005 C 
ATOM     12  C   UNL     1      22.388  30.162  31.853  1.00  0.00    -0.024 C 
ATOM     13  C   UNL     1      21.004  27.944  31.851  1.00  0.00     0.012 C 
ATOM     14  C   UNL     1      23.314  29.922  30.571  1.00  0.00     0.002 C 
ATOM     15  C   UNL     1      22.318  31.702  32.148  1.00  0.00     0.008 C 
ATOM     16  C   UNL     1      23.027  29.505  33.125  1.00  0.00     0.012 C 
ATOM     17  C   UNL     1      24.816  30.504  30.690  1.00  0.00    -0.025 C 
ATOM     18  C   UNL     1      23.446  32.553  31.524  1.00  0.00     0.006 C 
ATOM     19  C   UNL     1      25.492  30.708  29.284  1.00  0.00     0.015 C 
ATOM     20  C   UNL     1      25.716  29.440  31.412  1.00  0.00     0.012 C 
ATOM     21  C   UNL     1      24.840  31.866  31.499  1.00  0.00     0.008 C 
ATOM     22  C   UNL     1      26.959  31.150  29.359  1.00  0.00     0.077 C 
ATOM     23  C   UNL     1      26.014  32.883  31.122  1.00  0.00     0.027 C 
ATOM     24  C   UNL     1      27.183  32.165  30.446  1.00  0.00     0.138 C 
ATOM     25  C   UNL     1      26.515  33.566  32.423  1.00  0.00     0.020 C 
ATOM     26  C   UNL     1      25.568  34.014  30.158  1.00  0.00     0.020 C 
ATOM     27  O   UNL     1      28.337  32.470  30.716  1.00  0.00    -0.299 OA
ENDROOT
BRANCH   1  28
ATOM     28  C   UNL     1      18.708  32.482  30.230  1.00  0.00     0.048 C 
ATOM     29  O   UNL     1      19.520  33.275  30.779  1.00  0.00    -0.550 OA
ATOM     30  O   UNL     1      18.042  32.924  29.094  1.00  0.00    -0.550 OA
ENDBRANCH   1  28
BRANCH   7  31
ATOM     31  C   UNL     1      17.845  28.303  28.434  1.00  0.00    -0.077 C 
ATOM     32  C   UNL     1      16.756  27.420  28.985  1.00  0.00     0.039 C 
ATOM     33  C   UNL     1      18.673  27.795  27.504  1.00  0.00     0.008 C 
ENDBRANCH   7  31
TORSDOF 2
ENDMDL
MODEL 7
REMARK VINA RESULT:    -3.218      3.448      8.054
REMARK INTER + INTRA:          -3.361
REMARK INTER:                  -3.584
REMARK INTRA:                   0.223
REMARK UNBOUND:                 0.233
REMARK SMILES C=C(C)[C@H]1CC[C@@]2(C(=O)[O-])CC[C@@]3(C)[C@H](CC[C@H]4[C@@]5(C)CCC(=O)C(C)(C)[C@H]5CC[C@]43C)[C@H]12
REMARK SMILES IDX 7 1 6 2 33 3 11 4 5 5 15 6 4 7 12 8 16 9 13 10 17 11 31 12
REMARK SMILES IDX 14 13 18 14 30 15 32 16 19 17 29 18 21 19 20 20 28 21 22 22
REMARK SMILES IDX 25 23 23 24 26 25 27 26 24 27 8 28 9 29 10 30 2 31 3 32 1 33
REMARK H PARENT
REMARK Flexibility Score: inf
ROOT
ATOM      1  C   UNL     1      23.935  30.696  31.854  1.00  0.00     0.014 C 
ATOM      2  C   UNL     1      25.448  30.435  31.979  1.00  0.00     0.014 C 
ATOM      3  C   UNL     1      23.758  30.474  30.346  1.00  0.00     0.012 C 
ATOM      4  C   UNL     1      23.485  32.150  32.213  1.00  0.00     0.014 C 
ATOM      5  C   UNL     1      25.745  29.269  31.006  1.00  0.00     0.009 C 
ATOM      6  C   UNL     1      22.317  30.669  29.814  1.00  0.00     0.000 C 
ATOM      7  C   UNL     1      24.577  29.229  29.988  1.00  0.00     0.018 C 
ATOM      8  C   UNL     1      22.777  32.948  31.080  1.00  0.00     0.008 C 
ATOM      9  C   UNL     1      21.314  29.640  30.315  1.00  0.00     0.005 C 
ATOM     10  C   UNL     1      21.850  32.173  30.028  1.00  0.00    -0.024 C 
ATOM     11  C   UNL     1      19.952  29.806  29.656  1.00  0.00     0.005 C 
ATOM     12  C   UNL     1      20.268  32.313  30.390  1.00  0.00    -0.024 C 
ATOM     13  C   UNL     1      22.136  32.867  28.647  1.00  0.00     0.012 C 
ATOM     14  C   UNL     1      19.392  31.272  29.549  1.00  0.00     0.002 C 
ATOM     15  C   UNL     1      19.980  32.100  31.919  1.00  0.00     0.008 C 
ATOM     16  C   UNL     1      19.837  33.785  30.068  1.00  0.00     0.012 C 
ATOM     17  C   UNL     1      17.798  31.356  29.800  1.00  0.00    -0.025 C 
ATOM     18  C   UNL     1      18.667  31.359  32.253  1.00  0.00     0.006 C 
ATOM     19  C   UNL     1      17.056  30.034  29.380  1.00  0.00     0.015 C 
ATOM     20  C   UNL     1      17.194  32.464  28.866  1.00  0.00     0.012 C 
ATOM     21  C   UNL     1      17.474  31.694  31.314  1.00  0.00     0.008 C 
ATOM     22  C   UNL     1      15.529  30.116  29.496  1.00  0.00     0.077 C 
ATOM     23  C   UNL     1      16.084  31.138  31.873  1.00  0.00     0.027 C 
ATOM     24  C   UNL     1      15.100  30.846  30.739  1.00  0.00     0.138 C 
ATOM     25  C   UNL     1      15.470  32.203  32.822  1.00  0.00     0.020 C 
ATOM     26  C   UNL     1      16.224  29.827  32.691  1.00  0.00     0.020 C 
ATOM     27  O   UNL     1      13.914  31.123  30.861  1.00  0.00    -0.299 OA
ENDROOT
BRANCH   1  28
ATOM     28  C   UNL     1      23.251  29.675  32.779  1.00  0.00     0.048 C 
ATOM     29  O   UNL     1      23.856  28.625  33.125  1.00  0.00    -0.550 OA
ATOM     30  O   UNL     1      21.911  29.793  33.125  1.00  0.00    -0.550 OA
ENDBRANCH   1  28
BRANCH   7  31
ATOM     31  C   UNL     1      25.029  29.206  28.530  1.00  0.00    -0.077 C 
ATOM     32  C   UNL     1      24.210  28.465  27.504  1.00  0.00     0.039 C 
ATOM     33  C   UNL     1      26.140  29.844  28.123  1.00  0.00     0.008 C 
ENDBRANCH   7  31
TORSDOF 2
ENDMDL
