MODEL 1
REMARK VINA RESULT:    -4.554      0.000      0.000
REMARK INTER + INTRA:          -5.146
REMARK INTER:                  -5.087
REMARK INTRA:                  -0.059
REMARK UNBOUND:                -0.059
REMARK SMILES COc1ccc(C(=O)[O-])cc1
REMARK SMILES IDX 6 1 5 2 10 3 4 4 11 5 3 6 7 7 8 8 9 9 2 10 1 11
REMARK H PARENT
REMARK Flexibility Score: inf
ROOT
ATOM      1  C   UNL     1       7.888 -10.403 -28.849  1.00  0.00    -0.003 A 
ATOM      2  C   UNL     1       8.928 -11.231 -29.303  1.00  0.00     0.014 A 
ATOM      3  C   UNL     1       6.672 -10.989 -28.457  1.00  0.00     0.014 A 
ATOM      4  C   UNL     1       8.755 -12.618 -29.366  1.00  0.00     0.047 A 
ATOM      5  C   UNL     1       6.501 -12.375 -28.520  1.00  0.00     0.047 A 
ATOM      6  C   UNL     1       7.535 -13.201 -28.973  1.00  0.00     0.118 A 
ENDROOT
BRANCH   1   7
ATOM      7  C   UNL     1       8.075  -8.936 -28.784  1.00  0.00     0.071 C 
ATOM      8  O   UNL     1       7.159  -8.156 -29.160  1.00  0.00    -0.545 OA
ATOM      9  O   UNL     1       9.265  -8.398 -28.308  1.00  0.00    -0.545 OA
ENDBRANCH   1   7
BRANCH   6  10
ATOM     10  O   UNL     1       7.314 -14.585 -29.017  1.00  0.00    -0.497 OA
ATOM     11  C   UNL     1       6.283 -15.211 -29.773  1.00  0.00     0.278 C 
ENDBRANCH   6  10
TORSDOF 2
ENDMDL
MODEL 2
REMARK VINA RESULT:    -4.487      1.542      4.743
REMARK INTER + INTRA:          -5.070
REMARK INTER:                  -5.016
REMARK INTRA:                  -0.054
REMARK UNBOUND:                -0.059
REMARK SMILES COc1ccc(C(=O)[O-])cc1
REMARK SMILES IDX 6 1 5 2 10 3 4 4 11 5 3 6 7 7 8 8 9 9 2 10 1 11
REMARK H PARENT
REMARK Flexibility Score: inf
ROOT
ATOM      1  C   UNL     1       7.362 -12.766 -28.348  1.00  0.00    -0.003 A 
ATOM      2  C   UNL     1       6.356 -11.790 -28.437  1.00  0.00     0.014 A 
ATOM      3  C   UNL     1       8.610 -12.514 -28.945  1.00  0.00     0.014 A 
ATOM      4  C   UNL     1       6.591 -10.586 -29.110  1.00  0.00     0.047 A 
ATOM      5  C   UNL     1       8.844 -11.310 -29.616  1.00  0.00     0.047 A 
ATOM      6  C   UNL     1       7.843 -10.338 -29.706  1.00  0.00     0.118 A 
ENDROOT
BRANCH   1   7
ATOM      7  C   UNL     1       7.108 -14.038 -27.636  1.00  0.00     0.071 C 
ATOM      8  O   UNL     1       7.137 -14.083 -26.376  1.00  0.00    -0.545 OA
ATOM      9  O   UNL     1       6.835 -15.201 -28.345  1.00  0.00    -0.545 OA
ENDBRANCH   1   7
BRANCH   6  10
ATOM     10  O   UNL     1       8.127  -9.147 -30.390  1.00  0.00    -0.497 OA
ATOM     11  C   UNL     1       8.449  -9.073 -31.775  1.00  0.00     0.278 C 
ENDBRANCH   6  10
TORSDOF 2
ENDMDL
MODEL 3
REMARK VINA RESULT:    -4.463      1.032      5.011
REMARK INTER + INTRA:          -5.044
REMARK INTER:                  -4.984
REMARK INTRA:                  -0.060
REMARK UNBOUND:                -0.059
REMARK SMILES COc1ccc(C(=O)[O-])cc1
REMARK SMILES IDX 6 1 5 2 10 3 4 4 11 5 3 6 7 7 8 8 9 9 2 10 1 11
REMARK H PARENT
REMARK Flexibility Score: inf
ROOT
ATOM      1  C   UNL     1       7.200 -12.961 -29.042  1.00  0.00    -0.003 A 
ATOM      2  C   UNL     1       6.263 -11.917 -28.972  1.00  0.00     0.014 A 
ATOM      3  C   UNL     1       8.562 -12.646 -29.191  1.00  0.00     0.014 A 
ATOM      4  C   UNL     1       6.678 -10.583 -29.051  1.00  0.00     0.047 A 
ATOM      5  C   UNL     1       8.976 -11.312 -29.268  1.00  0.00     0.047 A 
ATOM      6  C   UNL     1       8.044 -10.272 -29.200  1.00  0.00     0.118 A 
ENDROOT
BRANCH   1   7
ATOM      7  C   UNL     1       6.756 -14.370 -28.958  1.00  0.00     0.071 C 
ATOM      8  O   UNL     1       7.319 -15.174 -28.167  1.00  0.00    -0.545 OA
ATOM      9  O   UNL     1       5.710 -14.828 -29.751  1.00  0.00    -0.545 OA
ENDBRANCH   1   7
BRANCH   6  10
ATOM     10  O   UNL     1       8.509  -8.951 -29.283  1.00  0.00    -0.497 OA
ATOM     11  C   UNL     1       9.602  -8.435 -28.531  1.00  0.00     0.278 C 
ENDBRANCH   6  10
TORSDOF 2
ENDMDL
MODEL 4
REMARK VINA RESULT:    -4.425      0.297      1.484
REMARK INTER + INTRA:          -5.002
REMARK INTER:                  -4.944
REMARK INTRA:                  -0.058
REMARK UNBOUND:                -0.059
REMARK SMILES COc1ccc(C(=O)[O-])cc1
REMARK SMILES IDX 6 1 5 2 10 3 4 4 11 5 3 6 7 7 8 8 9 9 2 10 1 11
REMARK H PARENT
REMARK Flexibility Score: inf
ROOT
ATOM      1  C   UNL     1       7.915 -10.323 -28.747  1.00  0.00    -0.003 A 
ATOM      2  C   UNL     1       6.626 -10.748 -28.385  1.00  0.00     0.014 A 
ATOM      3  C   UNL     1       8.868 -11.285 -29.126  1.00  0.00     0.014 A 
ATOM      4  C   UNL     1       6.296 -12.107 -28.400  1.00  0.00     0.047 A 
ATOM      5  C   UNL     1       8.536 -12.643 -29.141  1.00  0.00     0.047 A 
ATOM      6  C   UNL     1       7.253 -13.067 -28.780  1.00  0.00     0.118 A 
ENDROOT
BRANCH   1   7
ATOM      7  C   UNL     1       8.260  -8.884 -28.730  1.00  0.00     0.071 C 
ATOM      8  O   UNL     1       7.375  -8.011 -28.936  1.00  0.00    -0.545 OA
ATOM      9  O   UNL     1       9.566  -8.475 -28.486  1.00  0.00    -0.545 OA
ENDBRANCH   1   7
BRANCH   6  10
ATOM     10  O   UNL     1       6.970 -14.440 -28.812  1.00  0.00    -0.497 OA
ATOM     11  C   UNL     1       6.287 -15.096 -29.875  1.00  0.00     0.278 C 
ENDBRANCH   6  10
TORSDOF 2
ENDMDL
MODEL 5
REMARK VINA RESULT:    -4.396      1.727      4.527
REMARK INTER + INTRA:          -4.969
REMARK INTER:                  -4.911
REMARK INTRA:                  -0.059
REMARK UNBOUND:                -0.059
REMARK SMILES COc1ccc(C(=O)[O-])cc1
REMARK SMILES IDX 6 1 5 2 10 3 4 4 11 5 3 6 7 7 8 8 9 9 2 10 1 11
REMARK H PARENT
REMARK Flexibility Score: inf
ROOT
ATOM      1  C   UNL     1       7.122 -12.803 -28.605  1.00  0.00    -0.003 A 
ATOM      2  C   UNL     1       8.314 -12.178 -29.006  1.00  0.00     0.014 A 
ATOM      3  C   UNL     1       5.894 -12.208 -28.942  1.00  0.00     0.014 A 
ATOM      4  C   UNL     1       8.281 -10.982 -29.728  1.00  0.00     0.047 A 
ATOM      5  C   UNL     1       5.862 -11.012 -29.666  1.00  0.00     0.047 A 
ATOM      6  C   UNL     1       7.049 -10.389 -30.065  1.00  0.00     0.118 A 
ENDROOT
BRANCH   1   7
ATOM      7  C   UNL     1       7.162 -14.069 -27.839  1.00  0.00     0.071 C 
ATOM      8  O   UNL     1       7.071 -15.178 -28.431  1.00  0.00    -0.545 OA
ATOM      9  O   UNL     1       7.301 -14.053 -26.457  1.00  0.00    -0.545 OA
ENDBRANCH   1   7
BRANCH   6  10
ATOM     10  O   UNL     1       6.963  -9.190 -30.789  1.00  0.00    -0.497 OA
ATOM     11  C   UNL     1       5.945  -8.212 -30.608  1.00  0.00     0.278 C 
ENDBRANCH   6  10
TORSDOF 2
ENDMDL
MODEL 6
REMARK VINA RESULT:    -4.056     16.821     17.659
REMARK INTER + INTRA:          -4.589
REMARK INTER:                  -4.533
REMARK INTRA:                  -0.057
REMARK UNBOUND:                -0.059
REMARK SMILES COc1ccc(C(=O)[O-])cc1
REMARK SMILES IDX 6 1 5 2 10 3 4 4 11 5 3 6 7 7 8 8 9 9 2 10 1 11
REMARK H PARENT
REMARK Flexibility Score: inf
ROOT
ATOM      1  C   UNL     1       0.233 -14.642 -13.652  1.00  0.00    -0.003 A 
ATOM      2  C   UNL     1       0.042 -15.180 -12.368  1.00  0.00     0.014 A 
ATOM      3  C   UNL     1       1.018 -15.351 -14.578  1.00  0.00     0.014 A 
ATOM      4  C   UNL     1       0.625 -16.401 -12.016  1.00  0.00     0.047 A 
ATOM      5  C   UNL     1       1.598 -16.573 -14.225  1.00  0.00     0.047 A 
ATOM      6  C   UNL     1       1.410 -17.109 -12.947  1.00  0.00     0.118 A 
ENDROOT
BRANCH   1   7
ATOM      7  C   UNL     1      -0.385 -13.349 -14.020  1.00  0.00     0.071 C 
ATOM      8  O   UNL     1      -0.169 -12.316 -13.330  1.00  0.00    -0.545 OA
ATOM      9  O   UNL     1      -1.213 -13.254 -15.132  1.00  0.00    -0.545 OA
ENDBRANCH   1   7
BRANCH   6  10
ATOM     10  O   UNL     1       2.014 -18.337 -12.642  1.00  0.00    -0.497 OA
ATOM     11  C   UNL     1       3.418 -18.567 -12.649  1.00  0.00     0.278 C 
ENDBRANCH   6  10
TORSDOF 2
ENDMDL
MODEL 7
REMARK VINA RESULT:    -4.048     16.829     17.623
REMARK INTER + INTRA:          -4.580
REMARK INTER:                  -4.525
REMARK INTRA:                  -0.054
REMARK UNBOUND:                -0.059
REMARK SMILES COc1ccc(C(=O)[O-])cc1
REMARK SMILES IDX 6 1 5 2 10 3 4 4 11 5 3 6 7 7 8 8 9 9 2 10 1 11
REMARK H PARENT
REMARK Flexibility Score: inf
ROOT
ATOM      1  C   UNL     1       0.214 -14.633 -13.625  1.00  0.00    -0.003 A 
ATOM      2  C   UNL     1       1.009 -15.280 -14.586  1.00  0.00     0.014 A 
ATOM      3  C   UNL     1       0.038 -15.237 -12.368  1.00  0.00     0.014 A 
ATOM      4  C   UNL     1       1.615 -16.507 -14.297  1.00  0.00     0.047 A 
ATOM      5  C   UNL     1       0.645 -16.463 -12.080  1.00  0.00     0.047 A 
ATOM      6  C   UNL     1       1.436 -17.108 -13.036  1.00  0.00     0.118 A 
ENDROOT
BRANCH   1   7
ATOM      7  C   UNL     1      -0.425 -13.335 -13.936  1.00  0.00     0.071 C 
ATOM      8  O   UNL     1      -0.202 -12.323 -13.218  1.00  0.00    -0.545 OA
ATOM      9  O   UNL     1      -1.282 -13.213 -15.023  1.00  0.00    -0.545 OA
ENDBRANCH   1   7
BRANCH   6  10
ATOM     10  O   UNL     1       2.023 -18.337 -12.699  1.00  0.00    -0.497 OA
ATOM     11  C   UNL     1       3.427 -18.566 -12.633  1.00  0.00     0.278 C 
ENDBRANCH   6  10
TORSDOF 2
ENDMDL
MODEL 8
REMARK VINA RESULT:    -3.899      2.233      5.626
REMARK INTER + INTRA:          -4.414
REMARK INTER:                  -4.352
REMARK INTRA:                  -0.061
REMARK UNBOUND:                -0.059
REMARK SMILES COc1ccc(C(=O)[O-])cc1
REMARK SMILES IDX 6 1 5 2 10 3 4 4 11 5 3 6 7 7 8 8 9 9 2 10 1 11
REMARK H PARENT
REMARK Flexibility Score: inf
ROOT
ATOM      1  C   UNL     1       6.468 -15.159 -30.612  1.00  0.00    -0.003 A 
ATOM      2  C   UNL     1       7.192 -14.225 -31.371  1.00  0.00     0.014 A 
ATOM      3  C   UNL     1       6.274 -14.919 -29.240  1.00  0.00     0.014 A 
ATOM      4  C   UNL     1       7.714 -13.074 -30.772  1.00  0.00     0.047 A 
ATOM      5  C   UNL     1       6.795 -13.767 -28.643  1.00  0.00     0.047 A 
ATOM      6  C   UNL     1       7.517 -12.836 -29.398  1.00  0.00     0.118 A 
ENDROOT
BRANCH   1   7
ATOM      7  C   UNL     1       5.919 -16.376 -31.250  1.00  0.00     0.071 C 
ATOM      8  O   UNL     1       4.738 -16.747 -31.012  1.00  0.00    -0.545 OA
ATOM      9  O   UNL     1       6.698 -17.127 -32.122  1.00  0.00    -0.545 OA
ENDBRANCH   1   7
BRANCH   6  10
ATOM     10  O   UNL     1       8.019 -11.697 -28.752  1.00  0.00    -0.497 OA
ATOM     11  C   UNL     1       8.631 -10.599 -29.419  1.00  0.00     0.278 C 
ENDBRANCH   6  10
TORSDOF 2
ENDMDL
MODEL 9
REMARK VINA RESULT:    -3.799      1.694      4.964
REMARK INTER + INTRA:          -4.303
REMARK INTER:                  -4.248
REMARK INTRA:                  -0.055
REMARK UNBOUND:                -0.059
REMARK SMILES COc1ccc(C(=O)[O-])cc1
REMARK SMILES IDX 6 1 5 2 10 3 4 4 11 5 3 6 7 7 8 8 9 9 2 10 1 11
REMARK H PARENT
REMARK Flexibility Score: inf
ROOT
ATOM      1  C   UNL     1       7.389 -11.354 -29.852  1.00  0.00    -0.003 A 
ATOM      2  C   UNL     1       8.512 -10.917 -29.130  1.00  0.00     0.014 A 
ATOM      3  C   UNL     1       6.638 -10.413 -30.579  1.00  0.00     0.014 A 
ATOM      4  C   UNL     1       8.877  -9.567 -29.132  1.00  0.00     0.047 A 
ATOM      5  C   UNL     1       7.005  -9.064 -30.582  1.00  0.00     0.047 A 
ATOM      6  C   UNL     1       8.122  -8.628 -29.862  1.00  0.00     0.118 A 
ENDROOT
BRANCH   1   7
ATOM      7  C   UNL     1       7.006 -12.783 -29.846  1.00  0.00     0.071 C 
ATOM      8  O   UNL     1       5.856 -13.137 -29.474  1.00  0.00    -0.545 OA
ATOM      9  O   UNL     1       7.912 -13.757 -30.251  1.00  0.00    -0.545 OA
ENDBRANCH   1   7
BRANCH   6  10
ATOM     10  O   UNL     1       8.448  -7.264 -29.896  1.00  0.00    -0.497 OA
ATOM     11  C   UNL     1       8.500  -6.421 -28.751  1.00  0.00     0.278 C 
ENDBRANCH   6  10
TORSDOF 2
ENDMDL
