MODEL 1
REMARK VINA RESULT:    -3.452      0.000      0.000
REMARK INTER + INTRA:          -4.980
REMARK INTER:                  -4.663
REMARK INTRA:                  -0.316
REMARK UNBOUND:                -0.316
REMARK SMILES CCCCCCC=CC(=O)[O-]
REMARK SMILES IDX 5 1 6 2 7 3 8 4 9 5 10 6 11 7 4 8 3 9 2 10 1 11
REMARK H PARENT
REMARK Flexibility Score: inf
ROOT
ATOM      1  C   UNL     1      63.705  32.860  59.095  1.00  0.00     0.004 C 
ENDROOT
BRANCH   1   2
ATOM      2  C   UNL     1      64.211  31.764  60.046  1.00  0.00     0.027 C 
BRANCH   2   3
ATOM      3  C   UNL     1      63.428  30.487  59.916  1.00  0.00    -0.025 C 
ATOM      4  C   UNL     1      63.438  29.560  60.879  1.00  0.00     0.020 C 
BRANCH   4   5
ATOM      5  C   UNL     1      62.684  28.303  60.761  1.00  0.00     0.064 C 
ATOM      6  O   UNL     1      61.463  28.280  61.066  1.00  0.00    -0.545 OA
ATOM      7  O   UNL     1      63.299  27.139  60.315  1.00  0.00    -0.545 OA
ENDBRANCH   4   5
ENDBRANCH   2   3
ENDBRANCH   1   2
BRANCH   1   8
ATOM      8  C   UNL     1      63.890  34.270  59.682  1.00  0.00     0.000 C 
BRANCH   8   9
ATOM      9  C   UNL     1      64.440  34.233  61.123  1.00  0.00    -0.000 C 
BRANCH   9  10
ATOM     10  C   UNL     1      63.994  35.428  61.983  1.00  0.00    -0.003 C 
ATOM     11  C   UNL     1      62.655  36.014  61.543  1.00  0.00     0.004 C 
ENDBRANCH   9  10
ENDBRANCH   8   9
ENDBRANCH   1   8
TORSDOF 6
ENDMDL
MODEL 2
REMARK VINA RESULT:    -3.272      8.197      9.585
REMARK INTER + INTRA:          -4.736
REMARK INTER:                  -4.341
REMARK INTRA:                  -0.395
REMARK UNBOUND:                -0.316
REMARK SMILES CCCCCCC=CC(=O)[O-]
REMARK SMILES IDX 5 1 6 2 7 3 8 4 9 5 10 6 11 7 4 8 3 9 2 10 1 11
REMARK H PARENT
REMARK Flexibility Score: inf
ROOT
ATOM      1  C   UNL     1      71.583  31.347  58.818  1.00  0.00     0.004 C 
ENDROOT
BRANCH   1   2
ATOM      2  C   UNL     1      71.382  32.326  59.985  1.00  0.00     0.027 C 
BRANCH   2   3
ATOM      3  C   UNL     1      70.811  33.643  59.535  1.00  0.00    -0.025 C 
ATOM      4  C   UNL     1      70.272  33.792  58.321  1.00  0.00     0.020 C 
BRANCH   4   5
ATOM      5  C   UNL     1      69.718  35.076  57.865  1.00  0.00     0.064 C 
ATOM      6  O   UNL     1      70.491  35.960  57.410  1.00  0.00    -0.545 OA
ATOM      7  O   UNL     1      68.352  35.329  57.928  1.00  0.00    -0.545 OA
ENDBRANCH   4   5
ENDBRANCH   2   3
ENDBRANCH   1   2
BRANCH   1   8
ATOM      8  C   UNL     1      72.471  30.152  59.209  1.00  0.00     0.000 C 
BRANCH   8   9
ATOM      9  C   UNL     1      72.720  30.085  60.730  1.00  0.00    -0.000 C 
BRANCH   9  10
ATOM     10  C   UNL     1      72.118  28.837  61.398  1.00  0.00    -0.003 C 
ATOM     11  C   UNL     1      70.606  28.733  61.217  1.00  0.00     0.004 C 
ENDBRANCH   9  10
ENDBRANCH   8   9
ENDBRANCH   1   8
TORSDOF 6
ENDMDL
MODEL 3
REMARK VINA RESULT:    -3.271      3.193      5.376
REMARK INTER + INTRA:          -4.735
REMARK INTER:                  -4.005
REMARK INTRA:                  -0.730
REMARK UNBOUND:                -0.316
REMARK SMILES CCCCCCC=CC(=O)[O-]
REMARK SMILES IDX 5 1 6 2 7 3 8 4 9 5 10 6 11 7 4 8 3 9 2 10 1 11
REMARK H PARENT
REMARK Flexibility Score: inf
ROOT
ATOM      1  C   UNL     1      63.089  28.378  60.357  1.00  0.00     0.004 C 
ENDROOT
BRANCH   1   2
ATOM      2  C   UNL     1      64.344  29.263  60.350  1.00  0.00     0.027 C 
BRANCH   2   3
ATOM      3  C   UNL     1      64.021  30.717  60.563  1.00  0.00    -0.025 C 
ATOM      4  C   UNL     1      64.147  31.611  59.577  1.00  0.00     0.020 C 
BRANCH   4   5
ATOM      5  C   UNL     1      63.842  33.036  59.774  1.00  0.00     0.064 C 
ATOM      6  O   UNL     1      64.444  33.683  60.672  1.00  0.00    -0.545 OA
ATOM      7  O   UNL     1      62.901  33.684  58.981  1.00  0.00    -0.545 OA
ENDBRANCH   4   5
ENDBRANCH   2   3
ENDBRANCH   1   2
BRANCH   1   8
ATOM      8  C   UNL     1      61.947  28.995  61.183  1.00  0.00     0.000 C 
BRANCH   8   9
ATOM      9  C   UNL     1      60.593  28.931  60.445  1.00  0.00    -0.000 C 
BRANCH   9  10
ATOM     10  C   UNL     1      60.689  29.285  58.952  1.00  0.00    -0.003 C 
ATOM     11  C   UNL     1      60.648  30.789  58.691  1.00  0.00     0.004 C 
ENDBRANCH   9  10
ENDBRANCH   8   9
ENDBRANCH   1   8
TORSDOF 6
ENDMDL
MODEL 4
REMARK VINA RESULT:    -3.261     12.700     13.196
REMARK INTER + INTRA:          -4.721
REMARK INTER:                  -4.463
REMARK INTRA:                  -0.258
REMARK UNBOUND:                -0.316
REMARK SMILES CCCCCCC=CC(=O)[O-]
REMARK SMILES IDX 5 1 6 2 7 3 8 4 9 5 10 6 11 7 4 8 3 9 2 10 1 11
REMARK H PARENT
REMARK Flexibility Score: inf
ROOT
ATOM      1  C   UNL     1      58.537  28.356  48.843  1.00  0.00     0.004 C 
ENDROOT
BRANCH   1   2
ATOM      2  C   UNL     1      59.761  27.453  48.621  1.00  0.00     0.027 C 
BRANCH   2   3
ATOM      3  C   UNL     1      59.503  26.029  49.029  1.00  0.00    -0.025 C 
ATOM      4  C   UNL     1      60.505  25.187  49.301  1.00  0.00     0.020 C 
BRANCH   4   5
ATOM      5  C   UNL     1      60.268  23.790  49.693  1.00  0.00     0.064 C 
ATOM      6  O   UNL     1      59.406  23.529  50.573  1.00  0.00    -0.545 OA
ATOM      7  O   UNL     1      60.979  22.750  49.104  1.00  0.00    -0.545 OA
ENDBRANCH   4   5
ENDBRANCH   2   3
ENDBRANCH   1   2
BRANCH   1   8
ATOM      8  C   UNL     1      57.521  27.728  49.813  1.00  0.00     0.000 C 
BRANCH   8   9
ATOM      9  C   UNL     1      56.176  28.484  49.816  1.00  0.00    -0.000 C 
BRANCH   9  10
ATOM     10  C   UNL     1      56.199  29.778  50.647  1.00  0.00    -0.003 C 
ATOM     11  C   UNL     1      55.033  30.712  50.332  1.00  0.00     0.004 C 
ENDBRANCH   9  10
ENDBRANCH   8   9
ENDBRANCH   1   8
TORSDOF 6
ENDMDL
MODEL 5
REMARK VINA RESULT:    -3.250      3.659      5.821
REMARK INTER + INTRA:          -4.706
REMARK INTER:                  -4.296
REMARK INTRA:                  -0.410
REMARK UNBOUND:                -0.316
REMARK SMILES CCCCCCC=CC(=O)[O-]
REMARK SMILES IDX 5 1 6 2 7 3 8 4 9 5 10 6 11 7 4 8 3 9 2 10 1 11
REMARK H PARENT
REMARK Flexibility Score: inf
ROOT
ATOM      1  C   UNL     1      63.491  31.051  58.850  1.00  0.00     0.004 C 
ENDROOT
BRANCH   1   2
ATOM      2  C   UNL     1      63.136  32.544  58.929  1.00  0.00     0.027 C 
BRANCH   2   3
ATOM      3  C   UNL     1      64.086  33.313  59.805  1.00  0.00    -0.025 C 
ATOM      4  C   UNL     1      63.666  34.319  60.578  1.00  0.00     0.020 C 
BRANCH   4   5
ATOM      5  C   UNL     1      64.586  35.084  61.433  1.00  0.00     0.064 C 
ATOM      6  O   UNL     1      64.200  35.479  62.565  1.00  0.00    -0.545 OA
ATOM      7  O   UNL     1      65.878  35.377  61.012  1.00  0.00    -0.545 OA
ENDBRANCH   4   5
ENDBRANCH   2   3
ENDBRANCH   1   2
BRANCH   1   8
ATOM      8  C   UNL     1      64.351  30.595  60.041  1.00  0.00     0.000 C 
BRANCH   8   9
ATOM      9  C   UNL     1      63.553  29.730  61.039  1.00  0.00    -0.000 C 
BRANCH   9  10
ATOM     10  C   UNL     1      62.210  29.229  60.483  1.00  0.00    -0.003 C 
ATOM     11  C   UNL     1      61.998  27.732  60.691  1.00  0.00     0.004 C 
ENDBRANCH   9  10
ENDBRANCH   8   9
ENDBRANCH   1   8
TORSDOF 6
ENDMDL
MODEL 6
REMARK VINA RESULT:    -3.182     13.192     14.405
REMARK INTER + INTRA:          -4.615
REMARK INTER:                  -4.415
REMARK INTRA:                  -0.200
REMARK UNBOUND:                -0.316
REMARK SMILES CCCCCCC=CC(=O)[O-]
REMARK SMILES IDX 5 1 6 2 7 3 8 4 9 5 10 6 11 7 4 8 3 9 2 10 1 11
REMARK H PARENT
REMARK Flexibility Score: inf
ROOT
ATOM      1  C   UNL     1      59.295  25.952  48.960  1.00  0.00     0.004 C 
ENDROOT
BRANCH   1   2
ATOM      2  C   UNL     1      59.579  27.438  48.688  1.00  0.00     0.027 C 
BRANCH   2   3
ATOM      3  C   UNL     1      58.414  28.318  49.045  1.00  0.00    -0.025 C 
ATOM      4  C   UNL     1      57.412  27.875  49.811  1.00  0.00     0.020 C 
BRANCH   4   5
ATOM      5  C   UNL     1      56.263  28.723  50.160  1.00  0.00     0.064 C 
ATOM      6  O   UNL     1      56.108  29.831  49.582  1.00  0.00    -0.545 OA
ATOM      7  O   UNL     1      55.340  28.319  51.120  1.00  0.00    -0.545 OA
ENDBRANCH   4   5
ENDBRANCH   2   3
ENDBRANCH   1   2
BRANCH   1   8
ATOM      8  C   UNL     1      60.564  25.183  49.368  1.00  0.00     0.000 C 
BRANCH   8   9
ATOM      9  C   UNL     1      60.267  23.708  49.709  1.00  0.00    -0.000 C 
BRANCH   9  10
ATOM     10  C   UNL     1      61.410  22.748  49.338  1.00  0.00    -0.003 C 
ATOM     11  C   UNL     1      60.946  21.563  48.496  1.00  0.00     0.004 C 
ENDBRANCH   9  10
ENDBRANCH   8   9
ENDBRANCH   1   8
TORSDOF 6
ENDMDL
MODEL 7
REMARK VINA RESULT:    -3.171      8.678      9.928
REMARK INTER + INTRA:          -4.599
REMARK INTER:                  -3.955
REMARK INTRA:                  -0.644
REMARK UNBOUND:                -0.316
REMARK SMILES CCCCCCC=CC(=O)[O-]
REMARK SMILES IDX 5 1 6 2 7 3 8 4 9 5 10 6 11 7 4 8 3 9 2 10 1 11
REMARK H PARENT
REMARK Flexibility Score: inf
ROOT
ATOM      1  C   UNL     1      71.159  28.612  58.740  1.00  0.00     0.004 C 
ENDROOT
BRANCH   1   2
ATOM      2  C   UNL     1      71.938  29.513  57.770  1.00  0.00     0.027 C 
BRANCH   2   3
ATOM      3  C   UNL     1      71.576  30.965  57.922  1.00  0.00    -0.025 C 
ATOM      4  C   UNL     1      71.337  31.504  59.121  1.00  0.00     0.020 C 
BRANCH   4   5
ATOM      5  C   UNL     1      70.973  32.919  59.283  1.00  0.00     0.064 C 
ATOM      6  O   UNL     1      71.063  33.459  60.417  1.00  0.00    -0.545 OA
ATOM      7  O   UNL     1      70.533  33.674  58.201  1.00  0.00    -0.545 OA
ENDBRANCH   4   5
ENDBRANCH   2   3
ENDBRANCH   1   2
BRANCH   1   8
ATOM      8  C   UNL     1      72.050  27.523  59.364  1.00  0.00     0.000 C 
BRANCH   8   9
ATOM      9  C   UNL     1      73.123  28.116  60.301  1.00  0.00    -0.000 C 
BRANCH   9  10
ATOM     10  C   UNL     1      72.550  28.695  61.605  1.00  0.00    -0.003 C 
ATOM     11  C   UNL     1      73.125  30.065  61.955  1.00  0.00     0.004 C 
ENDBRANCH   9  10
ENDBRANCH   8   9
ENDBRANCH   1   8
TORSDOF 6
ENDMDL
MODEL 8
REMARK VINA RESULT:    -3.164     16.990     18.132
REMARK INTER + INTRA:          -4.591
REMARK INTER:                  -3.880
REMARK INTRA:                  -0.711
REMARK UNBOUND:                -0.316
REMARK SMILES CCCCCCC=CC(=O)[O-]
REMARK SMILES IDX 5 1 6 2 7 3 8 4 9 5 10 6 11 7 4 8 3 9 2 10 1 11
REMARK H PARENT
REMARK Flexibility Score: inf
ROOT
ATOM      1  C   UNL     1      57.742  16.609  49.764  1.00  0.00     0.004 C 
ENDROOT
BRANCH   1   2
ATOM      2  C   UNL     1      57.319  18.085  49.835  1.00  0.00     0.027 C 
BRANCH   2   3
ATOM      3  C   UNL     1      55.989  18.267  50.512  1.00  0.00    -0.025 C 
ATOM      4  C   UNL     1      55.882  18.898  51.685  1.00  0.00     0.020 C 
BRANCH   4   5
ATOM      5  C   UNL     1      54.589  19.076  52.361  1.00  0.00     0.064 C 
ATOM      6  O   UNL     1      53.769  19.924  51.922  1.00  0.00    -0.545 OA
ATOM      7  O   UNL     1      54.255  18.319  53.479  1.00  0.00    -0.545 OA
ENDBRANCH   4   5
ENDBRANCH   2   3
ENDBRANCH   1   2
BRANCH   1   8
ATOM      8  C   UNL     1      58.712  16.228  50.896  1.00  0.00     0.000 C 
BRANCH   8   9
ATOM      9  C   UNL     1      59.474  17.451  51.447  1.00  0.00    -0.000 C 
BRANCH   9  10
ATOM     10  C   UNL     1      59.407  17.580  52.978  1.00  0.00    -0.003 C 
ATOM     11  C   UNL     1      58.256  16.788  53.594  1.00  0.00     0.004 C 
ENDBRANCH   9  10
ENDBRANCH   8   9
ENDBRANCH   1   8
TORSDOF 6
ENDMDL
MODEL 9
REMARK VINA RESULT:    -3.164      8.165      9.686
REMARK INTER + INTRA:          -4.591
REMARK INTER:                  -3.990
REMARK INTRA:                  -0.601
REMARK UNBOUND:                -0.316
REMARK SMILES CCCCCCC=CC(=O)[O-]
REMARK SMILES IDX 5 1 6 2 7 3 8 4 9 5 10 6 11 7 4 8 3 9 2 10 1 11
REMARK H PARENT
REMARK Flexibility Score: inf
ROOT
ATOM      1  C   UNL     1      72.936  28.824  60.716  1.00  0.00     0.004 C 
ENDROOT
BRANCH   1   2
ATOM      2  C   UNL     1      72.441  30.220  61.122  1.00  0.00     0.027 C 
BRANCH   2   3
ATOM      3  C   UNL     1      72.028  31.048  59.936  1.00  0.00    -0.025 C 
ATOM      4  C   UNL     1      71.341  32.186  60.083  1.00  0.00     0.020 C 
BRANCH   4   5
ATOM      5  C   UNL     1      70.924  33.000  58.932  1.00  0.00     0.064 C 
ATOM      6  O   UNL     1      71.103  32.564  57.764  1.00  0.00    -0.545 OA
ATOM      7  O   UNL     1      70.333  34.245  59.112  1.00  0.00    -0.545 OA
ENDBRANCH   4   5
ENDBRANCH   2   3
ENDBRANCH   1   2
BRANCH   1   8
ATOM      8  C   UNL     1      72.154  28.254  59.519  1.00  0.00     0.000 C 
BRANCH   8   9
ATOM      9  C   UNL     1      71.080  27.236  59.957  1.00  0.00    -0.000 C 
BRANCH   9  10
ATOM     10  C   UNL     1      69.655  27.813  59.972  1.00  0.00    -0.003 C 
ATOM     11  C   UNL     1      69.230  28.324  61.346  1.00  0.00     0.004 C 
ENDBRANCH   9  10
ENDBRANCH   8   9
ENDBRANCH   1   8
TORSDOF 6
ENDMDL
