MODEL 1
REMARK VINA RESULT:    -4.981      0.000      0.000
REMARK INTER + INTRA:          -5.681
REMARK INTER:                  -5.272
REMARK INTRA:                  -0.409
REMARK UNBOUND:                -0.409
REMARK SMILES CC1=CC[C@@H]2[C@H]3[C@H](C(C)C)CC[C@]2(C)[C@@H]13
REMARK SMILES IDX 1 1 2 2 3 3 4 4 5 5 6 6 15 7 13 8 12 9 11 10 7 11 14 12 8 13
REMARK SMILES IDX 9 14 10 15
REMARK H PARENT
REMARK Flexibility Score: inf
ROOT
ATOM      1  C   UNL     1      29.099  11.477  31.712  1.00  0.00     0.039 C 
ATOM      2  C   UNL     1      30.340  10.841  32.264  1.00  0.00    -0.073 C 
ATOM      3  C   UNL     1      31.505  11.535  32.358  1.00  0.00    -0.027 C 
ATOM      4  C   UNL     1      32.735  10.838  32.952  1.00  0.00     0.031 C 
ATOM      5  C   UNL     1      32.396   9.357  33.324  1.00  0.00     0.003 C 
ATOM      6  C   UNL     1      31.633   8.741  32.130  1.00  0.00     0.004 C 
ATOM      7  C   UNL     1      30.358   9.382  32.729  1.00  0.00     0.024 C 
ATOM      8  C   UNL     1      31.064   9.265  34.104  1.00  0.00    -0.022 C 
ATOM      9  C   UNL     1      30.927   7.826  34.681  1.00  0.00     0.008 C 
ATOM     10  C   UNL     1      30.903   6.745  33.570  1.00  0.00     0.005 C 
ATOM     11  C   UNL     1      31.617   7.182  32.248  1.00  0.00    -0.005 C 
ATOM     12  C   UNL     1      30.764  10.323  35.192  1.00  0.00     0.012 C 
ENDROOT
BRANCH  11  13
ATOM     13  C   UNL     1      30.979   6.491  31.001  1.00  0.00    -0.014 C 
ATOM     14  C   UNL     1      30.873   7.468  29.814  1.00  0.00     0.007 C 
ATOM     15  C   UNL     1      29.577   5.923  31.295  1.00  0.00     0.007 C 
ENDBRANCH  11  13
TORSDOF 1
ENDMDL
MODEL 2
REMARK VINA RESULT:    -4.879      1.483      3.664
REMARK INTER + INTRA:          -5.574
REMARK INTER:                  -5.282
REMARK INTRA:                  -0.291
REMARK UNBOUND:                -0.409
REMARK SMILES CC1=CC[C@@H]2[C@H]3[C@H](C(C)C)CC[C@]2(C)[C@@H]13
REMARK SMILES IDX 1 1 2 2 3 3 4 4 5 5 6 6 15 7 13 8 12 9 11 10 7 11 14 12 8 13
REMARK SMILES IDX 9 14 10 15
REMARK H PARENT
REMARK Flexibility Score: inf
ROOT
ATOM      1  C   UNL     1      31.507   5.990  36.471  1.00  0.00     0.039 C 
ATOM      2  C   UNL     1      30.865   7.257  35.990  1.00  0.00    -0.073 C 
ATOM      3  C   UNL     1      29.707   7.713  36.536  1.00  0.00    -0.027 C 
ATOM      4  C   UNL     1      29.111   9.026  36.018  1.00  0.00     0.031 C 
ATOM      5  C   UNL     1      29.990   9.605  34.861  1.00  0.00     0.003 C 
ATOM      6  C   UNL     1      30.311   8.442  33.895  1.00  0.00     0.004 C 
ATOM      7  C   UNL     1      31.473   8.085  34.854  1.00  0.00     0.024 C 
ATOM      8  C   UNL     1      31.491   9.588  35.234  1.00  0.00    -0.022 C 
ATOM      9  C   UNL     1      32.273  10.421  34.177  1.00  0.00     0.008 C 
ATOM     10  C   UNL     1      32.132   9.841  32.747  1.00  0.00     0.005 C 
ATOM     11  C   UNL     1      30.829   9.004  32.531  1.00  0.00    -0.005 C 
ATOM     12  C   UNL     1      31.906   9.991  36.669  1.00  0.00     0.012 C 
ENDROOT
BRANCH  11  13
ATOM     13  C   UNL     1      31.042   7.885  31.461  1.00  0.00    -0.014 C 
ATOM     14  C   UNL     1      30.564   8.344  30.071  1.00  0.00     0.007 C 
ATOM     15  C   UNL     1      30.313   6.577  31.825  1.00  0.00     0.007 C 
ENDBRANCH  11  13
TORSDOF 1
ENDMDL
MODEL 3
REMARK VINA RESULT:    -4.874      1.730      4.351
REMARK INTER + INTRA:          -5.567
REMARK INTER:                  -5.327
REMARK INTRA:                  -0.240
REMARK UNBOUND:                -0.409
REMARK SMILES CC1=CC[C@@H]2[C@H]3[C@H](C(C)C)CC[C@]2(C)[C@@H]13
REMARK SMILES IDX 1 1 2 2 3 3 4 4 5 5 6 6 15 7 13 8 12 9 11 10 7 11 14 12 8 13
REMARK SMILES IDX 9 14 10 15
REMARK H PARENT
REMARK Flexibility Score: inf
ROOT
ATOM      1  C   UNL     1      33.125  11.135  33.087  1.00  0.00     0.039 C 
ATOM      2  C   UNL     1      31.852  10.367  33.290  1.00  0.00    -0.073 C 
ATOM      3  C   UNL     1      30.673  10.810  32.780  1.00  0.00    -0.027 C 
ATOM      4  C   UNL     1      29.410   9.971  33.001  1.00  0.00     0.031 C 
ATOM      5  C   UNL     1      29.740   8.704  33.857  1.00  0.00     0.003 C 
ATOM      6  C   UNL     1      30.608   9.163  35.051  1.00  0.00     0.004 C 
ATOM      7  C   UNL     1      31.819   9.063  34.093  1.00  0.00     0.024 C 
ATOM      8  C   UNL     1      31.004   7.985  33.333  1.00  0.00    -0.022 C 
ATOM      9  C   UNL     1      31.116   6.602  34.037  1.00  0.00     0.008 C 
ATOM     10  C   UNL     1      31.248   6.733  35.576  1.00  0.00     0.005 C 
ATOM     11  C   UNL     1      30.638   8.054  36.152  1.00  0.00    -0.005 C 
ATOM     12  C   UNL     1      31.198   7.841  31.805  1.00  0.00     0.012 C 
ENDROOT
BRANCH  11  13
ATOM     13  C   UNL     1      31.387   8.510  37.445  1.00  0.00    -0.014 C 
ATOM     14  C   UNL     1      30.527   8.269  38.701  1.00  0.00     0.007 C 
ATOM     15  C   UNL     1      31.786   9.997  37.401  1.00  0.00     0.007 C 
ENDBRANCH  11  13
TORSDOF 1
ENDMDL
MODEL 4
REMARK VINA RESULT:    -4.716      1.683      4.096
REMARK INTER + INTRA:          -5.401
REMARK INTER:                  -4.966
REMARK INTRA:                  -0.435
REMARK UNBOUND:                -0.409
REMARK SMILES CC1=CC[C@@H]2[C@H]3[C@H](C(C)C)CC[C@]2(C)[C@@H]13
REMARK SMILES IDX 1 1 2 2 3 3 4 4 5 5 6 6 15 7 13 8 12 9 11 10 7 11 14 12 8 13
REMARK SMILES IDX 9 14 10 15
REMARK H PARENT
REMARK Flexibility Score: inf
ROOT
ATOM      1  C   UNL     1      29.055   9.545  36.992  1.00  0.00     0.039 C 
ATOM      2  C   UNL     1      29.920   8.472  36.400  1.00  0.00    -0.073 C 
ATOM      3  C   UNL     1      30.692   7.675  37.186  1.00  0.00    -0.027 C 
ATOM      4  C   UNL     1      31.537   6.581  36.525  1.00  0.00     0.031 C 
ATOM      5  C   UNL     1      31.364   6.621  34.971  1.00  0.00     0.003 C 
ATOM      6  C   UNL     1      31.488   8.097  34.528  1.00  0.00     0.004 C 
ATOM      7  C   UNL     1      29.989   8.237  34.888  1.00  0.00     0.024 C 
ATOM      8  C   UNL     1      29.873   6.723  34.575  1.00  0.00    -0.022 C 
ATOM      9  C   UNL     1      29.751   6.479  33.042  1.00  0.00     0.008 C 
ATOM     10  C   UNL     1      30.535   7.528  32.213  1.00  0.00     0.005 C 
ATOM     11  C   UNL     1      31.730   8.178  32.986  1.00  0.00    -0.005 C 
ATOM     12  C   UNL     1      28.838   5.875  35.350  1.00  0.00     0.012 C 
ENDROOT
BRANCH  11  13
ATOM     13  C   UNL     1      32.000   9.636  32.495  1.00  0.00    -0.014 C 
ATOM     14  C   UNL     1      32.512  10.526  33.644  1.00  0.00     0.007 C 
ATOM     15  C   UNL     1      30.746  10.293  31.886  1.00  0.00     0.007 C 
ENDBRANCH  11  13
TORSDOF 1
ENDMDL
MODEL 5
REMARK VINA RESULT:    -4.679      1.388      2.188
REMARK INTER + INTRA:          -5.362
REMARK INTER:                  -5.089
REMARK INTRA:                  -0.272
REMARK UNBOUND:                -0.409
REMARK SMILES CC1=CC[C@@H]2[C@H]3[C@H](C(C)C)CC[C@]2(C)[C@@H]13
REMARK SMILES IDX 1 1 2 2 3 3 4 4 5 5 6 6 15 7 13 8 12 9 11 10 7 11 14 12 8 13
REMARK SMILES IDX 9 14 10 15
REMARK H PARENT
REMARK Flexibility Score: inf
ROOT
ATOM      1  C   UNL     1      28.044  10.023  34.582  1.00  0.00     0.039 C 
ATOM      2  C   UNL     1      29.483   9.844  34.197  1.00  0.00    -0.073 C 
ATOM      3  C   UNL     1      30.434  10.729  34.597  1.00  0.00    -0.027 C 
ATOM      4  C   UNL     1      31.891  10.481  34.192  1.00  0.00     0.031 C 
ATOM      5  C   UNL     1      32.001   9.194  33.310  1.00  0.00     0.003 C 
ATOM      6  C   UNL     1      30.881   9.263  32.246  1.00  0.00     0.004 C 
ATOM      7  C   UNL     1      29.943   8.671  33.326  1.00  0.00     0.024 C 
ATOM      8  C   UNL     1      31.212   8.018  33.931  1.00  0.00    -0.022 C 
ATOM      9  C   UNL     1      31.585   6.714  33.168  1.00  0.00     0.008 C 
ATOM     10  C   UNL     1      31.222   6.786  31.663  1.00  0.00     0.005 C 
ATOM     11  C   UNL     1      31.168   8.243  31.096  1.00  0.00    -0.005 C 
ATOM     12  C   UNL     1      31.284   7.800  35.461  1.00  0.00     0.012 C 
ENDROOT
BRANCH  11  13
ATOM     13  C   UNL     1      30.145   8.359  29.921  1.00  0.00    -0.014 C 
ATOM     14  C   UNL     1      30.678   7.671  28.649  1.00  0.00     0.007 C 
ATOM     15  C   UNL     1      29.801   9.822  29.581  1.00  0.00     0.007 C 
ENDBRANCH  11  13
TORSDOF 1
ENDMDL
MODEL 6
REMARK VINA RESULT:    -4.606      4.257      7.100
REMARK INTER + INTRA:          -5.285
REMARK INTER:                  -5.057
REMARK INTRA:                  -0.227
REMARK UNBOUND:                -0.409
REMARK SMILES CC1=CC[C@@H]2[C@H]3[C@H](C(C)C)CC[C@]2(C)[C@@H]13
REMARK SMILES IDX 1 1 2 2 3 3 4 4 5 5 6 6 15 7 13 8 12 9 11 10 7 11 14 12 8 13
REMARK SMILES IDX 9 14 10 15
REMARK H PARENT
REMARK Flexibility Score: inf
ROOT
ATOM      1  C   UNL     1      31.718  11.109  25.143  1.00  0.00     0.039 C 
ATOM      2  C   UNL     1      30.532  10.251  25.471  1.00  0.00    -0.073 C 
ATOM      3  C   UNL     1      29.265  10.730  25.363  1.00  0.00    -0.027 C 
ATOM      4  C   UNL     1      28.092   9.799  25.691  1.00  0.00     0.031 C 
ATOM      5  C   UNL     1      28.619   8.399  26.150  1.00  0.00     0.003 C 
ATOM      6  C   UNL     1      29.751   8.642  27.174  1.00  0.00     0.004 C 
ATOM      7  C   UNL     1      30.694   8.808  25.958  1.00  0.00     0.024 C 
ATOM      8  C   UNL     1      29.718   7.873  25.198  1.00  0.00    -0.022 C 
ATOM      9  C   UNL     1      29.996   6.380  25.541  1.00  0.00     0.008 C 
ATOM     10  C   UNL     1      30.498   6.192  26.995  1.00  0.00     0.005 C 
ATOM     11  C   UNL     1      30.047   7.330  27.970  1.00  0.00    -0.005 C 
ATOM     12  C   UNL     1      29.535   8.062  23.674  1.00  0.00     0.012 C 
ENDROOT
BRANCH  11  13
ATOM     13  C   UNL     1      31.088   7.543  29.116  1.00  0.00    -0.014 C 
ATOM     14  C   UNL     1      31.517   6.199  29.736  1.00  0.00     0.007 C 
ATOM     15  C   UNL     1      30.549   8.451  30.238  1.00  0.00     0.007 C 
ENDBRANCH  11  13
TORSDOF 1
ENDMDL
MODEL 7
REMARK VINA RESULT:    -4.581      1.428      3.363
REMARK INTER + INTRA:          -5.257
REMARK INTER:                  -4.954
REMARK INTRA:                  -0.304
REMARK UNBOUND:                -0.409
REMARK SMILES CC1=CC[C@@H]2[C@H]3[C@H](C(C)C)CC[C@]2(C)[C@@H]13
REMARK SMILES IDX 1 1 2 2 3 3 4 4 5 5 6 6 15 7 13 8 12 9 11 10 7 11 14 12 8 13
REMARK SMILES IDX 9 14 10 15
REMARK H PARENT
REMARK Flexibility Score: inf
ROOT
ATOM      1  C   UNL     1      28.675   9.527  35.277  1.00  0.00     0.039 C 
ATOM      2  C   UNL     1      29.917   9.625  34.443  1.00  0.00    -0.073 C 
ATOM      3  C   UNL     1      31.064  10.152  34.945  1.00  0.00    -0.027 C 
ATOM      4  C   UNL     1      32.308  10.205  34.052  1.00  0.00     0.031 C 
ATOM      5  C   UNL     1      31.984   9.637  32.631  1.00  0.00     0.003 C 
ATOM      6  C   UNL     1      30.648  10.268  32.173  1.00  0.00     0.004 C 
ATOM      7  C   UNL     1      29.947   9.153  32.986  1.00  0.00     0.024 C 
ATOM      8  C   UNL     1      31.214   8.299  32.723  1.00  0.00    -0.022 C 
ATOM      9  C   UNL     1      31.169   7.656  31.307  1.00  0.00     0.008 C 
ATOM     10  C   UNL     1      30.440   8.553  30.274  1.00  0.00     0.005 C 
ATOM     11  C   UNL     1      30.463  10.075  30.633  1.00  0.00    -0.005 C 
ATOM     12  C   UNL     1      31.650   7.262  33.785  1.00  0.00     0.012 C 
ENDROOT
BRANCH  11  13
ATOM     13  C   UNL     1      29.198  10.809  30.082  1.00  0.00    -0.014 C 
ATOM     14  C   UNL     1      29.448  11.364  28.667  1.00  0.00     0.007 C 
ATOM     15  C   UNL     1      28.748  11.968  30.992  1.00  0.00     0.007 C 
ENDBRANCH  11  13
TORSDOF 1
ENDMDL
MODEL 8
REMARK VINA RESULT:    -4.567      2.026      4.116
REMARK INTER + INTRA:          -5.242
REMARK INTER:                  -4.996
REMARK INTRA:                  -0.246
REMARK UNBOUND:                -0.409
REMARK SMILES CC1=CC[C@@H]2[C@H]3[C@H](C(C)C)CC[C@]2(C)[C@@H]13
REMARK SMILES IDX 1 1 2 2 3 3 4 4 5 5 6 6 15 7 13 8 12 9 11 10 7 11 14 12 8 13
REMARK SMILES IDX 9 14 10 15
REMARK H PARENT
REMARK Flexibility Score: inf
ROOT
ATOM      1  C   UNL     1      27.497   9.042  36.578  1.00  0.00     0.039 C 
ATOM      2  C   UNL     1      28.985   8.863  36.615  1.00  0.00    -0.073 C 
ATOM      3  C   UNL     1      29.695   9.093  37.751  1.00  0.00    -0.027 C 
ATOM      4  C   UNL     1      31.211   8.872  37.734  1.00  0.00     0.031 C 
ATOM      5  C   UNL     1      31.682   8.431  36.309  1.00  0.00     0.003 C 
ATOM      6  C   UNL     1      31.004   9.370  35.285  1.00  0.00     0.004 C 
ATOM      7  C   UNL     1      29.775   8.433  35.375  1.00  0.00     0.024 C 
ATOM      8  C   UNL     1      30.780   7.311  35.741  1.00  0.00    -0.022 C 
ATOM      9  C   UNL     1      31.457   6.730  34.465  1.00  0.00     0.008 C 
ATOM     10  C   UNL     1      31.641   7.799  33.357  1.00  0.00     0.005 C 
ATOM     11  C   UNL     1      31.722   9.264  33.900  1.00  0.00    -0.005 C 
ATOM     12  C   UNL     1      30.321   6.175  36.685  1.00  0.00     0.012 C 
ENDROOT
BRANCH  11  13
ATOM     13  C   UNL     1      31.172  10.288  32.857  1.00  0.00    -0.014 C 
ATOM     14  C   UNL     1      30.844   9.599  31.518  1.00  0.00     0.007 C 
ATOM     15  C   UNL     1      32.158  11.441  32.588  1.00  0.00     0.007 C 
ENDBRANCH  11  13
TORSDOF 1
ENDMDL
MODEL 9
REMARK VINA RESULT:    -4.494      1.773      3.801
REMARK INTER + INTRA:          -5.165
REMARK INTER:                  -4.731
REMARK INTRA:                  -0.434
REMARK UNBOUND:                -0.409
REMARK SMILES CC1=CC[C@@H]2[C@H]3[C@H](C(C)C)CC[C@]2(C)[C@@H]13
REMARK SMILES IDX 1 1 2 2 3 3 4 4 5 5 6 6 15 7 13 8 12 9 11 10 7 11 14 12 8 13
REMARK SMILES IDX 9 14 10 15
REMARK H PARENT
REMARK Flexibility Score: inf
ROOT
ATOM      1  C   UNL     1      30.960   7.423  31.680  1.00  0.00     0.039 C 
ATOM      2  C   UNL     1      31.152   8.447  32.759  1.00  0.00    -0.073 C 
ATOM      3  C   UNL     1      32.129   9.388  32.671  1.00  0.00    -0.027 C 
ATOM      4  C   UNL     1      32.263  10.423  33.794  1.00  0.00     0.031 C 
ATOM      5  C   UNL     1      31.203  10.153  34.913  1.00  0.00     0.003 C 
ATOM      6  C   UNL     1      31.228   8.639  35.221  1.00  0.00     0.004 C 
ATOM      7  C   UNL     1      30.273   8.470  34.013  1.00  0.00     0.024 C 
ATOM      8  C   UNL     1      29.799   9.915  34.311  1.00  0.00    -0.022 C 
ATOM      9  C   UNL     1      28.756   9.933  35.466  1.00  0.00     0.008 C 
ATOM     10  C   UNL     1      29.018   8.822  36.515  1.00  0.00     0.005 C 
ATOM     11  C   UNL     1      30.510   8.354  36.579  1.00  0.00    -0.005 C 
ATOM     12  C   UNL     1      29.333  10.806  33.136  1.00  0.00     0.012 C 
ENDROOT
BRANCH  11  13
ATOM     13  C   UNL     1      30.618   6.858  37.016  1.00  0.00    -0.014 C 
ATOM     14  C   UNL     1      31.870   6.191  36.414  1.00  0.00     0.007 C 
ATOM     15  C   UNL     1      29.380   6.035  36.611  1.00  0.00     0.007 C 
ENDBRANCH  11  13
TORSDOF 1
ENDMDL
