MODEL 1
REMARK VINA RESULT:    -3.192      0.000      0.000
REMARK INTER + INTRA:          -4.962
REMARK INTER:                  -4.498
REMARK INTRA:                  -0.464
REMARK UNBOUND:                -0.464
REMARK SMILES CCCCCCCCC(=O)[O-]
REMARK SMILES IDX 6 1 7 2 8 3 9 4 10 5 11 6 5 7 4 8 3 9 2 10 1 11
REMARK H PARENT
REMARK Flexibility Score: inf
ROOT
ATOM      1  C   UNL     1     -21.936   0.741   2.562  1.00  0.00     0.000 C 
ENDROOT
BRANCH   1   2
ATOM      2  C   UNL     1     -20.909   0.251   1.521  1.00  0.00     0.006 C 
BRANCH   2   3
ATOM      3  C   UNL     1     -20.875   1.078   0.226  1.00  0.00     0.053 C 
BRANCH   3   4
ATOM      4  C   UNL     1     -19.817   2.137   0.268  1.00  0.00     0.041 C 
ATOM      5  O   UNL     1     -20.074   3.306  -0.123  1.00  0.00    -0.550 OA
ATOM      6  O   UNL     1     -18.556   1.840   0.769  1.00  0.00    -0.550 OA
ENDBRANCH   3   4
ENDBRANCH   2   3
ENDBRANCH   1   2
BRANCH   1   7
ATOM      7  C   UNL     1     -23.406   0.715   2.096  1.00  0.00     0.000 C 
BRANCH   7   8
ATOM      8  C   UNL     1     -24.184   2.026   2.306  1.00  0.00    -0.000 C 
BRANCH   8   9
ATOM      9  C   UNL     1     -23.264   3.229   2.575  1.00  0.00    -0.000 C 
BRANCH   9  10
ATOM     10  C   UNL     1     -23.935   4.298   3.454  1.00  0.00    -0.003 C 
ATOM     11  C   UNL     1     -25.401   3.984   3.754  1.00  0.00     0.004 C 
ENDBRANCH   9  10
ENDBRANCH   8   9
ENDBRANCH   7   8
ENDBRANCH   1   7
TORSDOF 7
ENDMDL
MODEL 2
REMARK VINA RESULT:    -3.155     15.341     16.786
REMARK INTER + INTRA:          -4.911
REMARK INTER:                  -4.370
REMARK INTRA:                  -0.540
REMARK UNBOUND:                -0.464
REMARK SMILES CCCCCCCCC(=O)[O-]
REMARK SMILES IDX 6 1 7 2 8 3 9 4 10 5 11 6 5 7 4 8 3 9 2 10 1 11
REMARK H PARENT
REMARK Flexibility Score: inf
ROOT
ATOM      1  C   UNL     1     -13.137 -12.006   2.555  1.00  0.00     0.000 C 
ENDROOT
BRANCH   1   2
ATOM      2  C   UNL     1     -12.269 -12.383   3.772  1.00  0.00     0.006 C 
BRANCH   2   3
ATOM      3  C   UNL     1     -13.042 -13.054   4.918  1.00  0.00     0.053 C 
BRANCH   3   4
ATOM      4  C   UNL     1     -12.392 -12.815   6.245  1.00  0.00     0.041 C 
ATOM      5  O   UNL     1     -11.175 -12.498   6.309  1.00  0.00    -0.550 OA
ATOM      6  O   UNL     1     -13.139 -12.909   7.413  1.00  0.00    -0.550 OA
ENDBRANCH   3   4
ENDBRANCH   2   3
ENDBRANCH   1   2
BRANCH   1   7
ATOM      7  C   UNL     1     -13.471 -10.505   2.427  1.00  0.00     0.000 C 
BRANCH   7   8
ATOM      8  C   UNL     1     -14.971 -10.165   2.429  1.00  0.00    -0.000 C 
BRANCH   8   9
ATOM      9  C   UNL     1     -15.750 -10.908   3.528  1.00  0.00    -0.000 C 
BRANCH   9  10
ATOM     10  C   UNL     1     -16.964 -11.672   2.976  1.00  0.00    -0.003 C 
ATOM     11  C   UNL     1     -16.734 -12.211   1.563  1.00  0.00     0.004 C 
ENDBRANCH   9  10
ENDBRANCH   8   9
ENDBRANCH   7   8
ENDBRANCH   1   7
TORSDOF 7
ENDMDL
MODEL 3
REMARK VINA RESULT:    -3.101     14.311     16.367
REMARK INTER + INTRA:          -4.835
REMARK INTER:                  -4.119
REMARK INTRA:                  -0.715
REMARK UNBOUND:                -0.464
REMARK SMILES CCCCCCCCC(=O)[O-]
REMARK SMILES IDX 6 1 7 2 8 3 9 4 10 5 11 6 5 7 4 8 3 9 2 10 1 11
REMARK H PARENT
REMARK Flexibility Score: inf
ROOT
ATOM      1  C   UNL     1     -12.997 -13.014   4.237  1.00  0.00     0.000 C 
ENDROOT
BRANCH   1   2
ATOM      2  C   UNL     1     -12.654 -13.062   2.735  1.00  0.00     0.006 C 
BRANCH   2   3
ATOM      3  C   UNL     1     -12.247 -11.708   2.133  1.00  0.00     0.053 C 
BRANCH   3   4
ATOM      4  C   UNL     1     -12.250 -11.739   0.636  1.00  0.00     0.041 C 
ATOM      5  O   UNL     1     -11.170 -11.649  -0.003  1.00  0.00    -0.550 OA
ATOM      6  O   UNL     1     -13.446 -11.899  -0.053  1.00  0.00    -0.550 OA
ENDBRANCH   3   4
ENDBRANCH   2   3
ENDBRANCH   1   2
BRANCH   1   7
ATOM      7  C   UNL     1     -14.465 -12.668   4.564  1.00  0.00     0.000 C 
BRANCH   7   8
ATOM      8  C   UNL     1     -15.468 -12.923   3.426  1.00  0.00    -0.000 C 
BRANCH   8   9
ATOM      9  C   UNL     1     -16.417 -11.735   3.190  1.00  0.00    -0.000 C 
BRANCH   9  10
ATOM     10  C   UNL     1     -15.906 -10.781   2.098  1.00  0.00    -0.003 C 
ATOM     11  C   UNL     1     -15.230  -9.535   2.669  1.00  0.00     0.004 C 
ENDBRANCH   9  10
ENDBRANCH   8   9
ENDBRANCH   7   8
ENDBRANCH   1   7
TORSDOF 7
ENDMDL
MODEL 4
REMARK VINA RESULT:    -3.064      2.770      5.085
REMARK INTER + INTRA:          -4.782
REMARK INTER:                  -4.318
REMARK INTRA:                  -0.464
REMARK UNBOUND:                -0.464
REMARK SMILES CCCCCCCCC(=O)[O-]
REMARK SMILES IDX 6 1 7 2 8 3 9 4 10 5 11 6 5 7 4 8 3 9 2 10 1 11
REMARK H PARENT
REMARK Flexibility Score: inf
ROOT
ATOM      1  C   UNL     1     -23.690   1.013   1.721  1.00  0.00     0.000 C 
ENDROOT
BRANCH   1   2
ATOM      2  C   UNL     1     -24.379   2.163   2.482  1.00  0.00     0.006 C 
BRANCH   2   3
ATOM      3  C   UNL     1     -23.501   3.408   2.681  1.00  0.00     0.053 C 
BRANCH   3   4
ATOM      4  C   UNL     1     -24.155   4.416   3.575  1.00  0.00     0.041 C 
ATOM      5  O   UNL     1     -23.554   5.480   3.879  1.00  0.00    -0.550 OA
ATOM      6  O   UNL     1     -25.442   4.194   4.047  1.00  0.00    -0.550 OA
ENDBRANCH   3   4
ENDBRANCH   2   3
ENDBRANCH   1   2
BRANCH   1   7
ATOM      7  C   UNL     1     -22.589   0.273   2.508  1.00  0.00     0.000 C 
BRANCH   7   8
ATOM      8  C   UNL     1     -21.160   0.461   1.969  1.00  0.00    -0.000 C 
BRANCH   8   9
ATOM      9  C   UNL     1     -21.131   0.895   0.493  1.00  0.00    -0.000 C 
BRANCH   9  10
ATOM     10  C   UNL     1     -20.242   2.128   0.260  1.00  0.00    -0.003 C 
ATOM     11  C   UNL     1     -18.771   1.869   0.589  1.00  0.00     0.004 C 
ENDBRANCH   9  10
ENDBRANCH   8   9
ENDBRANCH   7   8
ENDBRANCH   1   7
TORSDOF 7
ENDMDL
MODEL 5
REMARK VINA RESULT:    -3.038      1.868      2.841
REMARK INTER + INTRA:          -4.745
REMARK INTER:                  -4.161
REMARK INTRA:                  -0.584
REMARK UNBOUND:                -0.464
REMARK SMILES CCCCCCCCC(=O)[O-]
REMARK SMILES IDX 6 1 7 2 8 3 9 4 10 5 11 6 5 7 4 8 3 9 2 10 1 11
REMARK H PARENT
REMARK Flexibility Score: inf
ROOT
ATOM      1  C   UNL     1     -24.383   1.293   1.409  1.00  0.00     0.000 C 
ENDROOT
BRANCH   1   2
ATOM      2  C   UNL     1     -23.065   1.490   2.184  1.00  0.00     0.006 C 
BRANCH   2   3
ATOM      3  C   UNL     1     -22.403   0.185   2.653  1.00  0.00     0.053 C 
BRANCH   3   4
ATOM      4  C   UNL     1     -21.428  -0.339   1.645  1.00  0.00     0.041 C 
ATOM      5  O   UNL     1     -21.694  -1.377   0.984  1.00  0.00    -0.550 OA
ATOM      6  O   UNL     1     -20.237   0.338   1.413  1.00  0.00    -0.550 OA
ENDBRANCH   3   4
ENDBRANCH   2   3
ENDBRANCH   1   2
BRANCH   1   7
ATOM      7  C   UNL     1     -25.570   2.142   1.907  1.00  0.00     0.000 C 
BRANCH   7   8
ATOM      8  C   UNL     1     -25.513   2.543   3.391  1.00  0.00    -0.000 C 
BRANCH   8   9
ATOM      9  C   UNL     1     -25.488   4.067   3.598  1.00  0.00    -0.000 C 
BRANCH   9  10
ATOM     10  C   UNL     1     -24.063   4.613   3.777  1.00  0.00    -0.003 C 
ATOM     11  C   UNL     1     -23.492   5.213   2.491  1.00  0.00     0.004 C 
ENDBRANCH   9  10
ENDBRANCH   8   9
ENDBRANCH   7   8
ENDBRANCH   1   7
TORSDOF 7
ENDMDL
MODEL 6
REMARK VINA RESULT:    -3.002      1.444      2.241
REMARK INTER + INTRA:          -4.695
REMARK INTER:                  -4.151
REMARK INTRA:                  -0.544
REMARK UNBOUND:                -0.464
REMARK SMILES CCCCCCCCC(=O)[O-]
REMARK SMILES IDX 6 1 7 2 8 3 9 4 10 5 11 6 5 7 4 8 3 9 2 10 1 11
REMARK H PARENT
REMARK Flexibility Score: inf
ROOT
ATOM      1  C   UNL     1     -20.522   0.307   1.576  1.00  0.00     0.000 C 
ENDROOT
BRANCH   1   2
ATOM      2  C   UNL     1     -20.297   1.484   0.607  1.00  0.00     0.006 C 
BRANCH   2   3
ATOM      3  C   UNL     1     -18.840   1.965   0.520  1.00  0.00     0.053 C 
BRANCH   3   4
ATOM      4  C   UNL     1     -18.749   3.395   0.084  1.00  0.00     0.041 C 
ATOM      5  O   UNL     1     -17.626   3.926  -0.122  1.00  0.00    -0.550 OA
ATOM      6  O   UNL     1     -19.908   4.132  -0.125  1.00  0.00    -0.550 OA
ENDBRANCH   3   4
ENDBRANCH   2   3
ENDBRANCH   1   2
BRANCH   1   7
ATOM      7  C   UNL     1     -21.730   0.457   2.522  1.00  0.00     0.000 C 
BRANCH   7   8
ATOM      8  C   UNL     1     -22.946   1.186   1.923  1.00  0.00    -0.000 C 
BRANCH   8   9
ATOM      9  C   UNL     1     -23.229   2.535   2.607  1.00  0.00    -0.000 C 
BRANCH   9  10
ATOM     10  C   UNL     1     -23.298   3.700   1.606  1.00  0.00    -0.003 C 
ATOM     11  C   UNL     1     -23.470   3.230   0.161  1.00  0.00     0.004 C 
ENDBRANCH   9  10
ENDBRANCH   8   9
ENDBRANCH   7   8
ENDBRANCH   1   7
TORSDOF 7
ENDMDL
MODEL 7
REMARK VINA RESULT:    -2.975     14.694     16.617
REMARK INTER + INTRA:          -4.656
REMARK INTER:                  -4.051
REMARK INTRA:                  -0.606
REMARK UNBOUND:                -0.464
REMARK SMILES CCCCCCCCC(=O)[O-]
REMARK SMILES IDX 6 1 7 2 8 3 9 4 10 5 11 6 5 7 4 8 3 9 2 10 1 11
REMARK H PARENT
REMARK Flexibility Score: inf
ROOT
ATOM      1  C   UNL     1     -13.435 -10.517   2.513  1.00  0.00     0.000 C 
ENDROOT
BRANCH   1   2
ATOM      2  C   UNL     1     -14.923 -10.117   2.458  1.00  0.00     0.006 C 
BRANCH   2   3
ATOM      3  C   UNL     1     -15.829 -10.916   3.407  1.00  0.00     0.053 C 
BRANCH   3   4
ATOM      4  C   UNL     1     -16.807 -11.769   2.659  1.00  0.00     0.041 C 
ATOM      5  O   UNL     1     -17.939 -12.018   3.152  1.00  0.00    -0.550 OA
ATOM      6  O   UNL     1     -16.480 -12.262   1.402  1.00  0.00    -0.550 OA
ENDBRANCH   3   4
ENDBRANCH   2   3
ENDBRANCH   1   2
BRANCH   1   7
ATOM      7  C   UNL     1     -13.085 -11.844   1.810  1.00  0.00     0.000 C 
BRANCH   7   8
ATOM      8  C   UNL     1     -12.807 -13.031   2.749  1.00  0.00    -0.000 C 
BRANCH   8   9
ATOM      9  C   UNL     1     -12.514 -12.591   4.194  1.00  0.00    -0.000 C 
BRANCH   9  10
ATOM     10  C   UNL     1     -13.553 -13.125   5.194  1.00  0.00    -0.003 C 
ATOM     11  C   UNL     1     -13.084 -13.026   6.646  1.00  0.00     0.004 C 
ENDBRANCH   9  10
ENDBRANCH   8   9
ENDBRANCH   7   8
ENDBRANCH   1   7
TORSDOF 7
ENDMDL
MODEL 8
REMARK VINA RESULT:    -2.889     14.735     16.277
REMARK INTER + INTRA:          -4.535
REMARK INTER:                  -4.077
REMARK INTRA:                  -0.458
REMARK UNBOUND:                -0.464
REMARK SMILES CCCCCCCCC(=O)[O-]
REMARK SMILES IDX 6 1 7 2 8 3 9 4 10 5 11 6 5 7 4 8 3 9 2 10 1 11
REMARK H PARENT
REMARK Flexibility Score: inf
ROOT
ATOM      1  C   UNL     1     -15.988 -10.769   3.325  1.00  0.00     0.000 C 
ENDROOT
BRANCH   1   2
ATOM      2  C   UNL     1     -16.248 -12.212   2.848  1.00  0.00     0.006 C 
BRANCH   2   3
ATOM      3  C   UNL     1     -17.185 -12.319   1.636  1.00  0.00     0.053 C 
BRANCH   3   4
ATOM      4  C   UNL     1     -18.575 -12.706   2.037  1.00  0.00     0.041 C 
ATOM      5  O   UNL     1     -19.471 -12.850   1.165  1.00  0.00    -0.550 OA
ATOM      6  O   UNL     1     -18.872 -12.942   3.374  1.00  0.00    -0.550 OA
ENDBRANCH   3   4
ENDBRANCH   2   3
ENDBRANCH   1   2
BRANCH   1   7
ATOM      7  C   UNL     1     -14.885 -10.012   2.557  1.00  0.00     0.000 C 
BRANCH   7   8
ATOM      8  C   UNL     1     -13.785 -10.899   1.946  1.00  0.00    -0.000 C 
BRANCH   8   9
ATOM      9  C   UNL     1     -12.571 -11.069   2.875  1.00  0.00    -0.000 C 
BRANCH   9  10
ATOM     10  C   UNL     1     -12.466 -12.490   3.452  1.00  0.00    -0.003 C 
ATOM     11  C   UNL     1     -11.654 -12.546   4.747  1.00  0.00     0.004 C 
ENDBRANCH   9  10
ENDBRANCH   8   9
ENDBRANCH   7   8
ENDBRANCH   1   7
TORSDOF 7
ENDMDL
MODEL 9
REMARK VINA RESULT:    -2.827      1.813      3.947
REMARK INTER + INTRA:          -4.448
REMARK INTER:                  -3.794
REMARK INTRA:                  -0.654
REMARK UNBOUND:                -0.464
REMARK SMILES CCCCCCCCC(=O)[O-]
REMARK SMILES IDX 6 1 7 2 8 3 9 4 10 5 11 6 5 7 4 8 3 9 2 10 1 11
REMARK H PARENT
REMARK Flexibility Score: inf
ROOT
ATOM      1  C   UNL     1     -23.433   3.060   2.861  1.00  0.00     0.000 C 
ENDROOT
BRANCH   1   2
ATOM      2  C   UNL     1     -23.416   4.416   2.128  1.00  0.00     0.006 C 
BRANCH   2   3
ATOM      3  C   UNL     1     -22.818   4.365   0.713  1.00  0.00     0.053 C 
BRANCH   3   4
ATOM      4  C   UNL     1     -21.714   5.360   0.537  1.00  0.00     0.041 C 
ATOM      5  O   UNL     1     -21.903   6.574   0.812  1.00  0.00    -0.550 OA
ATOM      6  O   UNL     1     -20.463   4.940   0.100  1.00  0.00    -0.550 OA
ENDBRANCH   3   4
ENDBRANCH   2   3
ENDBRANCH   1   2
BRANCH   1   7
ATOM      7  C   UNL     1     -24.172   1.925   2.123  1.00  0.00     0.000 C 
BRANCH   7   8
ATOM      8  C   UNL     1     -23.311   0.697   1.779  1.00  0.00    -0.000 C 
BRANCH   8   9
ATOM      9  C   UNL     1     -21.979   0.668   2.548  1.00  0.00    -0.000 C 
BRANCH   9  10
ATOM     10  C   UNL     1     -20.782   0.348   1.639  1.00  0.00    -0.003 C 
ATOM     11  C   UNL     1     -20.545   1.416   0.571  1.00  0.00     0.004 C 
ENDBRANCH   9  10
ENDBRANCH   8   9
ENDBRANCH   7   8
ENDBRANCH   1   7
TORSDOF 7
ENDMDL
