MODEL 1
REMARK VINA RESULT:    -3.087      0.000      0.000
REMARK INTER + INTRA:          -3.517
REMARK INTER:                  -3.448
REMARK INTRA:                  -0.069
REMARK UNBOUND:                -0.069
REMARK SMILES CCCC(=O)[O-]
REMARK SMILES IDX 3 1 4 2 5 3 6 4 2 5 1 6
REMARK H PARENT
REMARK Flexibility Score: inf
ROOT
ATOM      1  C   UNL     1      20.136   4.745 -27.151  1.00  0.00     0.052 C 
ENDROOT
BRANCH   1   2
ATOM      2  C   UNL     1      19.888   3.289 -26.898  1.00  0.00     0.041 C 
ATOM      3  O   UNL     1      19.972   2.459 -27.841  1.00  0.00    -0.550 OA
ATOM      4  O   UNL     1      19.596   2.845 -25.614  1.00  0.00    -0.550 OA
ENDBRANCH   1   2
BRANCH   1   5
ATOM      5  C   UNL     1      21.595   5.013 -27.535  1.00  0.00     0.003 C 
ATOM      6  C   UNL     1      22.559   4.759 -26.376  1.00  0.00     0.004 C 
ENDBRANCH   1   5
TORSDOF 2
ENDMDL
MODEL 2
REMARK VINA RESULT:    -3.028     14.841     15.381
REMARK INTER + INTRA:          -3.450
REMARK INTER:                  -3.441
REMARK INTRA:                  -0.009
REMARK UNBOUND:                -0.069
REMARK SMILES CCCC(=O)[O-]
REMARK SMILES IDX 3 1 4 2 5 3 6 4 2 5 1 6
REMARK H PARENT
REMARK Flexibility Score: inf
ROOT
ATOM      1  C   UNL     1      17.202  15.073 -17.378  1.00  0.00     0.052 C 
ENDROOT
BRANCH   1   2
ATOM      2  C   UNL     1      17.212  13.676 -16.836  1.00  0.00     0.041 C 
ATOM      3  O   UNL     1      17.918  12.789 -17.384  1.00  0.00    -0.550 OA
ATOM      4  O   UNL     1      16.467  13.363 -15.706  1.00  0.00    -0.550 OA
ENDBRANCH   1   2
BRANCH   1   5
ATOM      5  C   UNL     1      16.169  15.951 -16.661  1.00  0.00     0.003 C 
ATOM      6  C   UNL     1      16.242  17.413 -17.102  1.00  0.00     0.004 C 
ENDBRANCH   1   5
TORSDOF 2
ENDMDL
MODEL 3
REMARK VINA RESULT:    -2.963     15.313     15.855
REMARK INTER + INTRA:          -3.379
REMARK INTER:                  -3.340
REMARK INTRA:                  -0.039
REMARK UNBOUND:                -0.069
REMARK SMILES CCCC(=O)[O-]
REMARK SMILES IDX 3 1 4 2 5 3 6 4 2 5 1 6
REMARK H PARENT
REMARK Flexibility Score: inf
ROOT
ATOM      1  C   UNL     1      16.122  15.437 -16.637  1.00  0.00     0.052 C 
ENDROOT
BRANCH   1   2
ATOM      2  C   UNL     1      17.147  14.726 -17.466  1.00  0.00     0.041 C 
ATOM      3  O   UNL     1      17.400  15.117 -18.636  1.00  0.00    -0.550 OA
ATOM      4  O   UNL     1      17.847  13.649 -16.935  1.00  0.00    -0.550 OA
ENDBRANCH   1   2
BRANCH   1   5
ATOM      5  C   UNL     1      16.405  16.942 -16.555  1.00  0.00     0.003 C 
ATOM      6  C   UNL     1      15.360  17.772 -17.301  1.00  0.00     0.004 C 
ENDBRANCH   1   5
TORSDOF 2
ENDMDL
MODEL 4
REMARK VINA RESULT:    -2.889     13.896     14.455
REMARK INTER + INTRA:          -3.296
REMARK INTER:                  -3.286
REMARK INTRA:                  -0.010
REMARK UNBOUND:                -0.069
REMARK SMILES CCCC(=O)[O-]
REMARK SMILES IDX 3 1 4 2 5 3 6 4 2 5 1 6
REMARK H PARENT
REMARK Flexibility Score: inf
ROOT
ATOM      1  C   UNL     1      17.475  14.003 -17.259  1.00  0.00     0.052 C 
ENDROOT
BRANCH   1   2
ATOM      2  C   UNL     1      17.056  14.237 -18.678  1.00  0.00     0.041 C 
ATOM      3  O   UNL     1      16.591  15.354 -19.026  1.00  0.00    -0.550 OA
ATOM      4  O   UNL     1      17.210  13.231 -19.624  1.00  0.00    -0.550 OA
ENDBRANCH   1   2
BRANCH   1   5
ATOM      5  C   UNL     1      16.287  14.095 -16.295  1.00  0.00     0.003 C 
ATOM      6  C   UNL     1      16.118  12.827 -15.457  1.00  0.00     0.004 C 
ENDBRANCH   1   5
TORSDOF 2
ENDMDL
MODEL 5
REMARK VINA RESULT:    -2.830     11.777     12.533
REMARK INTER + INTRA:          -3.229
REMARK INTER:                  -3.224
REMARK INTRA:                  -0.006
REMARK UNBOUND:                -0.069
REMARK SMILES CCCC(=O)[O-]
REMARK SMILES IDX 3 1 4 2 5 3 6 4 2 5 1 6
REMARK H PARENT
REMARK Flexibility Score: inf
ROOT
ATOM      1  C   UNL     1      13.367  11.286 -21.131  1.00  0.00     0.052 C 
ENDROOT
BRANCH   1   2
ATOM      2  C   UNL     1      14.455  12.028 -21.844  1.00  0.00     0.041 C 
ATOM      3  O   UNL     1      14.292  12.405 -23.034  1.00  0.00    -0.550 OA
ATOM      4  O   UNL     1      15.638  12.333 -21.182  1.00  0.00    -0.550 OA
ENDBRANCH   1   2
BRANCH   1   5
ATOM      5  C   UNL     1      12.615  12.188 -20.146  1.00  0.00     0.003 C 
ATOM      6  C   UNL     1      11.183  11.715 -19.898  1.00  0.00     0.004 C 
ENDBRANCH   1   5
TORSDOF 2
ENDMDL
MODEL 6
REMARK VINA RESULT:    -2.800     14.508     15.083
REMARK INTER + INTRA:          -3.197
REMARK INTER:                  -3.167
REMARK INTRA:                  -0.030
REMARK UNBOUND:                -0.069
REMARK SMILES CCCC(=O)[O-]
REMARK SMILES IDX 3 1 4 2 5 3 6 4 2 5 1 6
REMARK H PARENT
REMARK Flexibility Score: inf
ROOT
ATOM      1  C   UNL     1      17.222  13.909 -17.267  1.00  0.00     0.052 C 
ENDROOT
BRANCH   1   2
ATOM      2  C   UNL     1      17.187  14.983 -18.310  1.00  0.00     0.041 C 
ATOM      3  O   UNL     1      17.443  14.709 -19.512  1.00  0.00    -0.550 OA
ATOM      4  O   UNL     1      16.840  16.283 -17.960  1.00  0.00    -0.550 OA
ENDBRANCH   1   2
BRANCH   1   5
ATOM      5  C   UNL     1      16.240  14.196 -16.125  1.00  0.00     0.003 C 
ATOM      6  C   UNL     1      14.790  13.909 -16.518  1.00  0.00     0.004 C 
ENDBRANCH   1   5
TORSDOF 2
ENDMDL
MODEL 7
REMARK VINA RESULT:    -2.791      2.070      3.220
REMARK INTER + INTRA:          -3.186
REMARK INTER:                  -3.152
REMARK INTRA:                  -0.034
REMARK UNBOUND:                -0.069
REMARK SMILES CCCC(=O)[O-]
REMARK SMILES IDX 3 1 4 2 5 3 6 4 2 5 1 6
REMARK H PARENT
REMARK Flexibility Score: inf
ROOT
ATOM      1  C   UNL     1      20.454   4.876 -27.106  1.00  0.00     0.052 C 
ENDROOT
BRANCH   1   2
ATOM      2  C   UNL     1      21.899   4.521 -26.931  1.00  0.00     0.041 C 
ATOM      3  O   UNL     1      22.600   5.121 -26.074  1.00  0.00    -0.550 OA
ATOM      4  O   UNL     1      22.463   3.505 -27.693  1.00  0.00    -0.550 OA
ENDBRANCH   1   2
BRANCH   1   5
ATOM      5  C   UNL     1      19.541   3.664 -26.883  1.00  0.00     0.003 C 
ATOM      6  C   UNL     1      18.698   3.335 -28.115  1.00  0.00     0.004 C 
ENDBRANCH   1   5
TORSDOF 2
ENDMDL
MODEL 8
REMARK VINA RESULT:    -2.741     12.996     13.710
REMARK INTER + INTRA:          -3.130
REMARK INTER:                  -3.123
REMARK INTRA:                  -0.008
REMARK UNBOUND:                -0.069
REMARK SMILES CCCC(=O)[O-]
REMARK SMILES IDX 3 1 4 2 5 3 6 4 2 5 1 6
REMARK H PARENT
REMARK Flexibility Score: inf
ROOT
ATOM      1  C   UNL     1      12.631  12.498 -20.087  1.00  0.00     0.052 C 
ENDROOT
BRANCH   1   2
ATOM      2  C   UNL     1      11.480  12.100 -19.214  1.00  0.00     0.041 C 
ATOM      3  O   UNL     1      10.326  11.978 -19.703  1.00  0.00    -0.550 OA
ATOM      4  O   UNL     1      11.689  11.833 -17.867  1.00  0.00    -0.550 OA
ENDBRANCH   1   2
BRANCH   1   5
ATOM      5  C   UNL     1      12.958  11.416 -21.122  1.00  0.00     0.003 C 
ATOM      6  C   UNL     1      13.865  11.933 -22.239  1.00  0.00     0.004 C 
ENDBRANCH   1   5
TORSDOF 2
ENDMDL
MODEL 9
REMARK VINA RESULT:    -2.689     15.009     15.571
REMARK INTER + INTRA:          -3.072
REMARK INTER:                  -3.011
REMARK INTRA:                  -0.061
REMARK UNBOUND:                -0.069
REMARK SMILES CCCC(=O)[O-]
REMARK SMILES IDX 3 1 4 2 5 3 6 4 2 5 1 6
REMARK H PARENT
REMARK Flexibility Score: inf
ROOT
ATOM      1  C   UNL     1      16.282  13.922 -16.190  1.00  0.00     0.052 C 
ENDROOT
BRANCH   1   2
ATOM      2  C   UNL     1      15.603  15.216 -16.520  1.00  0.00     0.041 C 
ATOM      3  O   UNL     1      14.388  15.229 -16.849  1.00  0.00    -0.550 OA
ATOM      4  O   UNL     1      16.305  16.412 -16.434  1.00  0.00    -0.550 OA
ENDBRANCH   1   2
BRANCH   1   5
ATOM      5  C   UNL     1      17.520  13.692 -17.064  1.00  0.00     0.003 C 
ATOM      6  C   UNL     1      17.205  13.791 -18.557  1.00  0.00     0.004 C 
ENDBRANCH   1   5
TORSDOF 2
ENDMDL
