MODEL 1
REMARK VINA RESULT:    20.272      0.000      0.000
REMARK INTER + INTRA:          35.504
REMARK INTER:                  30.938
REMARK INTRA:                   4.565
REMARK UNBOUND:                 4.565
REMARK SMILES CC1=CCC[C@H](C)C(=O)C[C@H](C(C)C)C(=O)C1
REMARK SMILES IDX 8 1 9 2 6 3 7 4 5 5 4 6 3 7 2 8 1 9 10 11 11 12 15 13 16 14
REMARK SMILES IDX 17 15 12 17 13 18 14 19
REMARK H PARENT
REMARK Flexibility Score: 70.00
ROOT
ATOM      1  C   UNL     1      83.143  14.935 106.716  1.00  0.00     0.136 C 
ATOM      2  O   UNL     1      83.562  14.693 105.593  1.00  0.00    -0.299 OA
ENDROOT
BRANCH   1   3
ATOM      3  C   UNL     1      82.540  13.804 107.530  1.00  0.00     0.053 C 
ATOM      4  C   UNL     1      83.454  12.573 107.511  1.00  0.00     0.016 C 
BRANCH   3   5
ATOM      5  C   UNL     1      82.235  14.245 108.974  1.00  0.00     0.015 C 
BRANCH   5   6
ATOM      6  C   UNL     1      82.732  13.221 110.008  1.00  0.00     0.028 C 
BRANCH   6   7
ATOM      7  C   UNL     1      84.023  13.681 110.634  1.00  0.00    -0.028 C 
ATOM      8  C   UNL     1      85.141  14.000 109.940  1.00  0.00    -0.070 CG0
ATOM      9  C   UNL     1      86.375  14.378 110.721  1.00  0.00     0.039 C 
ATOM     10  G   UNL     1      85.197  14.010 108.420  1.00  0.00     0.000 G0
ENDBRANCH   6   7
ENDBRANCH   5   6
ENDBRANCH   3   5
ENDBRANCH   1   3
BRANCH   1  11
ATOM     11  C   UNL     1      83.275  16.344 107.252  1.00  0.00     0.087 C 
BRANCH  11  12
ATOM     12  C   UNL     1      84.599  16.552 108.036  1.00  0.00     0.066 C 
BRANCH  12  13
ATOM     13  C   UNL     1      85.540  15.366 107.867  1.00  0.00     0.140 C 
ATOM     14  O   UNL     1      86.619  15.520 107.311  1.00  0.00    -0.299 OA
BRANCH  13  15
ATOM     15  C   UNL     1      85.193  14.011 108.433  1.00  0.00     0.106 CG0
ATOM     16  G   UNL     1      85.175  14.010 109.954  1.00  0.00     0.000 G0
ENDBRANCH  13  15
ENDBRANCH  12  13
BRANCH  12  17
ATOM     17  C   UNL     1      85.283  17.906 107.671  1.00  0.00    -0.006 C 
ATOM     18  C   UNL     1      84.296  18.875 107.001  1.00  0.00     0.008 C 
ATOM     19  C   UNL     1      85.980  18.598 108.855  1.00  0.00     0.008 C 
ENDBRANCH  12  17
ENDBRANCH  11  12
ENDBRANCH   1  11
TORSDOF 1
ENDMDL
MODEL 2
REMARK VINA RESULT:    21.055      1.706      3.775
REMARK INTER + INTRA:          36.697
REMARK INTER:                  33.529
REMARK INTRA:                   3.168
REMARK UNBOUND:                 4.565
REMARK SMILES CC1=CCC[C@H](C)C(=O)C[C@H](C(C)C)C(=O)C1
REMARK SMILES IDX 8 1 9 2 6 3 7 4 5 5 4 6 3 7 2 8 1 9 10 11 11 12 15 13 16 14
REMARK SMILES IDX 17 15 12 17 13 18 14 19
REMARK H PARENT
REMARK Flexibility Score: 70.00
ROOT
ATOM      1  C   UNL     1      83.027  13.686 107.158  1.00  0.00     0.136 C 
ATOM      2  O   UNL     1      83.128  12.515 106.821  1.00  0.00    -0.299 OA
ENDROOT
BRANCH   1   3
ATOM      3  C   UNL     1      83.506  14.765 106.203  1.00  0.00     0.053 C 
ATOM      4  C   UNL     1      82.731  14.705 104.882  1.00  0.00     0.016 C 
BRANCH   3   5
ATOM      5  C   UNL     1      83.413  16.165 106.838  1.00  0.00     0.015 C 
BRANCH   5   6
ATOM      6  C   UNL     1      84.373  16.325 108.029  1.00  0.00     0.028 C 
BRANCH   6   7
ATOM      7  C   UNL     1      85.762  15.879 107.656  1.00  0.00    -0.028 C 
ATOM      8  C   UNL     1      86.224  14.613 107.789  1.00  0.00    -0.070 CG0
ATOM      9  C   UNL     1      87.664  14.344 107.433  1.00  0.00     0.039 C 
ATOM     10  G   UNL     1      85.351  13.459 108.260  1.00  0.00     0.000 G0
ENDBRANCH   6   7
ENDBRANCH   5   6
ENDBRANCH   3   5
ENDBRANCH   1   3
BRANCH   1  11
ATOM     11  C   UNL     1      82.400  14.004 108.498  1.00  0.00     0.087 C 
BRANCH  11  12
ATOM     12  C   UNL     1      83.173  13.355 109.678  1.00  0.00     0.066 C 
BRANCH  12  13
ATOM     13  C   UNL     1      84.672  13.606 109.567  1.00  0.00     0.140 C 
ATOM     14  O   UNL     1      85.312  13.918 110.562  1.00  0.00    -0.299 OA
BRANCH  13  15
ATOM     15  C   UNL     1      85.399  13.413 108.259  1.00  0.00     0.106 CG0
ATOM     16  G   UNL     1      86.189  14.647 107.852  1.00  0.00     0.000 G0
ENDBRANCH  13  15
ENDBRANCH  12  13
BRANCH  12  17
ATOM     17  C   UNL     1      82.600  13.796 111.060  1.00  0.00    -0.006 C 
ATOM     18  C   UNL     1      81.526  14.883 110.906  1.00  0.00     0.008 C 
ATOM     19  C   UNL     1      82.060  12.636 111.915  1.00  0.00     0.008 C 
ENDBRANCH  12  17
ENDBRANCH  11  12
ENDBRANCH   1  11
TORSDOF 1
ENDMDL
MODEL 3
REMARK VINA RESULT:    21.392      6.656      9.366
REMARK INTER + INTRA:          37.212
REMARK INTER:                  33.868
REMARK INTRA:                   3.343
REMARK UNBOUND:                 4.565
REMARK SMILES CC1=CCC[C@H](C)C(=O)C[C@H](C(C)C)C(=O)C1
REMARK SMILES IDX 8 1 9 2 6 3 7 4 5 5 4 6 3 7 2 8 1 9 10 11 11 12 15 13 16 14
REMARK SMILES IDX 17 15 12 17 13 18 14 19
REMARK H PARENT
REMARK Flexibility Score: 70.00
ROOT
ATOM      1  C   UNL     1      90.177  22.925 112.021  1.00  0.00     0.136 C 
ATOM      2  O   UNL     1      89.659  23.849 112.632  1.00  0.00    -0.299 OA
ENDROOT
BRANCH   1   3
ATOM      3  C   UNL     1      91.462  22.322 112.560  1.00  0.00     0.053 C 
ATOM      4  C   UNL     1      91.300  21.925 114.032  1.00  0.00     0.016 C 
BRANCH   3   5
ATOM      5  C   UNL     1      91.926  21.124 111.710  1.00  0.00     0.015 C 
BRANCH   5   6
ATOM      6  C   UNL     1      92.334  19.923 112.580  1.00  0.00     0.028 C 
BRANCH   6   7
ATOM      7  C   UNL     1      91.303  18.828 112.493  1.00  0.00    -0.028 C 
ATOM      8  C   UNL     1      90.017  18.952 112.895  1.00  0.00    -0.070 CG0
ATOM      9  C   UNL     1      89.126  17.738 112.804  1.00  0.00     0.039 C 
ATOM     10  G   UNL     1      89.434  20.258 113.413  1.00  0.00     0.000 G0
ENDBRANCH   6   7
ENDBRANCH   5   6
ENDBRANCH   3   5
ENDBRANCH   1   3
BRANCH   1  11
ATOM     11  C   UNL     1      89.494  22.406 110.774  1.00  0.00     0.087 C 
BRANCH  11  12
ATOM     12  C   UNL     1      88.685  21.109 111.044  1.00  0.00     0.066 C 
BRANCH  12  13
ATOM     13  C   UNL     1      88.416  20.920 112.532  1.00  0.00     0.140 C 
ATOM     14  O   UNL     1      87.333  21.246 113.000  1.00  0.00    -0.299 OA
BRANCH  13  15
ATOM     15  C   UNL     1      89.439  20.273 113.433  1.00  0.00     0.106 CG0
ATOM     16  G   UNL     1      89.971  18.969 112.857  1.00  0.00     0.000 G0
ENDBRANCH  13  15
ENDBRANCH  12  13
BRANCH  12  17
ATOM     17  C   UNL     1      87.379  21.052 110.195  1.00  0.00    -0.006 C 
ATOM     18  C   UNL     1      87.280  22.243 109.229  1.00  0.00     0.008 C 
ATOM     19  C   UNL     1      87.184  19.732 109.428  1.00  0.00     0.008 C 
ENDBRANCH  12  17
ENDBRANCH  11  12
ENDBRANCH   1  11
TORSDOF 1
ENDMDL
MODEL 4
REMARK VINA RESULT:    22.157      1.494      3.092
REMARK INTER + INTRA:          38.380
REMARK INTER:                  36.122
REMARK INTRA:                   2.259
REMARK UNBOUND:                 4.565
REMARK SMILES CC1=CCC[C@H](C)C(=O)C[C@H](C(C)C)C(=O)C1
REMARK SMILES IDX 8 1 9 2 6 3 7 4 5 5 4 6 3 7 2 8 1 9 10 11 11 12 15 13 16 14
REMARK SMILES IDX 17 15 12 17 13 18 14 19
REMARK H PARENT
REMARK Flexibility Score: 70.00
ROOT
ATOM      1  C   UNL     1      84.534  14.330 109.972  1.00  0.00     0.136 C 
ATOM      2  O   UNL     1      85.676  14.103 110.344  1.00  0.00    -0.299 OA
ENDROOT
BRANCH   1   3
ATOM      3  C   UNL     1      83.476  13.260 110.169  1.00  0.00     0.053 C 
ATOM      4  C   UNL     1      82.549  13.619 111.335  1.00  0.00     0.016 C 
BRANCH   3   5
ATOM      5  C   UNL     1      82.672  13.014 108.878  1.00  0.00     0.015 C 
BRANCH   5   6
ATOM      6  C   UNL     1      81.756  14.200 108.533  1.00  0.00     0.028 C 
BRANCH   6   7
ATOM      7  C   UNL     1      81.938  14.612 107.095  1.00  0.00    -0.028 C 
ATOM      8  C   UNL     1      83.114  14.563 106.426  1.00  0.00    -0.070 CG0
ATOM      9  C   UNL     1      83.144  15.077 105.008  1.00  0.00     0.039 C 
ATOM     10  G   UNL     1      84.389  13.997 107.034  1.00  0.00     0.000 G0
ENDBRANCH   6   7
ENDBRANCH   5   6
ENDBRANCH   3   5
ENDBRANCH   1   3
BRANCH   1  11
ATOM     11  C   UNL     1      84.224  15.680 109.361  1.00  0.00     0.087 C 
BRANCH  11  12
ATOM     12  C   UNL     1      85.289  16.110 108.317  1.00  0.00     0.066 C 
BRANCH  12  13
ATOM     13  C   UNL     1      85.444  15.068 107.217  1.00  0.00     0.140 C 
ATOM     14  O   UNL     1      86.456  15.054 106.529  1.00  0.00    -0.299 OA
BRANCH  13  15
ATOM     15  C   UNL     1      84.397  14.003 107.001  1.00  0.00     0.106 CG0
ATOM     16  G   UNL     1      83.102  14.574 106.443  1.00  0.00     0.000 G0
ENDBRANCH  13  15
ENDBRANCH  12  13
BRANCH  12  17
ATOM     17  C   UNL     1      85.000  17.533 107.746  1.00  0.00    -0.006 C 
ATOM     18  C   UNL     1      83.495  17.840 107.729  1.00  0.00     0.008 C 
ATOM     19  C   UNL     1      85.763  18.663 108.459  1.00  0.00     0.008 C 
ENDBRANCH  12  17
ENDBRANCH  11  12
ENDBRANCH   1  11
TORSDOF 1
ENDMDL
MODEL 5
REMARK VINA RESULT:    22.733      6.889      9.838
REMARK INTER + INTRA:          39.258
REMARK INTER:                  38.168
REMARK INTRA:                   1.090
REMARK UNBOUND:                 4.565
REMARK SMILES CC1=CCC[C@H](C)C(=O)C[C@H](C(C)C)C(=O)C1
REMARK SMILES IDX 8 1 9 2 6 3 7 4 5 5 4 6 3 7 2 8 1 9 10 11 11 12 15 13 16 14
REMARK SMILES IDX 17 15 12 17 13 18 14 19
REMARK H PARENT
REMARK Flexibility Score: 70.00
ROOT
ATOM      1  C   UNL     1      90.493  19.462 112.171  1.00  0.00     0.136 C 
ATOM      2  O   UNL     1      89.874  18.685 112.884  1.00  0.00    -0.299 OA
ENDROOT
BRANCH   1   3
ATOM      3  C   UNL     1      91.852  19.954 112.635  1.00  0.00     0.053 C 
ATOM      4  C   UNL     1      92.950  19.525 111.654  1.00  0.00     0.016 C 
BRANCH   3   5
ATOM      5  C   UNL     1      91.862  21.480 112.843  1.00  0.00     0.015 C 
BRANCH   5   6
ATOM      6  C   UNL     1      90.958  21.909 114.012  1.00  0.00     0.028 C 
BRANCH   6   7
ATOM      7  C   UNL     1      90.375  23.275 113.760  1.00  0.00    -0.028 C 
ATOM      8  C   UNL     1      89.779  23.654 112.605  1.00  0.00    -0.070 CG0
ATOM      9  C   UNL     1      89.307  25.082 112.487  1.00  0.00     0.039 C 
ATOM     10  G   UNL     1      89.551  22.702 111.440  1.00  0.00     0.000 G0
ENDBRANCH   6   7
ENDBRANCH   5   6
ENDBRANCH   3   5
ENDBRANCH   1   3
BRANCH   1  11
ATOM     11  C   UNL     1      89.888  19.870 110.845  1.00  0.00     0.087 C 
BRANCH  11  12
ATOM     12  C   UNL     1      88.438  20.402 111.000  1.00  0.00     0.066 C 
BRANCH  12  13
ATOM     13  C   UNL     1      88.417  21.779 111.650  1.00  0.00     0.140 C 
ATOM     14  O   UNL     1      87.497  22.086 112.397  1.00  0.00    -0.299 OA
BRANCH  13  15
ATOM     15  C   UNL     1      89.549  22.756 111.443  1.00  0.00     0.106 CG0
ATOM     16  G   UNL     1      89.755  23.663 112.647  1.00  0.00     0.000 G0
ENDBRANCH  13  15
ENDBRANCH  12  13
BRANCH  12  17
ATOM     17  C   UNL     1      87.662  20.375 109.647  1.00  0.00    -0.006 C 
ATOM     18  C   UNL     1      86.456  19.426 109.706  1.00  0.00     0.008 C 
ATOM     19  C   UNL     1      87.219  21.762 109.148  1.00  0.00     0.008 C 
ENDBRANCH  12  17
ENDBRANCH  11  12
ENDBRANCH   1  11
TORSDOF 1
ENDMDL
MODEL 6
REMARK VINA RESULT:    23.125      1.431      3.189
REMARK INTER + INTRA:          39.858
REMARK INTER:                  36.963
REMARK INTRA:                   2.895
REMARK UNBOUND:                 4.565
REMARK SMILES CC1=CCC[C@H](C)C(=O)C[C@H](C(C)C)C(=O)C1
REMARK SMILES IDX 8 1 9 2 6 3 7 4 5 5 4 6 3 7 2 8 1 9 10 11 11 12 15 13 16 14
REMARK SMILES IDX 17 15 12 17 13 18 14 19
REMARK H PARENT
REMARK Flexibility Score: 70.00
ROOT
ATOM      1  C   UNL     1      85.055  15.197 109.353  1.00  0.00     0.136 C 
ATOM      2  O   UNL     1      84.744  16.309 109.754  1.00  0.00    -0.299 OA
ENDROOT
BRANCH   1   3
ATOM      3  C   UNL     1      84.987  14.027 110.318  1.00  0.00     0.053 C 
ATOM      4  C   UNL     1      86.142  14.084 111.324  1.00  0.00     0.016 C 
BRANCH   3   5
ATOM      5  C   UNL     1      83.627  13.966 111.039  1.00  0.00     0.015 C 
BRANCH   5   6
ATOM      6  C   UNL     1      82.571  13.208 110.216  1.00  0.00     0.028 C 
BRANCH   6   7
ATOM      7  C   UNL     1      83.205  12.533 109.028  1.00  0.00    -0.028 C 
ATOM      8  C   UNL     1      83.158  13.006 107.761  1.00  0.00    -0.070 CG0
ATOM      9  C   UNL     1      83.786  12.176 106.670  1.00  0.00     0.039 C 
ATOM     10  G   UNL     1      82.518  14.339 107.399  1.00  0.00     0.000 G0
ENDBRANCH   6   7
ENDBRANCH   5   6
ENDBRANCH   3   5
ENDBRANCH   1   3
BRANCH   1  11
ATOM     11  C   UNL     1      85.462  15.035 107.904  1.00  0.00     0.087 C 
BRANCH  11  12
ATOM     12  C   UNL     1      84.599  15.906 106.951  1.00  0.00     0.066 C 
BRANCH  12  13
ATOM     13  C   UNL     1      83.378  15.144 106.452  1.00  0.00     0.140 C 
ATOM     14  O   UNL     1      83.107  15.142 105.259  1.00  0.00    -0.299 OA
BRANCH  13  15
ATOM     15  C   UNL     1      82.528  14.331 107.399  1.00  0.00     0.106 CG0
ATOM     16  G   UNL     1      83.176  13.003 107.759  1.00  0.00     0.000 G0
ENDBRANCH  13  15
ENDBRANCH  12  13
BRANCH  12  17
ATOM     17  C   UNL     1      84.219  17.273 107.599  1.00  0.00    -0.006 C 
ATOM     18  C   UNL     1      85.414  18.237 107.626  1.00  0.00     0.008 C 
ATOM     19  C   UNL     1      83.001  17.958 106.952  1.00  0.00     0.008 C 
ENDBRANCH  12  17
ENDBRANCH  11  12
ENDBRANCH   1  11
TORSDOF 1
ENDMDL
