MODEL 1
REMARK VINA RESULT:    -4.873      0.000      0.000
REMARK INTER + INTRA:         -10.567
REMARK INTER:                  -8.577
REMARK INTRA:                  -1.990
REMARK UNBOUND:                -1.990
REMARK SMILES CCCCCCC=CCCCCCCCC(=O)[O-]
REMARK SMILES IDX 10 1 11 2 12 3 13 4 14 5 15 6 16 7 17 8 18 9 9 10 8 11 7 12
REMARK SMILES IDX 6 13 5 14 4 15 3 16 2 17 1 18
REMARK H PARENT
REMARK Flexibility Score: inf
ROOT
ATOM      1  C   UNL     1       6.429 -13.272  -4.265  1.00  0.00     0.004 C 
ENDROOT
BRANCH   1   2
ATOM      2  C   UNL     1       5.058 -13.356  -3.584  1.00  0.00     0.000 C 
BRANCH   2   3
ATOM      3  C   UNL     1       3.946 -12.863  -4.517  1.00  0.00     0.000 C 
BRANCH   3   4
ATOM      4  C   UNL     1       4.533 -12.157  -5.748  1.00  0.00     0.000 C 
BRANCH   4   5
ATOM      5  C   UNL     1       4.094 -10.689  -5.857  1.00  0.00     0.006 C 
BRANCH   5   6
ATOM      6  C   UNL     1       4.688  -9.984  -7.083  1.00  0.00     0.053 C 
BRANCH   6   7
ATOM      7  C   UNL     1       4.777  -8.510  -6.845  1.00  0.00     0.041 C 
ATOM      8  O   UNL     1       5.069  -7.732  -7.791  1.00  0.00    -0.550 OA
ATOM      9  O   UNL     1       4.585  -7.999  -5.567  1.00  0.00    -0.550 OA
ENDBRANCH   6   7
ENDBRANCH   5   6
ENDBRANCH   4   5
ENDBRANCH   3   4
ENDBRANCH   2   3
ENDBRANCH   1   2
BRANCH   1  10
ATOM     10  C   UNL     1       7.490 -12.735  -3.299  1.00  0.00     0.027 C 
BRANCH  10  11
ATOM     11  C   UNL     1       7.388 -13.413  -1.956  1.00  0.00    -0.031 C 
ATOM     12  C   UNL     1       7.974 -12.965  -0.830  1.00  0.00    -0.031 C 
BRANCH  12  13
ATOM     13  C   UNL     1       8.789 -11.695  -0.760  1.00  0.00     0.027 C 
BRANCH  13  14
ATOM     14  C   UNL     1       8.388 -10.802   0.426  1.00  0.00     0.004 C 
BRANCH  14  15
ATOM     15  C   UNL     1       7.274  -9.780   0.116  1.00  0.00     0.000 C 
BRANCH  15  16
ATOM     16  C   UNL     1       7.038  -9.499  -1.379  1.00  0.00    -0.000 C 
BRANCH  16  17
ATOM     17  C   UNL     1       5.595  -9.783  -1.822  1.00  0.00    -0.003 C 
ATOM     18  C   UNL     1       4.930 -10.809  -0.909  1.00  0.00     0.004 C 
ENDBRANCH  16  17
ENDBRANCH  15  16
ENDBRANCH  14  15
ENDBRANCH  13  14
ENDBRANCH  12  13
ENDBRANCH  10  11
ENDBRANCH   1  10
TORSDOF 13
ENDMDL
MODEL 2
REMARK VINA RESULT:    -4.828      3.723      5.555
REMARK INTER + INTRA:         -10.488
REMARK INTER:                  -8.071
REMARK INTRA:                  -2.417
REMARK UNBOUND:                -1.990
REMARK SMILES CCCCCCC=CCCCCCCCC(=O)[O-]
REMARK SMILES IDX 10 1 11 2 12 3 13 4 14 5 15 6 16 7 17 8 18 9 9 10 8 11 7 12
REMARK SMILES IDX 6 13 5 14 4 15 3 16 2 17 1 18
REMARK H PARENT
REMARK Flexibility Score: inf
ROOT
ATOM      1  C   UNL     1       3.773 -10.731  -3.975  1.00  0.00     0.004 C 
ENDROOT
BRANCH   1   2
ATOM      2  C   UNL     1       4.373 -10.411  -2.601  1.00  0.00     0.000 C 
BRANCH   2   3
ATOM      3  C   UNL     1       3.596 -11.115  -1.482  1.00  0.00     0.000 C 
BRANCH   3   4
ATOM      4  C   UNL     1       2.884 -12.369  -2.011  1.00  0.00     0.000 C 
BRANCH   4   5
ATOM      5  C   UNL     1       3.666 -13.661  -1.724  1.00  0.00     0.006 C 
BRANCH   5   6
ATOM      6  C   UNL     1       3.184 -14.843  -2.574  1.00  0.00     0.053 C 
BRANCH   6   7
ATOM      7  C   UNL     1       2.524 -15.871  -1.711  1.00  0.00     0.041 C 
ATOM      8  O   UNL     1       2.449 -15.701  -0.466  1.00  0.00    -0.550 OA
ATOM      9  O   UNL     1       2.035 -17.043  -2.275  1.00  0.00    -0.550 OA
ENDBRANCH   6   7
ENDBRANCH   5   6
ENDBRANCH   4   5
ENDBRANCH   3   4
ENDBRANCH   2   3
ENDBRANCH   1   2
BRANCH   1  10
ATOM     10  C   UNL     1       4.870 -11.101  -4.980  1.00  0.00     0.027 C 
BRANCH  10  11
ATOM     11  C   UNL     1       4.972 -12.597  -5.139  1.00  0.00    -0.031 C 
ATOM     12  C   UNL     1       5.990 -13.345  -4.674  1.00  0.00    -0.031 C 
BRANCH  12  13
ATOM     13  C   UNL     1       7.156 -12.780  -3.897  1.00  0.00     0.027 C 
BRANCH  13  14
ATOM     14  C   UNL     1       7.336 -13.459  -2.529  1.00  0.00     0.004 C 
BRANCH  14  15
ATOM     15  C   UNL     1       7.139 -12.528  -1.315  1.00  0.00     0.000 C 
BRANCH  15  16
ATOM     16  C   UNL     1       7.681 -11.097  -1.490  1.00  0.00    -0.000 C 
BRANCH  16  17
ATOM     17  C   UNL     1       8.035 -10.423  -0.156  1.00  0.00    -0.003 C 
ATOM     18  C   UNL     1       9.373 -10.925   0.378  1.00  0.00     0.004 C 
ENDBRANCH  16  17
ENDBRANCH  15  16
ENDBRANCH  14  15
ENDBRANCH  13  14
ENDBRANCH  12  13
ENDBRANCH  10  11
ENDBRANCH   1  10
TORSDOF 13
ENDMDL
MODEL 3
REMARK VINA RESULT:    -4.802      2.015      2.764
REMARK INTER + INTRA:         -10.441
REMARK INTER:                  -9.331
REMARK INTRA:                  -1.110
REMARK UNBOUND:                -1.990
REMARK SMILES CCCCCCC=CCCCCCCCC(=O)[O-]
REMARK SMILES IDX 10 1 11 2 12 3 13 4 14 5 15 6 16 7 17 8 18 9 9 10 8 11 7 12
REMARK SMILES IDX 6 13 5 14 4 15 3 16 2 17 1 18
REMARK H PARENT
REMARK Flexibility Score: inf
ROOT
ATOM      1  C   UNL     1       4.762 -13.001  -4.936  1.00  0.00     0.004 C 
ENDROOT
BRANCH   1   2
ATOM      2  C   UNL     1       4.085 -12.009  -5.889  1.00  0.00     0.000 C 
BRANCH   2   3
ATOM      3  C   UNL     1       4.987 -10.798  -6.157  1.00  0.00     0.000 C 
BRANCH   3   4
ATOM      4  C   UNL     1       4.400  -9.909  -7.263  1.00  0.00     0.000 C 
BRANCH   4   5
ATOM      5  C   UNL     1       2.898 -10.149  -7.484  1.00  0.00     0.006 C 
BRANCH   5   6
ATOM      6  C   UNL     1       2.260  -9.092  -8.395  1.00  0.00     0.053 C 
BRANCH   6   7
ATOM      7  C   UNL     1       1.119  -8.423  -7.697  1.00  0.00     0.041 C 
ATOM      8  O   UNL     1       1.206  -8.132  -6.475  1.00  0.00    -0.550 OA
ATOM      9  O   UNL     1      -0.061  -8.164  -8.383  1.00  0.00    -0.550 OA
ENDBRANCH   6   7
ENDBRANCH   5   6
ENDBRANCH   4   5
ENDBRANCH   3   4
ENDBRANCH   2   3
ENDBRANCH   1   2
BRANCH   1  10
ATOM     10  C   UNL     1       5.962 -12.357  -4.233  1.00  0.00     0.027 C 
BRANCH  10  11
ATOM     11  C   UNL     1       7.087 -13.348  -4.072  1.00  0.00    -0.031 C 
ATOM     12  C   UNL     1       7.616 -13.712  -2.889  1.00  0.00    -0.031 C 
BRANCH  12  13
ATOM     13  C   UNL     1       7.125 -13.196  -1.557  1.00  0.00     0.027 C 
BRANCH  13  14
ATOM     14  C   UNL     1       8.272 -12.717  -0.652  1.00  0.00     0.004 C 
BRANCH  14  15
ATOM     15  C   UNL     1       8.328 -11.191  -0.434  1.00  0.00     0.000 C 
BRANCH  15  16
ATOM     16  C   UNL     1       7.822 -10.340  -1.614  1.00  0.00    -0.000 C 
BRANCH  16  17
ATOM     17  C   UNL     1       6.678  -9.392  -1.223  1.00  0.00    -0.003 C 
ATOM     18  C   UNL     1       6.726  -9.055   0.264  1.00  0.00     0.004 C 
ENDBRANCH  16  17
ENDBRANCH  15  16
ENDBRANCH  14  15
ENDBRANCH  13  14
ENDBRANCH  12  13
ENDBRANCH  10  11
ENDBRANCH   1  10
TORSDOF 13
ENDMDL
MODEL 4
REMARK VINA RESULT:    -4.791      3.863      5.084
REMARK INTER + INTRA:         -10.422
REMARK INTER:                  -8.368
REMARK INTRA:                  -2.053
REMARK UNBOUND:                -1.990
REMARK SMILES CCCCCCC=CCCCCCCCC(=O)[O-]
REMARK SMILES IDX 10 1 11 2 12 3 13 4 14 5 15 6 16 7 17 8 18 9 9 10 8 11 7 12
REMARK SMILES IDX 6 13 5 14 4 15 3 16 2 17 1 18
REMARK H PARENT
REMARK Flexibility Score: inf
ROOT
ATOM      1  C   UNL     1       6.423 -13.335  -4.604  1.00  0.00     0.004 C 
ENDROOT
BRANCH   1   2
ATOM      2  C   UNL     1       5.213 -12.485  -5.010  1.00  0.00     0.000 C 
BRANCH   2   3
ATOM      3  C   UNL     1       4.020 -13.369  -5.388  1.00  0.00     0.000 C 
BRANCH   3   4
ATOM      4  C   UNL     1       2.942 -13.336  -4.294  1.00  0.00     0.000 C 
BRANCH   4   5
ATOM      5  C   UNL     1       2.606 -14.733  -3.749  1.00  0.00     0.006 C 
BRANCH   5   6
ATOM      6  C   UNL     1       3.200 -14.981  -2.356  1.00  0.00     0.053 C 
BRANCH   6   7
ATOM      7  C   UNL     1       2.384 -15.991  -1.614  1.00  0.00     0.041 C 
ATOM      8  O   UNL     1       2.053 -15.784  -0.417  1.00  0.00    -0.550 OA
ATOM      9  O   UNL     1       2.029 -17.186  -2.228  1.00  0.00    -0.550 OA
ENDBRANCH   6   7
ENDBRANCH   5   6
ENDBRANCH   4   5
ENDBRANCH   3   4
ENDBRANCH   2   3
ENDBRANCH   1   2
BRANCH   1  10
ATOM     10  C   UNL     1       7.237 -12.642  -3.505  1.00  0.00     0.027 C 
BRANCH  10  11
ATOM     11  C   UNL     1       7.087 -13.364  -2.189  1.00  0.00    -0.031 C 
ATOM     12  C   UNL     1       6.116 -13.115  -1.291  1.00  0.00    -0.031 C 
BRANCH  12  13
ATOM     13  C   UNL     1       5.022 -12.096  -1.502  1.00  0.00     0.027 C 
BRANCH  13  14
ATOM     14  C   UNL     1       5.247 -10.813  -0.685  1.00  0.00     0.004 C 
BRANCH  14  15
ATOM     15  C   UNL     1       6.027  -9.705  -1.424  1.00  0.00     0.000 C 
BRANCH  15  16
ATOM     16  C   UNL     1       7.552  -9.722  -1.211  1.00  0.00    -0.000 C 
BRANCH  16  17
ATOM     17  C   UNL     1       7.959 -10.266   0.167  1.00  0.00    -0.003 C 
ATOM     18  C   UNL     1       9.204 -11.141   0.067  1.00  0.00     0.004 C 
ENDBRANCH  16  17
ENDBRANCH  15  16
ENDBRANCH  14  15
ENDBRANCH  13  14
ENDBRANCH  12  13
ENDBRANCH  10  11
ENDBRANCH   1  10
TORSDOF 13
ENDMDL
MODEL 5
REMARK VINA RESULT:    -4.723      2.735      6.806
REMARK INTER + INTRA:         -10.302
REMARK INTER:                  -8.388
REMARK INTRA:                  -1.914
REMARK UNBOUND:                -1.990
REMARK SMILES CCCCCCC=CCCCCCCCC(=O)[O-]
REMARK SMILES IDX 10 1 11 2 12 3 13 4 14 5 15 6 16 7 17 8 18 9 9 10 8 11 7 12
REMARK SMILES IDX 6 13 5 14 4 15 3 16 2 17 1 18
REMARK H PARENT
REMARK Flexibility Score: inf
ROOT
ATOM      1  C   UNL     1       4.464 -10.354  -6.801  1.00  0.00     0.004 C 
ENDROOT
BRANCH   1   2
ATOM      2  C   UNL     1       5.084 -11.154  -5.649  1.00  0.00     0.000 C 
BRANCH   2   3
ATOM      3  C   UNL     1       4.382 -12.506  -5.476  1.00  0.00     0.000 C 
BRANCH   3   4
ATOM      4  C   UNL     1       5.170 -13.417  -4.522  1.00  0.00     0.000 C 
BRANCH   4   5
ATOM      5  C   UNL     1       6.625 -12.961  -4.332  1.00  0.00     0.006 C 
BRANCH   5   6
ATOM      6  C   UNL     1       7.177 -13.312  -2.945  1.00  0.00     0.053 C 
BRANCH   6   7
ATOM      7  C   UNL     1       7.228 -12.093  -2.080  1.00  0.00     0.041 C 
ATOM      8  O   UNL     1       8.008 -12.047  -1.093  1.00  0.00    -0.550 OA
ATOM      9  O   UNL     1       6.376 -11.024  -2.334  1.00  0.00    -0.550 OA
ENDBRANCH   6   7
ENDBRANCH   5   6
ENDBRANCH   4   5
ENDBRANCH   3   4
ENDBRANCH   2   3
ENDBRANCH   1   2
BRANCH   1  10
ATOM     10  C   UNL     1       2.942 -10.531  -6.836  1.00  0.00     0.027 C 
BRANCH  10  11
ATOM     11  C   UNL     1       2.320  -9.632  -7.875  1.00  0.00    -0.031 C 
ATOM     12  C   UNL     1       1.739  -8.448  -7.607  1.00  0.00    -0.031 C 
BRANCH  12  13
ATOM     13  C   UNL     1       1.666  -7.846  -6.223  1.00  0.00     0.027 C 
BRANCH  13  14
ATOM     14  C   UNL     1       2.563  -6.606  -6.073  1.00  0.00     0.004 C 
BRANCH  14  15
ATOM     15  C   UNL     1       3.928  -6.874  -5.405  1.00  0.00     0.000 C 
BRANCH  15  16
ATOM     16  C   UNL     1       5.151  -6.731  -6.329  1.00  0.00    -0.000 C 
BRANCH  16  17
ATOM     17  C   UNL     1       4.786  -6.223  -7.732  1.00  0.00    -0.003 C 
ATOM     18  C   UNL     1       5.096  -7.273  -8.795  1.00  0.00     0.004 C 
ENDBRANCH  16  17
ENDBRANCH  15  16
ENDBRANCH  14  15
ENDBRANCH  13  14
ENDBRANCH  12  13
ENDBRANCH  10  11
ENDBRANCH   1  10
TORSDOF 13
ENDMDL
MODEL 6
REMARK VINA RESULT:    -4.723      2.460      5.216
REMARK INTER + INTRA:         -10.302
REMARK INTER:                  -8.159
REMARK INTRA:                  -2.143
REMARK UNBOUND:                -1.990
REMARK SMILES CCCCCCC=CCCCCCCCC(=O)[O-]
REMARK SMILES IDX 10 1 11 2 12 3 13 4 14 5 15 6 16 7 17 8 18 9 9 10 8 11 7 12
REMARK SMILES IDX 6 13 5 14 4 15 3 16 2 17 1 18
REMARK H PARENT
REMARK Flexibility Score: inf
ROOT
ATOM      1  C   UNL     1       8.461 -12.635  -0.465  1.00  0.00     0.004 C 
ENDROOT
BRANCH   1   2
ATOM      2  C   UNL     1       8.749 -11.130  -0.427  1.00  0.00     0.000 C 
BRANCH   2   3
ATOM      3  C   UNL     1       7.652 -10.377   0.335  1.00  0.00     0.000 C 
BRANCH   3   4
ATOM      4  C   UNL     1       7.194  -9.135  -0.444  1.00  0.00     0.000 C 
BRANCH   4   5
ATOM      5  C   UNL     1       6.377  -9.488  -1.696  1.00  0.00     0.006 C 
BRANCH   5   6
ATOM      6  C   UNL     1       4.982 -10.030  -1.357  1.00  0.00     0.053 C 
BRANCH   6   7
ATOM      7  C   UNL     1       4.104  -8.930  -0.851  1.00  0.00     0.041 C 
ATOM      8  O   UNL     1       3.995  -7.857  -1.500  1.00  0.00    -0.550 OA
ATOM      9  O   UNL     1       3.444  -9.071   0.364  1.00  0.00    -0.550 OA
ENDBRANCH   6   7
ENDBRANCH   5   6
ENDBRANCH   4   5
ENDBRANCH   3   4
ENDBRANCH   2   3
ENDBRANCH   1   2
BRANCH   1  10
ATOM     10  C   UNL     1       7.263 -12.942  -1.370  1.00  0.00     0.027 C 
BRANCH  10  11
ATOM     11  C   UNL     1       7.699 -13.681  -2.610  1.00  0.00    -0.031 C 
ATOM     12  C   UNL     1       7.226 -13.439  -3.846  1.00  0.00    -0.031 C 
BRANCH  12  13
ATOM     13  C   UNL     1       6.211 -12.365  -4.158  1.00  0.00     0.027 C 
BRANCH  13  14
ATOM     14  C   UNL     1       5.085 -12.868  -5.077  1.00  0.00     0.004 C 
BRANCH  14  15
ATOM     15  C   UNL     1       3.922 -13.571  -4.345  1.00  0.00     0.000 C 
BRANCH  15  16
ATOM     16  C   UNL     1       3.651 -13.075  -2.913  1.00  0.00    -0.000 C 
BRANCH  16  17
ATOM     17  C   UNL     1       3.831 -14.173  -1.854  1.00  0.00    -0.003 C 
ATOM     18  C   UNL     1       3.657 -13.614  -0.445  1.00  0.00     0.004 C 
ENDBRANCH  16  17
ENDBRANCH  15  16
ENDBRANCH  14  15
ENDBRANCH  13  14
ENDBRANCH  12  13
ENDBRANCH  10  11
ENDBRANCH   1  10
TORSDOF 13
ENDMDL
MODEL 7
REMARK VINA RESULT:    -4.661      3.583      5.847
REMARK INTER + INTRA:         -10.193
REMARK INTER:                  -7.920
REMARK INTRA:                  -2.274
REMARK UNBOUND:                -1.990
REMARK SMILES CCCCCCC=CCCCCCCCC(=O)[O-]
REMARK SMILES IDX 10 1 11 2 12 3 13 4 14 5 15 6 16 7 17 8 18 9 9 10 8 11 7 12
REMARK SMILES IDX 6 13 5 14 4 15 3 16 2 17 1 18
REMARK H PARENT
REMARK Flexibility Score: inf
ROOT
ATOM      1  C   UNL     1       7.227 -10.146  -0.751  1.00  0.00     0.004 C 
ENDROOT
BRANCH   1   2
ATOM      2  C   UNL     1       6.063  -9.810  -1.690  1.00  0.00     0.000 C 
BRANCH   2   3
ATOM      3  C   UNL     1       4.715 -10.132  -1.034  1.00  0.00     0.000 C 
BRANCH   3   4
ATOM      4  C   UNL     1       4.069 -11.368  -1.678  1.00  0.00     0.000 C 
BRANCH   4   5
ATOM      5  C   UNL     1       3.788 -12.487  -0.663  1.00  0.00     0.006 C 
BRANCH   5   6
ATOM      6  C   UNL     1       3.677 -13.867  -1.324  1.00  0.00     0.053 C 
BRANCH   6   7
ATOM      7  C   UNL     1       3.086 -14.856  -0.369  1.00  0.00     0.041 C 
ATOM      8  O   UNL     1       2.618 -15.945  -0.793  1.00  0.00    -0.550 OA
ATOM      9  O   UNL     1       3.006 -14.553   0.985  1.00  0.00    -0.550 OA
ENDBRANCH   6   7
ENDBRANCH   5   6
ENDBRANCH   4   5
ENDBRANCH   3   4
ENDBRANCH   2   3
ENDBRANCH   1   2
BRANCH   1  10
ATOM     10  C   UNL     1       8.105 -11.257  -1.339  1.00  0.00     0.027 C 
BRANCH  10  11
ATOM     11  C   UNL     1       7.534 -12.616  -1.024  1.00  0.00    -0.031 C 
ATOM     12  C   UNL     1       7.266 -13.561  -1.945  1.00  0.00    -0.031 C 
BRANCH  12  13
ATOM     13  C   UNL     1       7.536 -13.390  -3.421  1.00  0.00     0.027 C 
BRANCH  13  14
ATOM     14  C   UNL     1       6.471 -12.527  -4.119  1.00  0.00     0.004 C 
BRANCH  14  15
ATOM     15  C   UNL     1       5.240 -13.306  -4.626  1.00  0.00     0.000 C 
BRANCH  15  16
ATOM     16  C   UNL     1       4.385 -12.573  -5.675  1.00  0.00    -0.000 C 
BRANCH  16  17
ATOM     17  C   UNL     1       4.852 -11.132  -5.929  1.00  0.00    -0.003 C 
ATOM     18  C   UNL     1       3.930 -10.126  -5.248  1.00  0.00     0.004 C 
ENDBRANCH  16  17
ENDBRANCH  15  16
ENDBRANCH  14  15
ENDBRANCH  13  14
ENDBRANCH  12  13
ENDBRANCH  10  11
ENDBRANCH   1  10
TORSDOF 13
ENDMDL
MODEL 8
REMARK VINA RESULT:    -4.598      1.272      2.832
REMARK INTER + INTRA:         -10.083
REMARK INTER:                  -8.867
REMARK INTRA:                  -1.216
REMARK UNBOUND:                -1.990
REMARK SMILES CCCCCCC=CCCCCCCCC(=O)[O-]
REMARK SMILES IDX 10 1 11 2 12 3 13 4 14 5 15 6 16 7 17 8 18 9 9 10 8 11 7 12
REMARK SMILES IDX 6 13 5 14 4 15 3 16 2 17 1 18
REMARK H PARENT
REMARK Flexibility Score: inf
ROOT
ATOM      1  C   UNL     1       4.206 -12.408  -5.395  1.00  0.00     0.004 C 
ENDROOT
BRANCH   1   2
ATOM      2  C   UNL     1       5.038 -11.144  -5.638  1.00  0.00     0.000 C 
BRANCH   2   3
ATOM      3  C   UNL     1       4.645 -10.470  -6.958  1.00  0.00     0.000 C 
BRANCH   3   4
ATOM      4  C   UNL     1       3.135 -10.195  -7.009  1.00  0.00     0.000 C 
BRANCH   4   5
ATOM      5  C   UNL     1       2.800  -8.836  -7.644  1.00  0.00     0.006 C 
BRANCH   5   6
ATOM      6  C   UNL     1       4.044  -7.966  -7.865  1.00  0.00     0.053 C 
BRANCH   6   7
ATOM      7  C   UNL     1       4.110  -6.880  -6.838  1.00  0.00     0.041 C 
ATOM      8  O   UNL     1       3.588  -7.047  -5.704  1.00  0.00    -0.550 OA
ATOM      9  O   UNL     1       4.704  -5.663  -7.149  1.00  0.00    -0.550 OA
ENDBRANCH   6   7
ENDBRANCH   5   6
ENDBRANCH   4   5
ENDBRANCH   3   4
ENDBRANCH   2   3
ENDBRANCH   1   2
BRANCH   1  10
ATOM     10  C   UNL     1       4.951 -13.391  -4.485  1.00  0.00     0.027 C 
BRANCH  10  11
ATOM     11  C   UNL     1       6.435 -13.123  -4.506  1.00  0.00    -0.031 C 
ATOM     12  C   UNL     1       7.217 -13.085  -3.412  1.00  0.00    -0.031 C 
BRANCH  12  13
ATOM     13  C   UNL     1       6.710 -13.340  -2.012  1.00  0.00     0.027 C 
BRANCH  13  14
ATOM     14  C   UNL     1       6.129 -12.076  -1.357  1.00  0.00     0.004 C 
BRANCH  14  15
ATOM     15  C   UNL     1       6.474 -10.758  -2.081  1.00  0.00     0.000 C 
BRANCH  15  16
ATOM     16  C   UNL     1       7.651  -9.967  -1.481  1.00  0.00    -0.000 C 
BRANCH  16  17
ATOM     17  C   UNL     1       7.878 -10.267   0.008  1.00  0.00    -0.003 C 
ATOM     18  C   UNL     1       9.240 -10.916   0.238  1.00  0.00     0.004 C 
ENDBRANCH  16  17
ENDBRANCH  15  16
ENDBRANCH  14  15
ENDBRANCH  13  14
ENDBRANCH  12  13
ENDBRANCH  10  11
ENDBRANCH   1  10
TORSDOF 13
ENDMDL
MODEL 9
REMARK VINA RESULT:    -4.585      2.991      6.916
REMARK INTER + INTRA:         -10.059
REMARK INTER:                  -8.605
REMARK INTRA:                  -1.455
REMARK UNBOUND:                -1.990
REMARK SMILES CCCCCCC=CCCCCCCCC(=O)[O-]
REMARK SMILES IDX 10 1 11 2 12 3 13 4 14 5 15 6 16 7 17 8 18 9 9 10 8 11 7 12
REMARK SMILES IDX 6 13 5 14 4 15 3 16 2 17 1 18
REMARK H PARENT
REMARK Flexibility Score: inf
ROOT
ATOM      1  C   UNL     1       4.162 -12.469  -5.327  1.00  0.00     0.004 C 
ENDROOT
BRANCH   1   2
ATOM      2  C   UNL     1       5.027 -13.342  -4.411  1.00  0.00     0.000 C 
BRANCH   2   3
ATOM      3  C   UNL     1       6.484 -12.865  -4.408  1.00  0.00     0.000 C 
BRANCH   3   4
ATOM      4  C   UNL     1       7.256 -13.459  -3.220  1.00  0.00     0.000 C 
BRANCH   4   5
ATOM      5  C   UNL     1       6.830 -12.854  -1.873  1.00  0.00     0.006 C 
BRANCH   5   6
ATOM      6  C   UNL     1       7.995 -12.747  -0.880  1.00  0.00     0.053 C 
BRANCH   6   7
ATOM      7  C   UNL     1       8.336 -11.313  -0.629  1.00  0.00     0.041 C 
ATOM      8  O   UNL     1       9.170 -11.006   0.262  1.00  0.00    -0.550 OA
ATOM      9  O   UNL     1       7.694 -10.310  -1.346  1.00  0.00    -0.550 OA
ENDBRANCH   6   7
ENDBRANCH   5   6
ENDBRANCH   4   5
ENDBRANCH   3   4
ENDBRANCH   2   3
ENDBRANCH   1   2
BRANCH   1  10
ATOM     10  C   UNL     1       5.005 -11.386  -6.010  1.00  0.00     0.027 C 
BRANCH  10  11
ATOM     11  C   UNL     1       4.534 -10.009  -5.614  1.00  0.00    -0.031 C 
ATOM     12  C   UNL     1       4.129  -9.064  -6.483  1.00  0.00    -0.031 C 
BRANCH  12  13
ATOM     13  C   UNL     1       4.062  -9.275  -7.978  1.00  0.00     0.027 C 
BRANCH  13  14
ATOM     14  C   UNL     1       2.649  -9.045  -8.541  1.00  0.00     0.004 C 
BRANCH  14  15
ATOM     15  C   UNL     1       1.674  -8.345  -7.572  1.00  0.00     0.000 C 
BRANCH  15  16
ATOM     16  C   UNL     1       0.478  -9.199  -7.113  1.00  0.00    -0.000 C 
BRANCH  16  17
ATOM     17  C   UNL     1       0.847 -10.671  -6.876  1.00  0.00    -0.003 C 
ATOM     18  C   UNL     1       0.787 -11.022  -5.393  1.00  0.00     0.004 C 
ENDBRANCH  16  17
ENDBRANCH  15  16
ENDBRANCH  14  15
ENDBRANCH  13  14
ENDBRANCH  12  13
ENDBRANCH  10  11
ENDBRANCH   1  10
TORSDOF 13
ENDMDL
