MODEL 1
REMARK VINA RESULT:    -3.764      0.000      0.000
REMARK INTER + INTRA:          -4.790
REMARK INTER:                  -4.534
REMARK INTRA:                  -0.256
REMARK UNBOUND:                -0.256
REMARK SMILES C=CCc1ccc(O)c(OC)c1
REMARK SMILES IDX 9 1 7 2 6 3 5 4 4 5 12 6 10 7 11 8 8 9 3 11 2 12 1 13
REMARK H PARENT 8 10
REMARK Flexibility Score: inf
ROOT
ATOM      1  C   UNL     1      35.197 -39.289  13.336  1.00  0.00     0.160 A 
ATOM      2  C   UNL     1      34.949 -37.933  13.594  1.00  0.00     0.157 A 
ATOM      3  C   UNL     1      34.470 -37.100  12.575  1.00  0.00     0.050 A 
ATOM      4  C   UNL     1      34.237 -37.611  11.297  1.00  0.00     0.008 A 
ATOM      5  C   UNL     1      34.491 -38.962  11.020  1.00  0.00    -0.040 A 
ATOM      6  C   UNL     1      34.962 -39.801  12.044  1.00  0.00     0.054 A 
ENDROOT
BRANCH   1   7
ATOM      7  O   UNL     1      35.671 -40.093  14.384  1.00  0.00    -0.493 OA
ATOM      8  C   UNL     1      35.809 -41.508  14.314  1.00  0.00     0.278 C 
ENDBRANCH   1   7
BRANCH   2   9
ATOM      9  O   UNL     1      35.180 -37.421  14.869  1.00  0.00    -0.504 OA
ATOM     10  H   UNL     1      34.965 -37.956  15.702  1.00  0.00     0.293 HD
ENDBRANCH   2   9
BRANCH   5  11
ATOM     11  C   UNL     1      34.210 -39.518   9.649  1.00  0.00     0.062 C 
BRANCH  11  12
ATOM     12  C   UNL     1      35.144 -38.926   8.631  1.00  0.00    -0.030 C 
ATOM     13  C   UNL     1      36.363 -39.430   8.420  1.00  0.00     0.004 C 
ENDBRANCH  11  12
ENDBRANCH   5  11
TORSDOF 4
ENDMDL
MODEL 2
REMARK VINA RESULT:    -3.696      1.928      3.644
REMARK INTER + INTRA:          -4.708
REMARK INTER:                  -4.474
REMARK INTRA:                  -0.234
REMARK UNBOUND:                -0.256
REMARK SMILES C=CCc1ccc(O)c(OC)c1
REMARK SMILES IDX 9 1 7 2 6 3 5 4 4 5 12 6 10 7 11 8 8 9 3 11 2 12 1 13
REMARK H PARENT 8 10
REMARK Flexibility Score: inf
ROOT
ATOM      1  C   UNL     1      34.706 -38.286  12.414  1.00  0.00     0.160 A 
ATOM      2  C   UNL     1      35.176 -38.193  13.732  1.00  0.00     0.157 A 
ATOM      3  C   UNL     1      35.527 -39.352  14.436  1.00  0.00     0.050 A 
ATOM      4  C   UNL     1      35.411 -40.605  13.833  1.00  0.00     0.008 A 
ATOM      5  C   UNL     1      34.932 -40.716  12.519  1.00  0.00    -0.040 A 
ATOM      6  C   UNL     1      34.588 -39.553  11.810  1.00  0.00     0.054 A 
ENDROOT
BRANCH   1   7
ATOM      7  O   UNL     1      34.369 -37.101  11.740  1.00  0.00    -0.493 OA
ATOM      8  C   UNL     1      33.997 -37.034  10.367  1.00  0.00     0.278 C 
ENDBRANCH   1   7
BRANCH   2   9
ATOM      9  O   UNL     1      35.293 -36.942  14.335  1.00  0.00    -0.504 OA
ATOM     10  H   UNL     1      36.089 -36.341  14.158  1.00  0.00     0.293 HD
ENDBRANCH   2   9
BRANCH   5  11
ATOM     11  C   UNL     1      34.837 -42.067  11.861  1.00  0.00     0.062 C 
BRANCH  11  12
ATOM     12  C   UNL     1      35.952 -42.963  12.320  1.00  0.00    -0.030 C 
ATOM     13  C   UNL     1      36.876 -43.426  11.472  1.00  0.00     0.004 C 
ENDBRANCH  11  12
ENDBRANCH   5  11
TORSDOF 4
ENDMDL
MODEL 3
REMARK VINA RESULT:    -3.592     16.414     17.023
REMARK INTER + INTRA:          -4.583
REMARK INTER:                  -4.385
REMARK INTRA:                  -0.198
REMARK UNBOUND:                -0.256
REMARK SMILES C=CCc1ccc(O)c(OC)c1
REMARK SMILES IDX 9 1 7 2 6 3 5 4 4 5 12 6 10 7 11 8 8 9 3 11 2 12 1 13
REMARK H PARENT 8 10
REMARK Flexibility Score: inf
ROOT
ATOM      1  C   UNL     1      34.528 -41.761  -3.994  1.00  0.00     0.160 A 
ATOM      2  C   UNL     1      33.156 -41.491  -4.096  1.00  0.00     0.157 A 
ATOM      3  C   UNL     1      32.233 -42.544  -4.127  1.00  0.00     0.050 A 
ATOM      4  C   UNL     1      32.670 -43.867  -4.059  1.00  0.00     0.008 A 
ATOM      5  C   UNL     1      34.040 -44.155  -3.968  1.00  0.00    -0.040 A 
ATOM      6  C   UNL     1      34.966 -43.099  -3.927  1.00  0.00     0.054 A 
ENDROOT
BRANCH   1   7
ATOM      7  O   UNL     1      35.422 -40.679  -3.960  1.00  0.00    -0.493 OA
ATOM      8  C   UNL     1      36.753 -40.718  -4.463  1.00  0.00     0.278 C 
ENDBRANCH   1   7
BRANCH   2   9
ATOM      9  O   UNL     1      32.717 -40.170  -4.163  1.00  0.00    -0.504 OA
ATOM     10  H   UNL     1      31.900 -39.910  -4.703  1.00  0.00     0.293 HD
ENDBRANCH   2   9
BRANCH   5  11
ATOM     11  C   UNL     1      34.507 -45.582  -3.864  1.00  0.00     0.062 C 
BRANCH  11  12
ATOM     12  C   UNL     1      35.961 -45.696  -4.228  1.00  0.00    -0.030 C 
ATOM     13  C   UNL     1      36.395 -46.592  -5.119  1.00  0.00     0.004 C 
ENDBRANCH  11  12
ENDBRANCH   5  11
TORSDOF 4
ENDMDL
MODEL 4
REMARK VINA RESULT:    -3.463     13.869     16.248
REMARK INTER + INTRA:          -4.427
REMARK INTER:                  -4.207
REMARK INTRA:                  -0.220
REMARK UNBOUND:                -0.256
REMARK SMILES C=CCc1ccc(O)c(OC)c1
REMARK SMILES IDX 9 1 7 2 6 3 5 4 4 5 12 6 10 7 11 8 8 9 3 11 2 12 1 13
REMARK H PARENT 8 10
REMARK Flexibility Score: inf
ROOT
ATOM      1  C   UNL     1      36.717 -39.629  -3.266  1.00  0.00     0.160 A 
ATOM      2  C   UNL     1      37.448 -40.292  -4.264  1.00  0.00     0.157 A 
ATOM      3  C   UNL     1      36.810 -41.202  -5.116  1.00  0.00     0.050 A 
ATOM      4  C   UNL     1      35.444 -41.457  -4.979  1.00  0.00     0.008 A 
ATOM      5  C   UNL     1      34.701 -40.812  -3.980  1.00  0.00    -0.040 A 
ATOM      6  C   UNL     1      35.339 -39.892  -3.131  1.00  0.00     0.054 A 
ENDROOT
BRANCH   1   7
ATOM      7  O   UNL     1      37.391 -38.720  -2.436  1.00  0.00    -0.493 OA
ATOM      8  C   UNL     1      37.755 -38.982  -1.085  1.00  0.00     0.278 C 
ENDBRANCH   1   7
BRANCH   2   9
ATOM      9  O   UNL     1      38.811 -40.037  -4.402  1.00  0.00    -0.504 OA
ATOM     10  H   UNL     1      39.344 -39.590  -3.666  1.00  0.00     0.293 HD
ENDBRANCH   2   9
BRANCH   5  11
ATOM     11  C   UNL     1      33.222 -41.066  -3.854  1.00  0.00     0.062 C 
BRANCH  11  12
ATOM     12  C   UNL     1      32.903 -42.507  -4.139  1.00  0.00    -0.030 C 
ATOM     13  C   UNL     1      31.654 -42.977  -4.067  1.00  0.00     0.004 C 
ENDBRANCH  11  12
ENDBRANCH   5  11
TORSDOF 4
ENDMDL
MODEL 5
REMARK VINA RESULT:    -3.452     15.439     16.769
REMARK INTER + INTRA:          -4.415
REMARK INTER:                  -4.194
REMARK INTRA:                  -0.220
REMARK UNBOUND:                -0.256
REMARK SMILES C=CCc1ccc(O)c(OC)c1
REMARK SMILES IDX 9 1 7 2 6 3 5 4 4 5 12 6 10 7 11 8 8 9 3 11 2 12 1 13
REMARK H PARENT 8 10
REMARK Flexibility Score: inf
ROOT
ATOM      1  C   UNL     1      42.189 -53.856  14.120  1.00  0.00     0.160 A 
ATOM      2  C   UNL     1      42.126 -54.943  13.236  1.00  0.00     0.157 A 
ATOM      3  C   UNL     1      40.884 -55.464  12.850  1.00  0.00     0.050 A 
ATOM      4  C   UNL     1      39.703 -54.907  13.343  1.00  0.00     0.008 A 
ATOM      5  C   UNL     1      39.749 -53.827  14.236  1.00  0.00    -0.040 A 
ATOM      6  C   UNL     1      40.994 -53.298  14.616  1.00  0.00     0.054 A 
ENDROOT
BRANCH   1   7
ATOM      7  O   UNL     1      43.452 -53.359  14.479  1.00  0.00    -0.493 OA
ATOM      8  C   UNL     1      44.011 -52.147  13.983  1.00  0.00     0.278 C 
ENDBRANCH   1   7
BRANCH   2   9
ATOM      9  O   UNL     1      43.304 -55.500  12.743  1.00  0.00    -0.504 OA
ATOM     10  H   UNL     1      43.524 -55.486  11.754  1.00  0.00     0.293 HD
ENDBRANCH   2   9
BRANCH   5  11
ATOM     11  C   UNL     1      38.472 -53.209  14.741  1.00  0.00     0.062 C 
BRANCH  11  12
ATOM     12  C   UNL     1      37.355 -54.214  14.738  1.00  0.00    -0.030 C 
ATOM     13  C   UNL     1      36.114 -53.886  15.108  1.00  0.00     0.004 C 
ENDBRANCH  11  12
ENDBRANCH   5  11
TORSDOF 4
ENDMDL
MODEL 6
REMARK VINA RESULT:    -3.429      6.397      8.362
REMARK INTER + INTRA:          -4.386
REMARK INTER:                  -4.182
REMARK INTRA:                  -0.204
REMARK UNBOUND:                -0.256
REMARK SMILES C=CCc1ccc(O)c(OC)c1
REMARK SMILES IDX 9 1 7 2 6 3 5 4 4 5 12 6 10 7 11 8 8 9 3 11 2 12 1 13
REMARK H PARENT 8 10
REMARK Flexibility Score: inf
ROOT
ATOM      1  C   UNL     1      33.167 -36.469   5.712  1.00  0.00     0.160 A 
ATOM      2  C   UNL     1      32.154 -36.933   4.859  1.00  0.00     0.157 A 
ATOM      3  C   UNL     1      32.469 -37.364   3.564  1.00  0.00     0.050 A 
ATOM      4  C   UNL     1      33.790 -37.335   3.113  1.00  0.00     0.008 A 
ATOM      5  C   UNL     1      34.812 -36.864   3.949  1.00  0.00    -0.040 A 
ATOM      6  C   UNL     1      34.499 -36.440   5.251  1.00  0.00     0.054 A 
ENDROOT
BRANCH   1   7
ATOM      7  O   UNL     1      32.813 -36.050   7.004  1.00  0.00    -0.493 OA
ATOM      8  C   UNL     1      33.464 -36.478   8.196  1.00  0.00     0.278 C 
ENDBRANCH   1   7
BRANCH   2   9
ATOM      9  O   UNL     1      30.836 -36.963   5.309  1.00  0.00    -0.504 OA
ATOM     10  H   UNL     1      30.613 -37.060   6.293  1.00  0.00     0.293 HD
ENDBRANCH   2   9
BRANCH   5  11
ATOM     11  C   UNL     1      36.240 -36.862   3.470  1.00  0.00     0.062 C 
BRANCH  11  12
ATOM     12  C   UNL     1      36.426 -35.875   2.352  1.00  0.00    -0.030 C 
ATOM     13  C   UNL     1      37.347 -36.057   1.401  1.00  0.00     0.004 C 
ENDBRANCH  11  12
ENDBRANCH   5  11
TORSDOF 4
ENDMDL
MODEL 7
REMARK VINA RESULT:    -3.419      2.125      4.219
REMARK INTER + INTRA:          -4.374
REMARK INTER:                  -4.167
REMARK INTRA:                  -0.208
REMARK UNBOUND:                -0.256
REMARK SMILES C=CCc1ccc(O)c(OC)c1
REMARK SMILES IDX 9 1 7 2 6 3 5 4 4 5 12 6 10 7 11 8 8 9 3 11 2 12 1 13
REMARK H PARENT 8 10
REMARK Flexibility Score: inf
ROOT
ATOM      1  C   UNL     1      34.501 -38.881  10.912  1.00  0.00     0.160 A 
ATOM      2  C   UNL     1      34.247 -37.521  11.143  1.00  0.00     0.157 A 
ATOM      3  C   UNL     1      34.401 -36.986  12.428  1.00  0.00     0.050 A 
ATOM      4  C   UNL     1      34.807 -37.800  13.487  1.00  0.00     0.008 A 
ATOM      5  C   UNL     1      35.054 -39.164  13.274  1.00  0.00    -0.040 A 
ATOM      6  C   UNL     1      34.909 -39.700  11.984  1.00  0.00     0.054 A 
ENDROOT
BRANCH   1   7
ATOM      7  O   UNL     1      34.341 -39.379   9.609  1.00  0.00    -0.493 OA
ATOM      8  C   UNL     1      35.399 -39.529   8.668  1.00  0.00     0.278 C 
ENDBRANCH   1   7
BRANCH   2   9
ATOM      9  O   UNL     1      33.843 -36.707  10.087  1.00  0.00    -0.504 OA
ATOM     10  H   UNL     1      33.348 -37.083   9.287  1.00  0.00     0.293 HD
ENDBRANCH   2   9
BRANCH   5  11
ATOM     11  C   UNL     1      35.521 -40.033  14.412  1.00  0.00     0.062 C 
BRANCH  11  12
ATOM     12  C   UNL     1      35.746 -41.445  13.947  1.00  0.00    -0.030 C 
ATOM     13  C   UNL     1      36.744 -42.192  14.427  1.00  0.00     0.004 C 
ENDBRANCH  11  12
ENDBRANCH   5  11
TORSDOF 4
ENDMDL
MODEL 8
REMARK VINA RESULT:    -3.394     13.894     16.067
REMARK INTER + INTRA:          -4.345
REMARK INTER:                  -4.133
REMARK INTRA:                  -0.212
REMARK UNBOUND:                -0.256
REMARK SMILES C=CCc1ccc(O)c(OC)c1
REMARK SMILES IDX 9 1 7 2 6 3 5 4 4 5 12 6 10 7 11 8 8 9 3 11 2 12 1 13
REMARK H PARENT 8 10
REMARK Flexibility Score: inf
ROOT
ATOM      1  C   UNL     1      35.075 -40.242  -3.234  1.00  0.00     0.160 A 
ATOM      2  C   UNL     1      35.052 -41.065  -4.370  1.00  0.00     0.157 A 
ATOM      3  C   UNL     1      36.217 -41.255  -5.123  1.00  0.00     0.050 A 
ATOM      4  C   UNL     1      37.407 -40.629  -4.751  1.00  0.00     0.008 A 
ATOM      5  C   UNL     1      37.444 -39.794  -3.625  1.00  0.00    -0.040 A 
ATOM      6  C   UNL     1      36.278 -39.610  -2.863  1.00  0.00     0.054 A 
ENDROOT
BRANCH   1   7
ATOM      7  O   UNL     1      33.888 -40.080  -2.502  1.00  0.00    -0.493 OA
ATOM      8  C   UNL     1      33.646 -40.657  -1.223  1.00  0.00     0.278 C 
ENDBRANCH   1   7
BRANCH   2   9
ATOM      9  O   UNL     1      33.864 -41.692  -4.742  1.00  0.00    -0.504 OA
ATOM     10  H   UNL     1      32.992 -41.504  -4.262  1.00  0.00     0.293 HD
ENDBRANCH   2   9
BRANCH   5  11
ATOM     11  C   UNL     1      38.737 -39.144  -3.208  1.00  0.00     0.062 C 
BRANCH  11  12
ATOM     12  C   UNL     1      38.793 -37.718  -3.680  1.00  0.00    -0.030 C 
ATOM     13  C   UNL     1      38.502 -36.697  -2.868  1.00  0.00     0.004 C 
ENDBRANCH  11  12
ENDBRANCH   5  11
TORSDOF 4
ENDMDL
MODEL 9
REMARK VINA RESULT:    -3.347      2.082      3.001
REMARK INTER + INTRA:          -4.287
REMARK INTER:                  -4.084
REMARK INTRA:                  -0.204
REMARK UNBOUND:                -0.256
REMARK SMILES C=CCc1ccc(O)c(OC)c1
REMARK SMILES IDX 9 1 7 2 6 3 5 4 4 5 12 6 10 7 11 8 8 9 3 11 2 12 1 13
REMARK H PARENT 8 10
REMARK Flexibility Score: inf
ROOT
ATOM      1  C   UNL     1      35.001 -40.855  12.722  1.00  0.00     0.160 A 
ATOM      2  C   UNL     1      35.329 -40.761  14.082  1.00  0.00     0.157 A 
ATOM      3  C   UNL     1      35.332 -39.513  14.719  1.00  0.00     0.050 A 
ATOM      4  C   UNL     1      35.011 -38.357  14.006  1.00  0.00     0.008 A 
ATOM      5  C   UNL     1      34.692 -38.433  12.643  1.00  0.00    -0.040 A 
ATOM      6  C   UNL     1      34.680 -39.685  12.005  1.00  0.00     0.054 A 
ENDROOT
BRANCH   1   7
ATOM      7  O   UNL     1      35.004 -42.124  12.120  1.00  0.00    -0.493 OA
ATOM      8  C   UNL     1      35.906 -42.527  11.096  1.00  0.00     0.278 C 
ENDBRANCH   1   7
BRANCH   2   9
ATOM      9  O   UNL     1      35.649 -41.914  14.796  1.00  0.00    -0.504 OA
ATOM     10  H   UNL     1      35.554 -42.835  14.384  1.00  0.00     0.293 HD
ENDBRANCH   2   9
BRANCH   5  11
ATOM     11  C   UNL     1      34.317 -37.188  11.884  1.00  0.00     0.062 C 
BRANCH  11  12
ATOM     12  C   UNL     1      34.337 -37.440  10.402  1.00  0.00    -0.030 C 
ATOM     13  C   UNL     1      33.675 -36.654   9.547  1.00  0.00     0.004 C 
ENDBRANCH  11  12
ENDBRANCH   5  11
TORSDOF 4
ENDMDL
