MODEL 1
REMARK VINA RESULT:    -6.301      0.000      0.000
REMARK INTER + INTRA:          -7.727
REMARK INTER:                  -7.590
REMARK INTRA:                  -0.137
REMARK UNBOUND:                -0.137
REMARK SMILES O=c1c(O)c(-c2ccc(O)c(O)c2)oc2cc(O)cc(O)c12
REMARK SMILES IDX 5 1 3 2 2 3 1 4 22 5 20 6 19 7 17 8 16 9 15 10 14 11 6 12
REMARK SMILES IDX 7 13 8 14 9 15 13 16 11 17 10 18 12 20 4 22 21 24 18 26
REMARK H PARENT 10 19 12 21 4 23 21 25 18 27
REMARK Flexibility Score: inf
ROOT
ATOM      1  C   UNL     1     213.451 207.161 154.389  1.00  0.00     0.180 A 
ATOM      2  C   UNL     1     212.851 206.000 153.872  1.00  0.00     0.208 A 
ATOM      3  C   UNL     1     212.762 204.860 154.685  1.00  0.00     0.238 A 
ATOM      4  O   UNL     1     212.274 203.807 154.198  1.00  0.00    -0.285 OA
ATOM      5  C   UNL     1     213.260 204.898 156.010  1.00  0.00     0.111 A 
ATOM      6  C   UNL     1     213.187 203.814 156.935  1.00  0.00     0.134 A 
ATOM      7  C   UNL     1     213.828 203.920 158.175  1.00  0.00     0.093 A 
ATOM      8  C   UNL     1     214.483 205.093 158.550  1.00  0.00     0.123 A 
ATOM      9  C   UNL     1     214.510 206.181 157.676  1.00  0.00     0.094 A 
ATOM     10  C   UNL     1     213.910 206.092 156.417  1.00  0.00     0.146 A 
ATOM     11  O   UNL     1     213.967 207.146 155.612  1.00  0.00    -0.452 OA
ENDROOT
BRANCH   1  12
ATOM     12  C   UNL     1     213.558 208.411 153.601  1.00  0.00     0.025 A 
ATOM     13  C   UNL     1     212.854 209.552 154.016  1.00  0.00     0.016 A 
ATOM     14  C   UNL     1     212.923 210.735 153.276  1.00  0.00     0.051 A 
ATOM     15  C   UNL     1     213.684 210.793 152.105  1.00  0.00     0.157 A 
ATOM     16  C   UNL     1     214.306 208.464 152.411  1.00  0.00     0.062 A 
ATOM     17  C   UNL     1     214.376 209.651 151.666  1.00  0.00     0.158 A 
BRANCH  15  18
ATOM     18  O   UNL     1     213.737 211.988 151.388  1.00  0.00    -0.504 OA
ATOM     19  H   UNL     1     214.551 212.591 151.405  1.00  0.00     0.293 HD
ENDBRANCH  15  18
BRANCH  17  20
ATOM     20  O   UNL     1     215.124 209.697 150.491  1.00  0.00    -0.504 OA
ATOM     21  H   UNL     1     215.032 208.987 149.775  1.00  0.00     0.293 HD
ENDBRANCH  17  20
ENDBRANCH   1  12
BRANCH   2  22
ATOM     22  O   UNL     1     212.386 205.977 152.553  1.00  0.00    -0.502 OA
ATOM     23  H   UNL     1     212.059 205.129 152.107  1.00  0.00     0.293 HD
ENDBRANCH   2  22
BRANCH   6  24
ATOM     24  O   UNL     1     212.479 202.632 156.698  1.00  0.00    -0.507 OA
ATOM     25  H   UNL     1     211.799 202.232 157.327  1.00  0.00     0.293 HD
ENDBRANCH   6  24
BRANCH   8  26
ATOM     26  O   UNL     1     215.097 205.168 159.798  1.00  0.00    -0.508 OA
ATOM     27  H   UNL     1     216.063 205.458 159.896  1.00  0.00     0.293 HD
ENDBRANCH   8  26
TORSDOF 6
ENDMDL
MODEL 2
REMARK VINA RESULT:    -6.182      1.824      3.119
REMARK INTER + INTRA:          -7.584
REMARK INTER:                  -7.659
REMARK INTRA:                   0.075
REMARK UNBOUND:                -0.137
REMARK SMILES O=c1c(O)c(-c2ccc(O)c(O)c2)oc2cc(O)cc(O)c12
REMARK SMILES IDX 5 1 3 2 2 3 1 4 22 5 20 6 19 7 17 8 16 9 15 10 14 11 6 12
REMARK SMILES IDX 7 13 8 14 9 15 13 16 11 17 10 18 12 20 4 22 21 24 18 26
REMARK H PARENT 10 19 12 21 4 23 21 25 18 27
REMARK Flexibility Score: inf
ROOT
ATOM      1  C   UNL     1     213.403 206.720 154.086  1.00  0.00     0.180 A 
ATOM      2  C   UNL     1     213.544 206.976 155.461  1.00  0.00     0.208 A 
ATOM      3  C   UNL     1     213.797 205.904 156.331  1.00  0.00     0.238 A 
ATOM      4  O   UNL     1     213.867 206.133 157.567  1.00  0.00    -0.285 OA
ATOM      5  C   UNL     1     213.921 204.592 155.815  1.00  0.00     0.111 A 
ATOM      6  C   UNL     1     214.216 203.436 156.600  1.00  0.00     0.134 A 
ATOM      7  C   UNL     1     214.186 202.171 156.002  1.00  0.00     0.093 A 
ATOM      8  C   UNL     1     213.937 202.023 154.638  1.00  0.00     0.123 A 
ATOM      9  C   UNL     1     213.706 203.151 153.849  1.00  0.00     0.094 A 
ATOM     10  C   UNL     1     213.694 204.424 154.424  1.00  0.00     0.146 A 
ATOM     11  O   UNL     1     213.459 205.471 153.641  1.00  0.00    -0.452 OA
ENDROOT
BRANCH   1  12
ATOM     12  C   UNL     1     213.161 207.802 153.104  1.00  0.00     0.025 A 
ATOM     13  C   UNL     1     212.256 207.591 152.052  1.00  0.00     0.016 A 
ATOM     14  C   UNL     1     212.028 208.589 151.102  1.00  0.00     0.051 A 
ATOM     15  C   UNL     1     212.710 209.807 151.179  1.00  0.00     0.157 A 
ATOM     16  C   UNL     1     213.863 209.019 153.168  1.00  0.00     0.062 A 
ATOM     17  C   UNL     1     213.636 210.023 152.214  1.00  0.00     0.158 A 
BRANCH  15  18
ATOM     18  O   UNL     1     212.461 210.786 150.218  1.00  0.00    -0.504 OA
ATOM     19  H   UNL     1     212.130 211.711 150.465  1.00  0.00     0.293 HD
ENDBRANCH  15  18
BRANCH  17  20
ATOM     20  O   UNL     1     214.331 211.229 152.288  1.00  0.00    -0.504 OA
ATOM     21  H   UNL     1     215.330 211.256 152.453  1.00  0.00     0.293 HD
ENDBRANCH  17  20
ENDBRANCH   1  12
BRANCH   2  22
ATOM     22  O   UNL     1     213.396 208.277 155.952  1.00  0.00    -0.502 OA
ATOM     23  H   UNL     1     214.184 208.837 156.255  1.00  0.00     0.293 HD
ENDBRANCH   2  22
BRANCH   6  24
ATOM     24  O   UNL     1     214.568 203.480 157.951  1.00  0.00    -0.507 OA
ATOM     25  H   UNL     1     214.441 204.280 158.553  1.00  0.00     0.293 HD
ENDBRANCH   6  24
BRANCH   8  26
ATOM     26  O   UNL     1     213.930 200.749 154.075  1.00  0.00    -0.508 OA
ATOM     27  H   UNL     1     213.471 199.970 154.533  1.00  0.00     0.293 HD
ENDBRANCH   8  26
TORSDOF 6
ENDMDL
MODEL 3
REMARK VINA RESULT:    -5.977      1.831      2.068
REMARK INTER + INTRA:          -7.337
REMARK INTER:                  -7.040
REMARK INTRA:                  -0.296
REMARK UNBOUND:                -0.137
REMARK SMILES O=c1c(O)c(-c2ccc(O)c(O)c2)oc2cc(O)cc(O)c12
REMARK SMILES IDX 5 1 3 2 2 3 1 4 22 5 20 6 19 7 17 8 16 9 15 10 14 11 6 12
REMARK SMILES IDX 7 13 8 14 9 15 13 16 11 17 10 18 12 20 4 22 21 24 18 26
REMARK H PARENT 10 19 12 21 4 23 21 25 18 27
REMARK Flexibility Score: inf
ROOT
ATOM      1  C   UNL     1     213.412 205.992 153.886  1.00  0.00     0.180 A 
ATOM      2  C   UNL     1     213.927 204.815 153.316  1.00  0.00     0.208 A 
ATOM      3  C   UNL     1     214.018 203.660 154.108  1.00  0.00     0.238 A 
ATOM      4  O   UNL     1     214.531 202.625 153.608  1.00  0.00    -0.285 OA
ATOM      5  C   UNL     1     213.579 203.690 155.453  1.00  0.00     0.111 A 
ATOM      6  C   UNL     1     213.588 202.567 156.335  1.00  0.00     0.134 A 
ATOM      7  C   UNL     1     213.252 202.745 157.682  1.00  0.00     0.093 A 
ATOM      8  C   UNL     1     212.845 203.988 158.165  1.00  0.00     0.123 A 
ATOM      9  C   UNL     1     212.776 205.080 157.299  1.00  0.00     0.094 A 
ATOM     10  C   UNL     1     213.140 204.942 155.957  1.00  0.00     0.146 A 
ATOM     11  O   UNL     1     213.070 206.008 155.168  1.00  0.00    -0.452 OA
ENDROOT
BRANCH   1  12
ATOM     12  C   UNL     1     213.262 207.244 153.107  1.00  0.00     0.025 A 
ATOM     13  C   UNL     1     214.168 208.297 153.310  1.00  0.00     0.016 A 
ATOM     14  C   UNL     1     214.032 209.494 152.603  1.00  0.00     0.051 A 
ATOM     15  C   UNL     1     212.984 209.663 151.694  1.00  0.00     0.157 A 
ATOM     16  C   UNL     1     212.195 207.423 152.209  1.00  0.00     0.062 A 
ATOM     17  C   UNL     1     212.057 208.625 151.498  1.00  0.00     0.158 A 
BRANCH  15  18
ATOM     18  O   UNL     1     212.875 210.868 151.000  1.00  0.00    -0.504 OA
ATOM     19  H   UNL     1     213.685 211.430 150.766  1.00  0.00     0.293 HD
ENDBRANCH  15  18
BRANCH  17  20
ATOM     20  O   UNL     1     211.000 208.793 150.605  1.00  0.00    -0.504 OA
ATOM     21  H   UNL     1     210.195 208.178 150.614  1.00  0.00     0.293 HD
ENDBRANCH  17  20
ENDBRANCH   1  12
BRANCH   2  22
ATOM     22  O   UNL     1     214.376 204.813 151.992  1.00  0.00    -0.502 OA
ATOM     23  H   UNL     1     214.705 203.973 151.531  1.00  0.00     0.293 HD
ENDBRANCH   2  22
BRANCH   6  24
ATOM     24  O   UNL     1     213.889 201.263 155.934  1.00  0.00    -0.507 OA
ATOM     25  H   UNL     1     213.464 200.431 156.315  1.00  0.00     0.293 HD
ENDBRANCH   6  24
BRANCH   8  26
ATOM     26  O   UNL     1     212.504 204.125 159.509  1.00  0.00    -0.508 OA
ATOM     27  H   UNL     1     213.210 204.259 160.224  1.00  0.00     0.293 HD
ENDBRANCH   8  26
TORSDOF 6
ENDMDL
MODEL 4
REMARK VINA RESULT:    -5.759      1.277      6.731
REMARK INTER + INTRA:          -7.074
REMARK INTER:                  -7.153
REMARK INTRA:                   0.080
REMARK UNBOUND:                -0.137
REMARK SMILES O=c1c(O)c(-c2ccc(O)c(O)c2)oc2cc(O)cc(O)c12
REMARK SMILES IDX 5 1 3 2 2 3 1 4 22 5 20 6 19 7 17 8 16 9 15 10 14 11 6 12
REMARK SMILES IDX 7 13 8 14 9 15 13 16 11 17 10 18 12 20 4 22 21 24 18 26
REMARK H PARENT 10 19 12 21 4 23 21 25 18 27
REMARK Flexibility Score: inf
ROOT
ATOM      1  C   UNL     1     213.313 206.278 155.038  1.00  0.00     0.180 A 
ATOM      2  C   UNL     1     212.897 205.457 153.976  1.00  0.00     0.208 A 
ATOM      3  C   UNL     1     212.684 206.033 152.714  1.00  0.00     0.238 A 
ATOM      4  O   UNL     1     212.259 205.303 151.781  1.00  0.00    -0.285 OA
ATOM      5  C   UNL     1     212.903 207.419 152.525  1.00  0.00     0.111 A 
ATOM      6  C   UNL     1     212.757 208.101 151.280  1.00  0.00     0.134 A 
ATOM      7  C   UNL     1     212.873 209.495 151.239  1.00  0.00     0.093 A 
ATOM      8  C   UNL     1     213.195 210.225 152.382  1.00  0.00     0.123 A 
ATOM      9  C   UNL     1     213.400 209.563 153.593  1.00  0.00     0.094 A 
ATOM     10  C   UNL     1     213.254 208.175 153.673  1.00  0.00     0.146 A 
ATOM     11  O   UNL     1     213.447 207.584 154.847  1.00  0.00    -0.452 OA
ENDROOT
BRANCH   1  12
ATOM     12  C   UNL     1     213.583 205.739 156.392  1.00  0.00     0.025 A 
ATOM     13  C   UNL     1     214.771 206.090 157.051  1.00  0.00     0.016 A 
ATOM     14  C   UNL     1     215.057 205.577 158.318  1.00  0.00     0.051 A 
ATOM     15  C   UNL     1     214.168 204.695 158.940  1.00  0.00     0.157 A 
ATOM     16  C   UNL     1     212.700 204.835 157.009  1.00  0.00     0.062 A 
ATOM     17  C   UNL     1     212.985 204.318 158.281  1.00  0.00     0.158 A 
BRANCH  15  18
ATOM     18  O   UNL     1     214.478 204.201 160.207  1.00  0.00    -0.504 OA
ATOM     19  H   UNL     1     213.773 203.807 160.818  1.00  0.00     0.293 HD
ENDBRANCH  15  18
BRANCH  17  20
ATOM     20  O   UNL     1     212.102 203.427 158.889  1.00  0.00    -0.504 OA
ATOM     21  H   UNL     1     212.432 202.667 159.472  1.00  0.00     0.293 HD
ENDBRANCH  17  20
ENDBRANCH   1  12
BRANCH   2  22
ATOM     22  O   UNL     1     212.666 204.095 154.189  1.00  0.00    -0.502 OA
ATOM     23  H   UNL     1     213.244 203.373 153.776  1.00  0.00     0.293 HD
ENDBRANCH   2  22
BRANCH   6  24
ATOM     24  O   UNL     1     212.526 207.458 150.061  1.00  0.00    -0.507 OA
ATOM     25  H   UNL     1     212.839 207.796 149.163  1.00  0.00     0.293 HD
ENDBRANCH   6  24
BRANCH   8  26
ATOM     26  O   UNL     1     213.318 211.611 152.301  1.00  0.00    -0.508 OA
ATOM     27  H   UNL     1     214.225 212.062 152.282  1.00  0.00     0.293 HD
ENDBRANCH   8  26
TORSDOF 6
ENDMDL
MODEL 5
REMARK VINA RESULT:    -5.675      1.771      6.868
REMARK INTER + INTRA:          -6.973
REMARK INTER:                  -6.705
REMARK INTRA:                  -0.268
REMARK UNBOUND:                -0.137
REMARK SMILES O=c1c(O)c(-c2ccc(O)c(O)c2)oc2cc(O)cc(O)c12
REMARK SMILES IDX 5 1 3 2 2 3 1 4 22 5 20 6 19 7 17 8 16 9 15 10 14 11 6 12
REMARK SMILES IDX 7 13 8 14 9 15 13 16 11 17 10 18 12 20 4 22 21 24 18 26
REMARK H PARENT 10 19 12 21 4 23 21 25 18 27
REMARK Flexibility Score: inf
ROOT
ATOM      1  C   UNL     1     213.340 205.681 154.076  1.00  0.00     0.180 A 
ATOM      2  C   UNL     1     212.840 205.320 152.813  1.00  0.00     0.208 A 
ATOM      3  C   UNL     1     212.624 206.322 151.854  1.00  0.00     0.238 A 
ATOM      4  O   UNL     1     212.124 205.999 150.745  1.00  0.00    -0.285 OA
ATOM      5  C   UNL     1     212.926 207.670 152.163  1.00  0.00     0.111 A 
ATOM      6  C   UNL     1     212.784 208.762 151.254  1.00  0.00     0.134 A 
ATOM      7  C   UNL     1     212.989 210.069 151.710  1.00  0.00     0.093 A 
ATOM      8  C   UNL     1     213.393 210.322 153.020  1.00  0.00     0.123 A 
ATOM      9  C   UNL     1     213.593 209.257 153.901  1.00  0.00     0.094 A 
ATOM     10  C   UNL     1     213.361 207.944 153.486  1.00  0.00     0.146 A 
ATOM     11  O   UNL     1     213.552 206.960 154.358  1.00  0.00    -0.452 OA
ENDROOT
BRANCH   1  12
ATOM     12  C   UNL     1     213.618 204.677 155.130  1.00  0.00     0.025 A 
ATOM     13  C   UNL     1     214.751 203.856 155.021  1.00  0.00     0.016 A 
ATOM     14  C   UNL     1     215.021 202.889 155.992  1.00  0.00     0.051 A 
ATOM     15  C   UNL     1     214.157 202.717 157.077  1.00  0.00     0.157 A 
ATOM     16  C   UNL     1     212.738 204.489 156.211  1.00  0.00     0.062 A 
ATOM     17  C   UNL     1     213.007 203.517 157.186  1.00  0.00     0.158 A 
BRANCH  15  18
ATOM     18  O   UNL     1     214.453 201.745 158.032  1.00  0.00    -0.504 OA
ATOM     19  H   UNL     1     214.716 200.801 157.777  1.00  0.00     0.293 HD
ENDBRANCH  15  18
BRANCH  17  20
ATOM     20  O   UNL     1     212.133 203.341 158.258  1.00  0.00    -0.504 OA
ATOM     21  H   UNL     1     212.446 202.949 159.138  1.00  0.00     0.293 HD
ENDBRANCH  17  20
ENDBRANCH   1  12
BRANCH   2  22
ATOM     22  O   UNL     1     212.528 203.985 152.536  1.00  0.00    -0.502 OA
ATOM     23  H   UNL     1     212.445 203.284 153.262  1.00  0.00     0.293 HD
ENDBRANCH   2  22
BRANCH   6  24
ATOM     24  O   UNL     1     212.474 208.614 149.900  1.00  0.00    -0.507 OA
ATOM     25  H   UNL     1     212.964 209.069 149.144  1.00  0.00     0.293 HD
ENDBRANCH   6  24
BRANCH   8  26
ATOM     26  O   UNL     1     213.602 211.635 153.434  1.00  0.00    -0.508 OA
ATOM     27  H   UNL     1     213.131 212.413 152.987  1.00  0.00     0.293 HD
ENDBRANCH   8  26
TORSDOF 6
ENDMDL
MODEL 6
REMARK VINA RESULT:    -5.381      2.058      7.416
REMARK INTER + INTRA:          -6.619
REMARK INTER:                  -6.350
REMARK INTRA:                  -0.269
REMARK UNBOUND:                -0.137
REMARK SMILES O=c1c(O)c(-c2ccc(O)c(O)c2)oc2cc(O)cc(O)c12
REMARK SMILES IDX 5 1 3 2 2 3 1 4 22 5 20 6 19 7 17 8 16 9 15 10 14 11 6 12
REMARK SMILES IDX 7 13 8 14 9 15 13 16 11 17 10 18 12 20 4 22 21 24 18 26
REMARK H PARENT 10 19 12 21 4 23 21 25 18 27
REMARK Flexibility Score: inf
ROOT
ATOM      1  C   UNL     1     213.444 205.474 155.613  1.00  0.00     0.180 A 
ATOM      2  C   UNL     1     213.588 206.814 156.010  1.00  0.00     0.208 A 
ATOM      3  C   UNL     1     213.305 207.832 155.086  1.00  0.00     0.238 A 
ATOM      4  O   UNL     1     213.488 209.029 155.431  1.00  0.00    -0.285 OA
ATOM      5  C   UNL     1     212.867 207.499 153.782  1.00  0.00     0.111 A 
ATOM      6  C   UNL     1     212.513 208.449 152.777  1.00  0.00     0.134 A 
ATOM      7  C   UNL     1     212.219 208.007 151.483  1.00  0.00     0.093 A 
ATOM      8  C   UNL     1     212.201 206.648 151.171  1.00  0.00     0.123 A 
ATOM      9  C   UNL     1     212.487 205.706 152.161  1.00  0.00     0.094 A 
ATOM     10  C   UNL     1     212.820 206.119 153.454  1.00  0.00     0.146 A 
ATOM     11  O   UNL     1     213.095 205.192 154.364  1.00  0.00    -0.452 OA
ENDROOT
BRANCH   1  12
ATOM     12  C   UNL     1     213.699 204.346 156.539  1.00  0.00     0.025 A 
ATOM     13  C   UNL     1     214.831 203.538 156.348  1.00  0.00     0.016 A 
ATOM     14  C   UNL     1     215.081 202.457 157.196  1.00  0.00     0.051 A 
ATOM     15  C   UNL     1     214.198 202.156 158.237  1.00  0.00     0.157 A 
ATOM     16  C   UNL     1     212.801 204.030 157.573  1.00  0.00     0.062 A 
ATOM     17  C   UNL     1     213.049 202.944 158.425  1.00  0.00     0.158 A 
BRANCH  15  18
ATOM     18  O   UNL     1     214.473 201.072 159.069  1.00  0.00    -0.504 OA
ATOM     19  H   UNL     1     215.172 201.119 159.801  1.00  0.00     0.293 HD
ENDBRANCH  15  18
BRANCH  17  20
ATOM     20  O   UNL     1     212.156 202.641 159.452  1.00  0.00    -0.504 OA
ATOM     21  H   UNL     1     211.675 203.368 159.968  1.00  0.00     0.293 HD
ENDBRANCH  17  20
ENDBRANCH   1  12
BRANCH   2  22
ATOM     22  O   UNL     1     214.042 207.121 157.297  1.00  0.00    -0.502 OA
ATOM     23  H   UNL     1     214.872 206.700 157.695  1.00  0.00     0.293 HD
ENDBRANCH   2  22
BRANCH   6  24
ATOM     24  O   UNL     1     212.411 209.824 153.006  1.00  0.00    -0.507 OA
ATOM     25  H   UNL     1     212.905 210.326 153.729  1.00  0.00     0.293 HD
ENDBRANCH   6  24
BRANCH   8  26
ATOM     26  O   UNL     1     211.889 206.244 149.875  1.00  0.00    -0.508 OA
ATOM     27  H   UNL     1     210.955 206.351 149.497  1.00  0.00     0.293 HD
ENDBRANCH   8  26
TORSDOF 6
ENDMDL
MODEL 7
REMARK VINA RESULT:    -5.349      4.825     10.403
REMARK INTER + INTRA:          -6.580
REMARK INTER:                  -6.263
REMARK INTRA:                  -0.318
REMARK UNBOUND:                -0.137
REMARK SMILES O=c1c(O)c(-c2ccc(O)c(O)c2)oc2cc(O)cc(O)c12
REMARK SMILES IDX 5 1 3 2 2 3 1 4 22 5 20 6 19 7 17 8 16 9 15 10 14 11 6 12
REMARK SMILES IDX 7 13 8 14 9 15 13 16 11 17 10 18 12 20 4 22 21 24 18 26
REMARK H PARENT 10 19 12 21 4 23 21 25 18 27
REMARK Flexibility Score: inf
ROOT
ATOM      1  C   UNL     1     213.329 200.431 159.453  1.00  0.00     0.180 A 
ATOM      2  C   UNL     1     212.892 201.465 160.299  1.00  0.00     0.208 A 
ATOM      3  C   UNL     1     212.694 202.747 159.760  1.00  0.00     0.238 A 
ATOM      4  O   UNL     1     212.356 203.680 160.534  1.00  0.00    -0.285 OA
ATOM      5  C   UNL     1     212.921 202.975 158.382  1.00  0.00     0.111 A 
ATOM      6  C   UNL     1     212.713 204.224 157.722  1.00  0.00     0.134 A 
ATOM      7  C   UNL     1     213.094 204.368 156.383  1.00  0.00     0.093 A 
ATOM      8  C   UNL     1     213.612 203.294 155.661  1.00  0.00     0.123 A 
ATOM      9  C   UNL     1     213.764 202.051 156.280  1.00  0.00     0.094 A 
ATOM     10  C   UNL     1     213.427 201.886 157.625  1.00  0.00     0.146 A 
ATOM     11  O   UNL     1     213.596 200.691 158.180  1.00  0.00    -0.452 OA
ENDROOT
BRANCH   1  12
ATOM     12  C   UNL     1     213.536 199.048 159.942  1.00  0.00     0.025 A 
ATOM     13  C   UNL     1     214.837 198.601 160.222  1.00  0.00     0.016 A 
ATOM     14  C   UNL     1     215.058 197.295 160.664  1.00  0.00     0.051 A 
ATOM     15  C   UNL     1     213.986 196.410 160.819  1.00  0.00     0.157 A 
ATOM     16  C   UNL     1     212.461 198.151 160.078  1.00  0.00     0.062 A 
ATOM     17  C   UNL     1     212.681 196.838 160.520  1.00  0.00     0.158 A 
BRANCH  15  18
ATOM     18  O   UNL     1     214.236 195.113 161.264  1.00  0.00    -0.504 OA
ATOM     19  H   UNL     1     213.817 194.302 160.823  1.00  0.00     0.293 HD
ENDBRANCH  15  18
BRANCH  17  20
ATOM     20  O   UNL     1     211.609 195.958 160.658  1.00  0.00    -0.504 OA
ATOM     21  H   UNL     1     210.822 195.976 160.021  1.00  0.00     0.293 HD
ENDBRANCH  17  20
ENDBRANCH   1  12
BRANCH   2  22
ATOM     22  O   UNL     1     212.696 201.223 161.662  1.00  0.00    -0.502 OA
ATOM     23  H   UNL     1     212.001 201.719 162.207  1.00  0.00     0.293 HD
ENDBRANCH   2  22
BRANCH   6  24
ATOM     24  O   UNL     1     212.117 205.335 158.325  1.00  0.00    -0.507 OA
ATOM     25  H   UNL     1     212.329 206.295 158.099  1.00  0.00     0.293 HD
ENDBRANCH   6  24
BRANCH   8  26
ATOM     26  O   UNL     1     213.966 203.470 154.325  1.00  0.00    -0.508 OA
ATOM     27  H   UNL     1     213.459 204.108 153.723  1.00  0.00     0.293 HD
ENDBRANCH   8  26
TORSDOF 6
ENDMDL
MODEL 8
REMARK VINA RESULT:    -5.342      9.284     12.162
REMARK INTER + INTRA:          -6.572
REMARK INTER:                  -6.237
REMARK INTRA:                  -0.335
REMARK UNBOUND:                -0.137
REMARK SMILES O=c1c(O)c(-c2ccc(O)c(O)c2)oc2cc(O)cc(O)c12
REMARK SMILES IDX 5 1 3 2 2 3 1 4 22 5 20 6 19 7 17 8 16 9 15 10 14 11 6 12
REMARK SMILES IDX 7 13 8 14 9 15 13 16 11 17 10 18 12 20 4 22 21 24 18 26
REMARK H PARENT 10 19 12 21 4 23 21 25 18 27
REMARK Flexibility Score: inf
ROOT
ATOM      1  C   UNL     1     212.624 200.914 163.631  1.00  0.00     0.180 A 
ATOM      2  C   UNL     1     212.713 201.588 162.401  1.00  0.00     0.208 A 
ATOM      3  C   UNL     1     212.505 200.868 161.213  1.00  0.00     0.238 A 
ATOM      4  O   UNL     1     212.639 201.466 160.114  1.00  0.00    -0.285 OA
ATOM      5  C   UNL     1     212.196 199.488 161.271  1.00  0.00     0.111 A 
ATOM      6  C   UNL     1     211.927 198.669 160.133  1.00  0.00     0.134 A 
ATOM      7  C   UNL     1     211.762 197.290 160.299  1.00  0.00     0.093 A 
ATOM      8  C   UNL     1     211.790 196.708 161.566  1.00  0.00     0.123 A 
ATOM      9  C   UNL     1     211.993 197.508 162.692  1.00  0.00     0.094 A 
ATOM     10  C   UNL     1     212.198 198.883 162.554  1.00  0.00     0.146 A 
ATOM     11  O   UNL     1     212.398 199.607 163.649  1.00  0.00    -0.452 OA
ENDROOT
BRANCH   1  12
ATOM     12  C   UNL     1     212.806 201.611 164.925  1.00  0.00     0.025 A 
ATOM     13  C   UNL     1     214.074 201.632 165.527  1.00  0.00     0.016 A 
ATOM     14  C   UNL     1     214.264 202.264 166.758  1.00  0.00     0.051 A 
ATOM     15  C   UNL     1     213.189 202.872 167.413  1.00  0.00     0.157 A 
ATOM     16  C   UNL     1     211.721 202.205 165.595  1.00  0.00     0.062 A 
ATOM     17  C   UNL     1     211.910 202.839 166.832  1.00  0.00     0.158 A 
BRANCH  15  18
ATOM     18  O   UNL     1     213.408 203.498 168.640  1.00  0.00    -0.504 OA
ATOM     19  H   UNL     1     213.754 204.448 168.705  1.00  0.00     0.293 HD
ENDBRANCH  15  18
BRANCH  17  20
ATOM     20  O   UNL     1     210.831 203.431 167.487  1.00  0.00    -0.504 OA
ATOM     21  H   UNL     1     210.682 204.433 167.467  1.00  0.00     0.293 HD
ENDBRANCH  17  20
ENDBRANCH   1  12
BRANCH   2  22
ATOM     22  O   UNL     1     213.040 202.947 162.365  1.00  0.00    -0.502 OA
ATOM     23  H   UNL     1     213.047 203.527 163.196  1.00  0.00     0.293 HD
ENDBRANCH   2  22
BRANCH   6  24
ATOM     24  O   UNL     1     211.786 199.162 158.833  1.00  0.00    -0.507 OA
ATOM     25  H   UNL     1     212.551 199.350 158.202  1.00  0.00     0.293 HD
ENDBRANCH   6  24
BRANCH   8  26
ATOM     26  O   UNL     1     211.606 195.333 161.696  1.00  0.00    -0.508 OA
ATOM     27  H   UNL     1     211.025 194.943 162.428  1.00  0.00     0.293 HD
ENDBRANCH   8  26
TORSDOF 6
ENDMDL
MODEL 9
REMARK VINA RESULT:    -5.338     13.344     16.464
REMARK INTER + INTRA:          -6.566
REMARK INTER:                  -6.273
REMARK INTRA:                  -0.294
REMARK UNBOUND:                -0.137
REMARK SMILES O=c1c(O)c(-c2ccc(O)c(O)c2)oc2cc(O)cc(O)c12
REMARK SMILES IDX 5 1 3 2 2 3 1 4 22 5 20 6 19 7 17 8 16 9 15 10 14 11 6 12
REMARK SMILES IDX 7 13 8 14 9 15 13 16 11 17 10 18 12 20 4 22 21 24 18 26
REMARK H PARENT 10 19 12 21 4 23 21 25 18 27
REMARK Flexibility Score: inf
ROOT
ATOM      1  C   UNL     1     206.775 206.270 168.926  1.00  0.00     0.180 A 
ATOM      2  C   UNL     1     205.907 207.254 169.429  1.00  0.00     0.208 A 
ATOM      3  C   UNL     1     204.551 206.939 169.608  1.00  0.00     0.238 A 
ATOM      4  O   UNL     1     203.769 207.841 170.007  1.00  0.00    -0.285 OA
ATOM      5  C   UNL     1     204.082 205.640 169.297  1.00  0.00     0.111 A 
ATOM      6  C   UNL     1     202.737 205.199 169.478  1.00  0.00     0.134 A 
ATOM      7  C   UNL     1     202.357 203.934 169.014  1.00  0.00     0.093 A 
ATOM      8  C   UNL     1     203.287 203.069 168.437  1.00  0.00     0.123 A 
ATOM      9  C   UNL     1     204.619 203.467 168.310  1.00  0.00     0.094 A 
ATOM     10  C   UNL     1     205.020 204.737 168.730  1.00  0.00     0.146 A 
ATOM     11  O   UNL     1     206.293 205.082 168.582  1.00  0.00    -0.452 OA
ENDROOT
BRANCH   1  12
ATOM     12  C   UNL     1     208.223 206.519 168.734  1.00  0.00     0.025 A 
ATOM     13  C   UNL     1     209.085 206.472 169.841  1.00  0.00     0.016 A 
ATOM     14  C   UNL     1     210.450 206.724 169.687  1.00  0.00     0.051 A 
ATOM     15  C   UNL     1     210.973 207.042 168.430  1.00  0.00     0.157 A 
ATOM     16  C   UNL     1     208.746 206.860 167.474  1.00  0.00     0.062 A 
ATOM     17  C   UNL     1     210.116 207.115 167.317  1.00  0.00     0.158 A 
BRANCH  15  18
ATOM     18  O   UNL     1     212.339 207.287 168.305  1.00  0.00    -0.504 OA
ATOM     19  H   UNL     1     213.034 206.712 168.766  1.00  0.00     0.293 HD
ENDBRANCH  15  18
BRANCH  17  20
ATOM     20  O   UNL     1     210.628 207.446 166.064  1.00  0.00    -0.504 OA
ATOM     21  H   UNL     1     210.367 208.305 165.594  1.00  0.00     0.293 HD
ENDBRANCH  17  20
ENDBRANCH   1  12
BRANCH   2  22
ATOM     22  O   UNL     1     206.387 208.537 169.709  1.00  0.00    -0.502 OA
ATOM     23  H   UNL     1     207.322 208.703 170.061  1.00  0.00     0.293 HD
ENDBRANCH   2  22
BRANCH   6  24
ATOM     24  O   UNL     1     201.750 205.948 170.125  1.00  0.00    -0.507 OA
ATOM     25  H   UNL     1     201.669 206.953 170.080  1.00  0.00     0.293 HD
ENDBRANCH   6  24
BRANCH   8  26
ATOM     26  O   UNL     1     202.876 201.811 168.001  1.00  0.00    -0.508 OA
ATOM     27  H   UNL     1     203.497 201.203 167.479  1.00  0.00     0.293 HD
ENDBRANCH   8  26
TORSDOF 6
ENDMDL
